MODEL 1
REMARK VINA RESULT:     0.000      0.000      0.000
REMARK INTER + INTRA:           0.158
REMARK INTER:                   0.000
REMARK INTRA:                   0.158
REMARK UNBOUND:                 0.158
REMARK SMILES CC1=CCC(=C(C)C)C(=O)CC(C)=CCC1
REMARK SMILES IDX 12 1 14 2 13 3 15 4 16 5 2 6 1 7 3 8 11 10 9 11 10 12 5 13
REMARK SMILES IDX 6 14 7 15 8 16 4 17
REMARK H PARENT
REMARK Flexibility Score: 60.00
ROOT
ATOM      1  C   UNL     1     125.163 123.817 128.755  1.00  0.00    -0.070 C 
ATOM      2  C   UNL     1     125.082 122.505 128.408  1.00  0.00    -0.027 C 
ATOM      3  C   UNL     1     123.951 124.416 129.429  1.00  0.00     0.039 C 
ENDROOT
BRANCH   2   4
ATOM      4  C   UNL     1     126.179 121.639 127.835  1.00  0.00     0.032 C 
BRANCH   4   5
ATOM      5  C   UNL     1     126.392 121.791 126.319  1.00  0.00     0.034 C 
BRANCH   5   6
ATOM      6  C   UNL     1     127.806 122.137 125.887  1.00  0.00    -0.077 C 
ATOM      7  C   UNL     1     128.889 121.100 126.054  1.00  0.00     0.039 C 
ATOM      8  C   UNL     1     128.172 123.362 125.439  1.00  0.00    -0.023 CG0
ATOM      9  G   UNL     1     127.227 124.473 125.067  1.00  0.00     0.000 G0
ENDBRANCH   5   6
ENDBRANCH   4   5
ENDBRANCH   2   4
BRANCH   1  10
ATOM     10  C   UNL     1     126.314 124.758 128.414  1.00  0.00     0.111 C 
BRANCH  10  11
ATOM     11  C   UNL     1     126.157 125.547 127.145  1.00  0.00     0.163 C 
ATOM     12  O   UNL     1     125.058 126.110 126.890  1.00  0.00    -0.294 OA
BRANCH  11  13
ATOM     13  C   UNL     1     127.246 125.573 126.134  1.00  0.00    -0.002 C 
ATOM     14  C   UNL     1     128.172 126.571 126.160  1.00  0.00    -0.069 C 
ATOM     15  C   UNL     1     128.112 127.648 127.220  1.00  0.00     0.039 C 
ATOM     16  C   UNL     1     129.270 126.662 125.128  1.00  0.00     0.039 C 
BRANCH  13  17
ATOM     17  C   UNL     1     127.232 124.489 125.066  1.00  0.00     0.066 CG0
ATOM     18  G   UNL     1     128.169 123.374 125.451  1.00  0.00     0.000 G0
ENDBRANCH  13  17
ENDBRANCH  11  13
ENDBRANCH  10  11
ENDBRANCH   1  10
TORSDOF 0
ENDMDL
MODEL 2
REMARK VINA RESULT:     0.008      4.974      7.238
REMARK INTER + INTRA:           0.169
REMARK INTER:                   0.000
REMARK INTRA:                   0.169
REMARK UNBOUND:                 0.158
REMARK SMILES CC1=CCC(=C(C)C)C(=O)CC(C)=CCC1
REMARK SMILES IDX 12 1 14 2 13 3 15 4 16 5 2 6 1 7 3 8 11 10 9 11 10 12 5 13
REMARK SMILES IDX 6 14 7 15 8 16 4 17
REMARK H PARENT
REMARK Flexibility Score: 60.00
ROOT
ATOM      1  C   UNL     1     129.476 129.784 131.576  1.00  0.00    -0.070 C 
ATOM      2  C   UNL     1     128.984 129.726 132.842  1.00  0.00    -0.027 C 
ATOM      3  C   UNL     1     130.567 130.797 131.319  1.00  0.00     0.039 C 
ENDROOT
BRANCH   2   4
ATOM      4  C   UNL     1     127.986 128.736 133.392  1.00  0.00     0.032 C 
BRANCH   4   5
ATOM      5  C   UNL     1     126.528 128.989 132.969  1.00  0.00     0.034 C 
BRANCH   5   6
ATOM      6  C   UNL     1     125.816 127.811 132.328  1.00  0.00    -0.077 C 
ATOM      7  C   UNL     1     125.596 126.564 133.149  1.00  0.00     0.039 C 
ATOM      8  C   UNL     1     125.444 127.780 131.026  1.00  0.00    -0.023 CG0
ATOM      9  G   UNL     1     125.444 128.961 130.091  1.00  0.00     0.000 G0
ENDBRANCH   5   6
ENDBRANCH   4   5
ENDBRANCH   2   4
BRANCH   1  10
ATOM     10  C   UNL     1     128.941 129.007 130.377  1.00  0.00     0.111 C 
BRANCH  10  11
ATOM     11  C   UNL     1     127.854 129.687 129.593  1.00  0.00     0.163 C 
ATOM     12  O   UNL     1     127.919 130.927 129.379  1.00  0.00    -0.294 OA
BRANCH  11  13
ATOM     13  C   UNL     1     126.647 128.931 129.168  1.00  0.00    -0.002 C 
ATOM     14  C   UNL     1     126.639 128.283 127.971  1.00  0.00    -0.069 C 
ATOM     15  C   UNL     1     127.855 128.312 127.072  1.00  0.00     0.039 C 
ATOM     16  C   UNL     1     125.421 127.539 127.479  1.00  0.00     0.039 C 
BRANCH  13  17
ATOM     17  C   UNL     1     125.438 128.972 130.092  1.00  0.00     0.066 CG0
ATOM     18  G   UNL     1     125.455 127.783 131.016  1.00  0.00     0.000 G0
ENDBRANCH  13  17
ENDBRANCH  11  13
ENDBRANCH  10  11
ENDBRANCH   1  10
TORSDOF 0
ENDMDL
MODEL 3
REMARK VINA RESULT:     0.013      7.106      8.815
REMARK INTER + INTRA:           0.176
REMARK INTER:                  -0.012
REMARK INTRA:                   0.188
REMARK UNBOUND:                 0.158
REMARK SMILES CC1=CCC(=C(C)C)C(=O)CC(C)=CCC1
REMARK SMILES IDX 12 1 14 2 13 3 15 4 16 5 2 6 1 7 3 8 11 10 9 11 10 12 5 13
REMARK SMILES IDX 6 14 7 15 8 16 4 17
REMARK H PARENT
REMARK Flexibility Score: 60.00
ROOT
ATOM      1  C   UNL     1     134.708 121.643 128.525  1.00  0.00    -0.070 C 
ATOM      2  C   UNL     1     133.355 121.701 128.400  1.00  0.00    -0.027 C 
ATOM      3  C   UNL     1     135.274 121.930 129.897  1.00  0.00     0.039 C 
ENDROOT
BRANCH   2   4
ATOM      4  C   UNL     1     132.533 121.346 127.184  1.00  0.00     0.032 C 
BRANCH   4   5
ATOM      5  C   UNL     1     132.516 122.422 126.083  1.00  0.00     0.034 C 
BRANCH   5   6
ATOM      6  C   UNL     1     132.960 121.959 124.707  1.00  0.00    -0.077 C 
ATOM      7  C   UNL     1     132.113 120.949 123.973  1.00  0.00     0.039 C 
ATOM      8  C   UNL     1     134.128 122.335 124.133  1.00  0.00    -0.023 CG0
ATOM      9  G   UNL     1     135.032 123.433 124.632  1.00  0.00     0.000 G0
ENDBRANCH   5   6
ENDBRANCH   4   5
ENDBRANCH   2   4
BRANCH   1  10
ATOM     10  C   UNL     1     135.700 121.437 127.385  1.00  0.00     0.111 C 
BRANCH  10  11
ATOM     11  C   UNL     1     136.250 122.691 126.764  1.00  0.00     0.163 C 
ATOM     12  O   UNL     1     136.602 123.651 127.500  1.00  0.00    -0.294 OA
BRANCH  11  13
ATOM     13  C   UNL     1     136.273 122.852 125.287  1.00  0.00    -0.002 C 
ATOM     14  C   UNL     1     137.391 122.519 124.586  1.00  0.00    -0.069 C 
ATOM     15  C   UNL     1     138.609 121.971 125.295  1.00  0.00     0.039 C 
ATOM     16  C   UNL     1     137.475 122.706 123.090  1.00  0.00     0.039 C 
BRANCH  13  17
ATOM     17  C   UNL     1     135.035 123.448 124.631  1.00  0.00     0.066 CG0
ATOM     18  G   UNL     1     134.130 122.347 124.142  1.00  0.00     0.000 G0
ENDBRANCH  13  17
ENDBRANCH  11  13
ENDBRANCH  10  11
ENDBRANCH   1  10
TORSDOF 0
ENDMDL
MODEL 4
REMARK VINA RESULT:     0.019      3.416      5.782
REMARK INTER + INTRA:           0.185
REMARK INTER:                   0.000
REMARK INTRA:                   0.185
REMARK UNBOUND:                 0.158
REMARK SMILES CC1=CCC(=C(C)C)C(=O)CC(C)=CCC1
REMARK SMILES IDX 12 1 14 2 13 3 15 4 16 5 2 6 1 7 3 8 11 10 9 11 10 12 5 13
REMARK SMILES IDX 6 14 7 15 8 16 4 17
REMARK H PARENT
REMARK Flexibility Score: 60.00
ROOT
ATOM      1  C   UNL     1     125.788 123.273 126.701  1.00  0.00    -0.070 C 
ATOM      2  C   UNL     1     125.679 122.164 125.922  1.00  0.00    -0.027 C 
ATOM      3  C   UNL     1     127.177 123.842 126.879  1.00  0.00     0.039 C 
ENDROOT
BRANCH   2   4
ATOM      4  C   UNL     1     124.409 121.470 125.489  1.00  0.00     0.032 C 
BRANCH   4   5
ATOM      5  C   UNL     1     123.814 120.509 126.532  1.00  0.00     0.034 C 
BRANCH   5   6
ATOM      6  C   UNL     1     122.344 120.716 126.853  1.00  0.00    -0.077 C 
ATOM      7  C   UNL     1     121.319 120.406 125.790  1.00  0.00     0.039 C 
ATOM      8  C   UNL     1     121.902 121.254 128.015  1.00  0.00    -0.023 CG0
ATOM      9  G   UNL     1     122.743 121.492 129.242  1.00  0.00     0.000 G0
ENDBRANCH   5   6
ENDBRANCH   4   5
ENDBRANCH   2   4
BRANCH   1  10
ATOM     10  C   UNL     1     124.658 123.914 127.500  1.00  0.00     0.111 C 
BRANCH  10  11
ATOM     11  C   UNL     1     124.456 123.375 128.889  1.00  0.00     0.163 C 
ATOM     12  O   UNL     1     125.453 123.170 129.632  1.00  0.00    -0.294 OA
BRANCH  11  13
ATOM     13  C   UNL     1     123.102 122.975 129.351  1.00  0.00    -0.002 C 
ATOM     14  C   UNL     1     122.266 123.905 129.890  1.00  0.00    -0.069 C 
ATOM     15  C   UNL     1     122.697 125.349 130.010  1.00  0.00     0.039 C 
ATOM     16  C   UNL     1     120.898 123.535 130.412  1.00  0.00     0.039 C 
BRANCH  13  17
ATOM     17  C   UNL     1     122.736 121.500 129.246  1.00  0.00     0.066 CG0
ATOM     18  G   UNL     1     121.901 121.263 128.016  1.00  0.00     0.000 G0
ENDBRANCH  13  17
ENDBRANCH  11  13
ENDBRANCH  10  11
ENDBRANCH   1  10
TORSDOF 0
ENDMDL
MODEL 5
REMARK VINA RESULT:     0.020     12.953     14.820
REMARK INTER + INTRA:           0.186
REMARK INTER:                   0.000
REMARK INTRA:                   0.186
REMARK UNBOUND:                 0.158
REMARK SMILES CC1=CCC(=C(C)C)C(=O)CC(C)=CCC1
REMARK SMILES IDX 12 1 14 2 13 3 15 4 16 5 2 6 1 7 3 8 11 10 9 11 10 12 5 13
REMARK SMILES IDX 6 14 7 15 8 16 4 17
REMARK H PARENT
REMARK Flexibility Score: 60.00
ROOT
ATOM      1  C   UNL     1     121.824 132.933 138.137  1.00  0.00    -0.070 C 
ATOM      2  C   UNL     1     121.994 131.935 137.231  1.00  0.00    -0.027 C 
ATOM      3  C   UNL     1     120.399 133.321 138.458  1.00  0.00     0.039 C 
ENDROOT
BRANCH   2   4
ATOM      4  C   UNL     1     123.293 131.281 136.823  1.00  0.00     0.032 C 
BRANCH   4   5
ATOM      5  C   UNL     1     124.158 132.113 135.861  1.00  0.00     0.034 C 
BRANCH   5   6
ATOM      6  C   UNL     1     125.592 132.348 136.304  1.00  0.00    -0.077 C 
ATOM      7  C   UNL     1     126.509 131.159 136.449  1.00  0.00     0.039 C 
ATOM      8  C   UNL     1     126.073 133.562 136.665  1.00  0.00    -0.023 CG0
ATOM      9  G   UNL     1     125.370 134.877 136.456  1.00  0.00     0.000 G0
ENDBRANCH   5   6
ENDBRANCH   4   5
ENDBRANCH   2   4
BRANCH   1  10
ATOM     10  C   UNL     1     122.937 133.771 138.759  1.00  0.00     0.111 C 
BRANCH  10  11
ATOM     11  C   UNL     1     123.314 135.016 138.007  1.00  0.00     0.163 C 
ATOM     12  O   UNL     1     122.415 135.730 137.487  1.00  0.00    -0.294 OA
BRANCH  11  13
ATOM     13  C   UNL     1     124.743 135.349 137.771  1.00  0.00    -0.002 C 
ATOM     14  C   UNL     1     125.425 136.097 138.682  1.00  0.00    -0.069 C 
ATOM     15  C   UNL     1     124.745 136.580 139.943  1.00  0.00     0.039 C 
ATOM     16  C   UNL     1     126.864 136.496 138.464  1.00  0.00     0.039 C 
BRANCH  13  17
ATOM     17  C   UNL     1     125.364 134.873 136.465  1.00  0.00     0.066 CG0
ATOM     18  G   UNL     1     126.078 133.564 136.680  1.00  0.00     0.000 G0
ENDBRANCH  13  17
ENDBRANCH  11  13
ENDBRANCH  10  11
ENDBRANCH   1  10
TORSDOF 0
ENDMDL
MODEL 6
REMARK VINA RESULT:     0.020     12.132     14.032
REMARK INTER + INTRA:           0.186
REMARK INTER:                   0.000
REMARK INTRA:                   0.186
REMARK UNBOUND:                 0.158
REMARK SMILES CC1=CCC(=C(C)C)C(=O)CC(C)=CCC1
REMARK SMILES IDX 12 1 14 2 13 3 15 4 16 5 2 6 1 7 3 8 11 10 9 11 10 12 5 13
REMARK SMILES IDX 6 14 7 15 8 16 4 17
REMARK H PARENT
REMARK Flexibility Score: 60.00
ROOT
ATOM      1  C   UNL     1     122.026 130.793 137.053  1.00  0.00    -0.070 C 
ATOM      2  C   UNL     1     122.924 130.170 136.245  1.00  0.00    -0.027 C 
ATOM      3  C   UNL     1     120.681 130.123 137.215  1.00  0.00     0.039 C 
ENDROOT
BRANCH   2   4
ATOM      4  C   UNL     1     124.364 130.558 136.006  1.00  0.00     0.032 C 
BRANCH   4   5
ATOM      5  C   UNL     1     124.559 131.759 135.065  1.00  0.00     0.034 C 
BRANCH   5   6
ATOM      6  C   UNL     1     125.405 132.894 135.615  1.00  0.00    -0.077 C 
ATOM      7  C   UNL     1     126.856 132.628 135.933  1.00  0.00     0.039 C 
ATOM      8  C   UNL     1     124.908 134.115 135.924  1.00  0.00    -0.023 CG0
ATOM      9  G   UNL     1     123.538 134.619 135.552  1.00  0.00     0.000 G0
ENDBRANCH   5   6
ENDBRANCH   4   5
ENDBRANCH   2   4
BRANCH   1  10
ATOM     10  C   UNL     1     122.214 132.159 137.706  1.00  0.00     0.111 C 
BRANCH  10  11
ATOM     11  C   UNL     1     121.750 133.338 136.897  1.00  0.00     0.163 C 
ATOM     12  O   UNL     1     120.674 133.265 136.246  1.00  0.00    -0.294 OA
BRANCH  11  13
ATOM     13  C   UNL     1     122.607 134.544 136.766  1.00  0.00    -0.002 C 
ATOM     14  C   UNL     1     122.503 135.553 137.674  1.00  0.00    -0.069 C 
ATOM     15  C   UNL     1     121.532 135.451 138.829  1.00  0.00     0.039 C 
ATOM     16  C   UNL     1     123.322 136.816 137.556  1.00  0.00     0.039 C 
BRANCH  13  17
ATOM     17  C   UNL     1     123.536 134.612 135.561  1.00  0.00     0.066 CG0
ATOM     18  G   UNL     1     124.908 134.121 135.939  1.00  0.00     0.000 G0
ENDBRANCH  13  17
ENDBRANCH  11  13
ENDBRANCH  10  11
ENDBRANCH   1  10
TORSDOF 0
ENDMDL
MODEL 7
REMARK VINA RESULT:     0.023      6.307      8.218
REMARK INTER + INTRA:           0.190
REMARK INTER:                   0.000
REMARK INTRA:                   0.190
REMARK UNBOUND:                 0.158
REMARK SMILES CC1=CCC(=C(C)C)C(=O)CC(C)=CCC1
REMARK SMILES IDX 12 1 14 2 13 3 15 4 16 5 2 6 1 7 3 8 11 10 9 11 10 12 5 13
REMARK SMILES IDX 6 14 7 15 8 16 4 17
REMARK H PARENT
REMARK Flexibility Score: 60.00
ROOT
ATOM      1  C   UNL     1     128.174 126.000 133.632  1.00  0.00    -0.070 C 
ATOM      2  C   UNL     1     127.592 126.230 134.839  1.00  0.00    -0.027 C 
ATOM      3  C   UNL     1     128.376 127.201 132.737  1.00  0.00     0.039 C 
ENDROOT
BRANCH   2   4
ATOM      4  C   UNL     1     127.384 125.238 135.958  1.00  0.00     0.032 C 
BRANCH   4   5
ATOM      5  C   UNL     1     126.269 124.208 135.706  1.00  0.00     0.034 C 
BRANCH   5   6
ATOM      6  C   UNL     1     126.664 122.754 135.890  1.00  0.00    -0.077 C 
ATOM      7  C   UNL     1     127.158 122.303 137.243  1.00  0.00     0.039 C 
ATOM      8  C   UNL     1     126.686 121.852 134.880  1.00  0.00    -0.023 CG0
ATOM      9  G   UNL     1     126.100 122.064 133.509  1.00  0.00     0.000 G0
ENDBRANCH   5   6
ENDBRANCH   4   5
ENDBRANCH   2   4
BRANCH   1  10
ATOM     10  C   UNL     1     128.525 124.631 133.059  1.00  0.00     0.111 C 
BRANCH  10  11
ATOM     11  C   UNL     1     127.417 123.926 132.328  1.00  0.00     0.163 C 
ATOM     12  O   UNL     1     126.610 124.591 131.624  1.00  0.00    -0.294 OA
BRANCH  11  13
ATOM     13  C   UNL     1     127.195 122.470 132.520  1.00  0.00    -0.002 C 
ATOM     14  C   UNL     1     127.919 121.572 131.797  1.00  0.00    -0.069 C 
ATOM     15  C   UNL     1     128.961 122.042 130.807  1.00  0.00     0.039 C 
ATOM     16  C   UNL     1     127.697 120.084 131.928  1.00  0.00     0.039 C 
BRANCH  13  17
ATOM     17  C   UNL     1     126.104 122.054 133.498  1.00  0.00     0.066 CG0
ATOM     18  G   UNL     1     126.692 121.849 134.869  1.00  0.00     0.000 G0
ENDBRANCH  13  17
ENDBRANCH  11  13
ENDBRANCH  10  11
ENDBRANCH   1  10
TORSDOF 0
ENDMDL
MODEL 8
REMARK VINA RESULT:     0.023      8.523     10.604
REMARK INTER + INTRA:           0.190
REMARK INTER:                   0.000
REMARK INTRA:                   0.190
REMARK UNBOUND:                 0.158
REMARK SMILES CC1=CCC(=C(C)C)C(=O)CC(C)=CCC1
REMARK SMILES IDX 12 1 14 2 13 3 15 4 16 5 2 6 1 7 3 8 11 10 9 11 10 12 5 13
REMARK SMILES IDX 6 14 7 15 8 16 4 17
REMARK H PARENT
REMARK Flexibility Score: 60.00
ROOT
ATOM      1  C   UNL     1     125.941 127.636 136.634  1.00  0.00    -0.070 C 
ATOM      2  C   UNL     1     125.860 127.584 137.990  1.00  0.00    -0.027 C 
ATOM      3  C   UNL     1     125.386 128.873 135.968  1.00  0.00     0.039 C 
ENDROOT
BRANCH   2   4
ATOM      4  C   UNL     1     126.437 126.529 138.902  1.00  0.00     0.032 C 
BRANCH   4   5
ATOM      5  C   UNL     1     125.688 125.185 138.887  1.00  0.00     0.034 C 
BRANCH   5   6
ATOM      6  C   UNL     1     126.546 123.957 138.639  1.00  0.00    -0.077 C 
ATOM      7  C   UNL     1     127.658 123.643 139.610  1.00  0.00     0.039 C 
ATOM      8  C   UNL     1     126.429 123.172 137.542  1.00  0.00    -0.023 CG0
ATOM      9  G   UNL     1     125.303 123.231 136.543  1.00  0.00     0.000 G0
ENDBRANCH   5   6
ENDBRANCH   4   5
ENDBRANCH   2   4
BRANCH   1  10
ATOM     10  C   UNL     1     126.428 126.509 135.728  1.00  0.00     0.111 C 
BRANCH  10  11
ATOM     11  C   UNL     1     125.391 125.495 135.333  1.00  0.00     0.163 C 
ATOM     12  O   UNL     1     124.208 125.866 135.109  1.00  0.00    -0.294 OA
BRANCH  11  13
ATOM     13  C   UNL     1     125.721 124.047 135.318  1.00  0.00    -0.002 C 
ATOM     14  C   UNL     1     126.324 123.499 134.227  1.00  0.00    -0.069 C 
ATOM     15  C   UNL     1     126.677 124.357 133.032  1.00  0.00     0.039 C 
ATOM     16  C   UNL     1     126.639 122.025 134.150  1.00  0.00     0.039 C 
BRANCH  13  17
ATOM     17  C   UNL     1     125.305 123.224 136.530  1.00  0.00     0.066 CG0
ATOM     18  G   UNL     1     126.431 123.172 137.529  1.00  0.00     0.000 G0
ENDBRANCH  13  17
ENDBRANCH  11  13
ENDBRANCH  10  11
ENDBRANCH   1  10
TORSDOF 0
ENDMDL
MODEL 9
REMARK VINA RESULT:     0.036     12.721     14.582
REMARK INTER + INTRA:           0.209
REMARK INTER:                   0.000
REMARK INTRA:                   0.209
REMARK UNBOUND:                 0.158
REMARK SMILES CC1=CCC(=C(C)C)C(=O)CC(C)=CCC1
REMARK SMILES IDX 12 1 14 2 13 3 15 4 16 5 2 6 1 7 3 8 11 10 9 11 10 12 5 13
REMARK SMILES IDX 6 14 7 15 8 16 4 17
REMARK H PARENT
REMARK Flexibility Score: 60.00
ROOT
ATOM      1  C   UNL     1     135.031 132.063 133.453  1.00  0.00    -0.070 C 
ATOM      2  C   UNL     1     134.417 132.066 132.241  1.00  0.00    -0.027 C 
ATOM      3  C   UNL     1     135.763 130.798 133.839  1.00  0.00     0.039 C 
ENDROOT
BRANCH   2   4
ATOM      4  C   UNL     1     133.725 133.227 131.568  1.00  0.00     0.032 C 
BRANCH   4   5
ATOM      5  C   UNL     1     132.360 133.600 132.173  1.00  0.00     0.034 C 
BRANCH   5   6
ATOM      6  C   UNL     1     132.231 135.030 132.669  1.00  0.00    -0.077 C 
ATOM      7  C   UNL     1     132.372 136.157 131.676  1.00  0.00     0.039 C 
ATOM      8  C   UNL     1     132.085 135.357 133.975  1.00  0.00    -0.023 CG0
ATOM      9  G   UNL     1     131.781 134.389 135.089  1.00  0.00     0.000 G0
ENDBRANCH   5   6
ENDBRANCH   4   5
ENDBRANCH   2   4
BRANCH   1  10
ATOM     10  C   UNL     1     134.943 133.170 134.499  1.00  0.00     0.111 C 
BRANCH  10  11
ATOM     11  C   UNL     1     133.877 132.996 135.545  1.00  0.00     0.163 C 
ATOM     12  O   UNL     1     133.648 131.851 136.020  1.00  0.00    -0.294 OA
BRANCH  11  13
ATOM     13  C   UNL     1     133.014 134.139 135.938  1.00  0.00    -0.002 C 
ATOM     14  C   UNL     1     133.323 134.876 137.040  1.00  0.00    -0.069 C 
ATOM     15  C   UNL     1     134.550 134.550 137.862  1.00  0.00     0.039 C 
ATOM     16  C   UNL     1     132.452 136.019 137.501  1.00  0.00     0.039 C 
BRANCH  13  17
ATOM     17  C   UNL     1     131.769 134.394 135.099  1.00  0.00     0.066 CG0
ATOM     18  G   UNL     1     132.086 135.357 133.985  1.00  0.00     0.000 G0
ENDBRANCH  13  17
ENDBRANCH  11  13
ENDBRANCH  10  11
ENDBRANCH   1  10
TORSDOF 0
ENDMDL
