MODEL 1
REMARK VINA RESULT:    -5.894      0.000      0.000
REMARK INTER + INTRA:         -10.161
REMARK INTER:                  -9.167
REMARK INTRA:                  -0.994
REMARK UNBOUND:                -0.994
REMARK SMILES C[C@@]12C[C@@]3(O)O[C@@H](O1)[C@]1(COC(=O)c4ccccc4)[C@H]3C[C@@]12O[C@@H]1O[C@@H](CO)[C@@H](O)[C@H](O)[C@@H]1O
REMARK SMILES IDX 1 1 2 2 3 3 4 4 20 5 21 6 22 7 9 8 7 9 8 10 6 11 23 12 24 13
REMARK SMILES IDX 33 14 25 15 31 16 26 17 29 18 34 19 32 21 27 23 28 24 30 26
REMARK SMILES IDX 5 28 10 30 11 31 12 32 13 33 14 34 15 35 19 36 16 37 18 38
REMARK SMILES IDX 17 39
REMARK H PARENT 34 20 32 22 28 25 30 27 5 29
REMARK Flexibility Score: inf
ROOT
ATOM      1  C   UNL     1      -3.215  87.883  -7.021  1.00  0.00     0.046 C 
ATOM      2  C   UNL     1      -4.481  88.460  -7.658  1.00  0.00     0.104 C 
ATOM      3  C   UNL     1      -5.396  89.160  -6.586  1.00  0.00     0.104 C 
ATOM      4  C   UNL     1      -6.647  89.625  -7.413  1.00  0.00     0.175 C 
ATOM      5  C   UNL     1      -7.197  88.451  -8.291  1.00  0.00     0.070 C 
ATOM      6  C   UNL     1      -6.710  87.076  -7.822  1.00  0.00     0.050 C 
ATOM      7  C   UNL     1      -5.355  87.431  -8.480  1.00  0.00     0.115 C 
ATOM      8  C   UNL     1      -6.101  88.448  -9.344  1.00  0.00     0.096 C 
ATOM      9  C   UNL     1      -5.373  89.773  -9.220  1.00  0.00     0.267 C 
ATOM     10  O   UNL     1      -4.143  89.473  -8.587  1.00  0.00    -0.342 OA
ATOM     11  O   UNL     1      -6.164  90.567  -8.347  1.00  0.00    -0.320 OA
ENDROOT
BRANCH   7  12
ATOM     12  O   UNL     1      -4.657  86.463  -9.251  1.00  0.00    -0.339 OA
BRANCH  12  13
ATOM     13  C   UNL     1      -4.580  85.186  -8.625  1.00  0.00     0.282 C 
ATOM     14  C   UNL     1      -5.310  84.162  -9.530  1.00  0.00     0.202 C 
ATOM     15  O   UNL     1      -3.235  84.781  -8.428  1.00  0.00    -0.341 OA
ATOM     16  C   UNL     1      -4.807  82.709  -9.298  1.00  0.00     0.179 C 
ATOM     17  C   UNL     1      -3.125  83.601  -7.643  1.00  0.00     0.178 C 
ATOM     18  C   UNL     1      -4.248  82.548  -7.881  1.00  0.00     0.177 C 
BRANCH  14  19
ATOM     19  O   UNL     1      -5.119  84.497 -10.881  1.00  0.00    -0.385 OA
ATOM     20  H   UNL     1      -5.407  83.732 -11.439  1.00  0.00     0.211 HD
ENDBRANCH  14  19
BRANCH  16  21
ATOM     21  O   UNL     1      -3.788  82.377 -10.214  1.00  0.00    -0.387 OA
ATOM     22  H   UNL     1      -3.165  83.146 -10.254  1.00  0.00     0.211 HD
ENDBRANCH  16  21
BRANCH  17  23
ATOM     23  C   UNL     1      -2.875  83.915  -6.160  1.00  0.00     0.191 C 
BRANCH  23  24
ATOM     24  O   UNL     1      -2.894  82.722  -5.426  1.00  0.00    -0.394 OA
ATOM     25  H   UNL     1      -2.485  82.012  -5.990  1.00  0.00     0.210 HD
ENDBRANCH  23  24
ENDBRANCH  17  23
BRANCH  18  26
ATOM     26  O   UNL     1      -5.284  82.689  -6.941  1.00  0.00    -0.387 OA
ATOM     27  H   UNL     1      -5.613  81.775  -6.737  1.00  0.00     0.211 HD
ENDBRANCH  18  26
ENDBRANCH  12  13
ENDBRANCH   7  12
BRANCH   4  28
ATOM     28  O   UNL     1      -7.633  90.171  -6.583  1.00  0.00    -0.365 OA
ATOM     29  H   UNL     1      -7.759  89.533  -5.830  1.00  0.00     0.214 HD
ENDBRANCH   4  28
BRANCH   8  30
ATOM     30  C   UNL     1      -6.539  88.031 -10.758  1.00  0.00     0.249 C 
BRANCH  30  31
ATOM     31  O   UNL     1      -5.924  88.897 -11.704  1.00  0.00    -0.461 OA
BRANCH  31  32
ATOM     32  C   UNL     1      -6.423  89.119 -12.991  1.00  0.00     0.338 C 
ATOM     33  O   UNL     1      -7.622  88.827 -13.264  1.00  0.00    -0.246 OA
BRANCH  32  34
ATOM     34  C   UNL     1      -5.538  89.701 -14.023  1.00  0.00     0.060 A 
ATOM     35  C   UNL     1      -4.348  90.363 -13.667  1.00  0.00     0.015 A 
ATOM     36  C   UNL     1      -5.887  89.602 -15.383  1.00  0.00     0.015 A 
ATOM     37  C   UNL     1      -3.526  90.917 -14.657  1.00  0.00     0.001 A 
ATOM     38  C   UNL     1      -5.063  90.162 -16.366  1.00  0.00     0.001 A 
ATOM     39  C   UNL     1      -3.884  90.815 -16.002  1.00  0.00     0.000 A 
ENDBRANCH  32  34
ENDBRANCH  31  32
ENDBRANCH  30  31
ENDBRANCH   8  30
TORSDOF 12
ENDMDL
MODEL 2
REMARK VINA RESULT:    -5.842      5.826     10.584
REMARK INTER + INTRA:         -10.081
REMARK INTER:                  -9.205
REMARK INTRA:                  -0.876
REMARK UNBOUND:                -0.994
REMARK SMILES C[C@@]12C[C@@]3(O)O[C@@H](O1)[C@]1(COC(=O)c4ccccc4)[C@H]3C[C@@]12O[C@@H]1O[C@@H](CO)[C@@H](O)[C@H](O)[C@@H]1O
REMARK SMILES IDX 1 1 2 2 3 3 4 4 20 5 21 6 22 7 9 8 7 9 8 10 6 11 23 12 24 13
REMARK SMILES IDX 33 14 25 15 31 16 26 17 29 18 34 19 32 21 27 23 28 24 30 26
REMARK SMILES IDX 5 28 10 30 11 31 12 32 13 33 14 34 15 35 19 36 16 37 18 38
REMARK SMILES IDX 17 39
REMARK H PARENT 34 20 32 22 28 25 30 27 5 29
REMARK Flexibility Score: inf
ROOT
ATOM      1  C   UNL     1      -4.048  90.373 -16.704  1.00  0.00     0.046 C 
ATOM      2  C   UNL     1      -4.672  90.733 -15.355  1.00  0.00     0.104 C 
ATOM      3  C   UNL     1      -5.838  89.744 -14.979  1.00  0.00     0.104 C 
ATOM      4  C   UNL     1      -6.377  90.307 -13.616  1.00  0.00     0.175 C 
ATOM      5  C   UNL     1      -6.637  91.848 -13.719  1.00  0.00     0.070 C 
ATOM      6  C   UNL     1      -6.744  92.340 -15.166  1.00  0.00     0.050 C 
ATOM      7  C   UNL     1      -5.202  92.217 -15.228  1.00  0.00     0.115 C 
ATOM      8  C   UNL     1      -5.187  92.304 -13.702  1.00  0.00     0.096 C 
ATOM      9  C   UNL     1      -4.368  91.136 -13.185  1.00  0.00     0.267 C 
ATOM     10  O   UNL     1      -3.714  90.600 -14.321  1.00  0.00    -0.342 OA
ATOM     11  O   UNL     1      -5.309  90.190 -12.700  1.00  0.00    -0.320 OA
ENDROOT
BRANCH   7  12
ATOM     12  O   UNL     1      -4.427  93.234 -15.844  1.00  0.00    -0.339 OA
BRANCH  12  13
ATOM     13  C   UNL     1      -4.717  93.412 -17.226  1.00  0.00     0.282 C 
ATOM     14  C   UNL     1      -5.353  94.813 -17.408  1.00  0.00     0.202 C 
ATOM     15  O   UNL     1      -3.549  93.307 -18.024  1.00  0.00    -0.341 OA
ATOM     16  C   UNL     1      -5.167  95.362 -18.851  1.00  0.00     0.179 C 
ATOM     17  C   UNL     1      -3.833  93.297 -19.417  1.00  0.00     0.178 C 
ATOM     18  C   UNL     1      -5.016  94.212 -19.852  1.00  0.00     0.177 C 
BRANCH  14  19
ATOM     19  O   UNL     1      -4.777  95.720 -16.502  1.00  0.00    -0.385 OA
ATOM     20  H   UNL     1      -4.799  96.624 -16.904  1.00  0.00     0.211 HD
ENDBRANCH  14  19
BRANCH  16  21
ATOM     21  O   UNL     1      -4.018  96.174 -18.937  1.00  0.00    -0.387 OA
ATOM     22  H   UNL     1      -3.230  95.577 -18.889  1.00  0.00     0.211 HD
ENDBRANCH  16  21
BRANCH  17  23
ATOM     23  C   UNL     1      -3.915  91.869 -19.978  1.00  0.00     0.191 C 
BRANCH  23  24
ATOM     24  O   UNL     1      -4.120  91.929 -21.364  1.00  0.00    -0.394 OA
ATOM     25  H   UNL     1      -3.374  91.437 -21.802  1.00  0.00     0.210 HD
ENDBRANCH  23  24
ENDBRANCH  17  23
BRANCH  18  26
ATOM     26  O   UNL     1      -6.217  93.486 -19.930  1.00  0.00    -0.387 OA
ATOM     27  H   UNL     1      -6.577  93.624 -20.845  1.00  0.00     0.211 HD
ENDBRANCH  18  26
ENDBRANCH  12  13
ENDBRANCH   7  12
BRANCH   4  28
ATOM     28  O   UNL     1      -7.512  89.608 -13.188  1.00  0.00    -0.365 OA
ATOM     29  H   UNL     1      -8.145  89.595 -13.955  1.00  0.00     0.214 HD
ENDBRANCH   4  28
BRANCH   8  30
ATOM     30  C   UNL     1      -4.929  93.672 -13.046  1.00  0.00     0.249 C 
BRANCH  30  31
ATOM     31  O   UNL     1      -3.865  93.539 -12.112  1.00  0.00    -0.461 OA
BRANCH  31  32
ATOM     32  C   UNL     1      -3.631  94.442 -11.069  1.00  0.00     0.338 C 
ATOM     33  O   UNL     1      -2.875  95.438 -11.253  1.00  0.00    -0.246 OA
BRANCH  32  34
ATOM     34  C   UNL     1      -4.278  94.221  -9.757  1.00  0.00     0.060 A 
ATOM     35  C   UNL     1      -4.094  93.016  -9.054  1.00  0.00     0.015 A 
ATOM     36  C   UNL     1      -5.096  95.221  -9.202  1.00  0.00     0.015 A 
ATOM     37  C   UNL     1      -4.722  92.819  -7.817  1.00  0.00     0.001 A 
ATOM     38  C   UNL     1      -5.724  95.016  -7.968  1.00  0.00     0.001 A 
ATOM     39  C   UNL     1      -5.534  93.818  -7.277  1.00  0.00     0.000 A 
ENDBRANCH  32  34
ENDBRANCH  31  32
ENDBRANCH  30  31
ENDBRANCH   8  30
TORSDOF 12
ENDMDL
MODEL 3
REMARK VINA RESULT:    -5.661      6.727      9.199
REMARK INTER + INTRA:          -9.800
REMARK INTER:                  -8.698
REMARK INTRA:                  -1.102
REMARK UNBOUND:                -0.994
REMARK SMILES C[C@@]12C[C@@]3(O)O[C@@H](O1)[C@]1(COC(=O)c4ccccc4)[C@H]3C[C@@]12O[C@@H]1O[C@@H](CO)[C@@H](O)[C@H](O)[C@@H]1O
REMARK SMILES IDX 1 1 2 2 3 3 4 4 20 5 21 6 22 7 9 8 7 9 8 10 6 11 23 12 24 13
REMARK SMILES IDX 33 14 25 15 31 16 26 17 29 18 34 19 32 21 27 23 28 24 30 26
REMARK SMILES IDX 5 28 10 30 11 31 12 32 13 33 14 34 15 35 19 36 16 37 18 38
REMARK SMILES IDX 17 39
REMARK H PARENT 34 20 32 22 28 25 30 27 5 29
REMARK Flexibility Score: inf
ROOT
ATOM      1  C   UNL     1     -13.671  84.314  -5.937  1.00  0.00     0.046 C 
ATOM      2  C   UNL     1     -13.096  84.266  -7.354  1.00  0.00     0.104 C 
ATOM      3  C   UNL     1     -14.177  84.664  -8.427  1.00  0.00     0.104 C 
ATOM      4  C   UNL     1     -13.422  84.499  -9.794  1.00  0.00     0.175 C 
ATOM      5  C   UNL     1     -12.701  83.111  -9.862  1.00  0.00     0.070 C 
ATOM      6  C   UNL     1     -13.245  82.104  -8.843  1.00  0.00     0.050 C 
ATOM      7  C   UNL     1     -12.445  82.889  -7.775  1.00  0.00     0.115 C 
ATOM      8  C   UNL     1     -11.562  83.421  -8.904  1.00  0.00     0.096 C 
ATOM      9  C   UNL     1     -11.507  84.931  -8.767  1.00  0.00     0.267 C 
ATOM     10  O   UNL     1     -12.056  85.217  -7.494  1.00  0.00    -0.342 OA
ATOM     11  O   UNL     1     -12.371  85.441  -9.771  1.00  0.00    -0.320 OA
ENDROOT
BRANCH   7  12
ATOM     12  O   UNL     1     -11.705  82.194  -6.781  1.00  0.00    -0.339 OA
BRANCH  12  13
ATOM     13  C   UNL     1     -11.955  80.793  -6.762  1.00  0.00     0.282 C 
ATOM     14  C   UNL     1     -10.592  80.060  -6.832  1.00  0.00     0.202 C 
ATOM     15  O   UNL     1     -12.651  80.402  -5.589  1.00  0.00    -0.341 OA
ATOM     16  C   UNL     1     -10.663  78.626  -6.235  1.00  0.00     0.179 C 
ATOM     17  C   UNL     1     -13.076  79.045  -5.627  1.00  0.00     0.178 C 
ATOM     18  C   UNL     1     -12.086  78.069  -6.330  1.00  0.00     0.177 C 
BRANCH  14  19
ATOM     19  O   UNL     1      -9.619  80.793  -6.133  1.00  0.00    -0.385 OA
ATOM     20  H   UNL     1      -8.732  80.390  -6.310  1.00  0.00     0.211 HD
ENDBRANCH  14  19
BRANCH  16  21
ATOM     21  O   UNL     1     -10.281  78.627  -4.878  1.00  0.00    -0.387 OA
ATOM     22  H   UNL     1      -9.317  78.851  -4.842  1.00  0.00     0.211 HD
ENDBRANCH  16  21
BRANCH  17  23
ATOM     23  C   UNL     1     -14.528  78.909  -6.108  1.00  0.00     0.191 C 
BRANCH  23  24
ATOM     24  O   UNL     1     -15.033  77.665  -5.704  1.00  0.00    -0.394 OA
ATOM     25  H   UNL     1     -14.960  77.043  -6.477  1.00  0.00     0.210 HD
ENDBRANCH  23  24
ENDBRANCH  17  23
BRANCH  18  26
ATOM     26  O   UNL     1     -12.434  77.878  -7.680  1.00  0.00    -0.387 OA
ATOM     27  H   UNL     1     -11.640  78.128  -8.219  1.00  0.00     0.211 HD
ENDBRANCH  18  26
ENDBRANCH  12  13
ENDBRANCH   7  12
BRANCH   4  28
ATOM     28  O   UNL     1     -14.282  84.701 -10.879  1.00  0.00    -0.365 OA
ATOM     29  H   UNL     1     -14.965  83.979 -10.841  1.00  0.00     0.214 HD
ENDBRANCH   4  28
BRANCH   8  30
ATOM     30  C   UNL     1     -10.232  82.706  -9.198  1.00  0.00     0.249 C 
BRANCH  30  31
ATOM     31  O   UNL     1      -9.164  83.623  -8.999  1.00  0.00    -0.461 OA
BRANCH  31  32
ATOM     32  C   UNL     1      -8.219  83.503  -7.975  1.00  0.00     0.338 C 
ATOM     33  O   UNL     1      -8.578  83.610  -6.768  1.00  0.00    -0.246 OA
BRANCH  32  34
ATOM     34  C   UNL     1      -6.803  83.248  -8.319  1.00  0.00     0.060 A 
ATOM     35  C   UNL     1      -5.846  83.012  -7.315  1.00  0.00     0.015 A 
ATOM     36  C   UNL     1      -6.399  83.247  -9.666  1.00  0.00     0.015 A 
ATOM     37  C   UNL     1      -4.507  82.783  -7.657  1.00  0.00     0.001 A 
ATOM     38  C   UNL     1      -5.058  83.021 -10.001  1.00  0.00     0.001 A 
ATOM     39  C   UNL     1      -4.117  82.786  -8.998  1.00  0.00     0.000 A 
ENDBRANCH  32  34
ENDBRANCH  31  32
ENDBRANCH  30  31
ENDBRANCH   8  30
TORSDOF 12
ENDMDL
MODEL 4
REMARK VINA RESULT:    -5.644      5.444      8.799
REMARK INTER + INTRA:          -9.773
REMARK INTER:                  -7.992
REMARK INTRA:                  -1.781
REMARK UNBOUND:                -0.994
REMARK SMILES C[C@@]12C[C@@]3(O)O[C@@H](O1)[C@]1(COC(=O)c4ccccc4)[C@H]3C[C@@]12O[C@@H]1O[C@@H](CO)[C@@H](O)[C@H](O)[C@@H]1O
REMARK SMILES IDX 1 1 2 2 3 3 4 4 20 5 21 6 22 7 9 8 7 9 8 10 6 11 23 12 24 13
REMARK SMILES IDX 33 14 25 15 31 16 26 17 29 18 34 19 32 21 27 23 28 24 30 26
REMARK SMILES IDX 5 28 10 30 11 31 12 32 13 33 14 34 15 35 19 36 16 37 18 38
REMARK SMILES IDX 17 39
REMARK H PARENT 34 20 32 22 28 25 30 27 5 29
REMARK Flexibility Score: inf
ROOT
ATOM      1  C   UNL     1      -6.721  94.859 -13.349  1.00  0.00     0.046 C 
ATOM      2  C   UNL     1      -6.238  93.819 -12.336  1.00  0.00     0.104 C 
ATOM      3  C   UNL     1      -5.254  94.454 -11.285  1.00  0.00     0.104 C 
ATOM      4  C   UNL     1      -4.833  93.235 -10.388  1.00  0.00     0.175 C 
ATOM      5  C   UNL     1      -4.385  92.025 -11.275  1.00  0.00     0.070 C 
ATOM      6  C   UNL     1      -4.036  92.432 -12.710  1.00  0.00     0.050 C 
ATOM      7  C   UNL     1      -5.561  92.533 -12.957  1.00  0.00     0.115 C 
ATOM      8  C   UNL     1      -5.762  91.603 -11.761  1.00  0.00     0.096 C 
ATOM      9  C   UNL     1      -6.771  92.260 -10.837  1.00  0.00     0.267 C 
ATOM     10  O   UNL     1      -7.331  93.325 -11.582  1.00  0.00    -0.342 OA
ATOM     11  O   UNL     1      -6.016  92.792  -9.759  1.00  0.00    -0.320 OA
ENDROOT
BRANCH   7  12
ATOM     12  O   UNL     1      -6.128  92.018 -14.153  1.00  0.00    -0.339 OA
BRANCH  12  13
ATOM     13  C   UNL     1      -5.399  92.369 -15.325  1.00  0.00     0.282 C 
ATOM     14  C   UNL     1      -4.846  91.067 -15.955  1.00  0.00     0.202 C 
ATOM     15  O   UNL     1      -6.215  93.050 -16.265  1.00  0.00    -0.341 OA
ATOM     16  C   UNL     1      -4.570  91.221 -17.478  1.00  0.00     0.179 C 
ATOM     17  C   UNL     1      -5.474  93.573 -17.360  1.00  0.00     0.178 C 
ATOM     18  C   UNL     1      -4.286  92.684 -17.832  1.00  0.00     0.177 C 
BRANCH  14  19
ATOM     19  O   UNL     1      -5.762  90.018 -15.766  1.00  0.00    -0.385 OA
ATOM     20  H   UNL     1      -5.402  89.203 -16.198  1.00  0.00     0.211 HD
ENDBRANCH  14  19
BRANCH  16  21
ATOM     21  O   UNL     1      -5.678  90.792 -18.236  1.00  0.00    -0.387 OA
ATOM     22  H   UNL     1      -5.327  90.362 -19.056  1.00  0.00     0.211 HD
ENDBRANCH  16  21
BRANCH  17  23
ATOM     23  C   UNL     1      -5.099  95.048 -17.150  1.00  0.00     0.191 C 
BRANCH  23  24
ATOM     24  O   UNL     1      -4.267  95.466 -18.198  1.00  0.00    -0.394 OA
ATOM     25  H   UNL     1      -3.359  95.617 -17.822  1.00  0.00     0.210 HD
ENDBRANCH  23  24
ENDBRANCH  17  23
BRANCH  18  26
ATOM     26  O   UNL     1      -3.078  93.092 -17.238  1.00  0.00    -0.387 OA
ATOM     27  H   UNL     1      -2.371  92.990 -17.927  1.00  0.00     0.211 HD
ENDBRANCH  18  26
ENDBRANCH  12  13
ENDBRANCH   7  12
BRANCH   4  28
ATOM     28  O   UNL     1      -3.851  93.601  -9.459  1.00  0.00    -0.365 OA
ATOM     29  H   UNL     1      -3.495  92.757  -9.073  1.00  0.00     0.214 HD
ENDBRANCH   4  28
BRANCH   8  30
ATOM     30  C   UNL     1      -5.943  90.097 -12.021  1.00  0.00     0.249 C 
BRANCH  30  31
ATOM     31  O   UNL     1      -7.333  89.795 -12.020  1.00  0.00    -0.461 OA
BRANCH  31  32
ATOM     32  C   UNL     1      -8.040  89.394 -13.159  1.00  0.00     0.338 C 
ATOM     33  O   UNL     1      -7.554  88.517 -13.928  1.00  0.00    -0.246 OA
BRANCH  32  34
ATOM     34  C   UNL     1      -9.356  90.003 -13.448  1.00  0.00     0.060 A 
ATOM     35  C   UNL     1      -9.507  91.400 -13.525  1.00  0.00     0.015 A 
ATOM     36  C   UNL     1     -10.481  89.180 -13.643  1.00  0.00     0.015 A 
ATOM     37  C   UNL     1     -10.764  91.960 -13.790  1.00  0.00     0.001 A 
ATOM     38  C   UNL     1     -11.734  89.746 -13.903  1.00  0.00     0.001 A 
ATOM     39  C   UNL     1     -11.872  91.133 -13.980  1.00  0.00     0.000 A 
ENDBRANCH  32  34
ENDBRANCH  31  32
ENDBRANCH  30  31
ENDBRANCH   8  30
TORSDOF 12
ENDMDL
MODEL 5
REMARK VINA RESULT:    -5.638      5.214      7.722
REMARK INTER + INTRA:          -9.763
REMARK INTER:                  -7.928
REMARK INTRA:                  -1.835
REMARK UNBOUND:                -0.994
REMARK SMILES C[C@@]12C[C@@]3(O)O[C@@H](O1)[C@]1(COC(=O)c4ccccc4)[C@H]3C[C@@]12O[C@@H]1O[C@@H](CO)[C@@H](O)[C@H](O)[C@@H]1O
REMARK SMILES IDX 1 1 2 2 3 3 4 4 20 5 21 6 22 7 9 8 7 9 8 10 6 11 23 12 24 13
REMARK SMILES IDX 33 14 25 15 31 16 26 17 29 18 34 19 32 21 27 23 28 24 30 26
REMARK SMILES IDX 5 28 10 30 11 31 12 32 13 33 14 34 15 35 19 36 16 37 18 38
REMARK SMILES IDX 17 39
REMARK H PARENT 34 20 32 22 28 25 30 27 5 29
REMARK Flexibility Score: inf
ROOT
ATOM      1  C   UNL     1      -9.097  93.057 -12.627  1.00  0.00     0.046 C 
ATOM      2  C   UNL     1      -8.583  91.618 -12.568  1.00  0.00     0.104 C 
ATOM      3  C   UNL     1      -9.507  90.713 -11.671  1.00  0.00     0.104 C 
ATOM      4  C   UNL     1      -8.790  89.316 -11.691  1.00  0.00     0.175 C 
ATOM      5  C   UNL     1      -7.266  89.472 -11.368  1.00  0.00     0.070 C 
ATOM      6  C   UNL     1      -6.932  90.806 -10.690  1.00  0.00     0.050 C 
ATOM      7  C   UNL     1      -7.086  91.452 -12.089  1.00  0.00     0.115 C 
ATOM      8  C   UNL     1      -6.833  90.072 -12.696  1.00  0.00     0.096 C 
ATOM      9  C   UNL     1      -7.950  89.796 -13.684  1.00  0.00     0.267 C 
ATOM     10  O   UNL     1      -8.618  91.033 -13.858  1.00  0.00    -0.342 OA
ATOM     11  O   UNL     1      -8.823  88.884 -13.034  1.00  0.00    -0.320 OA
ENDROOT
BRANCH   7  12
ATOM     12  O   UNL     1      -6.154  92.427 -12.533  1.00  0.00    -0.339 OA
BRANCH  12  13
ATOM     13  C   UNL     1      -5.485  93.100 -11.472  1.00  0.00     0.282 C 
ATOM     14  C   UNL     1      -3.996  93.262 -11.868  1.00  0.00     0.202 C 
ATOM     15  O   UNL     1      -6.057  94.372 -11.216  1.00  0.00    -0.341 OA
ATOM     16  C   UNL     1      -3.316  94.449 -11.128  1.00  0.00     0.179 C 
ATOM     17  C   UNL     1      -5.532  94.988 -10.047  1.00  0.00     0.178 C 
ATOM     18  C   UNL     1      -4.016  94.729  -9.795  1.00  0.00     0.177 C 
BRANCH  14  19
ATOM     19  O   UNL     1      -3.891  93.474 -13.253  1.00  0.00    -0.385 OA
ATOM     20  H   UNL     1      -2.944  93.658 -13.473  1.00  0.00     0.211 HD
ENDBRANCH  14  19
BRANCH  16  21
ATOM     21  O   UNL     1      -3.368  95.623 -11.906  1.00  0.00    -0.387 OA
ATOM     22  H   UNL     1      -2.436  95.930 -12.040  1.00  0.00     0.211 HD
ENDBRANCH  16  21
BRANCH  17  23
ATOM     23  C   UNL     1      -6.416  94.737  -8.816  1.00  0.00     0.191 C 
BRANCH  23  24
ATOM     24  O   UNL     1      -5.821  95.325  -7.692  1.00  0.00    -0.394 OA
ATOM     25  H   UNL     1      -6.222  94.908  -6.883  1.00  0.00     0.210 HD
ENDBRANCH  23  24
ENDBRANCH  17  23
BRANCH  18  26
ATOM     26  O   UNL     1      -3.825  93.645  -8.919  1.00  0.00    -0.387 OA
ATOM     27  H   UNL     1      -3.715  94.026  -8.009  1.00  0.00     0.211 HD
ENDBRANCH  18  26
ENDBRANCH  12  13
ENDBRANCH   7  12
BRANCH   4  28
ATOM     28  O   UNL     1      -9.421  88.407 -10.833  1.00  0.00    -0.365 OA
ATOM     29  H   UNL     1      -8.967  87.531 -10.961  1.00  0.00     0.214 HD
ENDBRANCH   4  28
BRANCH   8  30
ATOM     30  C   UNL     1      -5.406  89.719 -13.151  1.00  0.00     0.249 C 
BRANCH  30  31
ATOM     31  O   UNL     1      -5.360  89.740 -14.572  1.00  0.00    -0.461 OA
BRANCH  31  32
ATOM     32  C   UNL     1      -4.715  90.737 -15.312  1.00  0.00     0.338 C 
ATOM     33  O   UNL     1      -3.501  91.006 -15.086  1.00  0.00    -0.246 OA
BRANCH  32  34
ATOM     34  C   UNL     1      -5.465  91.465 -16.358  1.00  0.00     0.060 A 
ATOM     35  C   UNL     1      -5.412  91.057 -17.704  1.00  0.00     0.015 A 
ATOM     36  C   UNL     1      -6.239  92.589 -16.012  1.00  0.00     0.015 A 
ATOM     37  C   UNL     1      -6.120  91.765 -18.684  1.00  0.00     0.001 A 
ATOM     38  C   UNL     1      -6.940  93.294 -16.996  1.00  0.00     0.001 A 
ATOM     39  C   UNL     1      -6.883  92.879 -18.328  1.00  0.00     0.000 A 
ENDBRANCH  32  34
ENDBRANCH  31  32
ENDBRANCH  30  31
ENDBRANCH   8  30
TORSDOF 12
ENDMDL
MODEL 6
REMARK VINA RESULT:    -5.587      5.142      9.606
REMARK INTER + INTRA:          -9.685
REMARK INTER:                  -8.630
REMARK INTRA:                  -1.055
REMARK UNBOUND:                -0.994
REMARK SMILES C[C@@]12C[C@@]3(O)O[C@@H](O1)[C@]1(COC(=O)c4ccccc4)[C@H]3C[C@@]12O[C@@H]1O[C@@H](CO)[C@@H](O)[C@H](O)[C@@H]1O
REMARK SMILES IDX 1 1 2 2 3 3 4 4 20 5 21 6 22 7 9 8 7 9 8 10 6 11 23 12 24 13
REMARK SMILES IDX 33 14 25 15 31 16 26 17 29 18 34 19 32 21 27 23 28 24 30 26
REMARK SMILES IDX 5 28 10 30 11 31 12 32 13 33 14 34 15 35 19 36 16 37 18 38
REMARK SMILES IDX 17 39
REMARK H PARENT 34 20 32 22 28 25 30 27 5 29
REMARK Flexibility Score: inf
ROOT
ATOM      1  C   UNL     1      -5.637  89.300 -15.148  1.00  0.00     0.046 C 
ATOM      2  C   UNL     1      -6.334  89.698 -13.846  1.00  0.00     0.104 C 
ATOM      3  C   UNL     1      -7.636  88.847 -13.607  1.00  0.00     0.104 C 
ATOM      4  C   UNL     1      -8.226  89.437 -12.277  1.00  0.00     0.175 C 
ATOM      5  C   UNL     1      -8.293  91.000 -12.346  1.00  0.00     0.070 C 
ATOM      6  C   UNL     1      -8.211  91.538 -13.779  1.00  0.00     0.050 C 
ATOM      7  C   UNL     1      -6.695  91.231 -13.712  1.00  0.00     0.115 C 
ATOM      8  C   UNL     1      -6.807  91.278 -12.188  1.00  0.00     0.096 C 
ATOM      9  C   UNL     1      -6.180  90.008 -11.645  1.00  0.00     0.267 C 
ATOM     10  O   UNL     1      -5.495  89.425 -12.738  1.00  0.00    -0.342 OA
ATOM     11  O   UNL     1      -7.265  89.170 -11.277  1.00  0.00    -0.320 OA
ENDROOT
BRANCH   7  12
ATOM     12  O   UNL     1      -5.754  92.163 -14.222  1.00  0.00    -0.339 OA
BRANCH  12  13
ATOM     13  C   UNL     1      -6.069  92.634 -15.529  1.00  0.00     0.282 C 
ATOM     14  C   UNL     1      -6.334  94.157 -15.441  1.00  0.00     0.202 C 
ATOM     15  O   UNL     1      -5.015  92.381 -16.444  1.00  0.00    -0.341 OA
ATOM     16  C   UNL     1      -6.100  94.875 -16.800  1.00  0.00     0.179 C 
ATOM     17  C   UNL     1      -5.374  92.671 -17.790  1.00  0.00     0.178 C 
ATOM     18  C   UNL     1      -6.306  93.906 -17.968  1.00  0.00     0.177 C 
BRANCH  14  19
ATOM     19  O   UNL     1      -5.493  94.734 -14.474  1.00  0.00    -0.385 OA
ATOM     20  H   UNL     1      -4.555  94.525 -14.707  1.00  0.00     0.211 HD
ENDBRANCH  14  19
BRANCH  16  21
ATOM     21  O   UNL     1      -4.788  95.386 -16.879  1.00  0.00    -0.387 OA
ATOM     22  H   UNL     1      -4.664  96.002 -16.114  1.00  0.00     0.211 HD
ENDBRANCH  16  21
BRANCH  17  23
ATOM     23  C   UNL     1      -5.852  91.420 -18.541  1.00  0.00     0.191 C 
BRANCH  23  24
ATOM     24  O   UNL     1      -6.203  91.775 -19.851  1.00  0.00    -0.394 OA
ATOM     25  H   UNL     1      -5.395  91.666 -20.422  1.00  0.00     0.210 HD
ENDBRANCH  23  24
ENDBRANCH  17  23
BRANCH  18  26
ATOM     26  O   UNL     1      -7.656  93.518 -18.032  1.00  0.00    -0.387 OA
ATOM     27  H   UNL     1      -7.988  93.475 -17.098  1.00  0.00     0.211 HD
ENDBRANCH  18  26
ENDBRANCH  12  13
ENDBRANCH   7  12
BRANCH   4  28
ATOM     28  O   UNL     1      -9.469  88.868 -11.973  1.00  0.00    -0.365 OA
ATOM     29  H   UNL     1     -10.008  89.578 -11.533  1.00  0.00     0.214 HD
ENDBRANCH   4  28
BRANCH   8  30
ATOM     30  C   UNL     1      -6.450  92.588 -11.464  1.00  0.00     0.249 C 
BRANCH  30  31
ATOM     31  O   UNL     1      -5.111  92.502 -10.994  1.00  0.00    -0.461 OA
BRANCH  31  32
ATOM     32  C   UNL     1      -4.455  93.541 -10.326  1.00  0.00     0.338 C 
ATOM     33  O   UNL     1      -3.424  94.068 -10.832  1.00  0.00    -0.246 OA
BRANCH  32  34
ATOM     34  C   UNL     1      -4.982  94.016  -9.028  1.00  0.00     0.060 A 
ATOM     35  C   UNL     1      -5.276  95.377  -8.820  1.00  0.00     0.015 A 
ATOM     36  C   UNL     1      -5.186  93.102  -7.978  1.00  0.00     0.015 A 
ATOM     37  C   UNL     1      -5.764  95.811  -7.581  1.00  0.00     0.001 A 
ATOM     38  C   UNL     1      -5.671  93.544  -6.741  1.00  0.00     0.001 A 
ATOM     39  C   UNL     1      -5.962  94.895  -6.546  1.00  0.00     0.000 A 
ENDBRANCH  32  34
ENDBRANCH  31  32
ENDBRANCH  30  31
ENDBRANCH   8  30
TORSDOF 12
ENDMDL
MODEL 7
REMARK VINA RESULT:    -5.586      5.042      8.396
REMARK INTER + INTRA:          -9.682
REMARK INTER:                  -8.078
REMARK INTRA:                  -1.605
REMARK UNBOUND:                -0.994
REMARK SMILES C[C@@]12C[C@@]3(O)O[C@@H](O1)[C@]1(COC(=O)c4ccccc4)[C@H]3C[C@@]12O[C@@H]1O[C@@H](CO)[C@@H](O)[C@H](O)[C@@H]1O
REMARK SMILES IDX 1 1 2 2 3 3 4 4 20 5 21 6 22 7 9 8 7 9 8 10 6 11 23 12 24 13
REMARK SMILES IDX 33 14 25 15 31 16 26 17 29 18 34 19 32 21 27 23 28 24 30 26
REMARK SMILES IDX 5 28 10 30 11 31 12 32 13 33 14 34 15 35 19 36 16 37 18 38
REMARK SMILES IDX 17 39
REMARK H PARENT 34 20 32 22 28 25 30 27 5 29
REMARK Flexibility Score: inf
ROOT
ATOM      1  C   UNL     1     -10.633  86.331  -8.668  1.00  0.00     0.046 C 
ATOM      2  C   UNL     1      -9.294  85.648  -8.381  1.00  0.00     0.104 C 
ATOM      3  C   UNL     1      -8.225  85.992  -9.483  1.00  0.00     0.104 C 
ATOM      4  C   UNL     1      -6.964  85.164  -9.049  1.00  0.00     0.175 C 
ATOM      5  C   UNL     1      -7.355  83.677  -8.750  1.00  0.00     0.070 C 
ATOM      6  C   UNL     1      -8.704  83.280  -9.360  1.00  0.00     0.050 C 
ATOM      7  C   UNL     1      -9.359  84.078  -8.206  1.00  0.00     0.115 C 
ATOM      8  C   UNL     1      -8.057  83.910  -7.422  1.00  0.00     0.096 C 
ATOM      9  C   UNL     1      -7.634  85.285  -6.940  1.00  0.00     0.267 C 
ATOM     10  O   UNL     1      -8.751  86.126  -7.164  1.00  0.00    -0.342 OA
ATOM     11  O   UNL     1      -6.573  85.684  -7.796  1.00  0.00    -0.320 OA
ENDROOT
BRANCH   7  12
ATOM     12  O   UNL     1     -10.485  83.551  -7.520  1.00  0.00    -0.339 OA
BRANCH  12  13
ATOM     13  C   UNL     1     -11.406  82.877  -8.372  1.00  0.00     0.282 C 
ATOM     14  C   UNL     1     -11.497  81.401  -7.911  1.00  0.00     0.202 C 
ATOM     15  O   UNL     1     -12.692  83.475  -8.329  1.00  0.00    -0.341 OA
ATOM     16  C   UNL     1     -12.839  80.736  -8.327  1.00  0.00     0.179 C 
ATOM     17  C   UNL     1     -13.580  82.942  -9.303  1.00  0.00     0.178 C 
ATOM     18  C   UNL     1     -13.418  81.416  -9.572  1.00  0.00     0.177 C 
BRANCH  14  19
ATOM     19  O   UNL     1     -11.371  81.328  -6.513  1.00  0.00    -0.385 OA
ATOM     20  H   UNL     1     -10.783  80.565  -6.288  1.00  0.00     0.211 HD
ENDBRANCH  14  19
BRANCH  16  21
ATOM     21  O   UNL     1     -13.791  80.831  -7.291  1.00  0.00    -0.387 OA
ATOM     22  H   UNL     1     -13.293  80.882  -6.437  1.00  0.00     0.211 HD
ENDBRANCH  16  21
BRANCH  17  23
ATOM     23  C   UNL     1     -13.615  83.796 -10.579  1.00  0.00     0.191 C 
BRANCH  23  24
ATOM     24  O   UNL     1     -14.417  83.160 -11.537  1.00  0.00    -0.394 OA
ATOM     25  H   UNL     1     -15.169  82.719 -11.059  1.00  0.00     0.210 HD
ENDBRANCH  23  24
ENDBRANCH  17  23
BRANCH  18  26
ATOM     26  O   UNL     1     -12.580  81.181 -10.677  1.00  0.00    -0.387 OA
ATOM     27  H   UNL     1     -13.080  81.472 -11.483  1.00  0.00     0.211 HD
ENDBRANCH  18  26
ENDBRANCH  12  13
ENDBRANCH   7  12
BRANCH   4  28
ATOM     28  O   UNL     1      -5.939  85.259  -9.997  1.00  0.00    -0.365 OA
ATOM     29  H   UNL     1      -5.348  86.004  -9.705  1.00  0.00     0.214 HD
ENDBRANCH   4  28
BRANCH   8  30
ATOM     30  C   UNL     1      -7.954  82.761  -6.405  1.00  0.00     0.249 C 
BRANCH  30  31
ATOM     31  O   UNL     1      -6.859  83.015  -5.534  1.00  0.00    -0.461 OA
BRANCH  31  32
ATOM     32  C   UNL     1      -5.606  82.408  -5.666  1.00  0.00     0.338 C 
ATOM     33  O   UNL     1      -5.293  81.435  -4.922  1.00  0.00    -0.246 OA
BRANCH  32  34
ATOM     34  C   UNL     1      -4.657  82.912  -6.683  1.00  0.00     0.060 A 
ATOM     35  C   UNL     1      -4.036  84.165  -6.534  1.00  0.00     0.015 A 
ATOM     36  C   UNL     1      -4.374  82.136  -7.822  1.00  0.00     0.015 A 
ATOM     37  C   UNL     1      -3.148  84.632  -7.513  1.00  0.00     0.001 A 
ATOM     38  C   UNL     1      -3.489  82.610  -8.797  1.00  0.00     0.001 A 
ATOM     39  C   UNL     1      -2.875  83.854  -8.639  1.00  0.00     0.000 A 
ENDBRANCH  32  34
ENDBRANCH  31  32
ENDBRANCH  30  31
ENDBRANCH   8  30
TORSDOF 12
ENDMDL
MODEL 8
REMARK VINA RESULT:    -5.525      5.692      9.449
REMARK INTER + INTRA:          -9.588
REMARK INTER:                  -8.362
REMARK INTRA:                  -1.225
REMARK UNBOUND:                -0.994
REMARK SMILES C[C@@]12C[C@@]3(O)O[C@@H](O1)[C@]1(COC(=O)c4ccccc4)[C@H]3C[C@@]12O[C@@H]1O[C@@H](CO)[C@@H](O)[C@H](O)[C@@H]1O
REMARK SMILES IDX 1 1 2 2 3 3 4 4 20 5 21 6 22 7 9 8 7 9 8 10 6 11 23 12 24 13
REMARK SMILES IDX 33 14 25 15 31 16 26 17 29 18 34 19 32 21 27 23 28 24 30 26
REMARK SMILES IDX 5 28 10 30 11 31 12 32 13 33 14 34 15 35 19 36 16 37 18 38
REMARK SMILES IDX 17 39
REMARK H PARENT 34 20 32 22 28 25 30 27 5 29
REMARK Flexibility Score: inf
ROOT
ATOM      1  C   UNL     1     -13.391  83.257 -10.770  1.00  0.00     0.046 C 
ATOM      2  C   UNL     1     -12.698  82.795  -9.486  1.00  0.00     0.104 C 
ATOM      3  C   UNL     1     -13.696  82.037  -8.535  1.00  0.00     0.104 C 
ATOM      4  C   UNL     1     -12.825  81.703  -7.272  1.00  0.00     0.175 C 
ATOM      5  C   UNL     1     -12.059  82.977  -6.778  1.00  0.00     0.070 C 
ATOM      6  C   UNL     1     -12.657  84.280  -7.317  1.00  0.00     0.050 C 
ATOM      7  C   UNL     1     -11.972  83.932  -8.662  1.00  0.00     0.115 C 
ATOM      8  C   UNL     1     -11.015  83.032  -7.881  1.00  0.00     0.096 C 
ATOM      9  C   UNL     1     -11.016  81.672  -8.552  1.00  0.00     0.267 C 
ATOM     10  O   UNL     1     -11.679  81.860  -9.789  1.00  0.00    -0.342 OA
ATOM     11  O   UNL     1     -11.808  80.834  -7.723  1.00  0.00    -0.320 OA
ENDROOT
BRANCH   7  12
ATOM     12  O   UNL     1     -11.299  84.938  -9.404  1.00  0.00    -0.339 OA
BRANCH  12  13
ATOM     13  C   UNL     1     -11.855  86.237  -9.236  1.00  0.00     0.282 C 
ATOM     14  C   UNL     1     -10.694  87.227  -8.967  1.00  0.00     0.202 C 
ATOM     15  O   UNL     1     -12.581  86.648 -10.383  1.00  0.00    -0.341 OA
ATOM     16  C   UNL     1     -11.063  88.687  -9.353  1.00  0.00     0.179 C 
ATOM     17  C   UNL     1     -13.299  87.858 -10.176  1.00  0.00     0.178 C 
ATOM     18  C   UNL     1     -12.578  88.902  -9.273  1.00  0.00     0.177 C 
BRANCH  14  19
ATOM     19  O   UNL     1      -9.558  86.840  -9.699  1.00  0.00    -0.385 OA
ATOM     20  H   UNL     1      -9.281  87.596 -10.274  1.00  0.00     0.211 HD
ENDBRANCH  14  19
BRANCH  16  21
ATOM     21  O   UNL     1     -10.646  88.982 -10.667  1.00  0.00    -0.387 OA
ATOM     22  H   UNL     1     -11.093  89.823 -10.937  1.00  0.00     0.211 HD
ENDBRANCH  16  21
BRANCH  17  23
ATOM     23  C   UNL     1     -14.761  87.601  -9.779  1.00  0.00     0.191 C 
BRANCH  23  24
ATOM     24  O   UNL     1     -15.148  86.335 -10.243  1.00  0.00    -0.394 OA
ATOM     25  H   UNL     1     -16.090  86.184  -9.959  1.00  0.00     0.210 HD
ENDBRANCH  23  24
ENDBRANCH  17  23
BRANCH  18  26
ATOM     26  O   UNL     1     -13.004  88.799  -7.937  1.00  0.00    -0.387 OA
ATOM     27  H   UNL     1     -13.258  89.713  -7.645  1.00  0.00     0.211 HD
ENDBRANCH  18  26
ENDBRANCH  12  13
ENDBRANCH   7  12
BRANCH   4  28
ATOM     28  O   UNL     1     -13.597  81.124  -6.258  1.00  0.00    -0.365 OA
ATOM     29  H   UNL     1     -13.979  81.873  -5.727  1.00  0.00     0.214 HD
ENDBRANCH   4  28
BRANCH   8  30
ATOM     30  C   UNL     1      -9.644  83.598  -7.470  1.00  0.00     0.249 C 
BRANCH  30  31
ATOM     31  O   UNL     1      -8.631  82.922  -8.203  1.00  0.00    -0.461 OA
BRANCH  31  32
ATOM     32  C   UNL     1      -7.648  83.576  -8.953  1.00  0.00     0.338 C 
ATOM     33  O   UNL     1      -7.972  84.510  -9.741  1.00  0.00    -0.246 OA
BRANCH  32  34
ATOM     34  C   UNL     1      -6.234  83.168  -8.813  1.00  0.00     0.060 A 
ATOM     35  C   UNL     1      -5.462  82.829  -9.940  1.00  0.00     0.015 A 
ATOM     36  C   UNL     1      -5.646  83.106  -7.535  1.00  0.00     0.015 A 
ATOM     37  C   UNL     1      -4.126  82.434  -9.787  1.00  0.00     0.001 A 
ATOM     38  C   UNL     1      -4.312  82.707  -7.390  1.00  0.00     0.001 A 
ATOM     39  C   UNL     1      -3.555  82.375  -8.515  1.00  0.00     0.000 A 
ENDBRANCH  32  34
ENDBRANCH  31  32
ENDBRANCH  30  31
ENDBRANCH   8  30
TORSDOF 12
ENDMDL
MODEL 9
REMARK VINA RESULT:    -5.460      3.422      7.563
REMARK INTER + INTRA:          -9.487
REMARK INTER:                  -8.069
REMARK INTRA:                  -1.418
REMARK UNBOUND:                -0.994
REMARK SMILES C[C@@]12C[C@@]3(O)O[C@@H](O1)[C@]1(COC(=O)c4ccccc4)[C@H]3C[C@@]12O[C@@H]1O[C@@H](CO)[C@@H](O)[C@H](O)[C@@H]1O
REMARK SMILES IDX 1 1 2 2 3 3 4 4 20 5 21 6 22 7 9 8 7 9 8 10 6 11 23 12 24 13
REMARK SMILES IDX 33 14 25 15 31 16 26 17 29 18 34 19 32 21 27 23 28 24 30 26
REMARK SMILES IDX 5 28 10 30 11 31 12 32 13 33 14 34 15 35 19 36 16 37 18 38
REMARK SMILES IDX 17 39
REMARK H PARENT 34 20 32 22 28 25 30 27 5 29
REMARK Flexibility Score: inf
ROOT
ATOM      1  C   UNL     1      -4.346  86.514  -6.874  1.00  0.00     0.046 C 
ATOM      2  C   UNL     1      -4.671  85.252  -7.674  1.00  0.00     0.104 C 
ATOM      3  C   UNL     1      -3.367  84.586  -8.251  1.00  0.00     0.104 C 
ATOM      4  C   UNL     1      -3.907  83.363  -9.073  1.00  0.00     0.175 C 
ATOM      5  C   UNL     1      -5.068  83.807 -10.027  1.00  0.00     0.070 C 
ATOM      6  C   UNL     1      -5.096  85.320 -10.267  1.00  0.00     0.050 C 
ATOM      7  C   UNL     1      -5.708  85.443  -8.851  1.00  0.00     0.115 C 
ATOM      8  C   UNL     1      -6.147  83.984  -8.971  1.00  0.00     0.096 C 
ATOM      9  C   UNL     1      -5.665  83.259  -7.728  1.00  0.00     0.267 C 
ATOM     10  O   UNL     1      -5.254  84.274  -6.832  1.00  0.00    -0.342 OA
ATOM     11  O   UNL     1      -4.529  82.510  -8.135  1.00  0.00    -0.320 OA
ENDROOT
BRANCH   7  12
ATOM     12  O   UNL     1      -6.796  86.326  -8.615  1.00  0.00    -0.339 OA
BRANCH  12  13
ATOM     13  C   UNL     1      -6.674  87.572  -9.293  1.00  0.00     0.282 C 
ATOM     14  C   UNL     1      -7.851  87.692 -10.294  1.00  0.00     0.202 C 
ATOM     15  O   UNL     1      -6.698  88.664  -8.388  1.00  0.00    -0.341 OA
ATOM     16  C   UNL     1      -8.180  89.172 -10.640  1.00  0.00     0.179 C 
ATOM     17  C   UNL     1      -6.395  89.905  -9.014  1.00  0.00     0.178 C 
ATOM     18  C   UNL     1      -6.943  90.058 -10.465  1.00  0.00     0.177 C 
BRANCH  14  19
ATOM     19  O   UNL     1      -9.000  87.088  -9.755  1.00  0.00    -0.385 OA
ATOM     20  H   UNL     1      -8.818  86.848  -8.812  1.00  0.00     0.211 HD
ENDBRANCH  14  19
BRANCH  16  21
ATOM     21  O   UNL     1      -9.200  89.670  -9.804  1.00  0.00    -0.387 OA
ATOM     22  H   UNL     1      -8.782  90.315  -9.181  1.00  0.00     0.211 HD
ENDBRANCH  16  21
BRANCH  17  23
ATOM     23  C   UNL     1      -4.912  90.276  -8.869  1.00  0.00     0.191 C 
BRANCH  23  24
ATOM     24  O   UNL     1      -4.683  91.511  -9.491  1.00  0.00    -0.394 OA
ATOM     25  H   UNL     1      -4.464  92.172  -8.781  1.00  0.00     0.210 HD
ENDBRANCH  23  24
ENDBRANCH  17  23
BRANCH  18  26
ATOM     26  O   UNL     1      -5.967  89.709 -11.415  1.00  0.00    -0.387 OA
ATOM     27  H   UNL     1      -6.218  88.816 -11.770  1.00  0.00     0.211 HD
ENDBRANCH  18  26
ENDBRANCH  12  13
ENDBRANCH   7  12
BRANCH   4  28
ATOM     28  O   UNL     1      -2.876  82.716  -9.764  1.00  0.00    -0.365 OA
ATOM     29  H   UNL     1      -2.046  83.235  -9.590  1.00  0.00     0.214 HD
ENDBRANCH   4  28
BRANCH   8  30
ATOM     30  C   UNL     1      -7.583  83.683  -9.432  1.00  0.00     0.249 C 
BRANCH  30  31
ATOM     31  O   UNL     1      -8.404  83.497  -8.286  1.00  0.00    -0.461 OA
BRANCH  31  32
ATOM     32  C   UNL     1      -9.604  84.183  -8.071  1.00  0.00     0.338 C 
ATOM     33  O   UNL     1      -9.641  85.154  -7.263  1.00  0.00    -0.246 OA
BRANCH  32  34
ATOM     34  C   UNL     1     -10.821  83.763  -8.798  1.00  0.00     0.060 A 
ATOM     35  C   UNL     1     -11.024  82.417  -9.155  1.00  0.00     0.015 A 
ATOM     36  C   UNL     1     -11.792  84.719  -9.150  1.00  0.00     0.015 A 
ATOM     37  C   UNL     1     -12.178  82.038  -9.853  1.00  0.00     0.001 A 
ATOM     38  C   UNL     1     -12.941  84.334  -9.851  1.00  0.00     0.001 A 
ATOM     39  C   UNL     1     -13.133  82.996 -10.198  1.00  0.00     0.000 A 
ENDBRANCH  32  34
ENDBRANCH  31  32
ENDBRANCH  30  31
ENDBRANCH   8  30
TORSDOF 12
ENDMDL
