MODEL 1
REMARK VINA RESULT:    -5.628      0.000      0.000
REMARK INTER + INTRA:          -9.595
REMARK INTER:                  -8.588
REMARK INTRA:                  -1.007
REMARK UNBOUND:                -1.007
REMARK SMILES CCCCCCCCCC=CC(=O)[O-]
REMARK SMILES IDX 7 1 8 2 9 3 10 4 11 5 12 6 13 7 14 8 6 9 5 10 4 11 3 12 2 13
REMARK SMILES IDX 1 14
REMARK H PARENT
REMARK Flexibility Score: inf
ROOT
ATOM      1  C   UNL     1       7.812 -55.633 -28.900  1.00  0.00     0.000 C 
ENDROOT
BRANCH   1   2
ATOM      2  C   UNL     1       9.337 -55.871 -28.908  1.00  0.00     0.004 C 
BRANCH   2   3
ATOM      3  C   UNL     1      10.160 -54.714 -29.503  1.00  0.00     0.027 C 
BRANCH   3   4
ATOM      4  C   UNL     1       9.417 -53.964 -30.578  1.00  0.00    -0.025 C 
ATOM      5  C   UNL     1       9.403 -54.265 -31.887  1.00  0.00     0.020 C 
BRANCH   5   6
ATOM      6  C   UNL     1      10.054 -55.422 -32.531  1.00  0.00     0.064 C 
ATOM      7  O   UNL     1      11.169 -55.258 -33.093  1.00  0.00    -0.545 OA
ATOM      8  O   UNL     1       9.462 -56.678 -32.574  1.00  0.00    -0.545 OA
ENDBRANCH   5   6
ENDBRANCH   3   4
ENDBRANCH   2   3
ENDBRANCH   1   2
BRANCH   1   9
ATOM      9  C   UNL     1       7.015 -56.418 -29.957  1.00  0.00     0.000 C 
BRANCH   9  10
ATOM     10  C   UNL     1       6.049 -55.531 -30.759  1.00  0.00     0.000 C 
BRANCH  10  11
ATOM     11  C   UNL     1       4.639 -56.137 -30.880  1.00  0.00    -0.000 C 
BRANCH  11  12
ATOM     12  C   UNL     1       4.017 -56.629 -29.557  1.00  0.00    -0.000 C 
BRANCH  12  13
ATOM     13  C   UNL     1       3.535 -55.514 -28.611  1.00  0.00    -0.003 C 
ATOM     14  C   UNL     1       4.008 -55.710 -27.171  1.00  0.00     0.004 C 
ENDBRANCH  12  13
ENDBRANCH  11  12
ENDBRANCH  10  11
ENDBRANCH   9  10
ENDBRANCH   1   9
TORSDOF 9
ENDMDL
MODEL 2
REMARK VINA RESULT:    -5.533      3.198      6.122
REMARK INTER + INTRA:          -9.451
REMARK INTER:                  -8.388
REMARK INTRA:                  -1.063
REMARK UNBOUND:                -1.007
REMARK SMILES CCCCCCCCCC=CC(=O)[O-]
REMARK SMILES IDX 7 1 8 2 9 3 10 4 11 5 12 6 13 7 14 8 6 9 5 10 4 11 3 12 2 13
REMARK SMILES IDX 1 14
REMARK H PARENT
REMARK Flexibility Score: inf
ROOT
ATOM      1  C   UNL     1       7.647 -55.786 -28.712  1.00  0.00     0.000 C 
ENDROOT
BRANCH   1   2
ATOM      2  C   UNL     1       6.930 -56.398 -29.934  1.00  0.00     0.004 C 
BRANCH   2   3
ATOM      3  C   UNL     1       5.673 -55.633 -30.386  1.00  0.00     0.027 C 
BRANCH   3   4
ATOM      4  C   UNL     1       4.414 -56.447 -30.242  1.00  0.00    -0.025 C 
ATOM      5  C   UNL     1       3.598 -56.459 -29.176  1.00  0.00     0.020 C 
BRANCH   5   6
ATOM      6  C   UNL     1       3.728 -55.634 -27.958  1.00  0.00     0.064 C 
ATOM      7  O   UNL     1       3.041 -54.584 -27.858  1.00  0.00    -0.545 OA
ATOM      8  O   UNL     1       4.613 -55.954 -26.937  1.00  0.00    -0.545 OA
ENDBRANCH   5   6
ENDBRANCH   3   4
ENDBRANCH   2   3
ENDBRANCH   1   2
BRANCH   1   9
ATOM      9  C   UNL     1       9.177 -55.671 -28.834  1.00  0.00     0.000 C 
BRANCH   9  10
ATOM     10  C   UNL     1       9.624 -54.396 -29.570  1.00  0.00     0.000 C 
BRANCH  10  11
ATOM     11  C   UNL     1      10.028 -54.659 -31.032  1.00  0.00    -0.000 C 
BRANCH  11  12
ATOM     12  C   UNL     1       8.996 -54.220 -32.090  1.00  0.00    -0.000 C 
BRANCH  12  13
ATOM     13  C   UNL     1       8.537 -55.330 -33.052  1.00  0.00    -0.003 C 
ATOM     14  C   UNL     1       9.685 -56.220 -33.525  1.00  0.00     0.004 C 
ENDBRANCH  12  13
ENDBRANCH  11  12
ENDBRANCH  10  11
ENDBRANCH   9  10
ENDBRANCH   1   9
TORSDOF 9
ENDMDL
MODEL 3
REMARK VINA RESULT:    -5.493      1.232      2.339
REMARK INTER + INTRA:          -9.389
REMARK INTER:                  -8.563
REMARK INTRA:                  -0.827
REMARK UNBOUND:                -1.007
REMARK SMILES CCCCCCCCCC=CC(=O)[O-]
REMARK SMILES IDX 7 1 8 2 9 3 10 4 11 5 12 6 13 7 14 8 6 9 5 10 4 11 3 12 2 13
REMARK SMILES IDX 1 14
REMARK H PARENT
REMARK Flexibility Score: inf
ROOT
ATOM      1  C   UNL     1       6.384 -56.364 -30.115  1.00  0.00     0.000 C 
ENDROOT
BRANCH   1   2
ATOM      2  C   UNL     1       7.092 -55.839 -28.849  1.00  0.00     0.004 C 
BRANCH   2   3
ATOM      3  C   UNL     1       8.623 -55.998 -28.861  1.00  0.00     0.027 C 
BRANCH   3   4
ATOM      4  C   UNL     1       9.345 -54.676 -28.829  1.00  0.00    -0.025 C 
ATOM      5  C   UNL     1       9.725 -53.956 -29.897  1.00  0.00     0.020 C 
BRANCH   5   6
ATOM      6  C   UNL     1       9.459 -54.276 -31.314  1.00  0.00     0.064 C 
ATOM      7  O   UNL     1       8.350 -53.949 -31.814  1.00  0.00    -0.545 OA
ATOM      8  O   UNL     1      10.372 -54.961 -32.104  1.00  0.00    -0.545 OA
ENDBRANCH   5   6
ENDBRANCH   3   4
ENDBRANCH   2   3
ENDBRANCH   1   2
BRANCH   1   9
ATOM      9  C   UNL     1       5.033 -55.700 -30.440  1.00  0.00     0.000 C 
BRANCH   9  10
ATOM     10  C   UNL     1       3.902 -56.155 -29.502  1.00  0.00     0.000 C 
BRANCH  10  11
ATOM     11  C   UNL     1       3.428 -55.041 -28.552  1.00  0.00    -0.000 C 
BRANCH  11  12
ATOM     12  C   UNL     1       2.758 -55.525 -27.249  1.00  0.00    -0.000 C 
BRANCH  12  13
ATOM     13  C   UNL     1       3.700 -55.640 -26.038  1.00  0.00    -0.003 C 
ATOM     14  C   UNL     1       4.645 -56.838 -26.130  1.00  0.00     0.004 C 
ENDBRANCH  12  13
ENDBRANCH  11  12
ENDBRANCH  10  11
ENDBRANCH   9  10
ENDBRANCH   1   9
TORSDOF 9
ENDMDL
MODEL 4
REMARK VINA RESULT:    -5.339      1.629      3.265
REMARK INTER + INTRA:          -9.155
REMARK INTER:                  -8.204
REMARK INTRA:                  -0.951
REMARK UNBOUND:                -1.007
REMARK SMILES CCCCCCCCCC=CC(=O)[O-]
REMARK SMILES IDX 7 1 8 2 9 3 10 4 11 5 12 6 13 7 14 8 6 9 5 10 4 11 3 12 2 13
REMARK SMILES IDX 1 14
REMARK H PARENT
REMARK Flexibility Score: inf
ROOT
ATOM      1  C   UNL     1       4.494 -55.451 -30.223  1.00  0.00     0.000 C 
ENDROOT
BRANCH   1   2
ATOM      2  C   UNL     1       5.177 -55.357 -31.604  1.00  0.00     0.004 C 
BRANCH   2   3
ATOM      3  C   UNL     1       6.684 -55.045 -31.550  1.00  0.00     0.027 C 
BRANCH   3   4
ATOM      4  C   UNL     1       7.401 -55.825 -30.481  1.00  0.00    -0.025 C 
ATOM      5  C   UNL     1       8.652 -55.604 -30.044  1.00  0.00     0.020 C 
BRANCH   5   6
ATOM      6  C   UNL     1       9.554 -54.516 -30.473  1.00  0.00     0.064 C 
ATOM      7  O   UNL     1       9.775 -53.562 -29.682  1.00  0.00    -0.545 OA
ATOM      8  O   UNL     1      10.135 -54.488 -31.734  1.00  0.00    -0.545 OA
ENDBRANCH   5   6
ENDBRANCH   3   4
ENDBRANCH   2   3
ENDBRANCH   1   2
BRANCH   1   9
ATOM      9  C   UNL     1       3.942 -56.839 -29.852  1.00  0.00     0.000 C 
BRANCH   9  10
ATOM     10  C   UNL     1       4.495 -57.367 -28.518  1.00  0.00     0.000 C 
BRANCH  10  11
ATOM     11  C   UNL     1       4.818 -56.242 -27.518  1.00  0.00    -0.000 C 
BRANCH  11  12
ATOM     12  C   UNL     1       4.140 -56.370 -26.139  1.00  0.00    -0.000 C 
BRANCH  12  13
ATOM     13  C   UNL     1       2.825 -55.585 -25.985  1.00  0.00    -0.003 C 
ATOM     14  C   UNL     1       2.583 -54.599 -27.127  1.00  0.00     0.004 C 
ENDBRANCH  12  13
ENDBRANCH  11  12
ENDBRANCH  10  11
ENDBRANCH   9  10
ENDBRANCH   1   9
TORSDOF 9
ENDMDL
MODEL 5
REMARK VINA RESULT:    -5.292      2.054      3.236
REMARK INTER + INTRA:          -9.083
REMARK INTER:                  -8.259
REMARK INTRA:                  -0.824
REMARK UNBOUND:                -1.007
REMARK SMILES CCCCCCCCCC=CC(=O)[O-]
REMARK SMILES IDX 7 1 8 2 9 3 10 4 11 5 12 6 13 7 14 8 6 9 5 10 4 11 3 12 2 13
REMARK SMILES IDX 1 14
REMARK H PARENT
REMARK Flexibility Score: inf
ROOT
ATOM      1  C   UNL     1       4.958 -55.910 -30.908  1.00  0.00     0.000 C 
ENDROOT
BRANCH   1   2
ATOM      2  C   UNL     1       6.311 -55.330 -30.446  1.00  0.00     0.004 C 
BRANCH   2   3
ATOM      3  C   UNL     1       7.448 -56.363 -30.345  1.00  0.00     0.027 C 
BRANCH   3   4
ATOM      4  C   UNL     1       8.590 -56.064 -31.281  1.00  0.00    -0.025 C 
ATOM      5  C   UNL     1       9.667 -55.313 -31.000  1.00  0.00     0.020 C 
BRANCH   5   6
ATOM      6  C   UNL     1       9.987 -54.683 -29.704  1.00  0.00     0.064 C 
ATOM      7  O   UNL     1       9.740 -53.459 -29.544  1.00  0.00    -0.545 OA
ATOM      8  O   UNL     1      10.590 -55.385 -28.667  1.00  0.00    -0.545 OA
ENDBRANCH   5   6
ENDBRANCH   3   4
ENDBRANCH   2   3
ENDBRANCH   1   2
BRANCH   1   9
ATOM      9  C   UNL     1       4.084 -56.514 -29.795  1.00  0.00     0.000 C 
BRANCH   9  10
ATOM     10  C   UNL     1       3.581 -55.463 -28.791  1.00  0.00     0.000 C 
BRANCH  10  11
ATOM     11  C   UNL     1       4.070 -55.724 -27.356  1.00  0.00    -0.000 C 
BRANCH  11  12
ATOM     12  C   UNL     1       5.212 -56.753 -27.224  1.00  0.00    -0.000 C 
BRANCH  12  13
ATOM     13  C   UNL     1       5.184 -57.594 -25.936  1.00  0.00    -0.003 C 
ATOM     14  C   UNL     1       3.949 -57.328 -25.077  1.00  0.00     0.004 C 
ENDBRANCH  12  13
ENDBRANCH  11  12
ENDBRANCH  10  11
ENDBRANCH   9  10
ENDBRANCH   1   9
TORSDOF 9
ENDMDL
MODEL 6
REMARK VINA RESULT:    -5.279      3.159      6.496
REMARK INTER + INTRA:          -9.063
REMARK INTER:                  -8.228
REMARK INTRA:                  -0.835
REMARK UNBOUND:                -1.007
REMARK SMILES CCCCCCCCCC=CC(=O)[O-]
REMARK SMILES IDX 7 1 8 2 9 3 10 4 11 5 12 6 13 7 14 8 6 9 5 10 4 11 3 12 2 13
REMARK SMILES IDX 1 14
REMARK H PARENT
REMARK Flexibility Score: inf
ROOT
ATOM      1  C   UNL     1       5.828 -55.525 -30.129  1.00  0.00     0.000 C 
ENDROOT
BRANCH   1   2
ATOM      2  C   UNL     1       4.542 -56.278 -30.528  1.00  0.00     0.004 C 
BRANCH   2   3
ATOM      3  C   UNL     1       3.620 -56.637 -29.349  1.00  0.00     0.027 C 
BRANCH   3   4
ATOM      4  C   UNL     1       3.446 -55.497 -28.380  1.00  0.00    -0.025 C 
ATOM      5  C   UNL     1       3.797 -55.500 -27.084  1.00  0.00     0.020 C 
BRANCH   5   6
ATOM      6  C   UNL     1       4.481 -56.590 -26.360  1.00  0.00     0.064 C 
ATOM      7  O   UNL     1       5.653 -56.902 -26.696  1.00  0.00    -0.545 OA
ATOM      8  O   UNL     1       3.861 -57.311 -25.347  1.00  0.00    -0.545 OA
ENDBRANCH   5   6
ENDBRANCH   3   4
ENDBRANCH   2   3
ENDBRANCH   1   2
BRANCH   1   9
ATOM      9  C   UNL     1       7.072 -56.408 -29.919  1.00  0.00     0.000 C 
BRANCH   9  10
ATOM     10  C   UNL     1       8.156 -55.721 -29.071  1.00  0.00     0.000 C 
BRANCH  10  11
ATOM     11  C   UNL     1       8.817 -54.533 -29.792  1.00  0.00    -0.000 C 
BRANCH  11  12
ATOM     12  C   UNL     1      10.104 -54.868 -30.573  1.00  0.00    -0.000 C 
BRANCH  12  13
ATOM     13  C   UNL     1       9.977 -54.782 -32.104  1.00  0.00    -0.003 C 
ATOM     14  C   UNL     1       9.533 -56.099 -32.739  1.00  0.00     0.004 C 
ENDBRANCH  12  13
ENDBRANCH  11  12
ENDBRANCH  10  11
ENDBRANCH   9  10
ENDBRANCH   1   9
TORSDOF 9
ENDMDL
MODEL 7
REMARK VINA RESULT:    -5.268      3.533      6.584
REMARK INTER + INTRA:          -9.046
REMARK INTER:                  -8.270
REMARK INTRA:                  -0.776
REMARK UNBOUND:                -1.007
REMARK SMILES CCCCCCCCCC=CC(=O)[O-]
REMARK SMILES IDX 7 1 8 2 9 3 10 4 11 5 12 6 13 7 14 8 6 9 5 10 4 11 3 12 2 13
REMARK SMILES IDX 1 14
REMARK H PARENT
REMARK Flexibility Score: inf
ROOT
ATOM      1  C   UNL     1       5.904 -55.854 -29.235  1.00  0.00     0.000 C 
ENDROOT
BRANCH   1   2
ATOM      2  C   UNL     1       4.502 -55.839 -29.879  1.00  0.00     0.004 C 
BRANCH   2   3
ATOM      3  C   UNL     1       3.344 -56.076 -28.892  1.00  0.00     0.027 C 
BRANCH   3   4
ATOM      4  C   UNL     1       3.231 -54.988 -27.856  1.00  0.00    -0.025 C 
ATOM      5  C   UNL     1       3.414 -55.133 -26.534  1.00  0.00     0.020 C 
BRANCH   5   6
ATOM      6  C   UNL     1       3.825 -56.365 -25.832  1.00  0.00     0.064 C 
ATOM      7  O   UNL     1       3.018 -56.909 -25.033  1.00  0.00    -0.545 OA
ATOM      8  O   UNL     1       5.087 -56.922 -25.990  1.00  0.00    -0.545 OA
ENDBRANCH   5   6
ENDBRANCH   3   4
ENDBRANCH   2   3
ENDBRANCH   1   2
BRANCH   1   9
ATOM      9  C   UNL     1       7.071 -56.123 -30.202  1.00  0.00     0.000 C 
BRANCH   9  10
ATOM     10  C   UNL     1       7.003 -55.265 -31.477  1.00  0.00     0.000 C 
BRANCH  10  11
ATOM     11  C   UNL     1       8.075 -54.161 -31.514  1.00  0.00    -0.000 C 
BRANCH  11  12
ATOM     12  C   UNL     1       9.452 -54.560 -30.945  1.00  0.00    -0.000 C 
BRANCH  12  13
ATOM     13  C   UNL     1       9.864 -53.820 -29.660  1.00  0.00    -0.003 C 
ATOM     14  C   UNL     1      10.071 -54.760 -28.473  1.00  0.00     0.004 C 
ENDBRANCH  12  13
ENDBRANCH  11  12
ENDBRANCH  10  11
ENDBRANCH   9  10
ENDBRANCH   1   9
TORSDOF 9
ENDMDL
MODEL 8
REMARK VINA RESULT:    -5.214      1.696      3.323
REMARK INTER + INTRA:          -8.963
REMARK INTER:                  -8.197
REMARK INTRA:                  -0.766
REMARK UNBOUND:                -1.007
REMARK SMILES CCCCCCCCCC=CC(=O)[O-]
REMARK SMILES IDX 7 1 8 2 9 3 10 4 11 5 12 6 13 7 14 8 6 9 5 10 4 11 3 12 2 13
REMARK SMILES IDX 1 14
REMARK H PARENT
REMARK Flexibility Score: inf
ROOT
ATOM      1  C   UNL     1       4.837 -55.395 -29.525  1.00  0.00     0.000 C 
ENDROOT
BRANCH   1   2
ATOM      2  C   UNL     1       5.907 -56.507 -29.563  1.00  0.00     0.004 C 
BRANCH   2   3
ATOM      3  C   UNL     1       7.246 -56.084 -30.194  1.00  0.00     0.027 C 
BRANCH   3   4
ATOM      4  C   UNL     1       7.087 -54.981 -31.208  1.00  0.00    -0.025 C 
ATOM      5  C   UNL     1       8.068 -54.197 -31.684  1.00  0.00     0.020 C 
BRANCH   5   6
ATOM      6  C   UNL     1       9.506 -54.295 -31.364  1.00  0.00     0.064 C 
ATOM      7  O   UNL     1       9.920 -53.828 -30.271  1.00  0.00    -0.545 OA
ATOM      8  O   UNL     1      10.426 -54.847 -32.246  1.00  0.00    -0.545 OA
ENDBRANCH   5   6
ENDBRANCH   3   4
ENDBRANCH   2   3
ENDBRANCH   1   2
BRANCH   1   9
ATOM      9  C   UNL     1       3.460 -55.821 -28.984  1.00  0.00     0.000 C 
BRANCH   9  10
ATOM     10  C   UNL     1       2.953 -54.911 -27.853  1.00  0.00     0.000 C 
BRANCH  10  11
ATOM     11  C   UNL     1       2.548 -55.695 -26.591  1.00  0.00    -0.000 C 
BRANCH  11  12
ATOM     12  C   UNL     1       3.629 -55.785 -25.495  1.00  0.00    -0.000 C 
BRANCH  12  13
ATOM     13  C   UNL     1       4.100 -57.211 -25.161  1.00  0.00    -0.003 C 
ATOM     14  C   UNL     1       5.166 -57.727 -26.127  1.00  0.00     0.004 C 
ENDBRANCH  12  13
ENDBRANCH  11  12
ENDBRANCH  10  11
ENDBRANCH   9  10
ENDBRANCH   1   9
TORSDOF 9
ENDMDL
MODEL 9
REMARK VINA RESULT:    -5.200      3.999      6.463
REMARK INTER + INTRA:          -8.942
REMARK INTER:                  -8.003
REMARK INTRA:                  -0.939
REMARK UNBOUND:                -1.007
REMARK SMILES CCCCCCCCCC=CC(=O)[O-]
REMARK SMILES IDX 7 1 8 2 9 3 10 4 11 5 12 6 13 7 14 8 6 9 5 10 4 11 3 12 2 13
REMARK SMILES IDX 1 14
REMARK H PARENT
REMARK Flexibility Score: inf
ROOT
ATOM      1  C   UNL     1       6.222 -56.165 -30.380  1.00  0.00     0.000 C 
ENDROOT
BRANCH   1   2
ATOM      2  C   UNL     1       6.597 -55.812 -28.926  1.00  0.00     0.004 C 
BRANCH   2   3
ATOM      3  C   UNL     1       5.611 -56.339 -27.866  1.00  0.00     0.027 C 
BRANCH   3   4
ATOM      4  C   UNL     1       4.172 -56.118 -28.251  1.00  0.00    -0.025 C 
ATOM      5  C   UNL     1       3.201 -55.653 -27.448  1.00  0.00     0.020 C 
BRANCH   5   6
ATOM      6  C   UNL     1       3.355 -55.202 -26.051  1.00  0.00     0.064 C 
ATOM      7  O   UNL     1       3.305 -53.970 -25.799  1.00  0.00    -0.545 OA
ATOM      8  O   UNL     1       3.594 -56.088 -25.008  1.00  0.00    -0.545 OA
ENDBRANCH   5   6
ENDBRANCH   3   4
ENDBRANCH   2   3
ENDBRANCH   1   2
BRANCH   1   9
ATOM      9  C   UNL     1       6.167 -54.976 -31.356  1.00  0.00     0.000 C 
BRANCH   9  10
ATOM     10  C   UNL     1       7.347 -54.956 -32.342  1.00  0.00     0.000 C 
BRANCH  10  11
ATOM     11  C   UNL     1       8.569 -54.196 -31.798  1.00  0.00    -0.000 C 
BRANCH  11  12
ATOM     12  C   UNL     1       9.791 -55.071 -31.453  1.00  0.00    -0.000 C 
BRANCH  12  13
ATOM     13  C   UNL     1      10.094 -55.202 -29.949  1.00  0.00    -0.003 C 
ATOM     14  C   UNL     1       9.696 -53.960 -29.153  1.00  0.00     0.004 C 
ENDBRANCH  12  13
ENDBRANCH  11  12
ENDBRANCH  10  11
ENDBRANCH   9  10
ENDBRANCH   1   9
TORSDOF 9
ENDMDL
