MODEL 1
REMARK VINA RESULT:    -4.148      0.000      0.000
REMARK INTER + INTRA:          -5.526
REMARK INTER:                  -5.360
REMARK INTRA:                  -0.165
REMARK UNBOUND:                -0.165
REMARK SMILES CCCCCCC(=O)[O-]
REMARK SMILES IDX 5 1 6 2 7 3 8 4 9 5 4 6 3 7 2 8 1 9
REMARK H PARENT
REMARK Flexibility Score: inf
ROOT
ATOM      1  C   UNL     1      26.794  43.860  35.157  1.00  0.00     0.006 C 
ENDROOT
BRANCH   1   2
ATOM      2  C   UNL     1      27.786  42.699  35.013  1.00  0.00     0.053 C 
BRANCH   2   3
ATOM      3  C   UNL     1      27.347  41.723  33.965  1.00  0.00     0.041 C 
ATOM      4  O   UNL     1      27.714  41.867  32.769  1.00  0.00    -0.550 OA
ATOM      5  O   UNL     1      26.503  40.672  34.304  1.00  0.00    -0.550 OA
ENDBRANCH   2   3
ENDBRANCH   1   2
BRANCH   1   6
ATOM      6  C   UNL     1      25.702  43.564  36.199  1.00  0.00     0.000 C 
BRANCH   6   7
ATOM      7  C   UNL     1      24.286  43.551  35.595  1.00  0.00    -0.000 C 
BRANCH   7   8
ATOM      8  C   UNL     1      23.326  44.603  36.179  1.00  0.00    -0.003 C 
ATOM      9  C   UNL     1      21.977  44.644  35.466  1.00  0.00     0.004 C 
ENDBRANCH   7   8
ENDBRANCH   6   7
ENDBRANCH   1   6
TORSDOF 5
ENDMDL
MODEL 2
REMARK VINA RESULT:    -4.079      1.356      1.728
REMARK INTER + INTRA:          -5.437
REMARK INTER:                  -5.228
REMARK INTRA:                  -0.209
REMARK UNBOUND:                -0.165
REMARK SMILES CCCCCCC(=O)[O-]
REMARK SMILES IDX 5 1 6 2 7 3 8 4 9 5 4 6 3 7 2 8 1 9
REMARK H PARENT
REMARK Flexibility Score: inf
ROOT
ATOM      1  C   UNL     1      25.833  43.526  36.154  1.00  0.00     0.006 C 
ENDROOT
BRANCH   1   2
ATOM      2  C   UNL     1      26.958  43.921  35.189  1.00  0.00     0.053 C 
BRANCH   2   3
ATOM      3  C   UNL     1      27.984  42.837  35.062  1.00  0.00     0.041 C 
ATOM      4  O   UNL     1      28.883  42.708  35.934  1.00  0.00    -0.550 OA
ATOM      5  O   UNL     1      27.967  41.988  33.961  1.00  0.00    -0.550 OA
ENDBRANCH   2   3
ENDBRANCH   1   2
BRANCH   1   6
ATOM      6  C   UNL     1      24.852  42.524  35.525  1.00  0.00     0.000 C 
BRANCH   6   7
ATOM      7  C   UNL     1      23.522  43.173  35.100  1.00  0.00    -0.000 C 
BRANCH   7   8
ATOM      8  C   UNL     1      23.231  44.534  35.757  1.00  0.00    -0.003 C 
ATOM      9  C   UNL     1      21.738  44.808  35.927  1.00  0.00     0.004 C 
ENDBRANCH   7   8
ENDBRANCH   6   7
ENDBRANCH   1   6
TORSDOF 5
ENDMDL
MODEL 3
REMARK VINA RESULT:    -4.072      4.092      6.609
REMARK INTER + INTRA:          -5.428
REMARK INTER:                  -5.257
REMARK INTRA:                  -0.171
REMARK UNBOUND:                -0.165
REMARK SMILES CCCCCCC(=O)[O-]
REMARK SMILES IDX 5 1 6 2 7 3 8 4 9 5 4 6 3 7 2 8 1 9
REMARK H PARENT
REMARK Flexibility Score: inf
ROOT
ATOM      1  C   UNL     1      28.167  39.190  33.869  1.00  0.00     0.006 C 
ENDROOT
BRANCH   1   2
ATOM      2  C   UNL     1      27.245  40.413  33.945  1.00  0.00     0.053 C 
BRANCH   2   3
ATOM      3  C   UNL     1      27.666  41.485  32.987  1.00  0.00     0.041 C 
ATOM      4  O   UNL     1      27.913  41.201  31.785  1.00  0.00    -0.550 OA
ATOM      5  O   UNL     1      27.819  42.793  33.429  1.00  0.00    -0.550 OA
ENDBRANCH   2   3
ENDBRANCH   1   2
BRANCH   1   6
ATOM      6  C   UNL     1      27.406  37.913  33.475  1.00  0.00     0.000 C 
BRANCH   6   7
ATOM      7  C   UNL     1      27.416  37.654  31.957  1.00  0.00    -0.000 C 
BRANCH   7   8
ATOM      8  C   UNL     1      27.404  36.168  31.557  1.00  0.00    -0.003 C 
ATOM      9  C   UNL     1      28.198  35.884  30.283  1.00  0.00     0.004 C 
ENDBRANCH   7   8
ENDBRANCH   6   7
ENDBRANCH   1   6
TORSDOF 5
ENDMDL
MODEL 4
REMARK VINA RESULT:    -4.066      7.705      9.632
REMARK INTER + INTRA:          -5.420
REMARK INTER:                  -5.269
REMARK INTRA:                  -0.151
REMARK UNBOUND:                -0.165
REMARK SMILES CCCCCCC(=O)[O-]
REMARK SMILES IDX 5 1 6 2 7 3 8 4 9 5 4 6 3 7 2 8 1 9
REMARK H PARENT
REMARK Flexibility Score: inf
ROOT
ATOM      1  C   UNL     1      27.451  35.913  31.140  1.00  0.00     0.006 C 
ENDROOT
BRANCH   1   2
ATOM      2  C   UNL     1      27.516  36.564  32.527  1.00  0.00     0.053 C 
BRANCH   2   3
ATOM      3  C   UNL     1      27.540  35.538  33.618  1.00  0.00     0.041 C 
ATOM      4  O   UNL     1      28.146  34.447  33.451  1.00  0.00    -0.550 OA
ATOM      5  O   UNL     1      26.863  35.774  34.809  1.00  0.00    -0.550 OA
ENDBRANCH   2   3
ENDBRANCH   1   2
BRANCH   1   6
ATOM      6  C   UNL     1      26.046  35.382  30.812  1.00  0.00     0.000 C 
BRANCH   6   7
ATOM      7  C   UNL     1      26.066  33.962  30.216  1.00  0.00    -0.000 C 
BRANCH   7   8
ATOM      8  C   UNL     1      24.687  33.417  29.804  1.00  0.00    -0.003 C 
ATOM      9  C   UNL     1      24.772  32.291  28.775  1.00  0.00     0.004 C 
ENDBRANCH   7   8
ENDBRANCH   6   7
ENDBRANCH   1   6
TORSDOF 5
ENDMDL
MODEL 5
REMARK VINA RESULT:    -4.025      6.517      8.908
REMARK INTER + INTRA:          -5.367
REMARK INTER:                  -5.112
REMARK INTRA:                  -0.255
REMARK UNBOUND:                -0.165
REMARK SMILES CCCCCCC(=O)[O-]
REMARK SMILES IDX 5 1 6 2 7 3 8 4 9 5 4 6 3 7 2 8 1 9
REMARK H PARENT
REMARK Flexibility Score: inf
ROOT
ATOM      1  C   UNL     1      27.712  35.766  32.789  1.00  0.00     0.006 C 
ENDROOT
BRANCH   1   2
ATOM      2  C   UNL     1      27.546  36.944  31.821  1.00  0.00     0.053 C 
BRANCH   2   3
ATOM      3  C   UNL     1      27.549  38.257  32.541  1.00  0.00     0.041 C 
ATOM      4  O   UNL     1      27.937  39.302  31.955  1.00  0.00    -0.550 OA
ATOM      5  O   UNL     1      27.154  38.321  33.872  1.00  0.00    -0.550 OA
ENDBRANCH   2   3
ENDBRANCH   1   2
BRANCH   1   6
ATOM      6  C   UNL     1      28.638  34.676  32.224  1.00  0.00     0.000 C 
BRANCH   6   7
ATOM      7  C   UNL     1      27.873  33.425  31.754  1.00  0.00    -0.000 C 
BRANCH   7   8
ATOM      8  C   UNL     1      27.402  33.471  30.289  1.00  0.00    -0.003 C 
ATOM      9  C   UNL     1      25.906  33.746  30.150  1.00  0.00     0.004 C 
ENDBRANCH   7   8
ENDBRANCH   6   7
ENDBRANCH   1   6
TORSDOF 5
ENDMDL
MODEL 6
REMARK VINA RESULT:    -3.947      3.176      4.703
REMARK INTER + INTRA:          -5.266
REMARK INTER:                  -5.135
REMARK INTRA:                  -0.131
REMARK UNBOUND:                -0.165
REMARK SMILES CCCCCCC(=O)[O-]
REMARK SMILES IDX 5 1 6 2 7 3 8 4 9 5 4 6 3 7 2 8 1 9
REMARK H PARENT
REMARK Flexibility Score: inf
ROOT
ATOM      1  C   UNL     1      28.051  39.731  32.163  1.00  0.00     0.006 C 
ENDROOT
BRANCH   1   2
ATOM      2  C   UNL     1      27.483  38.909  33.327  1.00  0.00     0.053 C 
BRANCH   2   3
ATOM      3  C   UNL     1      27.386  37.455  32.981  1.00  0.00     0.041 C 
ATOM      4  O   UNL     1      27.231  37.096  31.784  1.00  0.00    -0.550 OA
ATOM      5  O   UNL     1      27.432  36.496  33.986  1.00  0.00    -0.550 OA
ENDBRANCH   2   3
ENDBRANCH   1   2
BRANCH   1   6
ATOM      6  C   UNL     1      27.828  41.241  32.355  1.00  0.00     0.000 C 
BRANCH   6   7
ATOM      7  C   UNL     1      27.473  41.614  33.806  1.00  0.00    -0.000 C 
BRANCH   7   8
ATOM      8  C   UNL     1      27.783  43.072  34.191  1.00  0.00    -0.003 C 
ATOM      9  C   UNL     1      26.830  43.627  35.247  1.00  0.00     0.004 C 
ENDBRANCH   7   8
ENDBRANCH   6   7
ENDBRANCH   1   6
TORSDOF 5
ENDMDL
MODEL 7
REMARK VINA RESULT:    -3.845      4.792      7.638
REMARK INTER + INTRA:          -5.134
REMARK INTER:                  -5.005
REMARK INTRA:                  -0.129
REMARK UNBOUND:                -0.165
REMARK SMILES CCCCCCC(=O)[O-]
REMARK SMILES IDX 5 1 6 2 7 3 8 4 9 5 4 6 3 7 2 8 1 9
REMARK H PARENT
REMARK Flexibility Score: inf
ROOT
ATOM      1  C   UNL     1      27.597  38.396  32.133  1.00  0.00     0.006 C 
ENDROOT
BRANCH   1   2
ATOM      2  C   UNL     1      27.714  39.175  33.449  1.00  0.00     0.053 C 
BRANCH   2   3
ATOM      3  C   UNL     1      27.692  40.655  33.219  1.00  0.00     0.041 C 
ATOM      4  O   UNL     1      27.442  41.442  34.170  1.00  0.00    -0.550 OA
ATOM      5  O   UNL     1      27.916  41.165  31.946  1.00  0.00    -0.550 OA
ENDBRANCH   2   3
ENDBRANCH   1   2
BRANCH   1   6
ATOM      6  C   UNL     1      27.560  36.876  32.359  1.00  0.00     0.000 C 
BRANCH   6   7
ATOM      7  C   UNL     1      27.946  36.073  31.103  1.00  0.00    -0.000 C 
BRANCH   7   8
ATOM      8  C   UNL     1      28.706  34.764  31.383  1.00  0.00    -0.003 C 
ATOM      9  C   UNL     1      28.680  34.360  32.855  1.00  0.00     0.004 C 
ENDBRANCH   7   8
ENDBRANCH   6   7
ENDBRANCH   1   6
TORSDOF 5
ENDMDL
MODEL 8
REMARK VINA RESULT:    -3.827      2.383      3.167
REMARK INTER + INTRA:          -5.111
REMARK INTER:                  -5.027
REMARK INTRA:                  -0.084
REMARK UNBOUND:                -0.165
REMARK SMILES CCCCCCC(=O)[O-]
REMARK SMILES IDX 5 1 6 2 7 3 8 4 9 5 4 6 3 7 2 8 1 9
REMARK H PARENT
REMARK Flexibility Score: inf
ROOT
ATOM      1  C   UNL     1      26.825  40.592  34.080  1.00  0.00     0.006 C 
ENDROOT
BRANCH   1   2
ATOM      2  C   UNL     1      26.798  39.070  34.272  1.00  0.00     0.053 C 
BRANCH   2   3
ATOM      3  C   UNL     1      27.378  38.354  33.091  1.00  0.00     0.041 C 
ATOM      4  O   UNL     1      27.487  37.099  33.100  1.00  0.00    -0.550 OA
ATOM      5  O   UNL     1      27.831  39.076  31.993  1.00  0.00    -0.550 OA
ENDBRANCH   2   3
ENDBRANCH   1   2
BRANCH   1   6
ATOM      6  C   UNL     1      25.653  41.288  34.792  1.00  0.00     0.000 C 
BRANCH   6   7
ATOM      7  C   UNL     1      25.996  42.714  35.258  1.00  0.00    -0.000 C 
BRANCH   7   8
ATOM      8  C   UNL     1      24.994  43.326  36.253  1.00  0.00    -0.003 C 
ATOM      9  C   UNL     1      23.798  43.984  35.568  1.00  0.00     0.004 C 
ENDBRANCH   7   8
ENDBRANCH   6   7
ENDBRANCH   1   6
TORSDOF 5
ENDMDL
MODEL 9
REMARK VINA RESULT:    -3.825      7.666      9.280
REMARK INTER + INTRA:          -5.108
REMARK INTER:                  -4.778
REMARK INTRA:                  -0.330
REMARK UNBOUND:                -0.165
REMARK SMILES CCCCCCC(=O)[O-]
REMARK SMILES IDX 5 1 6 2 7 3 8 4 9 5 4 6 3 7 2 8 1 9
REMARK H PARENT
REMARK Flexibility Score: inf
ROOT
ATOM      1  C   UNL     1      28.446  35.359  31.070  1.00  0.00     0.006 C 
ENDROOT
BRANCH   1   2
ATOM      2  C   UNL     1      27.582  34.963  29.866  1.00  0.00     0.053 C 
BRANCH   2   3
ATOM      3  C   UNL     1      26.177  34.642  30.274  1.00  0.00     0.041 C 
ATOM      4  O   UNL     1      25.413  35.553  30.689  1.00  0.00    -0.550 OA
ATOM      5  O   UNL     1      25.722  33.330  30.229  1.00  0.00    -0.550 OA
ENDBRANCH   2   3
ENDBRANCH   1   2
BRANCH   1   6
ATOM      6  C   UNL     1      28.643  34.192  32.051  1.00  0.00     0.000 C 
BRANCH   6   7
ATOM      7  C   UNL     1      28.076  34.485  33.452  1.00  0.00    -0.000 C 
BRANCH   7   8
ATOM      8  C   UNL     1      27.557  35.921  33.650  1.00  0.00    -0.003 C 
ATOM      9  C   UNL     1      26.883  36.132  35.004  1.00  0.00     0.004 C 
ENDBRANCH   7   8
ENDBRANCH   6   7
ENDBRANCH   1   6
TORSDOF 5
ENDMDL
