MODEL 1
REMARK VINA RESULT:    -4.244      0.000      0.000
REMARK INTER + INTRA:          -8.292
REMARK INTER:                  -6.477
REMARK INTRA:                  -1.815
REMARK UNBOUND:                -1.815
REMARK SMILES OC[C@@H]1O[C@@](CO)(O[C@@H]2O[C@H](CO)[C@H](O)[C@@H](O)[C@@H]2O)[C@H](O)[C@@H]1O
REMARK SMILES IDX 8 1 9 2 11 3 14 4 10 5 16 6 18 7 12 8 13 9 15 11 17 13 19 15
REMARK SMILES IDX 5 17 20 18 4 19 22 20 3 21 6 22 7 23 21 25 23 27 2 29 1 30
REMARK H PARENT 13 10 15 12 17 14 19 16 7 24 21 26 23 28 1 31
REMARK Flexibility Score: inf
ROOT
ATOM      1  O   UNL     1     144.336 144.183 124.257  1.00  0.00    -0.313 OA
ENDROOT
BRANCH   1   2
ATOM      2  C   UNL     1     143.350 143.665 123.374  1.00  0.00     0.285 C 
ATOM      3  C   UNL     1     144.315 142.978 121.278  1.00  0.00     0.178 C 
ATOM      4  C   UNL     1     144.918 144.406 121.200  1.00  0.00     0.177 C 
ATOM      5  O   UNL     1     143.924 142.615 122.598  1.00  0.00    -0.341 OA
ATOM      6  C   UNL     1     143.868 145.453 121.639  1.00  0.00     0.179 C 
ATOM      7  C   UNL     1     142.772 144.824 122.535  1.00  0.00     0.202 C 
BRANCH   3   8
ATOM      8  C   UNL     1     145.288 141.910 120.756  1.00  0.00     0.191 C 
BRANCH   8   9
ATOM      9  O   UNL     1     146.206 141.542 121.751  1.00  0.00    -0.394 OA
ATOM     10  H   UNL     1     147.114 141.633 121.359  1.00  0.00     0.210 HD
ENDBRANCH   8   9
ENDBRANCH   3   8
BRANCH   4  11
ATOM     11  O   UNL     1     146.050 144.501 122.033  1.00  0.00    -0.387 OA
ATOM     12  H   UNL     1     146.848 144.482 121.444  1.00  0.00     0.211 HD
ENDBRANCH   4  11
BRANCH   6  13
ATOM     13  O   UNL     1     143.274 146.021 120.499  1.00  0.00    -0.387 OA
ATOM     14  H   UNL     1     142.411 146.419 120.788  1.00  0.00     0.211 HD
ENDBRANCH   6  13
BRANCH   7  15
ATOM     15  O   UNL     1     142.229 145.795 123.395  1.00  0.00    -0.385 OA
ATOM     16  H   UNL     1     141.664 146.392 122.838  1.00  0.00     0.211 HD
ENDBRANCH   7  15
ENDBRANCH   1   2
BRANCH   1  17
ATOM     17  C   UNL     1     144.094 143.904 125.635  1.00  0.00     0.224 C 
ATOM     18  C   UNL     1     145.416 144.127 126.383  1.00  0.00     0.208 C 
ATOM     19  O   UNL     1     143.170 144.832 126.173  1.00  0.00    -0.337 OA
ATOM     20  C   UNL     1     145.402 145.625 126.581  1.00  0.00     0.180 C 
ATOM     21  C   UNL     1     143.900 145.957 126.623  1.00  0.00     0.179 C 
BRANCH  17  22
ATOM     22  C   UNL     1     143.560 142.460 125.824  1.00  0.00     0.225 C 
BRANCH  22  23
ATOM     23  O   UNL     1     144.569 141.518 125.572  1.00  0.00    -0.391 OA
ATOM     24  H   UNL     1     145.392 141.851 126.016  1.00  0.00     0.210 HD
ENDBRANCH  22  23
ENDBRANCH  17  22
BRANCH  18  25
ATOM     25  O   UNL     1     145.420 143.482 127.634  1.00  0.00    -0.385 OA
ATOM     26  H   UNL     1     145.943 144.051 128.258  1.00  0.00     0.211 HD
ENDBRANCH  18  25
BRANCH  20  27
ATOM     27  O   UNL     1     146.089 146.018 127.744  1.00  0.00    -0.387 OA
ATOM     28  H   UNL     1     146.673 146.776 127.481  1.00  0.00     0.211 HD
ENDBRANCH  20  27
BRANCH  21  29
ATOM     29  C   UNL     1     143.375 146.375 128.005  1.00  0.00     0.191 C 
BRANCH  29  30
ATOM     30  O   UNL     1     143.430 145.299 128.900  1.00  0.00    -0.394 OA
ATOM     31  H   UNL     1     143.906 144.570 128.424  1.00  0.00     0.210 HD
ENDBRANCH  29  30
ENDBRANCH  21  29
ENDBRANCH   1  17
TORSDOF 13
ENDMDL
MODEL 2
REMARK VINA RESULT:    -4.208     12.484     14.591
REMARK INTER + INTRA:          -8.237
REMARK INTER:                  -6.656
REMARK INTRA:                  -1.580
REMARK UNBOUND:                -1.815
REMARK SMILES OC[C@@H]1O[C@@](CO)(O[C@@H]2O[C@H](CO)[C@H](O)[C@@H](O)[C@@H]2O)[C@H](O)[C@@H]1O
REMARK SMILES IDX 8 1 9 2 11 3 14 4 10 5 16 6 18 7 12 8 13 9 15 11 17 13 19 15
REMARK SMILES IDX 5 17 20 18 4 19 22 20 3 21 6 22 7 23 21 25 23 27 2 29 1 30
REMARK H PARENT 13 10 15 12 17 14 19 16 7 24 21 26 23 28 1 31
REMARK Flexibility Score: inf
ROOT
ATOM      1  O   UNL     1     131.014 145.107 123.360  1.00  0.00    -0.313 OA
ENDROOT
BRANCH   1   2
ATOM      2  C   UNL     1     131.172 146.500 123.124  1.00  0.00     0.285 C 
ATOM      3  C   UNL     1     131.645 146.954 120.807  1.00  0.00     0.178 C 
ATOM      4  C   UNL     1     132.808 145.937 120.947  1.00  0.00     0.177 C 
ATOM      5  O   UNL     1     130.663 146.815 121.829  1.00  0.00    -0.341 OA
ATOM      6  C   UNL     1     133.550 146.156 122.286  1.00  0.00     0.179 C 
ATOM      7  C   UNL     1     132.655 146.876 123.326  1.00  0.00     0.202 C 
BRANCH   3   8
ATOM      8  C   UNL     1     130.940 146.844 119.447  1.00  0.00     0.191 C 
BRANCH   8   9
ATOM      9  O   UNL     1     129.921 145.879 119.490  1.00  0.00    -0.394 OA
ATOM     10  H   UNL     1     129.307 146.069 118.733  1.00  0.00     0.210 HD
ENDBRANCH   8   9
ENDBRANCH   3   8
BRANCH   4  11
ATOM     11  O   UNL     1     132.311 144.621 120.897  1.00  0.00    -0.387 OA
ATOM     12  H   UNL     1     133.073 144.014 121.081  1.00  0.00     0.211 HD
ENDBRANCH   4  11
BRANCH   6  13
ATOM     13  O   UNL     1     134.709 146.917 122.057  1.00  0.00    -0.387 OA
ATOM     14  H   UNL     1     134.986 146.750 121.118  1.00  0.00     0.211 HD
ENDBRANCH   6  13
BRANCH   7  15
ATOM     15  O   UNL     1     133.049 146.530 124.630  1.00  0.00    -0.385 OA
ATOM     16  H   UNL     1     133.846 145.945 124.547  1.00  0.00     0.211 HD
ENDBRANCH   7  15
ENDBRANCH   1   2
BRANCH   1  17
ATOM     17  C   UNL     1     129.834 144.766 124.086  1.00  0.00     0.224 C 
ATOM     18  C   UNL     1     128.656 144.860 123.105  1.00  0.00     0.208 C 
ATOM     19  O   UNL     1     129.890 143.418 124.515  1.00  0.00    -0.337 OA
ATOM     20  C   UNL     1     128.735 143.521 122.409  1.00  0.00     0.180 C 
ATOM     21  C   UNL     1     129.373 142.612 123.474  1.00  0.00     0.179 C 
BRANCH  17  22
ATOM     22  C   UNL     1     129.644 145.700 125.309  1.00  0.00     0.225 C 
BRANCH  22  23
ATOM     23  O   UNL     1     128.860 145.079 126.294  1.00  0.00    -0.391 OA
ATOM     24  H   UNL     1     128.991 144.101 126.192  1.00  0.00     0.210 HD
ENDBRANCH  22  23
ENDBRANCH  17  22
BRANCH  18  25
ATOM     25  O   UNL     1     127.426 144.972 123.782  1.00  0.00    -0.385 OA
ATOM     26  H   UNL     1     127.625 145.276 124.707  1.00  0.00     0.211 HD
ENDBRANCH  18  25
BRANCH  20  27
ATOM     27  O   UNL     1     127.475 143.068 121.976  1.00  0.00    -0.387 OA
ATOM     28  H   UNL     1     127.064 143.821 121.476  1.00  0.00     0.211 HD
ENDBRANCH  20  27
BRANCH  21  29
ATOM     29  C   UNL     1     128.423 141.564 124.074  1.00  0.00     0.191 C 
BRANCH  29  30
ATOM     30  O   UNL     1     127.357 142.188 124.736  1.00  0.00    -0.394 OA
ATOM     31  H   UNL     1     127.602 142.203 125.698  1.00  0.00     0.210 HD
ENDBRANCH  29  30
ENDBRANCH  21  29
ENDBRANCH   1  17
TORSDOF 13
ENDMDL
MODEL 3
REMARK VINA RESULT:    -4.116      1.637      5.929
REMARK INTER + INTRA:          -8.097
REMARK INTER:                  -6.574
REMARK INTRA:                  -1.523
REMARK UNBOUND:                -1.815
REMARK SMILES OC[C@@H]1O[C@@](CO)(O[C@@H]2O[C@H](CO)[C@H](O)[C@@H](O)[C@@H]2O)[C@H](O)[C@@H]1O
REMARK SMILES IDX 8 1 9 2 11 3 14 4 10 5 16 6 18 7 12 8 13 9 15 11 17 13 19 15
REMARK SMILES IDX 5 17 20 18 4 19 22 20 3 21 6 22 7 23 21 25 23 27 2 29 1 30
REMARK H PARENT 13 10 15 12 17 14 19 16 7 24 21 26 23 28 1 31
REMARK Flexibility Score: inf
ROOT
ATOM      1  O   UNL     1     144.387 145.391 124.495  1.00  0.00    -0.313 OA
ENDROOT
BRANCH   1   2
ATOM      2  C   UNL     1     144.977 144.411 125.339  1.00  0.00     0.285 C 
ATOM      3  C   UNL     1     144.058 144.494 127.563  1.00  0.00     0.178 C 
ATOM      4  C   UNL     1     144.427 146.001 127.554  1.00  0.00     0.177 C 
ATOM      5  O   UNL     1     143.995 143.933 126.256  1.00  0.00    -0.341 OA
ATOM      6  C   UNL     1     145.829 146.203 126.933  1.00  0.00     0.179 C 
ATOM      7  C   UNL     1     146.225 145.020 126.014  1.00  0.00     0.202 C 
BRANCH   3   8
ATOM      8  C   UNL     1     142.716 144.232 128.263  1.00  0.00     0.191 C 
BRANCH   8   9
ATOM      9  O   UNL     1     142.337 145.334 129.045  1.00  0.00    -0.394 OA
ATOM     10  H   UNL     1     141.352 145.286 129.160  1.00  0.00     0.210 HD
ENDBRANCH   8   9
ENDBRANCH   3   8
BRANCH   4  11
ATOM     11  O   UNL     1     143.478 146.730 126.811  1.00  0.00    -0.387 OA
ATOM     12  H   UNL     1     143.104 147.422 127.415  1.00  0.00     0.211 HD
ENDBRANCH   4  11
BRANCH   6  13
ATOM     13  O   UNL     1     146.778 146.336 127.961  1.00  0.00    -0.387 OA
ATOM     14  H   UNL     1     147.351 147.114 127.730  1.00  0.00     0.211 HD
ENDBRANCH   6  13
BRANCH   7  15
ATOM     15  O   UNL     1     147.125 145.451 125.024  1.00  0.00    -0.385 OA
ATOM     16  H   UNL     1     146.882 144.978 124.186  1.00  0.00     0.211 HD
ENDBRANCH   7  15
ENDBRANCH   1   2
BRANCH   1  17
ATOM     17  C   UNL     1     144.158 144.951 123.157  1.00  0.00     0.224 C 
ATOM     18  C   UNL     1     142.660 144.639 123.032  1.00  0.00     0.208 C 
ATOM     19  O   UNL     1     144.427 145.994 122.240  1.00  0.00    -0.337 OA
ATOM     20  C   UNL     1     142.086 146.014 122.783  1.00  0.00     0.180 C 
ATOM     21  C   UNL     1     143.245 146.756 122.094  1.00  0.00     0.179 C 
BRANCH  17  22
ATOM     22  C   UNL     1     145.035 143.716 122.821  1.00  0.00     0.225 C 
BRANCH  22  23
ATOM     23  O   UNL     1     146.336 144.109 122.470  1.00  0.00    -0.391 OA
ATOM     24  H   UNL     1     146.279 144.526 121.572  1.00  0.00     0.210 HD
ENDBRANCH  22  23
ENDBRANCH  17  22
BRANCH  18  25
ATOM     25  O   UNL     1     142.394 143.806 121.929  1.00  0.00    -0.385 OA
ATOM     26  H   UNL     1     142.048 144.384 121.199  1.00  0.00     0.211 HD
ENDBRANCH  18  25
BRANCH  20  27
ATOM     27  O   UNL     1     140.915 145.972 122.005  1.00  0.00    -0.387 OA
ATOM     28  H   UNL     1     141.159 146.328 121.111  1.00  0.00     0.211 HD
ENDBRANCH  20  27
BRANCH  21  29
ATOM     29  C   UNL     1     143.019 147.053 120.604  1.00  0.00     0.191 C 
BRANCH  29  30
ATOM     30  O   UNL     1     143.049 145.869 119.855  1.00  0.00    -0.394 OA
ATOM     31  H   UNL     1     142.941 145.129 120.507  1.00  0.00     0.210 HD
ENDBRANCH  29  30
ENDBRANCH  21  29
ENDBRANCH   1  17
TORSDOF 13
ENDMDL
MODEL 4
REMARK VINA RESULT:    -4.047      1.713      2.934
REMARK INTER + INTRA:          -7.992
REMARK INTER:                  -6.103
REMARK INTRA:                  -1.889
REMARK UNBOUND:                -1.815
REMARK SMILES OC[C@@H]1O[C@@](CO)(O[C@@H]2O[C@H](CO)[C@H](O)[C@@H](O)[C@@H]2O)[C@H](O)[C@@H]1O
REMARK SMILES IDX 8 1 9 2 11 3 14 4 10 5 16 6 18 7 12 8 13 9 15 11 17 13 19 15
REMARK SMILES IDX 5 17 20 18 4 19 22 20 3 21 6 22 7 23 21 25 23 27 2 29 1 30
REMARK H PARENT 13 10 15 12 17 14 19 16 7 24 21 26 23 28 1 31
REMARK Flexibility Score: inf
ROOT
ATOM      1  O   UNL     1     144.282 145.390 126.044  1.00  0.00    -0.313 OA
ENDROOT
BRANCH   1   2
ATOM      2  C   UNL     1     143.672 144.211 125.534  1.00  0.00     0.285 C 
ATOM      3  C   UNL     1     144.033 143.984 123.165  1.00  0.00     0.178 C 
ATOM      4  C   UNL     1     143.449 145.416 123.038  1.00  0.00     0.177 C 
ATOM      5  O   UNL     1     144.480 143.684 124.483  1.00  0.00    -0.341 OA
ATOM      6  C   UNL     1     142.213 145.571 123.954  1.00  0.00     0.179 C 
ATOM      7  C   UNL     1     142.225 144.541 125.112  1.00  0.00     0.202 C 
BRANCH   3   8
ATOM      8  C   UNL     1     145.203 143.749 122.198  1.00  0.00     0.191 C 
BRANCH   8   9
ATOM      9  O   UNL     1     146.413 144.181 122.763  1.00  0.00    -0.394 OA
ATOM     10  H   UNL     1     146.895 143.372 123.077  1.00  0.00     0.210 HD
ENDBRANCH   8   9
ENDBRANCH   3   8
BRANCH   4  11
ATOM     11  O   UNL     1     144.420 146.370 123.397  1.00  0.00    -0.387 OA
ATOM     12  H   UNL     1     144.909 146.615 122.570  1.00  0.00     0.211 HD
ENDBRANCH   4  11
BRANCH   6  13
ATOM     13  O   UNL     1     141.045 145.405 123.190  1.00  0.00    -0.387 OA
ATOM     14  H   UNL     1     141.329 145.251 122.252  1.00  0.00     0.211 HD
ENDBRANCH   6  13
BRANCH   7  15
ATOM     15  O   UNL     1     141.520 145.044 126.219  1.00  0.00    -0.385 OA
ATOM     16  H   UNL     1     142.157 145.071 126.980  1.00  0.00     0.211 HD
ENDBRANCH   7  15
ENDBRANCH   1   2
BRANCH   1  17
ATOM     17  C   UNL     1     145.219 145.158 127.095  1.00  0.00     0.224 C 
ATOM     18  C   UNL     1     145.142 146.362 128.045  1.00  0.00     0.208 C 
ATOM     19  O   UNL     1     144.839 144.025 127.854  1.00  0.00    -0.337 OA
ATOM     20  C   UNL     1     143.946 146.000 128.895  1.00  0.00     0.180 C 
ATOM     21  C   UNL     1     143.950 144.461 128.865  1.00  0.00     0.179 C 
BRANCH  17  22
ATOM     22  C   UNL     1     146.649 144.957 126.531  1.00  0.00     0.225 C 
BRANCH  22  23
ATOM     23  O   UNL     1     146.767 145.530 125.255  1.00  0.00    -0.391 OA
ATOM     24  H   UNL     1     146.186 146.334 125.245  1.00  0.00     0.210 HD
ENDBRANCH  22  23
ENDBRANCH  17  22
BRANCH  18  25
ATOM     25  O   UNL     1     146.290 146.457 128.855  1.00  0.00    -0.385 OA
ATOM     26  H   UNL     1     146.985 145.874 128.451  1.00  0.00     0.211 HD
ENDBRANCH  18  25
BRANCH  20  27
ATOM     27  O   UNL     1     144.034 146.529 130.195  1.00  0.00    -0.387 OA
ATOM     28  H   UNL     1     144.946 146.314 130.524  1.00  0.00     0.211 HD
ENDBRANCH  20  27
BRANCH  21  29
ATOM     29  C   UNL     1     144.337 143.795 130.195  1.00  0.00     0.191 C 
BRANCH  29  30
ATOM     30  O   UNL     1     145.532 144.336 130.687  1.00  0.00    -0.394 OA
ATOM     31  H   UNL     1     145.417 145.321 130.668  1.00  0.00     0.210 HD
ENDBRANCH  29  30
ENDBRANCH  21  29
ENDBRANCH   1  17
TORSDOF 13
ENDMDL
MODEL 5
REMARK VINA RESULT:    -4.011      1.584      3.620
REMARK INTER + INTRA:          -7.936
REMARK INTER:                  -6.014
REMARK INTRA:                  -1.922
REMARK UNBOUND:                -1.815
REMARK SMILES OC[C@@H]1O[C@@](CO)(O[C@@H]2O[C@H](CO)[C@H](O)[C@@H](O)[C@@H]2O)[C@H](O)[C@@H]1O
REMARK SMILES IDX 8 1 9 2 11 3 14 4 10 5 16 6 18 7 12 8 13 9 15 11 17 13 19 15
REMARK SMILES IDX 5 17 20 18 4 19 22 20 3 21 6 22 7 23 21 25 23 27 2 29 1 30
REMARK H PARENT 13 10 15 12 17 14 19 16 7 24 21 26 23 28 1 31
REMARK Flexibility Score: inf
ROOT
ATOM      1  O   UNL     1     143.775 144.569 123.301  1.00  0.00    -0.313 OA
ENDROOT
BRANCH   1   2
ATOM      2  C   UNL     1     144.728 144.943 122.314  1.00  0.00     0.285 C 
ATOM      3  C   UNL     1     143.657 145.624 120.268  1.00  0.00     0.178 C 
ATOM      4  C   UNL     1     142.913 144.263 120.319  1.00  0.00     0.177 C 
ATOM      5  O   UNL     1     144.194 146.008 121.529  1.00  0.00    -0.341 OA
ATOM      6  C   UNL     1     143.890 143.137 120.729  1.00  0.00     0.179 C 
ATOM      7  C   UNL     1     145.115 143.692 121.497  1.00  0.00     0.202 C 
BRANCH   3   8
ATOM      8  C   UNL     1     142.752 146.760 119.767  1.00  0.00     0.191 C 
BRANCH   8   9
ATOM      9  O   UNL     1     141.819 147.125 120.750  1.00  0.00    -0.394 OA
ATOM     10  H   UNL     1     141.467 146.285 121.146  1.00  0.00     0.210 HD
ENDBRANCH   8   9
ENDBRANCH   3   8
BRANCH   4  11
ATOM     11  O   UNL     1     141.853 144.323 121.244  1.00  0.00    -0.387 OA
ATOM     12  H   UNL     1     141.046 144.610 120.745  1.00  0.00     0.211 HD
ENDBRANCH   4  11
BRANCH   6  13
ATOM     13  O   UNL     1     144.325 142.457 119.578  1.00  0.00    -0.387 OA
ATOM     14  H   UNL     1     143.537 141.982 119.205  1.00  0.00     0.211 HD
ENDBRANCH   6  13
BRANCH   7  15
ATOM     15  O   UNL     1     145.633 142.713 122.362  1.00  0.00    -0.385 OA
ATOM     16  H   UNL     1     144.900 142.456 122.980  1.00  0.00     0.211 HD
ENDBRANCH   7  15
ENDBRANCH   1   2
BRANCH   1  17
ATOM     17  C   UNL     1     143.858 145.323 124.510  1.00  0.00     0.224 C 
ATOM     18  C   UNL     1     143.627 144.345 125.671  1.00  0.00     0.208 C 
ATOM     19  O   UNL     1     145.164 145.843 124.680  1.00  0.00    -0.337 OA
ATOM     20  C   UNL     1     145.002 143.742 125.836  1.00  0.00     0.180 C 
ATOM     21  C   UNL     1     145.935 144.862 125.345  1.00  0.00     0.179 C 
BRANCH  17  22
ATOM     22  C   UNL     1     142.826 146.481 124.515  1.00  0.00     0.225 C 
BRANCH  22  23
ATOM     23  O   UNL     1     141.871 146.302 123.502  1.00  0.00    -0.391 OA
ATOM     24  H   UNL     1     142.249 146.698 122.675  1.00  0.00     0.210 HD
ENDBRANCH  22  23
ENDBRANCH  17  22
BRANCH  18  25
ATOM     25  O   UNL     1     143.259 145.020 126.851  1.00  0.00    -0.385 OA
ATOM     26  H   UNL     1     144.035 144.978 127.469  1.00  0.00     0.211 HD
ENDBRANCH  18  25
BRANCH  20  27
ATOM     27  O   UNL     1     145.258 143.348 127.162  1.00  0.00    -0.387 OA
ATOM     28  H   UNL     1     145.878 144.024 127.540  1.00  0.00     0.211 HD
ENDBRANCH  20  27
BRANCH  21  29
ATOM     29  C   UNL     1     146.760 145.539 126.452  1.00  0.00     0.191 C 
BRANCH  29  30
ATOM     30  O   UNL     1     145.919 146.114 127.412  1.00  0.00    -0.394 OA
ATOM     31  H   UNL     1     146.407 146.056 128.275  1.00  0.00     0.210 HD
ENDBRANCH  29  30
ENDBRANCH  21  29
ENDBRANCH   1  17
TORSDOF 13
ENDMDL
MODEL 6
REMARK VINA RESULT:    -3.987     13.848     15.859
REMARK INTER + INTRA:          -7.899
REMARK INTER:                  -6.322
REMARK INTRA:                  -1.577
REMARK UNBOUND:                -1.815
REMARK SMILES OC[C@@H]1O[C@@](CO)(O[C@@H]2O[C@H](CO)[C@H](O)[C@@H](O)[C@@H]2O)[C@H](O)[C@@H]1O
REMARK SMILES IDX 8 1 9 2 11 3 14 4 10 5 16 6 18 7 12 8 13 9 15 11 17 13 19 15
REMARK SMILES IDX 5 17 20 18 4 19 22 20 3 21 6 22 7 23 21 25 23 27 2 29 1 30
REMARK H PARENT 13 10 15 12 17 14 19 16 7 24 21 26 23 28 1 31
REMARK Flexibility Score: inf
ROOT
ATOM      1  O   UNL     1     129.854 143.904 122.249  1.00  0.00    -0.313 OA
ENDROOT
BRANCH   1   2
ATOM      2  C   UNL     1     129.603 145.296 122.386  1.00  0.00     0.285 C 
ATOM      3  C   UNL     1     128.292 146.140 120.550  1.00  0.00     0.178 C 
ATOM      4  C   UNL     1     129.368 145.515 119.623  1.00  0.00     0.177 C 
ATOM      5  O   UNL     1     128.309 145.591 121.864  1.00  0.00    -0.341 OA
ATOM      6  C   UNL     1     130.782 145.791 120.186  1.00  0.00     0.179 C 
ATOM      7  C   UNL     1     130.748 146.078 121.708  1.00  0.00     0.202 C 
BRANCH   3   8
ATOM      8  C   UNL     1     126.875 145.980 119.982  1.00  0.00     0.191 C 
BRANCH   8   9
ATOM      9  O   UNL     1     126.918 145.635 118.622  1.00  0.00    -0.394 OA
ATOM     10  H   UNL     1     127.784 145.174 118.465  1.00  0.00     0.210 HD
ENDBRANCH   8   9
ENDBRANCH   3   8
BRANCH   4  11
ATOM     11  O   UNL     1     129.170 144.125 119.517  1.00  0.00    -0.387 OA
ATOM     12  H   UNL     1     130.066 143.701 119.533  1.00  0.00     0.211 HD
ENDBRANCH   4  11
BRANCH   6  13
ATOM     13  O   UNL     1     131.344 146.890 119.513  1.00  0.00    -0.387 OA
ATOM     14  H   UNL     1     132.192 147.115 119.979  1.00  0.00     0.211 HD
ENDBRANCH   6  13
BRANCH   7  15
ATOM     15  O   UNL     1     131.971 145.719 122.299  1.00  0.00    -0.385 OA
ATOM     16  H   UNL     1     131.901 145.939 123.265  1.00  0.00     0.211 HD
ENDBRANCH   7  15
ENDBRANCH   1   2
BRANCH   1  17
ATOM     17  C   UNL     1     129.435 143.121 123.366  1.00  0.00     0.224 C 
ATOM     18  C   UNL     1     128.007 142.640 123.073  1.00  0.00     0.208 C 
ATOM     19  O   UNL     1     130.232 141.957 123.481  1.00  0.00    -0.337 OA
ATOM     20  C   UNL     1     128.267 141.435 122.199  1.00  0.00     0.180 C 
ATOM     21  C   UNL     1     129.649 140.952 122.674  1.00  0.00     0.179 C 
BRANCH  17  22
ATOM     22  C   UNL     1     129.510 143.942 124.680  1.00  0.00     0.225 C 
BRANCH  22  23
ATOM     23  O   UNL     1     129.520 143.094 125.798  1.00  0.00    -0.391 OA
ATOM     24  H   UNL     1     129.158 142.219 125.500  1.00  0.00     0.210 HD
ENDBRANCH  22  23
ENDBRANCH  17  22
BRANCH  18  25
ATOM     25  O   UNL     1     127.342 142.241 124.248  1.00  0.00    -0.385 OA
ATOM     26  H   UNL     1     126.792 141.445 124.020  1.00  0.00     0.211 HD
ENDBRANCH  18  25
BRANCH  20  27
ATOM     27  O   UNL     1     127.264 140.457 122.324  1.00  0.00    -0.387 OA
ATOM     28  H   UNL     1     127.703 139.583 122.154  1.00  0.00     0.211 HD
ENDBRANCH  20  27
BRANCH  21  29
ATOM     29  C   UNL     1     129.631 139.629 123.454  1.00  0.00     0.191 C 
BRANCH  29  30
ATOM     30  O   UNL     1     128.841 139.745 124.605  1.00  0.00    -0.394 OA
ATOM     31  H   UNL     1     128.906 140.694 124.888  1.00  0.00     0.210 HD
ENDBRANCH  29  30
ENDBRANCH  21  29
ENDBRANCH   1  17
TORSDOF 13
ENDMDL
MODEL 7
REMARK VINA RESULT:    -3.954      1.515      1.866
REMARK INTER + INTRA:          -7.849
REMARK INTER:                  -6.387
REMARK INTRA:                  -1.462
REMARK UNBOUND:                -1.815
REMARK SMILES OC[C@@H]1O[C@@](CO)(O[C@@H]2O[C@H](CO)[C@H](O)[C@@H](O)[C@@H]2O)[C@H](O)[C@@H]1O
REMARK SMILES IDX 8 1 9 2 11 3 14 4 10 5 16 6 18 7 12 8 13 9 15 11 17 13 19 15
REMARK SMILES IDX 5 17 20 18 4 19 22 20 3 21 6 22 7 23 21 25 23 27 2 29 1 30
REMARK H PARENT 13 10 15 12 17 14 19 16 7 24 21 26 23 28 1 31
REMARK Flexibility Score: inf
ROOT
ATOM      1  O   UNL     1     143.349 144.937 124.933  1.00  0.00    -0.313 OA
ENDROOT
BRANCH   1   2
ATOM      2  C   UNL     1     142.790 144.125 123.908  1.00  0.00     0.285 C 
ATOM      3  C   UNL     1     143.646 144.727 121.740  1.00  0.00     0.178 C 
ATOM      4  C   UNL     1     143.198 146.174 122.073  1.00  0.00     0.177 C 
ATOM      5  O   UNL     1     143.772 143.907 122.897  1.00  0.00    -0.341 OA
ATOM      6  C   UNL     1     141.804 146.161 122.742  1.00  0.00     0.179 C 
ATOM      7  C   UNL     1     141.495 144.790 123.395  1.00  0.00     0.202 C 
BRANCH   3   8
ATOM      8  C   UNL     1     144.982 144.694 120.982  1.00  0.00     0.191 C 
BRANCH   8   9
ATOM      9  O   UNL     1     146.061 144.613 121.876  1.00  0.00    -0.394 OA
ATOM     10  H   UNL     1     146.277 143.650 121.986  1.00  0.00     0.210 HD
ENDBRANCH   8   9
ENDBRANCH   3   8
BRANCH   4  11
ATOM     11  O   UNL     1     144.127 146.783 122.940  1.00  0.00    -0.387 OA
ATOM     12  H   UNL     1     144.142 146.247 123.774  1.00  0.00     0.211 HD
ENDBRANCH   4  11
BRANCH   6  13
ATOM     13  O   UNL     1     140.823 146.453 121.779  1.00  0.00    -0.387 OA
ATOM     14  H   UNL     1     140.253 147.176 122.153  1.00  0.00     0.211 HD
ENDBRANCH   6  13
BRANCH   7  15
ATOM     15  O   UNL     1     140.599 144.951 124.466  1.00  0.00    -0.385 OA
ATOM     16  H   UNL     1     140.804 144.239 125.125  1.00  0.00     0.211 HD
ENDBRANCH   7  15
ENDBRANCH   1   2
BRANCH   1  17
ATOM     17  C   UNL     1     144.040 144.209 125.946  1.00  0.00     0.224 C 
ATOM     18  C   UNL     1     145.520 144.609 125.864  1.00  0.00     0.208 C 
ATOM     19  O   UNL     1     143.591 144.601 127.230  1.00  0.00    -0.337 OA
ATOM     20  C   UNL     1     145.528 145.900 126.648  1.00  0.00     0.180 C 
ATOM     21  C   UNL     1     144.362 145.716 127.635  1.00  0.00     0.179 C 
BRANCH  17  22
ATOM     22  C   UNL     1     143.843 142.681 125.764  1.00  0.00     0.225 C 
BRANCH  22  23
ATOM     23  O   UNL     1     144.168 141.992 126.944  1.00  0.00    -0.391 OA
ATOM     24  H   UNL     1     145.062 141.585 126.803  1.00  0.00     0.210 HD
ENDBRANCH  22  23
ENDBRANCH  17  22
BRANCH  18  25
ATOM     25  O   UNL     1     146.349 143.663 126.497  1.00  0.00    -0.385 OA
ATOM     26  H   UNL     1     145.764 143.085 127.054  1.00  0.00     0.211 HD
ENDBRANCH  18  25
BRANCH  20  27
ATOM     27  O   UNL     1     146.761 146.133 127.283  1.00  0.00    -0.387 OA
ATOM     28  H   UNL     1     146.678 147.010 127.741  1.00  0.00     0.211 HD
ENDBRANCH  20  27
BRANCH  21  29
ATOM     29  C   UNL     1     144.787 145.528 129.099  1.00  0.00     0.191 C 
BRANCH  29  30
ATOM     30  O   UNL     1     145.201 144.209 129.328  1.00  0.00    -0.394 OA
ATOM     31  H   UNL     1     145.017 143.714 128.487  1.00  0.00     0.210 HD
ENDBRANCH  29  30
ENDBRANCH  21  29
ENDBRANCH   1  17
TORSDOF 13
ENDMDL
MODEL 8
REMARK VINA RESULT:    -3.951     14.460     16.591
REMARK INTER + INTRA:          -7.845
REMARK INTER:                  -6.036
REMARK INTRA:                  -1.809
REMARK UNBOUND:                -1.815
REMARK SMILES OC[C@@H]1O[C@@](CO)(O[C@@H]2O[C@H](CO)[C@H](O)[C@@H](O)[C@@H]2O)[C@H](O)[C@@H]1O
REMARK SMILES IDX 8 1 9 2 11 3 14 4 10 5 16 6 18 7 12 8 13 9 15 11 17 13 19 15
REMARK SMILES IDX 5 17 20 18 4 19 22 20 3 21 6 22 7 23 21 25 23 27 2 29 1 30
REMARK H PARENT 13 10 15 12 17 14 19 16 7 24 21 26 23 28 1 31
REMARK Flexibility Score: inf
ROOT
ATOM      1  O   UNL     1     128.727 142.944 121.582  1.00  0.00    -0.313 OA
ENDROOT
BRANCH   1   2
ATOM      2  C   UNL     1     129.741 143.802 122.088  1.00  0.00     0.285 C 
ATOM      3  C   UNL     1     128.917 146.039 122.426  1.00  0.00     0.178 C 
ATOM      4  C   UNL     1     128.451 145.986 120.947  1.00  0.00     0.177 C 
ATOM      5  O   UNL     1     129.152 144.748 122.978  1.00  0.00    -0.341 OA
ATOM      6  C   UNL     1     129.543 145.336 120.067  1.00  0.00     0.179 C 
ATOM      7  C   UNL     1     130.493 144.440 120.900  1.00  0.00     0.202 C 
BRANCH   3   8
ATOM      8  C   UNL     1     127.907 146.768 123.325  1.00  0.00     0.191 C 
BRANCH   8   9
ATOM      9  O   UNL     1     126.878 145.902 123.725  1.00  0.00    -0.394 OA
ATOM     10  H   UNL     1     126.145 145.992 123.061  1.00  0.00     0.210 HD
ENDBRANCH   8   9
ENDBRANCH   3   8
BRANCH   4  11
ATOM     11  O   UNL     1     127.259 145.243 120.840  1.00  0.00    -0.387 OA
ATOM     12  H   UNL     1     126.776 145.580 120.042  1.00  0.00     0.211 HD
ENDBRANCH   4  11
BRANCH   6  13
ATOM     13  O   UNL     1     130.287 146.344 119.430  1.00  0.00    -0.387 OA
ATOM     14  H   UNL     1     129.758 147.182 119.494  1.00  0.00     0.211 HD
ENDBRANCH   6  13
BRANCH   7  15
ATOM     15  O   UNL     1     131.037 143.424 120.095  1.00  0.00    -0.385 OA
ATOM     16  H   UNL     1     131.942 143.227 120.450  1.00  0.00     0.211 HD
ENDBRANCH   7  15
ENDBRANCH   1   2
BRANCH   1  17
ATOM     17  C   UNL     1     128.761 141.620 122.113  1.00  0.00     0.224 C 
ATOM     18  C   UNL     1     127.554 140.868 121.533  1.00  0.00     0.208 C 
ATOM     19  O   UNL     1     129.913 140.935 121.660  1.00  0.00    -0.337 OA
ATOM     20  C   UNL     1     128.082 140.446 120.182  1.00  0.00     0.180 C 
ATOM     21  C   UNL     1     129.598 140.332 120.420  1.00  0.00     0.179 C 
BRANCH  17  22
ATOM     22  C   UNL     1     128.737 141.643 123.664  1.00  0.00     0.225 C 
BRANCH  22  23
ATOM     23  O   UNL     1     127.549 142.221 124.136  1.00  0.00    -0.391 OA
ATOM     24  H   UNL     1     126.982 141.480 124.473  1.00  0.00     0.210 HD
ENDBRANCH  22  23
ENDBRANCH  17  22
BRANCH  18  25
ATOM     25  O   UNL     1     127.238 139.728 122.297  1.00  0.00    -0.385 OA
ATOM     26  H   UNL     1     128.069 139.444 122.760  1.00  0.00     0.211 HD
ENDBRANCH  18  25
BRANCH  20  27
ATOM     27  O   UNL     1     127.500 139.248 119.730  1.00  0.00    -0.387 OA
ATOM     28  H   UNL     1     128.216 138.562 119.756  1.00  0.00     0.211 HD
ENDBRANCH  20  27
BRANCH  21  29
ATOM     29  C   UNL     1     130.141 138.895 120.409  1.00  0.00     0.191 C 
BRANCH  29  30
ATOM     30  O   UNL     1     129.640 138.169 121.497  1.00  0.00    -0.394 OA
ATOM     31  H   UNL     1     129.103 137.430 121.110  1.00  0.00     0.210 HD
ENDBRANCH  29  30
ENDBRANCH  21  29
ENDBRANCH   1  17
TORSDOF 13
ENDMDL
