MODEL 1
REMARK VINA RESULT:    -7.249      0.000      0.000
REMARK INTER + INTRA:          -8.900
REMARK INTER:                  -8.732
REMARK INTRA:                  -0.168
REMARK UNBOUND:                -0.168
REMARK SMILES O=c1c(O)c(-c2ccc(O)c(O)c2)oc2cc(O)cc(O)c12
REMARK SMILES IDX 5 1 3 2 2 3 1 4 22 5 20 6 19 7 17 8 16 9 15 10 14 11 6 12
REMARK SMILES IDX 7 13 8 14 9 15 13 16 11 17 10 18 12 20 4 22 21 24 18 26
REMARK H PARENT 10 19 12 21 4 23 21 25 18 27
REMARK Flexibility Score: inf
ROOT
ATOM      1  C   UNL     1      25.646 -23.617   0.530  1.00  0.00     0.180 A 
ATOM      2  C   UNL     1      24.365 -24.155   0.299  1.00  0.00     0.208 A 
ATOM      3  C   UNL     1      24.252 -25.355  -0.419  1.00  0.00     0.238 A 
ATOM      4  O   UNL     1      23.110 -25.841  -0.641  1.00  0.00    -0.285 OA
ATOM      5  C   UNL     1      25.417 -26.006  -0.876  1.00  0.00     0.111 A 
ATOM      6  C   UNL     1      25.390 -27.221  -1.604  1.00  0.00     0.134 A 
ATOM      7  C   UNL     1      26.593 -27.811  -2.016  1.00  0.00     0.093 A 
ATOM      8  C   UNL     1      27.822 -27.211  -1.715  1.00  0.00     0.123 A 
ATOM      9  C   UNL     1      27.853 -26.014  -0.999  1.00  0.00     0.094 A 
ATOM     10  C   UNL     1      26.664 -25.408  -0.580  1.00  0.00     0.146 A 
ATOM     11  O   UNL     1      26.723 -24.267   0.096  1.00  0.00    -0.452 OA
ENDROOT
BRANCH   1  12
ATOM     12  C   UNL     1      25.846 -22.347   1.263  1.00  0.00     0.025 A 
ATOM     13  C   UNL     1      26.470 -22.318   2.520  1.00  0.00     0.016 A 
ATOM     14  C   UNL     1      26.626 -21.110   3.203  1.00  0.00     0.051 A 
ATOM     15  C   UNL     1      26.154 -19.913   2.655  1.00  0.00     0.157 A 
ATOM     16  C   UNL     1      25.352 -21.151   0.720  1.00  0.00     0.062 A 
ATOM     17  C   UNL     1      25.504 -19.934   1.397  1.00  0.00     0.158 A 
BRANCH  15  18
ATOM     18  O   UNL     1      26.345 -18.740   3.386  1.00  0.00    -0.504 OA
ATOM     19  H   UNL     1      25.631 -18.304   3.952  1.00  0.00     0.293 HD
ENDBRANCH  15  18
BRANCH  17  20
ATOM     20  O   UNL     1      24.999 -18.783   0.790  1.00  0.00    -0.504 OA
ATOM     21  H   UNL     1      24.417 -18.105   1.261  1.00  0.00     0.293 HD
ENDBRANCH  17  20
ENDBRANCH   1  12
BRANCH   2  22
ATOM     22  O   UNL     1      23.230 -23.517   0.805  1.00  0.00    -0.502 OA
ATOM     23  H   UNL     1      22.533 -23.093   0.205  1.00  0.00     0.293 HD
ENDBRANCH   2  22
BRANCH   6  24
ATOM     24  O   UNL     1      24.181 -27.842  -1.919  1.00  0.00    -0.507 OA
ATOM     25  H   UNL     1      23.435 -27.348  -2.394  1.00  0.00     0.293 HD
ENDBRANCH   6  24
BRANCH   8  26
ATOM     26  O   UNL     1      29.018 -27.797  -2.123  1.00  0.00    -0.508 OA
ATOM     27  H   UNL     1      29.857 -27.247  -2.261  1.00  0.00     0.293 HD
ENDBRANCH   8  26
TORSDOF 6
ENDMDL
MODEL 2
REMARK VINA RESULT:    -7.249      2.994      4.011
REMARK INTER + INTRA:          -8.900
REMARK INTER:                  -8.575
REMARK INTRA:                  -0.325
REMARK UNBOUND:                -0.168
REMARK SMILES O=c1c(O)c(-c2ccc(O)c(O)c2)oc2cc(O)cc(O)c12
REMARK SMILES IDX 5 1 3 2 2 3 1 4 22 5 20 6 19 7 17 8 16 9 15 10 14 11 6 12
REMARK SMILES IDX 7 13 8 14 9 15 13 16 11 17 10 18 12 20 4 22 21 24 18 26
REMARK H PARENT 10 19 12 21 4 23 21 25 18 27
REMARK Flexibility Score: inf
ROOT
ATOM      1  C   UNL     1      23.933 -25.164   0.454  1.00  0.00     0.180 A 
ATOM      2  C   UNL     1      22.716 -25.203   1.165  1.00  0.00     0.208 A 
ATOM      3  C   UNL     1      22.291 -26.421   1.716  1.00  0.00     0.238 A 
ATOM      4  O   UNL     1      21.199 -26.471   2.344  1.00  0.00    -0.285 OA
ATOM      5  C   UNL     1      23.093 -27.572   1.566  1.00  0.00     0.111 A 
ATOM      6  C   UNL     1      22.738 -28.836   2.094  1.00  0.00     0.134 A 
ATOM      7  C   UNL     1      23.594 -29.932   1.910  1.00  0.00     0.093 A 
ATOM      8  C   UNL     1      24.798 -29.786   1.210  1.00  0.00     0.123 A 
ATOM      9  C   UNL     1      25.151 -28.541   0.687  1.00  0.00     0.094 A 
ATOM     10  C   UNL     1      24.311 -27.438   0.858  1.00  0.00     0.146 A 
ATOM     11  O   UNL     1      24.670 -26.266   0.347  1.00  0.00    -0.452 OA
ENDROOT
BRANCH   1  12
ATOM     12  C   UNL     1      24.439 -23.922  -0.171  1.00  0.00     0.025 A 
ATOM     13  C   UNL     1      24.183 -23.625  -1.520  1.00  0.00     0.016 A 
ATOM     14  C   UNL     1      24.692 -22.458  -2.094  1.00  0.00     0.051 A 
ATOM     15  C   UNL     1      25.474 -21.575  -1.344  1.00  0.00     0.157 A 
ATOM     16  C   UNL     1      25.242 -23.048   0.577  1.00  0.00     0.062 A 
ATOM     17  C   UNL     1      25.757 -21.876   0.011  1.00  0.00     0.158 A 
BRANCH  15  18
ATOM     18  O   UNL     1      25.948 -20.424  -1.976  1.00  0.00    -0.504 OA
ATOM     19  H   UNL     1      26.892 -20.076  -1.883  1.00  0.00     0.293 HD
ENDBRANCH  15  18
BRANCH  17  20
ATOM     20  O   UNL     1      26.537 -21.048   0.820  1.00  0.00    -0.504 OA
ATOM     21  H   UNL     1      27.528 -20.904   0.692  1.00  0.00     0.293 HD
ENDBRANCH  17  20
ENDBRANCH   1  12
BRANCH   2  22
ATOM     22  O   UNL     1      21.965 -24.038   1.341  1.00  0.00    -0.502 OA
ATOM     23  H   UNL     1      21.944 -23.297   0.651  1.00  0.00     0.293 HD
ENDBRANCH   2  22
BRANCH   6  24
ATOM     24  O   UNL     1      21.546 -29.013   2.796  1.00  0.00    -0.507 OA
ATOM     25  H   UNL     1      20.747 -29.481   2.383  1.00  0.00     0.293 HD
ENDBRANCH   6  24
BRANCH   8  26
ATOM     26  O   UNL     1      25.650 -30.874   1.028  1.00  0.00    -0.508 OA
ATOM     27  H   UNL     1      26.604 -30.861   1.368  1.00  0.00     0.293 HD
ENDBRANCH   8  26
TORSDOF 6
ENDMDL
MODEL 3
REMARK VINA RESULT:    -7.233      2.507      3.899
REMARK INTER + INTRA:          -8.881
REMARK INTER:                  -8.657
REMARK INTRA:                  -0.224
REMARK UNBOUND:                -0.168
REMARK SMILES O=c1c(O)c(-c2ccc(O)c(O)c2)oc2cc(O)cc(O)c12
REMARK SMILES IDX 5 1 3 2 2 3 1 4 22 5 20 6 19 7 17 8 16 9 15 10 14 11 6 12
REMARK SMILES IDX 7 13 8 14 9 15 13 16 11 17 10 18 12 20 4 22 21 24 18 26
REMARK H PARENT 10 19 12 21 4 23 21 25 18 27
REMARK Flexibility Score: inf
ROOT
ATOM      1  C   UNL     1      24.658 -24.846   0.362  1.00  0.00     0.180 A 
ATOM      2  C   UNL     1      25.607 -25.563  -0.393  1.00  0.00     0.208 A 
ATOM      3  C   UNL     1      25.582 -26.965  -0.358  1.00  0.00     0.238 A 
ATOM      4  O   UNL     1      26.434 -27.618  -1.021  1.00  0.00    -0.285 OA
ATOM      5  C   UNL     1      24.604 -27.626   0.413  1.00  0.00     0.111 A 
ATOM      6  C   UNL     1      24.509 -29.036   0.499  1.00  0.00     0.134 A 
ATOM      7  C   UNL     1      23.501 -29.619   1.281  1.00  0.00     0.093 A 
ATOM      8  C   UNL     1      22.585 -28.820   1.976  1.00  0.00     0.123 A 
ATOM      9  C   UNL     1      22.676 -27.429   1.894  1.00  0.00     0.094 A 
ATOM     10  C   UNL     1      23.675 -26.829   1.122  1.00  0.00     0.146 A 
ATOM     11  O   UNL     1      23.740 -25.504   1.066  1.00  0.00    -0.452 OA
ENDROOT
BRANCH   1  12
ATOM     12  C   UNL     1      24.630 -23.366   0.391  1.00  0.00     0.025 A 
ATOM     13  C   UNL     1      25.658 -22.627   0.997  1.00  0.00     0.016 A 
ATOM     14  C   UNL     1      25.598 -21.232   1.033  1.00  0.00     0.051 A 
ATOM     15  C   UNL     1      24.510 -20.550   0.480  1.00  0.00     0.157 A 
ATOM     16  C   UNL     1      23.527 -22.685  -0.144  1.00  0.00     0.062 A 
ATOM     17  C   UNL     1      23.457 -21.287  -0.114  1.00  0.00     0.158 A 
BRANCH  15  18
ATOM     18  O   UNL     1      24.513 -19.155   0.545  1.00  0.00    -0.504 OA
ATOM     19  H   UNL     1      24.159 -18.625   1.328  1.00  0.00     0.293 HD
ENDBRANCH  15  18
BRANCH  17  20
ATOM     20  O   UNL     1      22.335 -20.677  -0.678  1.00  0.00    -0.504 OA
ATOM     21  H   UNL     1      22.034 -19.737  -0.462  1.00  0.00     0.293 HD
ENDBRANCH  17  20
ENDBRANCH   1  12
BRANCH   2  22
ATOM     22  O   UNL     1      26.535 -24.884  -1.187  1.00  0.00    -0.502 OA
ATOM     23  H   UNL     1      26.304 -24.527  -2.106  1.00  0.00     0.293 HD
ENDBRANCH   2  22
BRANCH   6  24
ATOM     24  O   UNL     1      25.406 -29.860  -0.182  1.00  0.00    -0.507 OA
ATOM     25  H   UNL     1      25.314 -30.043  -1.175  1.00  0.00     0.293 HD
ENDBRANCH   6  24
BRANCH   8  26
ATOM     26  O   UNL     1      21.583 -29.398   2.751  1.00  0.00    -0.508 OA
ATOM     27  H   UNL     1      20.827 -28.844   3.137  1.00  0.00     0.293 HD
ENDBRANCH   8  26
TORSDOF 6
ENDMDL
MODEL 4
REMARK VINA RESULT:    -7.073      2.132      3.692
REMARK INTER + INTRA:          -8.688
REMARK INTER:                  -8.412
REMARK INTRA:                  -0.277
REMARK UNBOUND:                -0.168
REMARK SMILES O=c1c(O)c(-c2ccc(O)c(O)c2)oc2cc(O)cc(O)c12
REMARK SMILES IDX 5 1 3 2 2 3 1 4 22 5 20 6 19 7 17 8 16 9 15 10 14 11 6 12
REMARK SMILES IDX 7 13 8 14 9 15 13 16 11 17 10 18 12 20 4 22 21 24 18 26
REMARK H PARENT 10 19 12 21 4 23 21 25 18 27
REMARK Flexibility Score: inf
ROOT
ATOM      1  C   UNL     1      26.141 -26.208  -1.162  1.00  0.00     0.180 A 
ATOM      2  C   UNL     1      25.260 -27.302  -1.268  1.00  0.00     0.208 A 
ATOM      3  C   UNL     1      25.786 -28.573  -1.546  1.00  0.00     0.238 A 
ATOM      4  O   UNL     1      25.006 -29.558  -1.654  1.00  0.00    -0.285 OA
ATOM      5  C   UNL     1      27.179 -28.733  -1.694  1.00  0.00     0.111 A 
ATOM      6  C   UNL     1      27.790 -29.981  -1.971  1.00  0.00     0.134 A 
ATOM      7  C   UNL     1      29.184 -30.060  -2.095  1.00  0.00     0.093 A 
ATOM      8  C   UNL     1      29.980 -28.917  -1.946  1.00  0.00     0.123 A 
ATOM      9  C   UNL     1      29.382 -27.686  -1.673  1.00  0.00     0.094 A 
ATOM     10  C   UNL     1      27.993 -27.586  -1.548  1.00  0.00     0.146 A 
ATOM     11  O   UNL     1      27.451 -26.401  -1.293  1.00  0.00    -0.452 OA
ENDROOT
BRANCH   1  12
ATOM     12  C   UNL     1      25.661 -24.835  -0.889  1.00  0.00     0.025 A 
ATOM     13  C   UNL     1      25.024 -24.072  -1.881  1.00  0.00     0.016 A 
ATOM     14  C   UNL     1      24.602 -22.770  -1.606  1.00  0.00     0.051 A 
ATOM     15  C   UNL     1      24.817 -22.199  -0.349  1.00  0.00     0.157 A 
ATOM     16  C   UNL     1      25.899 -24.256   0.367  1.00  0.00     0.062 A 
ATOM     17  C   UNL     1      25.478 -22.952   0.652  1.00  0.00     0.158 A 
BRANCH  15  18
ATOM     18  O   UNL     1      24.366 -20.894  -0.138  1.00  0.00    -0.504 OA
ATOM     19  H   UNL     1      23.461 -20.555  -0.430  1.00  0.00     0.293 HD
ENDBRANCH  15  18
BRANCH  17  20
ATOM     20  O   UNL     1      25.737 -22.447   1.928  1.00  0.00    -0.504 OA
ATOM     21  H   UNL     1      25.846 -23.021   2.751  1.00  0.00     0.293 HD
ENDBRANCH  17  20
ENDBRANCH   1  12
BRANCH   2  22
ATOM     22  O   UNL     1      23.888 -27.125  -1.069  1.00  0.00    -0.502 OA
ATOM     23  H   UNL     1      23.216 -27.866  -1.230  1.00  0.00     0.293 HD
ENDBRANCH   2  22
BRANCH   6  24
ATOM     24  O   UNL     1      27.024 -31.137  -2.125  1.00  0.00    -0.507 OA
ATOM     25  H   UNL     1      26.020 -31.135  -1.983  1.00  0.00     0.293 HD
ENDBRANCH   6  24
BRANCH   8  26
ATOM     26  O   UNL     1      31.365 -28.995  -2.067  1.00  0.00    -0.508 OA
ATOM     27  H   UNL     1      31.968 -28.247  -1.746  1.00  0.00     0.293 HD
ENDBRANCH   8  26
TORSDOF 6
ENDMDL
MODEL 5
REMARK VINA RESULT:    -6.867      1.633      6.961
REMARK INTER + INTRA:          -8.440
REMARK INTER:                  -8.634
REMARK INTRA:                   0.194
REMARK UNBOUND:                -0.168
REMARK SMILES O=c1c(O)c(-c2ccc(O)c(O)c2)oc2cc(O)cc(O)c12
REMARK SMILES IDX 5 1 3 2 2 3 1 4 22 5 20 6 19 7 17 8 16 9 15 10 14 11 6 12
REMARK SMILES IDX 7 13 8 14 9 15 13 16 11 17 10 18 12 20 4 22 21 24 18 26
REMARK H PARENT 10 19 12 21 4 23 21 25 18 27
REMARK Flexibility Score: inf
ROOT
ATOM      1  C   UNL     1      25.474 -26.102  -0.842  1.00  0.00     0.180 A 
ATOM      2  C   UNL     1      24.150 -25.969  -1.303  1.00  0.00     0.208 A 
ATOM      3  C   UNL     1      23.421 -24.824  -0.950  1.00  0.00     0.238 A 
ATOM      4  O   UNL     1      22.230 -24.698  -1.348  1.00  0.00    -0.285 OA
ATOM      5  C   UNL     1      24.030 -23.824  -0.163  1.00  0.00     0.111 A 
ATOM      6  C   UNL     1      23.366 -22.638   0.232  1.00  0.00     0.134 A 
ATOM      7  C   UNL     1      24.043 -21.687   1.008  1.00  0.00     0.093 A 
ATOM      8  C   UNL     1      25.372 -21.899   1.396  1.00  0.00     0.123 A 
ATOM      9  C   UNL     1      26.030 -23.067   1.009  1.00  0.00     0.094 A 
ATOM     10  C   UNL     1      25.371 -24.028   0.237  1.00  0.00     0.146 A 
ATOM     11  O   UNL     1      26.021 -25.132  -0.113  1.00  0.00    -0.452 OA
ENDROOT
BRANCH   1  12
ATOM     12  C   UNL     1      26.301 -27.290  -1.155  1.00  0.00     0.025 A 
ATOM     13  C   UNL     1      27.660 -27.168  -1.486  1.00  0.00     0.016 A 
ATOM     14  C   UNL     1      28.414 -28.300  -1.801  1.00  0.00     0.051 A 
ATOM     15  C   UNL     1      27.828 -29.570  -1.806  1.00  0.00     0.157 A 
ATOM     16  C   UNL     1      25.706 -28.560  -1.181  1.00  0.00     0.062 A 
ATOM     17  C   UNL     1      26.453 -29.701  -1.495  1.00  0.00     0.158 A 
BRANCH  15  18
ATOM     18  O   UNL     1      28.638 -30.661  -2.125  1.00  0.00    -0.504 OA
ATOM     19  H   UNL     1      28.315 -31.618  -2.145  1.00  0.00     0.293 HD
ENDBRANCH  15  18
BRANCH  17  20
ATOM     20  O   UNL     1      25.796 -30.933  -1.488  1.00  0.00    -0.504 OA
ATOM     21  H   UNL     1      25.858 -31.610  -2.235  1.00  0.00     0.293 HD
ENDBRANCH  17  20
ENDBRANCH   1  12
BRANCH   2  22
ATOM     22  O   UNL     1      23.586 -26.951  -2.122  1.00  0.00    -0.502 OA
ATOM     23  H   UNL     1      24.132 -27.705  -2.519  1.00  0.00     0.293 HD
ENDBRANCH   2  22
BRANCH   6  24
ATOM     24  O   UNL     1      22.042 -22.398  -0.138  1.00  0.00    -0.507 OA
ATOM     25  H   UNL     1      21.716 -21.470  -0.384  1.00  0.00     0.293 HD
ENDBRANCH   6  24
BRANCH   8  26
ATOM     26  O   UNL     1      26.047 -20.954   2.166  1.00  0.00    -0.508 OA
ATOM     27  H   UNL     1      26.851 -21.206   2.728  1.00  0.00     0.293 HD
ENDBRANCH   8  26
TORSDOF 6
ENDMDL
MODEL 6
REMARK VINA RESULT:    -6.672      2.163      2.717
REMARK INTER + INTRA:          -8.205
REMARK INTER:                  -8.135
REMARK INTRA:                  -0.070
REMARK UNBOUND:                -0.168
REMARK SMILES O=c1c(O)c(-c2ccc(O)c(O)c2)oc2cc(O)cc(O)c12
REMARK SMILES IDX 5 1 3 2 2 3 1 4 22 5 20 6 19 7 17 8 16 9 15 10 14 11 6 12
REMARK SMILES IDX 7 13 8 14 9 15 13 16 11 17 10 18 12 20 4 22 21 24 18 26
REMARK H PARENT 10 19 12 21 4 23 21 25 18 27
REMARK Flexibility Score: inf
ROOT
ATOM      1  C   UNL     1      23.938 -24.587   0.493  1.00  0.00     0.180 A 
ATOM      2  C   UNL     1      22.913 -25.240   1.205  1.00  0.00     0.208 A 
ATOM      3  C   UNL     1      22.867 -26.642   1.194  1.00  0.00     0.238 A 
ATOM      4  O   UNL     1      21.948 -27.239   1.819  1.00  0.00    -0.285 OA
ATOM      5  C   UNL     1      23.853 -27.367   0.492  1.00  0.00     0.111 A 
ATOM      6  C   UNL     1      23.880 -28.781   0.434  1.00  0.00     0.134 A 
ATOM      7  C   UNL     1      24.900 -29.428  -0.279  1.00  0.00     0.093 A 
ATOM      8  C   UNL     1      25.892 -28.689  -0.933  1.00  0.00     0.123 A 
ATOM      9  C   UNL     1      25.868 -27.295  -0.880  1.00  0.00     0.094 A 
ATOM     10  C   UNL     1      24.859 -26.631  -0.176  1.00  0.00     0.146 A 
ATOM     11  O   UNL     1      24.859 -25.303  -0.146  1.00  0.00    -0.452 OA
ENDROOT
BRANCH   1  12
ATOM     12  C   UNL     1      24.043 -23.111   0.441  1.00  0.00     0.025 A 
ATOM     13  C   UNL     1      25.186 -22.442   0.908  1.00  0.00     0.016 A 
ATOM     14  C   UNL     1      25.251 -21.048   0.871  1.00  0.00     0.051 A 
ATOM     15  C   UNL     1      24.180 -20.294   0.383  1.00  0.00     0.157 A 
ATOM     16  C   UNL     1      22.957 -22.357  -0.029  1.00  0.00     0.062 A 
ATOM     17  C   UNL     1      23.014 -20.958  -0.071  1.00  0.00     0.158 A 
BRANCH  15  18
ATOM     18  O   UNL     1      24.311 -18.905   0.368  1.00  0.00    -0.504 OA
ATOM     19  H   UNL     1      25.064 -18.412  -0.090  1.00  0.00     0.293 HD
ENDBRANCH  15  18
BRANCH  17  20
ATOM     20  O   UNL     1      21.900 -20.275  -0.563  1.00  0.00    -0.504 OA
ATOM     21  H   UNL     1      21.888 -19.284  -0.761  1.00  0.00     0.293 HD
ENDBRANCH  17  20
ENDBRANCH   1  12
BRANCH   2  22
ATOM     22  O   UNL     1      21.978 -24.501   1.933  1.00  0.00    -0.502 OA
ATOM     23  H   UNL     1      21.875 -23.499   1.824  1.00  0.00     0.293 HD
ENDBRANCH   2  22
BRANCH   6  24
ATOM     24  O   UNL     1      22.905 -29.545   1.076  1.00  0.00    -0.507 OA
ATOM     25  H   UNL     1      22.710 -30.501   0.801  1.00  0.00     0.293 HD
ENDBRANCH   6  24
BRANCH   8  26
ATOM     26  O   UNL     1      26.906 -29.332  -1.641  1.00  0.00    -0.508 OA
ATOM     27  H   UNL     1      26.940 -30.341  -1.717  1.00  0.00     0.293 HD
ENDBRANCH   8  26
TORSDOF 6
ENDMDL
MODEL 7
REMARK VINA RESULT:    -6.670      2.848      7.012
REMARK INTER + INTRA:          -8.202
REMARK INTER:                  -8.716
REMARK INTRA:                   0.513
REMARK UNBOUND:                -0.168
REMARK SMILES O=c1c(O)c(-c2ccc(O)c(O)c2)oc2cc(O)cc(O)c12
REMARK SMILES IDX 5 1 3 2 2 3 1 4 22 5 20 6 19 7 17 8 16 9 15 10 14 11 6 12
REMARK SMILES IDX 7 13 8 14 9 15 13 16 11 17 10 18 12 20 4 22 21 24 18 26
REMARK H PARENT 10 19 12 21 4 23 21 25 18 27
REMARK Flexibility Score: inf
ROOT
ATOM      1  C   UNL     1      23.891 -25.154   0.511  1.00  0.00     0.180 A 
ATOM      2  C   UNL     1      25.162 -25.125  -0.097  1.00  0.00     0.208 A 
ATOM      3  C   UNL     1      25.637 -23.911  -0.617  1.00  0.00     0.238 A 
ATOM      4  O   UNL     1      26.768 -23.875  -1.173  1.00  0.00    -0.285 OA
ATOM      5  C   UNL     1      24.848 -22.748  -0.505  1.00  0.00     0.111 A 
ATOM      6  C   UNL     1      25.256 -21.485  -0.999  1.00  0.00     0.134 A 
ATOM      7  C   UNL     1      24.417 -20.373  -0.841  1.00  0.00     0.093 A 
ATOM      8  C   UNL     1      23.180 -20.498  -0.197  1.00  0.00     0.123 A 
ATOM      9  C   UNL     1      22.774 -21.741   0.291  1.00  0.00     0.094 A 
ATOM     10  C   UNL     1      23.595 -22.862   0.141  1.00  0.00     0.146 A 
ATOM     11  O   UNL     1      23.181 -24.033   0.612  1.00  0.00    -0.452 OA
ENDROOT
BRANCH   1  12
ATOM     12  C   UNL     1      23.312 -26.398   1.066  1.00  0.00     0.025 A 
ATOM     13  C   UNL     1      22.159 -26.375   1.867  1.00  0.00     0.016 A 
ATOM     14  C   UNL     1      21.646 -27.560   2.399  1.00  0.00     0.051 A 
ATOM     15  C   UNL     1      22.276 -28.784   2.156  1.00  0.00     0.157 A 
ATOM     16  C   UNL     1      23.959 -27.623   0.839  1.00  0.00     0.062 A 
ATOM     17  C   UNL     1      23.452 -28.816   1.368  1.00  0.00     0.158 A 
BRANCH  15  18
ATOM     18  O   UNL     1      21.710 -29.932   2.714  1.00  0.00    -0.504 OA
ATOM     19  H   UNL     1      22.235 -30.639   3.207  1.00  0.00     0.293 HD
ENDBRANCH  15  18
BRANCH  17  20
ATOM     20  O   UNL     1      24.141 -29.998   1.090  1.00  0.00    -0.504 OA
ATOM     21  H   UNL     1      24.031 -30.528   0.237  1.00  0.00     0.293 HD
ENDBRANCH  17  20
ENDBRANCH   1  12
BRANCH   2  22
ATOM     22  O   UNL     1      25.944 -26.281  -0.151  1.00  0.00    -0.502 OA
ATOM     23  H   UNL     1      25.658 -27.105  -0.665  1.00  0.00     0.293 HD
ENDBRANCH   2  22
BRANCH   6  24
ATOM     24  O   UNL     1      26.482 -21.329  -1.645  1.00  0.00    -0.507 OA
ATOM     25  H   UNL     1      27.307 -21.843  -1.356  1.00  0.00     0.293 HD
ENDBRANCH   6  24
BRANCH   8  26
ATOM     26  O   UNL     1      22.347 -19.393  -0.038  1.00  0.00    -0.508 OA
ATOM     27  H   UNL     1      22.703 -18.447  -0.110  1.00  0.00     0.293 HD
ENDBRANCH   8  26
TORSDOF 6
ENDMDL
MODEL 8
REMARK VINA RESULT:    -6.619      1.946      7.235
REMARK INTER + INTRA:          -8.141
REMARK INTER:                  -7.811
REMARK INTRA:                  -0.331
REMARK UNBOUND:                -0.168
REMARK SMILES O=c1c(O)c(-c2ccc(O)c(O)c2)oc2cc(O)cc(O)c12
REMARK SMILES IDX 5 1 3 2 2 3 1 4 22 5 20 6 19 7 17 8 16 9 15 10 14 11 6 12
REMARK SMILES IDX 7 13 8 14 9 15 13 16 11 17 10 18 12 20 4 22 21 24 18 26
REMARK H PARENT 10 19 12 21 4 23 21 25 18 27
REMARK Flexibility Score: inf
ROOT
ATOM      1  C   UNL     1      25.487 -24.963   0.042  1.00  0.00     0.180 A 
ATOM      2  C   UNL     1      26.500 -24.380   0.829  1.00  0.00     0.208 A 
ATOM      3  C   UNL     1      26.363 -23.042   1.228  1.00  0.00     0.238 A 
ATOM      4  O   UNL     1      27.268 -22.506   1.923  1.00  0.00    -0.285 OA
ATOM      5  C   UNL     1      25.213 -22.317   0.853  1.00  0.00     0.111 A 
ATOM      6  C   UNL     1      24.997 -20.966   1.218  1.00  0.00     0.134 A 
ATOM      7  C   UNL     1      23.822 -20.316   0.813  1.00  0.00     0.093 A 
ATOM      8  C   UNL     1      22.859 -20.991   0.053  1.00  0.00     0.123 A 
ATOM      9  C   UNL     1      23.069 -22.323  -0.309  1.00  0.00     0.094 A 
ATOM     10  C   UNL     1      24.234 -22.988   0.082  1.00  0.00     0.146 A 
ATOM     11  O   UNL     1      24.410 -24.253  -0.280  1.00  0.00    -0.452 OA
ENDROOT
BRANCH   1  12
ATOM     12  C   UNL     1      25.568 -26.363  -0.434  1.00  0.00     0.025 A 
ATOM     13  C   UNL     1      26.232 -26.693  -1.626  1.00  0.00     0.016 A 
ATOM     14  C   UNL     1      26.274 -28.017  -2.067  1.00  0.00     0.051 A 
ATOM     15  C   UNL     1      25.647 -29.033  -1.339  1.00  0.00     0.157 A 
ATOM     16  C   UNL     1      24.919 -27.377   0.287  1.00  0.00     0.062 A 
ATOM     17  C   UNL     1      24.956 -28.708  -0.146  1.00  0.00     0.158 A 
BRANCH  15  18
ATOM     18  O   UNL     1      25.730 -30.336  -1.831  1.00  0.00    -0.504 OA
ATOM     19  H   UNL     1      25.683 -30.575  -2.811  1.00  0.00     0.293 HD
ENDBRANCH  15  18
BRANCH  17  20
ATOM     20  O   UNL     1      24.298 -29.664   0.629  1.00  0.00    -0.504 OA
ATOM     21  H   UNL     1      23.968 -29.500   1.569  1.00  0.00     0.293 HD
ENDBRANCH  17  20
ENDBRANCH   1  12
BRANCH   2  22
ATOM     22  O   UNL     1      27.606 -25.135   1.227  1.00  0.00    -0.502 OA
ATOM     23  H   UNL     1      27.752 -25.416   2.189  1.00  0.00     0.293 HD
ENDBRANCH   2  22
BRANCH   6  24
ATOM     24  O   UNL     1      25.937 -20.267   1.975  1.00  0.00    -0.507 OA
ATOM     25  H   UNL     1      26.362 -19.410   1.639  1.00  0.00     0.293 HD
ENDBRANCH   6  24
BRANCH   8  26
ATOM     26  O   UNL     1      21.691 -20.347  -0.349  1.00  0.00    -0.508 OA
ATOM     27  H   UNL     1      20.901 -20.864  -0.718  1.00  0.00     0.293 HD
ENDBRANCH   8  26
TORSDOF 6
ENDMDL
MODEL 9
REMARK VINA RESULT:    -6.609      1.437      3.363
REMARK INTER + INTRA:          -8.129
REMARK INTER:                  -7.866
REMARK INTRA:                  -0.264
REMARK UNBOUND:                -0.168
REMARK SMILES O=c1c(O)c(-c2ccc(O)c(O)c2)oc2cc(O)cc(O)c12
REMARK SMILES IDX 5 1 3 2 2 3 1 4 22 5 20 6 19 7 17 8 16 9 15 10 14 11 6 12
REMARK SMILES IDX 7 13 8 14 9 15 13 16 11 17 10 18 12 20 4 22 21 24 18 26
REMARK H PARENT 10 19 12 21 4 23 21 25 18 27
REMARK Flexibility Score: inf
ROOT
ATOM      1  C   UNL     1      27.261 -23.660   0.350  1.00  0.00     0.180 A 
ATOM      2  C   UNL     1      28.556 -24.019  -0.075  1.00  0.00     0.208 A 
ATOM      3  C   UNL     1      28.736 -25.238  -0.747  1.00  0.00     0.238 A 
ATOM      4  O   UNL     1      29.891 -25.575  -1.122  1.00  0.00    -0.285 OA
ATOM      5  C   UNL     1      27.622 -26.065  -1.001  1.00  0.00     0.111 A 
ATOM      6  C   UNL     1      27.718 -27.306  -1.676  1.00  0.00     0.134 A 
ATOM      7  C   UNL     1      26.561 -28.067  -1.898  1.00  0.00     0.093 A 
ATOM      8  C   UNL     1      25.312 -27.612  -1.460  1.00  0.00     0.123 A 
ATOM      9  C   UNL     1      25.214 -26.389  -0.793  1.00  0.00     0.094 A 
ATOM     10  C   UNL     1      26.355 -25.616  -0.560  1.00  0.00     0.146 A 
ATOM     11  O   UNL     1      26.232 -24.459   0.080  1.00  0.00    -0.452 OA
ENDROOT
BRANCH   1  12
ATOM     12  C   UNL     1      26.994 -22.401   1.081  1.00  0.00     0.025 A 
ATOM     13  C   UNL     1      26.990 -21.161   0.424  1.00  0.00     0.016 A 
ATOM     14  C   UNL     1      26.759 -19.984   1.140  1.00  0.00     0.051 A 
ATOM     15  C   UNL     1      26.540 -20.019   2.521  1.00  0.00     0.157 A 
ATOM     16  C   UNL     1      26.797 -22.437   2.470  1.00  0.00     0.062 A 
ATOM     17  C   UNL     1      26.563 -21.263   3.196  1.00  0.00     0.158 A 
BRANCH  15  18
ATOM     18  O   UNL     1      26.311 -18.808   3.176  1.00  0.00    -0.504 OA
ATOM     19  H   UNL     1      27.023 -18.287   3.668  1.00  0.00     0.293 HD
ENDBRANCH  15  18
BRANCH  17  20
ATOM     20  O   UNL     1      26.363 -21.377   4.573  1.00  0.00    -0.504 OA
ATOM     21  H   UNL     1      26.323 -20.590   5.205  1.00  0.00     0.293 HD
ENDBRANCH  17  20
ENDBRANCH   1  12
BRANCH   2  22
ATOM     22  O   UNL     1      29.634 -23.159   0.146  1.00  0.00    -0.502 OA
ATOM     23  H   UNL     1      30.219 -22.818  -0.607  1.00  0.00     0.293 HD
ENDBRANCH   2  22
BRANCH   6  24
ATOM     24  O   UNL     1      28.948 -27.787  -2.124  1.00  0.00    -0.507 OA
ATOM     25  H   UNL     1      29.105 -28.774  -2.294  1.00  0.00     0.293 HD
ENDBRANCH   6  24
BRANCH   8  26
ATOM     26  O   UNL     1      24.162 -28.367  -1.681  1.00  0.00    -0.508 OA
ATOM     27  H   UNL     1      24.148 -29.367  -1.521  1.00  0.00     0.293 HD
ENDBRANCH   8  26
TORSDOF 6
ENDMDL
