MODEL 1
REMARK VINA RESULT:    -4.728      0.000      0.000
REMARK INTER + INTRA:         -10.428
REMARK INTER:                  -8.598
REMARK INTRA:                  -1.829
REMARK UNBOUND:                -1.829
REMARK SMILES CCCCCCCCCCCCCCCC(=O)[O-]
REMARK SMILES IDX 9 1 10 2 11 3 12 4 13 5 14 6 15 7 16 8 17 9 18 10 8 11 7 12
REMARK SMILES IDX 6 13 5 14 4 15 3 16 2 17 1 18
REMARK H PARENT
REMARK Flexibility Score: inf
ROOT
ATOM      1  C   UNL     1      30.989  -8.590  12.097  1.00  0.00     0.000 C 
ENDROOT
BRANCH   1   2
ATOM      2  C   UNL     1      30.656  -9.597  13.216  1.00  0.00     0.000 C 
BRANCH   2   3
ATOM      3  C   UNL     1      31.038  -9.135  14.635  1.00  0.00     0.000 C 
BRANCH   3   4
ATOM      4  C   UNL     1      29.816  -8.976  15.555  1.00  0.00     0.000 C 
BRANCH   4   5
ATOM      5  C   UNL     1      28.485  -9.055  14.791  1.00  0.00     0.000 C 
BRANCH   5   6
ATOM      6  C   UNL     1      27.602 -10.227  15.251  1.00  0.00     0.006 C 
BRANCH   6   7
ATOM      7  C   UNL     1      27.453 -11.270  14.140  1.00  0.00     0.053 C 
BRANCH   7   8
ATOM      8  C   UNL     1      28.218 -12.510  14.481  1.00  0.00     0.041 C 
ATOM      9  O   UNL     1      27.937 -13.603  13.920  1.00  0.00    -0.550 OA
ATOM     10  O   UNL     1      29.211 -12.471  15.453  1.00  0.00    -0.550 OA
ENDBRANCH   7   8
ENDBRANCH   6   7
ENDBRANCH   5   6
ENDBRANCH   4   5
ENDBRANCH   3   4
ENDBRANCH   2   3
ENDBRANCH   1   2
BRANCH   1  11
ATOM     11  C   UNL     1      30.599  -7.128  12.394  1.00  0.00     0.000 C 
BRANCH  11  12
ATOM     12  C   UNL     1      31.113  -6.122  11.342  1.00  0.00    -0.000 C 
BRANCH  12  13
ATOM     13  C   UNL     1      31.357  -6.784   9.974  1.00  0.00    -0.000 C 
BRANCH  13  14
ATOM     14  C   UNL     1      32.594  -6.218   9.259  1.00  0.00    -0.000 C 
BRANCH  14  15
ATOM     15  C   UNL     1      33.619  -5.632  10.247  1.00  0.00    -0.000 C 
BRANCH  15  16
ATOM     16  C   UNL     1      34.890  -6.492  10.371  1.00  0.00    -0.000 C 
BRANCH  16  17
ATOM     17  C   UNL     1      34.728  -7.772  11.211  1.00  0.00    -0.003 C 
ATOM     18  C   UNL     1      34.402  -7.489  12.677  1.00  0.00     0.004 C 
ENDBRANCH  16  17
ENDBRANCH  15  16
ENDBRANCH  14  15
ENDBRANCH  13  14
ENDBRANCH  12  13
ENDBRANCH  11  12
ENDBRANCH   1  11
TORSDOF 14
ENDMDL
MODEL 2
REMARK VINA RESULT:    -4.720      3.500      7.357
REMARK INTER + INTRA:         -10.412
REMARK INTER:                  -8.471
REMARK INTRA:                  -1.941
REMARK UNBOUND:                -1.829
REMARK SMILES CCCCCCCCCCCCCCCC(=O)[O-]
REMARK SMILES IDX 9 1 10 2 11 3 12 4 13 5 14 6 15 7 16 8 17 9 18 10 8 11 7 12
REMARK SMILES IDX 6 13 5 14 4 15 3 16 2 17 1 18
REMARK H PARENT
REMARK Flexibility Score: inf
ROOT
ATOM      1  C   UNL     1      31.807 -11.800  15.727  1.00  0.00     0.000 C 
ENDROOT
BRANCH   1   2
ATOM      2  C   UNL     1      31.780 -10.434  15.013  1.00  0.00     0.000 C 
BRANCH   2   3
ATOM      3  C   UNL     1      31.237 -10.468  13.572  1.00  0.00     0.000 C 
BRANCH   3   4
ATOM      4  C   UNL     1      30.487  -9.181  13.190  1.00  0.00     0.000 C 
BRANCH   4   5
ATOM      5  C   UNL     1      31.411  -8.118  12.575  1.00  0.00     0.000 C 
BRANCH   5   6
ATOM      6  C   UNL     1      30.639  -6.930  11.977  1.00  0.00     0.006 C 
BRANCH   6   7
ATOM      7  C   UNL     1      31.084  -6.654  10.539  1.00  0.00     0.053 C 
BRANCH   7   8
ATOM      8  C   UNL     1      32.312  -5.800  10.526  1.00  0.00     0.041 C 
ATOM      9  O   UNL     1      33.048  -5.764   9.504  1.00  0.00    -0.550 OA
ATOM     10  O   UNL     1      32.670  -5.078  11.658  1.00  0.00    -0.550 OA
ENDBRANCH   7   8
ENDBRANCH   6   7
ENDBRANCH   5   6
ENDBRANCH   4   5
ENDBRANCH   3   4
ENDBRANCH   2   3
ENDBRANCH   1   2
BRANCH   1  11
ATOM     11  C   UNL     1      30.630 -12.058  16.690  1.00  0.00     0.000 C 
BRANCH  11  12
ATOM     12  C   UNL     1      29.734 -13.243  16.272  1.00  0.00    -0.000 C 
BRANCH  12  13
ATOM     13  C   UNL     1      28.301 -12.797  15.932  1.00  0.00    -0.000 C 
BRANCH  13  14
ATOM     14  C   UNL     1      28.192 -12.184  14.527  1.00  0.00    -0.000 C 
BRANCH  14  15
ATOM     15  C   UNL     1      27.441 -10.841  14.536  1.00  0.00    -0.000 C 
BRANCH  15  16
ATOM     16  C   UNL     1      27.519 -10.120  15.894  1.00  0.00    -0.000 C 
BRANCH  16  17
ATOM     17  C   UNL     1      28.464  -8.904  15.930  1.00  0.00    -0.003 C 
ATOM     18  C   UNL     1      29.192  -8.749  17.265  1.00  0.00     0.004 C 
ENDBRANCH  16  17
ENDBRANCH  15  16
ENDBRANCH  14  15
ENDBRANCH  13  14
ENDBRANCH  12  13
ENDBRANCH  11  12
ENDBRANCH   1  11
TORSDOF 14
ENDMDL
MODEL 3
REMARK VINA RESULT:    -4.708      1.003      1.805
REMARK INTER + INTRA:         -10.391
REMARK INTER:                  -9.078
REMARK INTRA:                  -1.313
REMARK UNBOUND:                -1.829
REMARK SMILES CCCCCCCCCCCCCCCC(=O)[O-]
REMARK SMILES IDX 9 1 10 2 11 3 12 4 13 5 14 6 15 7 16 8 17 9 18 10 8 11 7 12
REMARK SMILES IDX 6 13 5 14 4 15 3 16 2 17 1 18
REMARK H PARENT
REMARK Flexibility Score: inf
ROOT
ATOM      1  C   UNL     1      31.079  -9.093  13.692  1.00  0.00     0.000 C 
ENDROOT
BRANCH   1   2
ATOM      2  C   UNL     1      29.878  -8.651  14.551  1.00  0.00     0.000 C 
BRANCH   2   3
ATOM      3  C   UNL     1      29.475  -9.643  15.659  1.00  0.00     0.000 C 
BRANCH   3   4
ATOM      4  C   UNL     1      27.954  -9.857  15.738  1.00  0.00     0.000 C 
BRANCH   4   5
ATOM      5  C   UNL     1      27.371 -10.448  14.444  1.00  0.00     0.000 C 
BRANCH   5   6
ATOM      6  C   UNL     1      27.567 -11.969  14.342  1.00  0.00     0.006 C 
BRANCH   6   7
ATOM      7  C   UNL     1      27.368 -12.641  15.703  1.00  0.00     0.053 C 
BRANCH   7   8
ATOM      8  C   UNL     1      28.542 -13.508  16.035  1.00  0.00     0.041 C 
ATOM      9  O   UNL     1      29.419 -13.104  16.845  1.00  0.00    -0.550 OA
ATOM     10  O   UNL     1      28.692 -14.743  15.417  1.00  0.00    -0.550 OA
ENDBRANCH   7   8
ENDBRANCH   6   7
ENDBRANCH   5   6
ENDBRANCH   4   5
ENDBRANCH   3   4
ENDBRANCH   2   3
ENDBRANCH   1   2
BRANCH   1  11
ATOM     11  C   UNL     1      31.192  -8.403  12.318  1.00  0.00     0.000 C 
BRANCH  11  12
ATOM     12  C   UNL     1      30.447  -7.053  12.238  1.00  0.00    -0.000 C 
BRANCH  12  13
ATOM     13  C   UNL     1      31.227  -6.006  11.423  1.00  0.00    -0.000 C 
BRANCH  13  14
ATOM     14  C   UNL     1      31.656  -6.532  10.045  1.00  0.00    -0.000 C 
BRANCH  14  15
ATOM     15  C   UNL     1      32.970  -5.893   9.562  1.00  0.00    -0.000 C 
BRANCH  15  16
ATOM     16  C   UNL     1      33.924  -5.539  10.717  1.00  0.00    -0.000 C 
BRANCH  16  17
ATOM     17  C   UNL     1      35.001  -6.598  11.016  1.00  0.00    -0.003 C 
ATOM     18  C   UNL     1      34.737  -7.375  12.305  1.00  0.00     0.004 C 
ENDBRANCH  16  17
ENDBRANCH  15  16
ENDBRANCH  14  15
ENDBRANCH  13  14
ENDBRANCH  12  13
ENDBRANCH  11  12
ENDBRANCH   1  11
TORSDOF 14
ENDMDL
MODEL 4
REMARK VINA RESULT:    -4.689      3.027      7.753
REMARK INTER + INTRA:         -10.357
REMARK INTER:                  -9.113
REMARK INTRA:                  -1.243
REMARK UNBOUND:                -1.829
REMARK SMILES CCCCCCCCCCCCCCCC(=O)[O-]
REMARK SMILES IDX 9 1 10 2 11 3 12 4 13 5 14 6 15 7 16 8 17 9 18 10 8 11 7 12
REMARK SMILES IDX 6 13 5 14 4 15 3 16 2 17 1 18
REMARK H PARENT
REMARK Flexibility Score: inf
ROOT
ATOM      1  C   UNL     1      30.895  -9.404  12.475  1.00  0.00     0.000 C 
ENDROOT
BRANCH   1   2
ATOM      2  C   UNL     1      30.895  -7.936  12.945  1.00  0.00     0.000 C 
BRANCH   2   3
ATOM      3  C   UNL     1      30.574  -6.906  11.846  1.00  0.00     0.000 C 
BRANCH   3   4
ATOM      4  C   UNL     1      31.360  -7.160  10.548  1.00  0.00     0.000 C 
BRANCH   4   5
ATOM      5  C   UNL     1      32.221  -5.957  10.132  1.00  0.00     0.000 C 
BRANCH   5   6
ATOM      6  C   UNL     1      33.059  -5.394  11.292  1.00  0.00     0.006 C 
BRANCH   6   7
ATOM      7  C   UNL     1      34.504  -5.894  11.218  1.00  0.00     0.053 C 
BRANCH   7   8
ATOM      8  C   UNL     1      34.608  -7.278  11.778  1.00  0.00     0.041 C 
ATOM      9  O   UNL     1      34.433  -7.477  13.010  1.00  0.00    -0.550 OA
ATOM     10  O   UNL     1      34.944  -8.341  10.949  1.00  0.00    -0.550 OA
ENDBRANCH   7   8
ENDBRANCH   6   7
ENDBRANCH   5   6
ENDBRANCH   4   5
ENDBRANCH   3   4
ENDBRANCH   2   3
ENDBRANCH   1   2
BRANCH   1  11
ATOM     11  C   UNL     1      30.649 -10.448  13.584  1.00  0.00     0.000 C 
BRANCH  11  12
ATOM     12  C   UNL     1      29.239 -11.073  13.547  1.00  0.00    -0.000 C 
BRANCH  12  13
ATOM     13  C   UNL     1      28.468 -10.849  14.861  1.00  0.00    -0.000 C 
BRANCH  13  14
ATOM     14  C   UNL     1      29.311 -11.179  16.102  1.00  0.00    -0.000 C 
BRANCH  14  15
ATOM     15  C   UNL     1      29.539 -12.693  16.265  1.00  0.00    -0.000 C 
BRANCH  15  16
ATOM     16  C   UNL     1      28.239 -13.509  16.154  1.00  0.00    -0.000 C 
BRANCH  16  17
ATOM     17  C   UNL     1      28.285 -14.668  15.142  1.00  0.00    -0.003 C 
ATOM     18  C   UNL     1      27.494 -14.382  13.866  1.00  0.00     0.004 C 
ENDBRANCH  16  17
ENDBRANCH  15  16
ENDBRANCH  14  15
ENDBRANCH  13  14
ENDBRANCH  12  13
ENDBRANCH  11  12
ENDBRANCH   1  11
TORSDOF 14
ENDMDL
MODEL 5
REMARK VINA RESULT:    -4.599      1.179      2.450
REMARK INTER + INTRA:         -10.192
REMARK INTER:                  -8.655
REMARK INTRA:                  -1.537
REMARK UNBOUND:                -1.829
REMARK SMILES CCCCCCCCCCCCCCCC(=O)[O-]
REMARK SMILES IDX 9 1 10 2 11 3 12 4 13 5 14 6 15 7 16 8 17 9 18 10 8 11 7 12
REMARK SMILES IDX 6 13 5 14 4 15 3 16 2 17 1 18
REMARK H PARENT
REMARK Flexibility Score: inf
ROOT
ATOM      1  C   UNL     1      30.617  -6.846  12.113  1.00  0.00     0.000 C 
ENDROOT
BRANCH   1   2
ATOM      2  C   UNL     1      31.373  -8.189  12.138  1.00  0.00     0.000 C 
BRANCH   2   3
ATOM      3  C   UNL     1      31.340  -8.924  13.491  1.00  0.00     0.000 C 
BRANCH   3   4
ATOM      4  C   UNL     1      29.998  -9.629  13.750  1.00  0.00     0.000 C 
BRANCH   4   5
ATOM      5  C   UNL     1      29.173  -8.945  14.851  1.00  0.00     0.000 C 
BRANCH   5   6
ATOM      6  C   UNL     1      28.089  -9.862  15.441  1.00  0.00     0.006 C 
BRANCH   6   7
ATOM      7  C   UNL     1      27.528 -10.805  14.374  1.00  0.00     0.053 C 
BRANCH   7   8
ATOM      8  C   UNL     1      27.572 -12.222  14.853  1.00  0.00     0.041 C 
ATOM      9  O   UNL     1      27.262 -12.498  16.043  1.00  0.00    -0.550 OA
ATOM     10  O   UNL     1      27.998 -13.232  14.001  1.00  0.00    -0.550 OA
ENDBRANCH   7   8
ENDBRANCH   6   7
ENDBRANCH   5   6
ENDBRANCH   4   5
ENDBRANCH   3   4
ENDBRANCH   2   3
ENDBRANCH   1   2
BRANCH   1  11
ATOM     11  C   UNL     1      31.371  -5.682  11.437  1.00  0.00     0.000 C 
BRANCH  11  12
ATOM     12  C   UNL     1      32.883  -5.660  11.744  1.00  0.00    -0.000 C 
BRANCH  12  13
ATOM     13  C   UNL     1      33.727  -5.376  10.489  1.00  0.00    -0.000 C 
BRANCH  13  14
ATOM     14  C   UNL     1      34.504  -6.613  10.009  1.00  0.00    -0.000 C 
BRANCH  14  15
ATOM     15  C   UNL     1      33.856  -7.261   8.773  1.00  0.00    -0.000 C 
BRANCH  15  16
ATOM     16  C   UNL     1      32.775  -6.375   8.128  1.00  0.00    -0.000 C 
BRANCH  16  17
ATOM     17  C   UNL     1      31.382  -7.023   8.025  1.00  0.00    -0.003 C 
ATOM     18  C   UNL     1      31.376  -8.498   8.424  1.00  0.00     0.004 C 
ENDBRANCH  16  17
ENDBRANCH  15  16
ENDBRANCH  14  15
ENDBRANCH  13  14
ENDBRANCH  12  13
ENDBRANCH  11  12
ENDBRANCH   1  11
TORSDOF 14
ENDMDL
MODEL 6
REMARK VINA RESULT:    -4.587      3.158      7.079
REMARK INTER + INTRA:         -10.171
REMARK INTER:                  -8.576
REMARK INTRA:                  -1.595
REMARK UNBOUND:                -1.829
REMARK SMILES CCCCCCCCCCCCCCCC(=O)[O-]
REMARK SMILES IDX 9 1 10 2 11 3 12 4 13 5 14 6 15 7 16 8 17 9 18 10 8 11 7 12
REMARK SMILES IDX 6 13 5 14 4 15 3 16 2 17 1 18
REMARK H PARENT
REMARK Flexibility Score: inf
ROOT
ATOM      1  C   UNL     1      31.916  -8.629  12.731  1.00  0.00     0.000 C 
ENDROOT
BRANCH   1   2
ATOM      2  C   UNL     1      30.644  -7.761  12.797  1.00  0.00     0.000 C 
BRANCH   2   3
ATOM      3  C   UNL     1      30.623  -6.571  11.818  1.00  0.00     0.000 C 
BRANCH   3   4
ATOM      4  C   UNL     1      31.147  -6.944  10.420  1.00  0.00     0.000 C 
BRANCH   4   5
ATOM      5  C   UNL     1      32.265  -6.007   9.937  1.00  0.00     0.000 C 
BRANCH   5   6
ATOM      6  C   UNL     1      33.098  -5.427  11.092  1.00  0.00     0.006 C 
BRANCH   6   7
ATOM      7  C   UNL     1      34.589  -5.709  10.889  1.00  0.00     0.053 C 
BRANCH   7   8
ATOM      8  C   UNL     1      34.921  -7.102  11.322  1.00  0.00     0.041 C 
ATOM      9  O   UNL     1      34.926  -8.042  10.484  1.00  0.00    -0.550 OA
ATOM     10  O   UNL     1      35.181  -7.372  12.660  1.00  0.00    -0.550 OA
ENDBRANCH   7   8
ENDBRANCH   6   7
ENDBRANCH   5   6
ENDBRANCH   4   5
ENDBRANCH   3   4
ENDBRANCH   2   3
ENDBRANCH   1   2
BRANCH   1  11
ATOM     11  C   UNL     1      31.676 -10.150  12.815  1.00  0.00     0.000 C 
BRANCH  11  12
ATOM     12  C   UNL     1      30.193 -10.554  12.667  1.00  0.00    -0.000 C 
BRANCH  12  13
ATOM     13  C   UNL     1      29.638 -11.209  13.944  1.00  0.00    -0.000 C 
BRANCH  13  14
ATOM     14  C   UNL     1      28.105 -11.315  13.934  1.00  0.00    -0.000 C 
BRANCH  14  15
ATOM     15  C   UNL     1      27.450 -10.368  14.954  1.00  0.00    -0.000 C 
BRANCH  15  16
ATOM     16  C   UNL     1      28.316  -9.134  15.267  1.00  0.00    -0.000 C 
BRANCH  16  17
ATOM     17  C   UNL     1      28.918  -9.106  16.684  1.00  0.00    -0.003 C 
ATOM     18  C   UNL     1      30.402  -8.738  16.697  1.00  0.00     0.004 C 
ENDBRANCH  16  17
ENDBRANCH  15  16
ENDBRANCH  14  15
ENDBRANCH  13  14
ENDBRANCH  12  13
ENDBRANCH  11  12
ENDBRANCH   1  11
TORSDOF 14
ENDMDL
MODEL 7
REMARK VINA RESULT:    -4.582      3.208      7.277
REMARK INTER + INTRA:         -10.162
REMARK INTER:                  -8.314
REMARK INTRA:                  -1.848
REMARK UNBOUND:                -1.829
REMARK SMILES CCCCCCCCCCCCCCCC(=O)[O-]
REMARK SMILES IDX 9 1 10 2 11 3 12 4 13 5 14 6 15 7 16 8 17 9 18 10 8 11 7 12
REMARK SMILES IDX 6 13 5 14 4 15 3 16 2 17 1 18
REMARK H PARENT
REMARK Flexibility Score: inf
ROOT
ATOM      1  C   UNL     1      31.471 -10.657  15.781  1.00  0.00     0.000 C 
ENDROOT
BRANCH   1   2
ATOM      2  C   UNL     1      31.328 -10.585  14.248  1.00  0.00     0.000 C 
BRANCH   2   3
ATOM      3  C   UNL     1      31.696  -9.224  13.628  1.00  0.00     0.000 C 
BRANCH   3   4
ATOM      4  C   UNL     1      30.692  -8.771  12.553  1.00  0.00     0.000 C 
BRANCH   4   5
ATOM      5  C   UNL     1      30.565  -7.242  12.469  1.00  0.00     0.000 C 
BRANCH   5   6
ATOM      6  C   UNL     1      30.936  -6.688  11.083  1.00  0.00     0.006 C 
BRANCH   6   7
ATOM      7  C   UNL     1      32.317  -7.184  10.646  1.00  0.00     0.053 C 
BRANCH   7   8
ATOM      8  C   UNL     1      33.393  -6.350  11.268  1.00  0.00     0.041 C 
ATOM      9  O   UNL     1      33.957  -6.732  12.328  1.00  0.00    -0.550 OA
ATOM     10  O   UNL     1      33.741  -5.129  10.704  1.00  0.00    -0.550 OA
ENDBRANCH   7   8
ENDBRANCH   6   7
ENDBRANCH   5   6
ENDBRANCH   4   5
ENDBRANCH   3   4
ENDBRANCH   2   3
ENDBRANCH   1   2
BRANCH   1  11
ATOM     11  C   UNL     1      30.161 -10.460  16.571  1.00  0.00     0.000 C 
BRANCH  11  12
ATOM     12  C   UNL     1      29.598  -9.025  16.493  1.00  0.00    -0.000 C 
BRANCH  12  13
ATOM     13  C   UNL     1      28.338  -8.942  15.613  1.00  0.00    -0.000 C 
BRANCH  13  14
ATOM     14  C   UNL     1      27.523 -10.245  15.626  1.00  0.00    -0.000 C 
BRANCH  14  15
ATOM     15  C   UNL     1      27.358 -10.841  14.217  1.00  0.00    -0.000 C 
BRANCH  15  16
ATOM     16  C   UNL     1      27.925 -12.268  14.100  1.00  0.00    -0.000 C 
BRANCH  16  17
ATOM     17  C   UNL     1      27.861 -13.099  15.394  1.00  0.00    -0.003 C 
ATOM     18  C   UNL     1      28.403 -14.518  15.223  1.00  0.00     0.004 C 
ENDBRANCH  16  17
ENDBRANCH  15  16
ENDBRANCH  14  15
ENDBRANCH  13  14
ENDBRANCH  12  13
ENDBRANCH  11  12
ENDBRANCH   1  11
TORSDOF 14
ENDMDL
MODEL 8
REMARK VINA RESULT:    -4.526      1.181      1.734
REMARK INTER + INTRA:         -10.060
REMARK INTER:                  -8.377
REMARK INTRA:                  -1.682
REMARK UNBOUND:                -1.829
REMARK SMILES CCCCCCCCCCCCCCCC(=O)[O-]
REMARK SMILES IDX 9 1 10 2 11 3 12 4 13 5 14 6 15 7 16 8 17 9 18 10 8 11 7 12
REMARK SMILES IDX 6 13 5 14 4 15 3 16 2 17 1 18
REMARK H PARENT
REMARK Flexibility Score: inf
ROOT
ATOM      1  C   UNL     1      32.158  -9.827  12.510  1.00  0.00     0.000 C 
ENDROOT
BRANCH   1   2
ATOM      2  C   UNL     1      31.700  -9.315  13.890  1.00  0.00     0.000 C 
BRANCH   2   3
ATOM      3  C   UNL     1      30.257  -8.776  13.933  1.00  0.00     0.000 C 
BRANCH   3   4
ATOM      4  C   UNL     1      29.620  -8.898  15.327  1.00  0.00     0.000 C 
BRANCH   4   5
ATOM      5  C   UNL     1      28.459  -9.906  15.362  1.00  0.00     0.000 C 
BRANCH   5   6
ATOM      6  C   UNL     1      28.415 -10.807  14.117  1.00  0.00     0.006 C 
BRANCH   6   7
ATOM      7  C   UNL     1      27.009 -11.372  13.899  1.00  0.00     0.053 C 
BRANCH   7   8
ATOM      8  C   UNL     1      26.935 -12.789  14.376  1.00  0.00     0.041 C 
ATOM      9  O   UNL     1      26.880 -13.735  13.545  1.00  0.00    -0.550 OA
ATOM     10  O   UNL     1      26.880 -13.063  15.736  1.00  0.00    -0.550 OA
ENDBRANCH   7   8
ENDBRANCH   6   7
ENDBRANCH   5   6
ENDBRANCH   4   5
ENDBRANCH   3   4
ENDBRANCH   2   3
ENDBRANCH   1   2
BRANCH   1  11
ATOM     11  C   UNL     1      31.198  -9.515  11.344  1.00  0.00     0.000 C 
BRANCH  11  12
ATOM     12  C   UNL     1      31.899  -8.917  10.106  1.00  0.00    -0.000 C 
BRANCH  12  13
ATOM     13  C   UNL     1      31.386  -7.504   9.774  1.00  0.00    -0.000 C 
BRANCH  13  14
ATOM     14  C   UNL     1      30.950  -6.726  11.025  1.00  0.00    -0.000 C 
BRANCH  14  15
ATOM     15  C   UNL     1      32.006  -5.695  11.465  1.00  0.00    -0.000 C 
BRANCH  15  16
ATOM     16  C   UNL     1      33.165  -5.560  10.461  1.00  0.00    -0.000 C 
BRANCH  16  17
ATOM     17  C   UNL     1      34.547  -5.961  11.009  1.00  0.00    -0.003 C 
ATOM     18  C   UNL     1      34.473  -7.034  12.095  1.00  0.00     0.004 C 
ENDBRANCH  16  17
ENDBRANCH  15  16
ENDBRANCH  14  15
ENDBRANCH  13  14
ENDBRANCH  12  13
ENDBRANCH  11  12
ENDBRANCH   1  11
TORSDOF 14
ENDMDL
MODEL 9
REMARK VINA RESULT:    -4.455      1.873      2.766
REMARK INTER + INTRA:          -9.931
REMARK INTER:                  -8.224
REMARK INTRA:                  -1.707
REMARK UNBOUND:                -1.829
REMARK SMILES CCCCCCCCCCCCCCCC(=O)[O-]
REMARK SMILES IDX 9 1 10 2 11 3 12 4 13 5 14 6 15 7 16 8 17 9 18 10 8 11 7 12
REMARK SMILES IDX 6 13 5 14 4 15 3 16 2 17 1 18
REMARK H PARENT
REMARK Flexibility Score: inf
ROOT
ATOM      1  C   UNL     1      31.005  -9.266  12.397  1.00  0.00     0.000 C 
ENDROOT
BRANCH   1   2
ATOM      2  C   UNL     1      30.689 -10.403  13.389  1.00  0.00     0.000 C 
BRANCH   2   3
ATOM      3  C   UNL     1      29.281 -11.011  13.247  1.00  0.00     0.000 C 
BRANCH   3   4
ATOM      4  C   UNL     1      28.531 -11.091  14.588  1.00  0.00     0.000 C 
BRANCH   4   5
ATOM      5  C   UNL     1      27.984  -9.729  15.043  1.00  0.00     0.000 C 
BRANCH   5   6
ATOM      6  C   UNL     1      28.444  -9.345  16.459  1.00  0.00     0.006 C 
BRANCH   6   7
ATOM      7  C   UNL     1      29.692  -8.459  16.410  1.00  0.00     0.053 C 
BRANCH   7   8
ATOM      8  C   UNL     1      30.770  -9.025  17.280  1.00  0.00     0.041 C 
ATOM      9  O   UNL     1      30.916  -8.608  18.459  1.00  0.00    -0.550 OA
ATOM     10  O   UNL     1      31.643  -9.980  16.774  1.00  0.00    -0.550 OA
ENDBRANCH   7   8
ENDBRANCH   6   7
ENDBRANCH   5   6
ENDBRANCH   4   5
ENDBRANCH   3   4
ENDBRANCH   2   3
ENDBRANCH   1   2
BRANCH   1  11
ATOM     11  C   UNL     1      30.722  -7.843  12.919  1.00  0.00     0.000 C 
BRANCH  11  12
ATOM     12  C   UNL     1      30.666  -6.773  11.808  1.00  0.00    -0.000 C 
BRANCH  12  13
ATOM     13  C   UNL     1      31.477  -7.182  10.565  1.00  0.00    -0.000 C 
BRANCH  13  14
ATOM     14  C   UNL     1      32.154  -5.984   9.883  1.00  0.00    -0.000 C 
BRANCH  14  15
ATOM     15  C   UNL     1      33.515  -5.646  10.518  1.00  0.00    -0.000 C 
BRANCH  15  16
ATOM     16  C   UNL     1      34.509  -6.821  10.464  1.00  0.00    -0.000 C 
BRANCH  16  17
ATOM     17  C   UNL     1      35.282  -7.076  11.771  1.00  0.00    -0.003 C 
ATOM     18  C   UNL     1      34.427  -7.733  12.854  1.00  0.00     0.004 C 
ENDBRANCH  16  17
ENDBRANCH  15  16
ENDBRANCH  14  15
ENDBRANCH  13  14
ENDBRANCH  12  13
ENDBRANCH  11  12
ENDBRANCH   1  11
TORSDOF 14
ENDMDL
