MODEL 1
REMARK VINA RESULT:    -8.067      0.000      0.000
REMARK INTER + INTRA:          -9.557
REMARK INTER:                  -9.482
REMARK INTRA:                  -0.075
REMARK UNBOUND:                -0.075
REMARK SMILES O=c1c(O)c(-c2ccc(O)c(O)c2)oc2cc(O)ccc12
REMARK SMILES IDX 5 1 3 2 2 3 1 4 21 5 15 6 14 7 16 8 17 9 19 10 20 11 6 12
REMARK SMILES IDX 7 13 8 14 9 15 13 16 11 17 10 18 12 20 4 22 18 24
REMARK H PARENT 10 19 12 21 4 23 18 25
REMARK Flexibility Score: inf
ROOT
ATOM      1  C   UNL     1      47.945  43.814  77.956  1.00  0.00     0.180 A 
ATOM      2  C   UNL     1      47.722  43.118  76.749  1.00  0.00     0.208 A 
ATOM      3  C   UNL     1      48.754  43.062  75.800  1.00  0.00     0.235 A 
ATOM      4  O   UNL     1      48.574  42.454  74.709  1.00  0.00    -0.285 OA
ATOM      5  C   UNL     1      49.984  43.677  76.080  1.00  0.00     0.069 A 
ATOM      6  C   UNL     1      50.137  44.333  77.321  1.00  0.00     0.142 A 
ATOM      7  O   UNL     1      49.132  44.371  78.188  1.00  0.00    -0.452 OA
ATOM      8  C   UNL     1      51.352  44.949  77.641  1.00  0.00     0.094 A 
ATOM      9  C   UNL     1      52.417  44.921  76.737  1.00  0.00     0.119 A 
ATOM     10  C   UNL     1      52.269  44.272  75.503  1.00  0.00     0.047 A 
ATOM     11  C   UNL     1      51.060  43.652  75.174  1.00  0.00     0.020 A 
ENDROOT
BRANCH   1  12
ATOM     12  C   UNL     1      46.901  43.935  78.998  1.00  0.00     0.025 A 
ATOM     13  C   UNL     1      45.627  44.453  78.703  1.00  0.00     0.016 A 
ATOM     14  C   UNL     1      44.666  44.580  79.708  1.00  0.00     0.051 A 
ATOM     15  C   UNL     1      44.966  44.206  81.024  1.00  0.00     0.157 A 
ATOM     16  C   UNL     1      47.203  43.581  80.323  1.00  0.00     0.062 A 
ATOM     17  C   UNL     1      46.242  43.707  81.332  1.00  0.00     0.158 A 
BRANCH  15  18
ATOM     18  O   UNL     1      44.003  44.332  82.026  1.00  0.00    -0.504 OA
ATOM     19  H   UNL     1      43.017  44.202  81.832  1.00  0.00     0.293 HD
ENDBRANCH  15  18
BRANCH  17  20
ATOM     20  O   UNL     1      46.575  43.333  82.635  1.00  0.00    -0.504 OA
ATOM     21  H   UNL     1      46.572  43.995  83.402  1.00  0.00     0.293 HD
ENDBRANCH  17  20
ENDBRANCH   1  12
BRANCH   2  22
ATOM     22  O   UNL     1      46.504  42.474  76.519  1.00  0.00    -0.502 OA
ATOM     23  H   UNL     1      45.655  42.982  76.301  1.00  0.00     0.293 HD
ENDBRANCH   2  22
BRANCH   9  24
ATOM     24  O   UNL     1      53.619  45.541  77.072  1.00  0.00    -0.508 OA
ATOM     25  H   UNL     1      54.232  45.159  77.783  1.00  0.00     0.293 HD
ENDBRANCH   9  24
TORSDOF 5
ENDMDL
MODEL 2
REMARK VINA RESULT:    -7.241      0.680      1.475
REMARK INTER + INTRA:          -8.586
REMARK INTER:                  -8.473
REMARK INTRA:                  -0.113
REMARK UNBOUND:                -0.075
REMARK SMILES O=c1c(O)c(-c2ccc(O)c(O)c2)oc2cc(O)ccc12
REMARK SMILES IDX 5 1 3 2 2 3 1 4 21 5 15 6 14 7 16 8 17 9 19 10 20 11 6 12
REMARK SMILES IDX 7 13 8 14 9 15 13 16 11 17 10 18 12 20 4 22 18 24
REMARK H PARENT 10 19 12 21 4 23 18 25
REMARK Flexibility Score: inf
ROOT
ATOM      1  C   UNL     1      48.286  43.776  77.924  1.00  0.00     0.180 A 
ATOM      2  C   UNL     1      47.975  43.167  76.689  1.00  0.00     0.208 A 
ATOM      3  C   UNL     1      48.943  43.167  75.673  1.00  0.00     0.235 A 
ATOM      4  O   UNL     1      48.684  42.638  74.557  1.00  0.00    -0.285 OA
ATOM      5  C   UNL     1      50.196  43.751  75.912  1.00  0.00     0.069 A 
ATOM      6  C   UNL     1      50.438  44.318  77.183  1.00  0.00     0.142 A 
ATOM      7  O   UNL     1      49.493  44.305  78.115  1.00  0.00    -0.452 OA
ATOM      8  C   UNL     1      51.679  44.900  77.464  1.00  0.00     0.094 A 
ATOM      9  C   UNL     1      52.684  44.925  76.491  1.00  0.00     0.119 A 
ATOM     10  C   UNL     1      52.446  44.365  75.229  1.00  0.00     0.047 A 
ATOM     11  C   UNL     1      51.210  43.779  74.938  1.00  0.00     0.020 A 
ENDROOT
BRANCH   1  12
ATOM     12  C   UNL     1      47.314  43.834  79.039  1.00  0.00     0.025 A 
ATOM     13  C   UNL     1      47.562  43.186  80.262  1.00  0.00     0.016 A 
ATOM     14  C   UNL     1      46.619  43.235  81.291  1.00  0.00     0.051 A 
ATOM     15  C   UNL     1      45.410  43.918  81.110  1.00  0.00     0.157 A 
ATOM     16  C   UNL     1      46.091  44.500  78.855  1.00  0.00     0.062 A 
ATOM     17  C   UNL     1      45.145  44.551  79.884  1.00  0.00     0.158 A 
BRANCH  15  18
ATOM     18  O   UNL     1      44.471  43.967  82.140  1.00  0.00    -0.504 OA
ATOM     19  H   UNL     1      44.389  43.220  82.819  1.00  0.00     0.293 HD
ENDBRANCH  15  18
BRANCH  17  20
ATOM     20  O   UNL     1      43.947  45.233  79.670  1.00  0.00    -0.504 OA
ATOM     21  H   UNL     1      43.169  45.172  80.317  1.00  0.00     0.293 HD
ENDBRANCH  17  20
ENDBRANCH   1  12
BRANCH   2  22
ATOM     22  O   UNL     1      46.736  42.551  76.497  1.00  0.00    -0.502 OA
ATOM     23  H   UNL     1      46.626  41.544  76.503  1.00  0.00     0.293 HD
ENDBRANCH   2  22
BRANCH   9  24
ATOM     24  O   UNL     1      53.913  45.510  76.788  1.00  0.00    -0.508 OA
ATOM     25  H   UNL     1      53.973  46.431  77.206  1.00  0.00     0.293 HD
ENDBRANCH   9  24
TORSDOF 5
ENDMDL
MODEL 3
REMARK VINA RESULT:    -7.047     16.126     19.256
REMARK INTER + INTRA:          -8.358
REMARK INTER:                  -8.044
REMARK INTRA:                  -0.313
REMARK UNBOUND:                -0.075
REMARK SMILES O=c1c(O)c(-c2ccc(O)c(O)c2)oc2cc(O)ccc12
REMARK SMILES IDX 5 1 3 2 2 3 1 4 21 5 15 6 14 7 16 8 17 9 19 10 20 11 6 12
REMARK SMILES IDX 7 13 8 14 9 15 13 16 11 17 10 18 12 20 4 22 18 24
REMARK H PARENT 10 19 12 21 4 23 18 25
REMARK Flexibility Score: inf
ROOT
ATOM      1  C   UNL     1      45.506  31.398  65.239  1.00  0.00     0.180 A 
ATOM      2  C   UNL     1      45.220  30.321  66.104  1.00  0.00     0.208 A 
ATOM      3  C   UNL     1      43.903  29.839  66.170  1.00  0.00     0.235 A 
ATOM      4  O   UNL     1      43.621  28.883  66.945  1.00  0.00    -0.285 OA
ATOM      5  C   UNL     1      42.913  30.423  65.366  1.00  0.00     0.069 A 
ATOM      6  C   UNL     1      43.285  31.481  64.508  1.00  0.00     0.142 A 
ATOM      7  O   UNL     1      44.540  31.913  64.481  1.00  0.00    -0.452 OA
ATOM      8  C   UNL     1      42.328  32.082  63.683  1.00  0.00     0.094 A 
ATOM      9  C   UNL     1      41.002  31.641  63.703  1.00  0.00     0.119 A 
ATOM     10  C   UNL     1      40.628  30.592  64.554  1.00  0.00     0.047 A 
ATOM     11  C   UNL     1      41.577  29.983  65.382  1.00  0.00     0.020 A 
ENDROOT
BRANCH   1  12
ATOM     12  C   UNL     1      46.865  31.975  65.125  1.00  0.00     0.025 A 
ATOM     13  C   UNL     1      47.777  31.517  64.158  1.00  0.00     0.016 A 
ATOM     14  C   UNL     1      49.062  32.060  64.086  1.00  0.00     0.051 A 
ATOM     15  C   UNL     1      49.460  33.057  64.985  1.00  0.00     0.157 A 
ATOM     16  C   UNL     1      47.275  32.960  66.038  1.00  0.00     0.062 A 
ATOM     17  C   UNL     1      48.562  33.507  65.968  1.00  0.00     0.158 A 
BRANCH  15  18
ATOM     18  O   UNL     1      50.742  33.599  64.909  1.00  0.00    -0.504 OA
ATOM     19  H   UNL     1      50.985  34.292  64.211  1.00  0.00     0.293 HD
ENDBRANCH  15  18
BRANCH  17  20
ATOM     20  O   UNL     1      48.930  34.493  66.883  1.00  0.00    -0.504 OA
ATOM     21  H   UNL     1      48.653  34.452  67.858  1.00  0.00     0.293 HD
ENDBRANCH  17  20
ENDBRANCH   1  12
BRANCH   2  22
ATOM     22  O   UNL     1      46.236  29.728  66.856  1.00  0.00    -0.502 OA
ATOM     23  H   UNL     1      47.019  30.258  67.221  1.00  0.00     0.293 HD
ENDBRANCH   2  22
BRANCH   9  24
ATOM     24  O   UNL     1      40.062  32.252  62.875  1.00  0.00    -0.508 OA
ATOM     25  H   UNL     1      40.145  33.226  62.610  1.00  0.00     0.293 HD
ENDBRANCH   9  24
TORSDOF 5
ENDMDL
MODEL 4
REMARK VINA RESULT:    -6.885     16.083     18.436
REMARK INTER + INTRA:          -8.167
REMARK INTER:                  -7.850
REMARK INTRA:                  -0.318
REMARK UNBOUND:                -0.075
REMARK SMILES O=c1c(O)c(-c2ccc(O)c(O)c2)oc2cc(O)ccc12
REMARK SMILES IDX 5 1 3 2 2 3 1 4 21 5 15 6 14 7 16 8 17 9 19 10 20 11 6 12
REMARK SMILES IDX 7 13 8 14 9 15 13 16 11 17 10 18 12 20 4 22 18 24
REMARK H PARENT 10 19 12 21 4 23 18 25
REMARK Flexibility Score: inf
ROOT
ATOM      1  C   UNL     1      45.744  31.331  64.805  1.00  0.00     0.180 A 
ATOM      2  C   UNL     1      46.548  30.646  63.869  1.00  0.00     0.208 A 
ATOM      3  C   UNL     1      47.887  31.038  63.713  1.00  0.00     0.235 A 
ATOM      4  O   UNL     1      48.623  30.447  62.875  1.00  0.00    -0.285 OA
ATOM      5  C   UNL     1      48.397  32.083  64.500  1.00  0.00     0.069 A 
ATOM      6  C   UNL     1      47.534  32.702  65.430  1.00  0.00     0.142 A 
ATOM      7  O   UNL     1      46.271  32.306  65.542  1.00  0.00    -0.452 OA
ATOM      8  C   UNL     1      48.008  33.740  66.241  1.00  0.00     0.094 A 
ATOM      9  C   UNL     1      49.334  34.170  66.132  1.00  0.00     0.119 A 
ATOM     10  C   UNL     1      50.193  33.559  65.208  1.00  0.00     0.047 A 
ATOM     11  C   UNL     1      49.730  32.520  64.395  1.00  0.00     0.020 A 
ENDROOT
BRANCH   1  12
ATOM     12  C   UNL     1      44.319  30.989  65.015  1.00  0.00     0.025 A 
ATOM     13  C   UNL     1      43.929  30.013  65.949  1.00  0.00     0.016 A 
ATOM     14  C   UNL     1      42.581  29.691  66.112  1.00  0.00     0.051 A 
ATOM     15  C   UNL     1      41.602  30.328  65.338  1.00  0.00     0.157 A 
ATOM     16  C   UNL     1      43.336  31.610  64.226  1.00  0.00     0.062 A 
ATOM     17  C   UNL     1      41.984  31.290  64.389  1.00  0.00     0.158 A 
BRANCH  15  18
ATOM     18  O   UNL     1      40.255  30.006  65.506  1.00  0.00    -0.504 OA
ATOM     19  H   UNL     1      39.521  30.670  65.292  1.00  0.00     0.293 HD
ENDBRANCH  15  18
BRANCH  17  20
ATOM     20  O   UNL     1      41.035  31.937  63.597  1.00  0.00    -0.504 OA
ATOM     21  H   UNL     1      41.293  32.459  62.767  1.00  0.00     0.293 HD
ENDBRANCH  17  20
ENDBRANCH   1  12
BRANCH   2  22
ATOM     22  O   UNL     1      46.027  29.578  63.136  1.00  0.00    -0.502 OA
ATOM     23  H   UNL     1      45.497  29.715  62.283  1.00  0.00     0.293 HD
ENDBRANCH   2  22
BRANCH   9  24
ATOM     24  O   UNL     1      49.789  35.206  66.946  1.00  0.00    -0.508 OA
ATOM     25  H   UNL     1      50.766  35.290  67.198  1.00  0.00     0.293 HD
ENDBRANCH   9  24
TORSDOF 5
ENDMDL
MODEL 5
REMARK VINA RESULT:    -6.704     16.309     18.610
REMARK INTER + INTRA:          -7.954
REMARK INTER:                  -8.021
REMARK INTRA:                   0.067
REMARK UNBOUND:                -0.075
REMARK SMILES O=c1c(O)c(-c2ccc(O)c(O)c2)oc2cc(O)ccc12
REMARK SMILES IDX 5 1 3 2 2 3 1 4 21 5 15 6 14 7 16 8 17 9 19 10 20 11 6 12
REMARK SMILES IDX 7 13 8 14 9 15 13 16 11 17 10 18 12 20 4 22 18 24
REMARK H PARENT 10 19 12 21 4 23 18 25
REMARK Flexibility Score: inf
ROOT
ATOM      1  C   UNL     1      44.921  31.170  65.063  1.00  0.00     0.180 A 
ATOM      2  C   UNL     1      45.563  30.072  65.674  1.00  0.00     0.208 A 
ATOM      3  C   UNL     1      46.894  30.215  66.093  1.00  0.00     0.235 A 
ATOM      4  O   UNL     1      47.493  29.244  66.632  1.00  0.00    -0.285 OA
ATOM      5  C   UNL     1      47.546  31.446  65.916  1.00  0.00     0.069 A 
ATOM      6  C   UNL     1      46.826  32.503  65.318  1.00  0.00     0.142 A 
ATOM      7  O   UNL     1      45.570  32.324  64.927  1.00  0.00    -0.452 OA
ATOM      8  C   UNL     1      47.438  33.749  65.134  1.00  0.00     0.094 A 
ATOM      9  C   UNL     1      48.761  33.952  65.536  1.00  0.00     0.119 A 
ATOM     10  C   UNL     1      49.479  32.903  66.128  1.00  0.00     0.047 A 
ATOM     11  C   UNL     1      48.877  31.656  66.319  1.00  0.00     0.020 A 
ENDROOT
BRANCH   1  12
ATOM     12  C   UNL     1      43.525  31.093  64.576  1.00  0.00     0.025 A 
ATOM     13  C   UNL     1      43.164  31.575  63.305  1.00  0.00     0.016 A 
ATOM     14  C   UNL     1      41.836  31.513  62.877  1.00  0.00     0.051 A 
ATOM     15  C   UNL     1      40.846  30.983  63.716  1.00  0.00     0.157 A 
ATOM     16  C   UNL     1      42.526  30.582  65.421  1.00  0.00     0.062 A 
ATOM     17  C   UNL     1      41.194  30.518  64.995  1.00  0.00     0.158 A 
BRANCH  15  18
ATOM     18  O   UNL     1      39.522  30.920  63.285  1.00  0.00    -0.504 OA
ATOM     19  H   UNL     1      38.794  30.519  63.864  1.00  0.00     0.293 HD
ENDBRANCH  15  18
BRANCH  17  20
ATOM     20  O   UNL     1      40.232  29.991  65.857  1.00  0.00    -0.504 OA
ATOM     21  H   UNL     1      40.008  29.003  65.874  1.00  0.00     0.293 HD
ENDBRANCH  17  20
ENDBRANCH   1  12
BRANCH   2  22
ATOM     22  O   UNL     1      44.873  28.875  65.881  1.00  0.00    -0.502 OA
ATOM     23  H   UNL     1      45.191  27.993  65.496  1.00  0.00     0.293 HD
ENDBRANCH   2  22
BRANCH   9  24
ATOM     24  O   UNL     1      49.354  35.197  65.343  1.00  0.00    -0.508 OA
ATOM     25  H   UNL     1      49.974  35.373  64.561  1.00  0.00     0.293 HD
ENDBRANCH   9  24
TORSDOF 5
ENDMDL
MODEL 6
REMARK VINA RESULT:    -6.562     17.116     19.136
REMARK INTER + INTRA:          -7.788
REMARK INTER:                  -7.499
REMARK INTRA:                  -0.289
REMARK UNBOUND:                -0.075
REMARK SMILES O=c1c(O)c(-c2ccc(O)c(O)c2)oc2cc(O)ccc12
REMARK SMILES IDX 5 1 3 2 2 3 1 4 21 5 15 6 14 7 16 8 17 9 19 10 20 11 6 12
REMARK SMILES IDX 7 13 8 14 9 15 13 16 11 17 10 18 12 20 4 22 18 24
REMARK H PARENT 10 19 12 21 4 23 18 25
REMARK Flexibility Score: inf
ROOT
ATOM      1  C   UNL     1      45.103  30.915  64.885  1.00  0.00     0.180 A 
ATOM      2  C   UNL     1      45.434  32.278  64.730  1.00  0.00     0.208 A 
ATOM      3  C   UNL     1      46.701  32.716  65.145  1.00  0.00     0.235 A 
ATOM      4  O   UNL     1      47.016  33.933  65.026  1.00  0.00    -0.285 OA
ATOM      5  C   UNL     1      47.611  31.792  65.681  1.00  0.00     0.069 A 
ATOM      6  C   UNL     1      47.212  30.442  65.781  1.00  0.00     0.142 A 
ATOM      7  O   UNL     1      46.000  30.069  65.385  1.00  0.00    -0.452 OA
ATOM      8  C   UNL     1      48.095  29.488  66.301  1.00  0.00     0.094 A 
ATOM      9  C   UNL     1      49.372  29.866  66.725  1.00  0.00     0.119 A 
ATOM     10  C   UNL     1      49.770  31.207  66.630  1.00  0.00     0.047 A 
ATOM     11  C   UNL     1      48.897  32.167  66.110  1.00  0.00     0.020 A 
ENDROOT
BRANCH   1  12
ATOM     12  C   UNL     1      43.781  30.378  64.490  1.00  0.00     0.025 A 
ATOM     13  C   UNL     1      43.590  29.738  63.252  1.00  0.00     0.016 A 
ATOM     14  C   UNL     1      42.328  29.261  62.892  1.00  0.00     0.051 A 
ATOM     15  C   UNL     1      41.236  29.426  63.753  1.00  0.00     0.157 A 
ATOM     16  C   UNL     1      42.679  30.560  65.342  1.00  0.00     0.062 A 
ATOM     17  C   UNL     1      41.413  30.081  64.983  1.00  0.00     0.158 A 
BRANCH  15  18
ATOM     18  O   UNL     1      39.978  28.946  63.392  1.00  0.00    -0.504 OA
ATOM     19  H   UNL     1      39.660  28.026  63.673  1.00  0.00     0.293 HD
ENDBRANCH  15  18
BRANCH  17  20
ATOM     20  O   UNL     1      40.345  30.269  65.861  1.00  0.00    -0.504 OA
ATOM     21  H   UNL     1      40.086  29.572  66.550  1.00  0.00     0.293 HD
ENDBRANCH  17  20
ENDBRANCH   1  12
BRANCH   2  22
ATOM     22  O   UNL     1      44.526  33.165  64.148  1.00  0.00    -0.502 OA
ATOM     23  H   UNL     1      43.699  33.490  64.634  1.00  0.00     0.293 HD
ENDBRANCH   2  22
BRANCH   9  24
ATOM     24  O   UNL     1      50.237  28.904  67.242  1.00  0.00    -0.508 OA
ATOM     25  H   UNL     1      50.125  27.921  67.025  1.00  0.00     0.293 HD
ENDBRANCH   9  24
TORSDOF 5
ENDMDL
MODEL 7
REMARK VINA RESULT:    -6.407      2.042      3.983
REMARK INTER + INTRA:          -7.606
REMARK INTER:                  -7.669
REMARK INTRA:                   0.064
REMARK UNBOUND:                -0.075
REMARK SMILES O=c1c(O)c(-c2ccc(O)c(O)c2)oc2cc(O)ccc12
REMARK SMILES IDX 5 1 3 2 2 3 1 4 21 5 15 6 14 7 16 8 17 9 19 10 20 11 6 12
REMARK SMILES IDX 7 13 8 14 9 15 13 16 11 17 10 18 12 20 4 22 18 24
REMARK H PARENT 10 19 12 21 4 23 18 25
REMARK Flexibility Score: inf
ROOT
ATOM      1  C   UNL     1      50.265  45.084  77.293  1.00  0.00     0.180 A 
ATOM      2  C   UNL     1      50.880  46.296  77.671  1.00  0.00     0.208 A 
ATOM      3  C   UNL     1      52.031  46.713  76.985  1.00  0.00     0.235 A 
ATOM      4  O   UNL     1      52.605  47.788  77.312  1.00  0.00    -0.285 OA
ATOM      5  C   UNL     1      52.529  45.931  75.931  1.00  0.00     0.069 A 
ATOM      6  C   UNL     1      51.841  44.743  75.598  1.00  0.00     0.142 A 
ATOM      7  O   UNL     1      50.761  44.379  76.278  1.00  0.00    -0.452 OA
ATOM      8  C   UNL     1      52.300  43.942  74.546  1.00  0.00     0.094 A 
ATOM      9  C   UNL     1      53.439  44.309  73.823  1.00  0.00     0.119 A 
ATOM     10  C   UNL     1      54.125  45.486  74.153  1.00  0.00     0.047 A 
ATOM     11  C   UNL     1      53.674  46.296  75.200  1.00  0.00     0.020 A 
ENDROOT
BRANCH   1  12
ATOM     12  C   UNL     1      49.060  44.566  77.979  1.00  0.00     0.025 A 
ATOM     13  C   UNL     1      48.949  44.588  79.381  1.00  0.00     0.016 A 
ATOM     14  C   UNL     1      47.813  44.072  80.007  1.00  0.00     0.051 A 
ATOM     15  C   UNL     1      46.777  43.515  79.246  1.00  0.00     0.157 A 
ATOM     16  C   UNL     1      48.028  43.989  77.222  1.00  0.00     0.062 A 
ATOM     17  C   UNL     1      46.887  43.472  77.846  1.00  0.00     0.158 A 
BRANCH  15  18
ATOM     18  O   UNL     1      45.642  43.003  79.874  1.00  0.00    -0.504 OA
ATOM     19  H   UNL     1      44.761  42.908  79.383  1.00  0.00     0.293 HD
ENDBRANCH  15  18
BRANCH  17  20
ATOM     20  O   UNL     1      45.877  42.917  77.060  1.00  0.00    -0.504 OA
ATOM     21  H   UNL     1      45.963  42.835  76.054  1.00  0.00     0.293 HD
ENDBRANCH  17  20
ENDBRANCH   1  12
BRANCH   2  22
ATOM     22  O   UNL     1      50.334  47.078  78.691  1.00  0.00    -0.502 OA
ATOM     23  H   UNL     1      50.689  47.055  79.640  1.00  0.00     0.293 HD
ENDBRANCH   2  22
BRANCH   9  24
ATOM     24  O   UNL     1      53.882  43.498  72.781  1.00  0.00    -0.508 OA
ATOM     25  H   UNL     1      54.512  43.849  72.069  1.00  0.00     0.293 HD
ENDBRANCH   9  24
TORSDOF 5
ENDMDL
MODEL 8
REMARK VINA RESULT:    -6.232      3.114      4.921
REMARK INTER + INTRA:          -7.400
REMARK INTER:                  -7.192
REMARK INTRA:                  -0.208
REMARK UNBOUND:                -0.075
REMARK SMILES O=c1c(O)c(-c2ccc(O)c(O)c2)oc2cc(O)ccc12
REMARK SMILES IDX 5 1 3 2 2 3 1 4 21 5 15 6 14 7 16 8 17 9 19 10 20 11 6 12
REMARK SMILES IDX 7 13 8 14 9 15 13 16 11 17 10 18 12 20 4 22 18 24
REMARK H PARENT 10 19 12 21 4 23 18 25
REMARK Flexibility Score: inf
ROOT
ATOM      1  C   UNL     1      49.723  44.299  74.920  1.00  0.00     0.180 A 
ATOM      2  C   UNL     1      51.114  44.067  74.970  1.00  0.00     0.208 A 
ATOM      3  C   UNL     1      51.896  44.404  73.854  1.00  0.00     0.235 A 
ATOM      4  O   UNL     1      53.141  44.196  73.872  1.00  0.00    -0.285 OA
ATOM      5  C   UNL     1      51.284  44.978  72.730  1.00  0.00     0.069 A 
ATOM      6  C   UNL     1      49.890  45.200  72.768  1.00  0.00     0.142 A 
ATOM      7  O   UNL     1      49.184  44.859  73.839  1.00  0.00    -0.452 OA
ATOM      8  C   UNL     1      49.245  45.781  71.670  1.00  0.00     0.094 A 
ATOM      9  C   UNL     1      49.973  46.142  70.533  1.00  0.00     0.119 A 
ATOM     10  C   UNL     1      51.357  45.921  70.491  1.00  0.00     0.047 A 
ATOM     11  C   UNL     1      52.012  45.343  71.583  1.00  0.00     0.020 A 
ENDROOT
BRANCH   1  12
ATOM     12  C   UNL     1      48.828  43.954  76.047  1.00  0.00     0.025 A 
ATOM     13  C   UNL     1      48.873  44.660  77.262  1.00  0.00     0.016 A 
ATOM     14  C   UNL     1      48.035  44.301  78.320  1.00  0.00     0.051 A 
ATOM     15  C   UNL     1      47.150  43.224  78.187  1.00  0.00     0.157 A 
ATOM     16  C   UNL     1      47.953  42.861  75.925  1.00  0.00     0.062 A 
ATOM     17  C   UNL     1      47.111  42.500  76.983  1.00  0.00     0.158 A 
BRANCH  15  18
ATOM     18  O   UNL     1      46.312  42.869  79.244  1.00  0.00    -0.504 OA
ATOM     19  H   UNL     1      46.577  43.033  80.208  1.00  0.00     0.293 HD
ENDBRANCH  15  18
BRANCH  17  20
ATOM     20  O   UNL     1      46.246  41.417  76.821  1.00  0.00    -0.504 OA
ATOM     21  H   UNL     1      45.249  41.540  76.693  1.00  0.00     0.293 HD
ENDBRANCH  17  20
ENDBRANCH   1  12
BRANCH   2  22
ATOM     22  O   UNL     1      51.702  43.539  76.122  1.00  0.00    -0.502 OA
ATOM     23  H   UNL     1      51.153  43.197  76.902  1.00  0.00     0.293 HD
ENDBRANCH   2  22
BRANCH   9  24
ATOM     24  O   UNL     1      49.314  46.718  69.448  1.00  0.00    -0.508 OA
ATOM     25  H   UNL     1      48.517  47.330  69.578  1.00  0.00     0.293 HD
ENDBRANCH   9  24
TORSDOF 5
ENDMDL
MODEL 9
REMARK VINA RESULT:    -6.222     14.851     17.023
REMARK INTER + INTRA:          -7.388
REMARK INTER:                  -7.065
REMARK INTRA:                  -0.323
REMARK UNBOUND:                -0.075
REMARK SMILES O=c1c(O)c(-c2ccc(O)c(O)c2)oc2cc(O)ccc12
REMARK SMILES IDX 5 1 3 2 2 3 1 4 21 5 15 6 14 7 16 8 17 9 19 10 20 11 6 12
REMARK SMILES IDX 7 13 8 14 9 15 13 16 11 17 10 18 12 20 4 22 18 24
REMARK H PARENT 10 19 12 21 4 23 18 25
REMARK Flexibility Score: inf
ROOT
ATOM      1  C   UNL     1      50.745  34.962  64.925  1.00  0.00     0.180 A 
ATOM      2  C   UNL     1      50.922  34.033  63.878  1.00  0.00     0.208 A 
ATOM      3  C   UNL     1      50.109  32.889  63.845  1.00  0.00     0.235 A 
ATOM      4  O   UNL     1      50.255  32.039  62.924  1.00  0.00    -0.285 OA
ATOM      5  C   UNL     1      49.132  32.708  64.836  1.00  0.00     0.069 A 
ATOM      6  C   UNL     1      49.002  33.696  65.836  1.00  0.00     0.142 A 
ATOM      7  O   UNL     1      49.797  34.760  65.837  1.00  0.00    -0.452 OA
ATOM      8  C   UNL     1      48.032  33.556  66.836  1.00  0.00     0.094 A 
ATOM      9  C   UNL     1      47.190  32.441  66.851  1.00  0.00     0.119 A 
ATOM     10  C   UNL     1      47.318  31.457  65.861  1.00  0.00     0.047 A 
ATOM     11  C   UNL     1      48.282  31.587  64.857  1.00  0.00     0.020 A 
ENDROOT
BRANCH   1  12
ATOM     12  C   UNL     1      51.575  36.183  65.040  1.00  0.00     0.025 A 
ATOM     13  C   UNL     1      52.771  36.189  65.781  1.00  0.00     0.016 A 
ATOM     14  C   UNL     1      53.524  37.359  65.896  1.00  0.00     0.051 A 
ATOM     15  C   UNL     1      53.090  38.543  65.285  1.00  0.00     0.157 A 
ATOM     16  C   UNL     1      51.134  37.377  64.447  1.00  0.00     0.062 A 
ATOM     17  C   UNL     1      51.888  38.551  64.559  1.00  0.00     0.158 A 
BRANCH  15  18
ATOM     18  O   UNL     1      53.847  39.709  65.399  1.00  0.00    -0.504 OA
ATOM     19  H   UNL     1      53.699  40.365  66.157  1.00  0.00     0.293 HD
ENDBRANCH  15  18
BRANCH  17  20
ATOM     20  O   UNL     1      51.424  39.715  63.945  1.00  0.00    -0.504 OA
ATOM     21  H   UNL     1      52.055  40.425  63.593  1.00  0.00     0.293 HD
ENDBRANCH  17  20
ENDBRANCH   1  12
BRANCH   2  22
ATOM     22  O   UNL     1      51.869  34.265  62.878  1.00  0.00    -0.502 OA
ATOM     23  H   UNL     1      52.650  34.898  63.008  1.00  0.00     0.293 HD
ENDBRANCH   2  22
BRANCH   9  24
ATOM     24  O   UNL     1      46.232  32.317  67.855  1.00  0.00    -0.508 OA
ATOM     25  H   UNL     1      46.221  31.520  68.480  1.00  0.00     0.293 HD
ENDBRANCH   9  24
TORSDOF 5
ENDMDL
