MODEL 1
REMARK VINA RESULT:    24.120      0.000      0.000
REMARK INTER + INTRA:          39.409
REMARK INTER:                  33.990
REMARK INTRA:                   5.419
REMARK UNBOUND:                 5.419
REMARK SMILES COc1c(O[C@@H]2O[C@@H](C(=O)[O-])[C@@H](O)[C@@H](O)[C@@H]2O)cc(O)c2c(=O)cc(-c3ccccc3)oc12
REMARK SMILES IDX 5 1 6 2 8 3 12 4 7 5 14 6 16 7 9 8 10 9 11 10 13 11 15 13
REMARK SMILES IDX 17 15 4 17 3 18 18 19 33 20 19 21 21 22 32 23 22 24 25 25
REMARK SMILES IDX 24 26 23 27 2 28 1 29 20 30 26 32 27 33 31 34 28 35 30 36
REMARK SMILES IDX 29 37
REMARK H PARENT 13 12 15 14 17 16 20 31
REMARK Flexibility Score: inf
ROOT
ATOM      1  O   UNL     1      14.198  10.728  26.127  1.00  0.00    -0.458 OA
ENDROOT
BRANCH   1   2
ATOM      2  C   UNL     1      15.083  11.361  27.066  1.00  0.00     0.339 C 
ATOM      3  C   UNL     1      13.559  11.022  28.823  1.00  0.00     0.199 C 
ATOM      4  C   UNL     1      13.239  12.531  28.967  1.00  0.00     0.180 C 
ATOM      5  O   UNL     1      14.888  10.818  28.363  1.00  0.00    -0.328 OA
ATOM      6  C   UNL     1      13.503  13.259  27.634  1.00  0.00     0.181 C 
ATOM      7  C   UNL     1      14.895  12.897  27.081  1.00  0.00     0.214 C 
BRANCH   3   8
ATOM      8  C   UNL     1      13.375  10.315  30.133  1.00  0.00     0.073 C 
ATOM      9  O   UNL     1      14.356  10.130  30.902  1.00  0.00    -0.547 OA
ATOM     10  O   UNL     1      12.112   9.883  30.519  1.00  0.00    -0.547 OA
ENDBRANCH   3   8
BRANCH   4  11
ATOM     11  O   UNL     1      13.962  13.128  30.020  1.00  0.00    -0.387 OA
ATOM     12  H   UNL     1      14.871  13.352  29.694  1.00  0.00     0.211 HD
ENDBRANCH   4  11
BRANCH   6  13
ATOM     13  O   UNL     1      13.409  14.650  27.818  1.00  0.00    -0.387 OA
ATOM     14  H   UNL     1      14.327  14.974  28.055  1.00  0.00     0.211 HD
ENDBRANCH   6  13
BRANCH   7  15
ATOM     15  O   UNL     1      15.042  13.413  25.783  1.00  0.00    -0.384 OA
ATOM     16  H   UNL     1      15.420  12.685  25.222  1.00  0.00     0.211 HD
ENDBRANCH   7  15
ENDBRANCH   1   2
BRANCH   1  17
ATOM     17  C   UNL     1      12.805  10.606  26.245  1.00  0.00     0.172 A 
ATOM     18  C   UNL     1      12.032  10.814  25.094  1.00  0.00     0.205 A 
ATOM     19  C   UNL     1      12.181  10.317  27.467  1.00  0.00     0.097 A 
ATOM     20  C   UNL     1      10.622  10.691  25.165  1.00  0.00     0.188 A 
ATOM     21  C   UNL     1      10.791  10.269  27.573  1.00  0.00     0.134 A 
ATOM     22  C   UNL     1       9.989  10.407  26.408  1.00  0.00     0.111 A 
ATOM     23  O   UNL     1       9.888  10.834  24.064  1.00  0.00    -0.452 OA
ATOM     24  C   UNL     1       8.586  10.234  26.399  1.00  0.00     0.197 A 
ATOM     25  C   UNL     1       8.564  10.723  24.038  1.00  0.00     0.138 A 
ATOM     26  C   UNL     1       7.875  10.415  25.215  1.00  0.00     0.100 A 
ATOM     27  O   UNL     1       7.953   9.884  27.429  1.00  0.00    -0.289 OA
BRANCH  18  28
ATOM     28  O   UNL     1      12.738  11.121  23.914  1.00  0.00    -0.490 OA
ATOM     29  C   UNL     1      13.294  10.189  22.987  1.00  0.00     0.278 C 
ENDBRANCH  18  28
BRANCH  21  30
ATOM     30  O   UNL     1      10.258  10.116  28.857  1.00  0.00    -0.507 OA
ATOM     31  H   UNL     1       9.313  10.380  29.100  1.00  0.00     0.293 HD
ENDBRANCH  21  30
BRANCH  25  32
ATOM     32  C   UNL     1       7.851  10.900  22.750  1.00  0.00     0.017 A 
ATOM     33  C   UNL     1       7.139  12.083  22.464  1.00  0.00     0.012 A 
ATOM     34  C   UNL     1       7.886   9.877  21.786  1.00  0.00     0.012 A 
ATOM     35  C   UNL     1       6.470  12.226  21.244  1.00  0.00     0.001 A 
ATOM     36  C   UNL     1       7.218  10.028  20.567  1.00  0.00     0.001 A 
ATOM     37  C   UNL     1       6.513  11.202  20.295  1.00  0.00     0.000 A 
ENDBRANCH  25  32
ENDBRANCH   1  17
TORSDOF 9
ENDMDL
MODEL 2
REMARK VINA RESULT:    26.468      1.530      2.718
REMARK INTER + INTRA:          42.719
REMARK INTER:                  40.153
REMARK INTRA:                   2.566
REMARK UNBOUND:                 5.419
REMARK SMILES COc1c(O[C@@H]2O[C@@H](C(=O)[O-])[C@@H](O)[C@@H](O)[C@@H]2O)cc(O)c2c(=O)cc(-c3ccccc3)oc12
REMARK SMILES IDX 5 1 6 2 8 3 12 4 7 5 14 6 16 7 9 8 10 9 11 10 13 11 15 13
REMARK SMILES IDX 17 15 4 17 3 18 18 19 33 20 19 21 21 22 32 23 22 24 25 25
REMARK SMILES IDX 24 26 23 27 2 28 1 29 20 30 26 32 27 33 31 34 28 35 30 36
REMARK SMILES IDX 29 37
REMARK H PARENT 13 12 15 14 17 16 20 31
REMARK Flexibility Score: inf
ROOT
ATOM      1  O   UNL     1      12.225  11.102  24.819  1.00  0.00    -0.458 OA
ENDROOT
BRANCH   1   2
ATOM      2  C   UNL     1      13.133  10.348  25.640  1.00  0.00     0.339 C 
ATOM      3  C   UNL     1      11.960  10.945  27.588  1.00  0.00     0.199 C 
ATOM      4  C   UNL     1      13.108  11.838  28.123  1.00  0.00     0.180 C 
ATOM      5  O   UNL     1      12.464   9.875  26.799  1.00  0.00    -0.328 OA
ATOM      6  C   UNL     1      13.973  12.346  26.953  1.00  0.00     0.181 C 
ATOM      7  C   UNL     1      14.378  11.181  26.027  1.00  0.00     0.214 C 
BRANCH   3   8
ATOM      8  C   UNL     1      11.153  10.385  28.722  1.00  0.00     0.073 C 
ATOM      9  O   UNL     1       9.971   9.991  28.531  1.00  0.00    -0.547 OA
ATOM     10  O   UNL     1      11.716  10.273  29.987  1.00  0.00    -0.547 OA
ENDBRANCH   3   8
BRANCH   4  11
ATOM     11  O   UNL     1      13.896  11.170  29.082  1.00  0.00    -0.387 OA
ATOM     12  H   UNL     1      14.252  10.338  28.677  1.00  0.00     0.211 HD
ENDBRANCH   4  11
BRANCH   6  13
ATOM     13  O   UNL     1      15.125  12.984  27.448  1.00  0.00    -0.387 OA
ATOM     14  H   UNL     1      15.787  13.013  26.696  1.00  0.00     0.211 HD
ENDBRANCH   6  13
BRANCH   7  15
ATOM     15  O   UNL     1      15.000  11.684  24.873  1.00  0.00    -0.384 OA
ATOM     16  H   UNL     1      14.372  11.535  24.117  1.00  0.00     0.211 HD
ENDBRANCH   7  15
ENDBRANCH   1   2
BRANCH   1  17
ATOM     17  C   UNL     1      10.836  10.922  24.730  1.00  0.00     0.172 A 
ATOM     18  C   UNL     1      10.208  11.281  23.529  1.00  0.00     0.205 A 
ATOM     19  C   UNL     1      10.076  10.431  25.801  1.00  0.00     0.097 A 
ATOM     20  C   UNL     1       8.809  11.106  23.390  1.00  0.00     0.188 A 
ATOM     21  C   UNL     1       8.688  10.326  25.710  1.00  0.00     0.134 A 
ATOM     22  C   UNL     1       8.037  10.616  24.481  1.00  0.00     0.111 A 
ATOM     23  O   UNL     1       8.216  11.394  22.234  1.00  0.00    -0.452 OA
ATOM     24  C   UNL     1       6.657  10.406  24.258  1.00  0.00     0.197 A 
ATOM     25  C   UNL     1       6.913  11.249  22.014  1.00  0.00     0.138 A 
ATOM     26  C   UNL     1       6.095  10.743  23.030  1.00  0.00     0.100 A 
ATOM     27  O   UNL     1       5.915   9.883  25.131  1.00  0.00    -0.289 OA
BRANCH  18  28
ATOM     28  O   UNL     1      11.043  11.785  22.513  1.00  0.00    -0.490 OA
ATOM     29  C   UNL     1      12.066  11.072  21.817  1.00  0.00     0.278 C 
ENDBRANCH  18  28
BRANCH  21  30
ATOM     30  O   UNL     1       8.003   9.963  26.874  1.00  0.00    -0.507 OA
ATOM     31  H   UNL     1       8.286   9.195  27.467  1.00  0.00     0.293 HD
ENDBRANCH  21  30
BRANCH  25  32
ATOM     32  C   UNL     1       6.363  11.599  20.683  1.00  0.00     0.017 A 
ATOM     33  C   UNL     1       6.106  10.608  19.713  1.00  0.00     0.012 A 
ATOM     34  C   UNL     1       6.080  12.941  20.375  1.00  0.00     0.012 A 
ATOM     35  C   UNL     1       5.592  10.962  18.462  1.00  0.00     0.001 A 
ATOM     36  C   UNL     1       5.562  13.289  19.124  1.00  0.00     0.001 A 
ATOM     37  C   UNL     1       5.316  12.300  18.169  1.00  0.00     0.000 A 
ENDBRANCH  25  32
ENDBRANCH   1  17
TORSDOF 9
ENDMDL
