MODEL 1
REMARK VINA RESULT:    -8.143      0.000      0.000
REMARK INTER + INTRA:         -12.069
REMARK INTER:                 -11.237
REMARK INTRA:                  -0.832
REMARK UNBOUND:                -0.832
REMARK SMILES C=C(CC[C@H](C(=O)[O-])[C@H]1CC[C@]2(C)C3=C(CC[C@@]12C)[C@]1(C)CC[C@@H](O)C(C)(C)[C@@H]1CC3)C(C)C
REMARK SMILES IDX 4 1 5 2 6 3 7 4 8 5 9 6 10 7 18 8 11 9 12 10 17 11 19 12
REMARK SMILES IDX 13 13 14 14 16 15 15 16 31 17 20 18 30 19 29 20 22 21 21 22
REMARK SMILES IDX 26 23 23 24 24 25 27 26 28 27 25 28 3 30 2 31 1 32 32 33
REMARK SMILES IDX 33 34 34 35
REMARK H PARENT 25 29
REMARK Flexibility Score: inf
ROOT
ATOM      1  C   UNL     1      18.249  22.147   9.143  1.00  0.00     0.014 C 
ENDROOT
BRANCH   1   2
ATOM      2  C   UNL     1      19.427  21.180   9.452  1.00  0.00     0.039 C 
BRANCH   2   3
ATOM      3  C   UNL     1      20.765  21.873   9.371  1.00  0.00     0.045 C 
ATOM      4  O   UNL     1      21.417  22.165  10.406  1.00  0.00    -0.550 OA
ATOM      5  O   UNL     1      21.328  22.137   8.126  1.00  0.00    -0.550 OA
ENDBRANCH   2   3
BRANCH   2   6
ATOM      6  C   UNL     1      19.301  19.766   8.769  1.00  0.00     0.004 C 
ATOM      7  C   UNL     1      20.593  19.108   8.220  1.00  0.00     0.006 C 
ATOM      8  C   UNL     1      18.577  18.619   9.571  1.00  0.00    -0.020 C 
ATOM      9  C   UNL     1      20.556  17.626   8.621  1.00  0.00     0.012 C 
ATOM     10  C   UNL     1      19.709  17.595   9.900  1.00  0.00    -0.006 C 
ATOM     11  C   UNL     1      17.839  18.944  10.893  1.00  0.00     0.012 C 
ATOM     12  C   UNL     1      17.495  18.031   8.587  1.00  0.00     0.012 C 
ATOM     13  C   UNL     1      20.657  17.979  11.080  1.00  0.00     0.017 C 
ATOM     14  C   UNL     1      19.063  16.274  10.295  1.00  0.00    -0.064 C 
ATOM     15  C   UNL     1      17.512  17.657  11.721  1.00  0.00     0.032 C 
ATOM     16  C   UNL     1      17.962  16.300  11.111  1.00  0.00    -0.064 C 
ATOM     17  C   UNL     1      19.647  14.990   9.780  1.00  0.00     0.032 C 
ATOM     18  C   UNL     1      17.219  15.002  11.549  1.00  0.00    -0.008 C 
ATOM     19  C   UNL     1      19.342  13.827  10.709  1.00  0.00     0.009 C 
ATOM     20  C   UNL     1      17.812  13.685  10.878  1.00  0.00     0.007 C 
ATOM     21  C   UNL     1      17.375  14.933  13.098  1.00  0.00     0.014 C 
ATOM     22  C   UNL     1      15.713  15.160  11.144  1.00  0.00     0.016 C 
ATOM     23  C   UNL     1      17.385  12.322  11.584  1.00  0.00    -0.006 C 
ATOM     24  C   UNL     1      16.907  13.626  13.736  1.00  0.00     0.033 C 
ATOM     25  C   UNL     1      17.613  12.414  13.118  1.00  0.00     0.120 C 
ATOM     26  C   UNL     1      15.903  11.973  11.264  1.00  0.00     0.014 C 
ATOM     27  C   UNL     1      18.213  11.121  11.043  1.00  0.00     0.014 C 
BRANCH  25  28
ATOM     28  O   UNL     1      17.160  11.241  13.750  1.00  0.00    -0.393 OA
ATOM     29  H   UNL     1      16.167  11.263  13.722  1.00  0.00     0.210 HD
ENDBRANCH  25  28
ENDBRANCH   2   6
ENDBRANCH   1   2
BRANCH   1  30
ATOM     30  C   UNL     1      18.291  23.571   9.754  1.00  0.00     0.031 C 
BRANCH  30  31
ATOM     31  C   UNL     1      18.220  24.757   8.796  1.00  0.00    -0.075 C 
ATOM     32  C   UNL     1      17.054  25.388   8.557  1.00  0.00     0.008 C 
BRANCH  31  33
ATOM     33  C   UNL     1      19.405  25.059   7.877  1.00  0.00     0.008 C 
ATOM     34  C   UNL     1      20.639  25.464   8.694  1.00  0.00     0.012 C 
ATOM     35  C   UNL     1      19.080  26.125   6.828  1.00  0.00     0.012 C 
ENDBRANCH  31  33
ENDBRANCH  30  31
ENDBRANCH   1  30
TORSDOF 7
ENDMDL
MODEL 2
REMARK VINA RESULT:    -8.042      1.370      2.010
REMARK INTER + INTRA:         -11.931
REMARK INTER:                 -11.139
REMARK INTRA:                  -0.791
REMARK UNBOUND:                -0.832
REMARK SMILES C=C(CC[C@H](C(=O)[O-])[C@H]1CC[C@]2(C)C3=C(CC[C@@]12C)[C@]1(C)CC[C@@H](O)C(C)(C)[C@@H]1CC3)C(C)C
REMARK SMILES IDX 4 1 5 2 6 3 7 4 8 5 9 6 10 7 18 8 11 9 12 10 17 11 19 12
REMARK SMILES IDX 13 13 14 14 16 15 15 16 31 17 20 18 30 19 29 20 22 21 21 22
REMARK SMILES IDX 26 23 23 24 24 25 27 26 28 27 25 28 3 30 2 31 1 32 32 33
REMARK SMILES IDX 33 34 34 35
REMARK H PARENT 25 29
REMARK Flexibility Score: inf
ROOT
ATOM      1  C   UNL     1      20.996  22.004   9.794  1.00  0.00     0.014 C 
ENDROOT
BRANCH   1   2
ATOM      2  C   UNL     1      19.667  21.833   9.006  1.00  0.00     0.039 C 
BRANCH   2   3
ATOM      3  C   UNL     1      18.505  22.499   9.703  1.00  0.00     0.045 C 
ATOM      4  O   UNL     1      17.336  22.420   9.250  1.00  0.00    -0.550 OA
ATOM      5  O   UNL     1      18.715  23.160  10.909  1.00  0.00    -0.550 OA
ENDBRANCH   2   3
BRANCH   2   6
ATOM      6  C   UNL     1      19.432  20.382   8.436  1.00  0.00     0.004 C 
ATOM      7  C   UNL     1      20.639  19.651   7.795  1.00  0.00     0.006 C 
ATOM      8  C   UNL     1      18.775  19.312   9.388  1.00  0.00    -0.020 C 
ATOM      9  C   UNL     1      20.611  18.199   8.295  1.00  0.00     0.012 C 
ATOM     10  C   UNL     1      19.911  18.277   9.658  1.00  0.00    -0.006 C 
ATOM     11  C   UNL     1      18.197  19.742  10.758  1.00  0.00     0.012 C 
ATOM     12  C   UNL     1      17.577  18.697   8.569  1.00  0.00     0.012 C 
ATOM     13  C   UNL     1      20.994  18.705  10.699  1.00  0.00     0.017 C 
ATOM     14  C   UNL     1      19.283  17.004  10.209  1.00  0.00    -0.064 C 
ATOM     15  C   UNL     1      17.933  18.522  11.701  1.00  0.00     0.032 C 
ATOM     16  C   UNL     1      18.280  17.115  11.137  1.00  0.00    -0.064 C 
ATOM     17  C   UNL     1      19.775  15.672   9.719  1.00  0.00     0.032 C 
ATOM     18  C   UNL     1      17.560  15.872  11.739  1.00  0.00    -0.008 C 
ATOM     19  C   UNL     1      19.548  14.581  10.752  1.00  0.00     0.009 C 
ATOM     20  C   UNL     1      18.043  14.497  11.096  1.00  0.00     0.007 C 
ATOM     21  C   UNL     1      17.886  15.896  13.263  1.00  0.00     0.014 C 
ATOM     22  C   UNL     1      16.022  16.050  11.492  1.00  0.00     0.016 C 
ATOM     23  C   UNL     1      17.666  13.196  11.933  1.00  0.00    -0.006 C 
ATOM     24  C   UNL     1      17.461  14.648  14.034  1.00  0.00     0.033 C 
ATOM     25  C   UNL     1      18.065  13.377  13.425  1.00  0.00     0.120 C 
ATOM     26  C   UNL     1      16.149  12.873  11.803  1.00  0.00     0.014 C 
ATOM     27  C   UNL     1      18.399  11.938  11.387  1.00  0.00     0.014 C 
BRANCH  25  28
ATOM     28  O   UNL     1      17.657  12.262  14.178  1.00  0.00    -0.393 OA
ATOM     29  H   UNL     1      18.347  12.118  14.878  1.00  0.00     0.210 HD
ENDBRANCH  25  28
ENDBRANCH   2   6
ENDBRANCH   1   2
BRANCH   1  30
ATOM     30  C   UNL     1      22.117  22.868   9.161  1.00  0.00     0.031 C 
BRANCH  30  31
ATOM     31  C   UNL     1      21.901  24.378   9.102  1.00  0.00    -0.075 C 
ATOM     32  C   UNL     1      21.968  25.134  10.215  1.00  0.00     0.008 C 
BRANCH  31  33
ATOM     33  C   UNL     1      21.322  25.010   7.836  1.00  0.00     0.008 C 
ATOM     34  C   UNL     1      19.873  25.462   8.064  1.00  0.00     0.012 C 
ATOM     35  C   UNL     1      21.412  24.085   6.620  1.00  0.00     0.012 C 
ENDBRANCH  31  33
ENDBRANCH  30  31
ENDBRANCH   1  30
TORSDOF 7
ENDMDL
MODEL 3
REMARK VINA RESULT:    -7.902      1.684      2.869
REMARK INTER + INTRA:         -11.737
REMARK INTER:                 -10.251
REMARK INTRA:                  -1.486
REMARK UNBOUND:                -0.832
REMARK SMILES C=C(CC[C@H](C(=O)[O-])[C@H]1CC[C@]2(C)C3=C(CC[C@@]12C)[C@]1(C)CC[C@@H](O)C(C)(C)[C@@H]1CC3)C(C)C
REMARK SMILES IDX 4 1 5 2 6 3 7 4 8 5 9 6 10 7 18 8 11 9 12 10 17 11 19 12
REMARK SMILES IDX 13 13 14 14 16 15 15 16 31 17 20 18 30 19 29 20 22 21 21 22
REMARK SMILES IDX 26 23 23 24 24 25 27 26 28 27 25 28 3 30 2 31 1 32 32 33
REMARK SMILES IDX 33 34 34 35
REMARK H PARENT 25 29
REMARK Flexibility Score: inf
ROOT
ATOM      1  C   UNL     1      17.714  21.893   9.306  1.00  0.00     0.014 C 
ENDROOT
BRANCH   1   2
ATOM      2  C   UNL     1      18.984  21.042   9.587  1.00  0.00     0.039 C 
BRANCH   2   3
ATOM      3  C   UNL     1      20.243  21.874   9.552  1.00  0.00     0.045 C 
ATOM      4  O   UNL     1      21.103  21.801  10.466  1.00  0.00    -0.550 OA
ATOM      5  O   UNL     1      20.495  22.692   8.455  1.00  0.00    -0.550 OA
ENDBRANCH   2   3
BRANCH   2   6
ATOM      6  C   UNL     1      19.013  19.654   8.841  1.00  0.00     0.004 C 
ATOM      7  C   UNL     1      20.381  19.134   8.329  1.00  0.00     0.006 C 
ATOM      8  C   UNL     1      18.357  18.414   9.560  1.00  0.00    -0.020 C 
ATOM      9  C   UNL     1      20.456  17.638   8.668  1.00  0.00     0.012 C 
ATOM     10  C   UNL     1      19.559  17.478   9.902  1.00  0.00    -0.006 C 
ATOM     11  C   UNL     1      17.536  18.615  10.857  1.00  0.00     0.012 C 
ATOM     12  C   UNL     1      17.376  17.781   8.502  1.00  0.00     0.012 C 
ATOM     13  C   UNL     1      20.417  17.889  11.140  1.00  0.00     0.017 C 
ATOM     14  C   UNL     1      19.014  16.090  10.212  1.00  0.00    -0.064 C 
ATOM     15  C   UNL     1      17.286  17.270  11.616  1.00  0.00     0.032 C 
ATOM     16  C   UNL     1      17.880  15.985  10.974  1.00  0.00    -0.064 C 
ATOM     17  C   UNL     1      19.731  14.885   9.673  1.00  0.00     0.032 C 
ATOM     18  C   UNL     1      17.235  14.610  11.322  1.00  0.00    -0.008 C 
ATOM     19  C   UNL     1      19.488  13.660  10.539  1.00  0.00     0.009 C 
ATOM     20  C   UNL     1      17.971  13.380  10.628  1.00  0.00     0.007 C 
ATOM     21  C   UNL     1      17.328  14.485  12.873  1.00  0.00     0.014 C 
ATOM     22  C   UNL     1      15.740  14.656  10.853  1.00  0.00     0.016 C 
ATOM     23  C   UNL     1      17.634  11.956  11.256  1.00  0.00    -0.006 C 
ATOM     24  C   UNL     1      16.949  13.116  13.434  1.00  0.00     0.033 C 
ATOM     25  C   UNL     1      17.785  11.997  12.803  1.00  0.00     0.120 C 
ATOM     26  C   UNL     1      16.203  11.495  10.852  1.00  0.00     0.014 C 
ATOM     27  C   UNL     1      18.587  10.855  10.708  1.00  0.00     0.014 C 
BRANCH  25  28
ATOM     28  O   UNL     1      17.408  10.764  13.363  1.00  0.00    -0.393 OA
ATOM     29  H   UNL     1      18.017  10.076  12.985  1.00  0.00     0.210 HD
ENDBRANCH  25  28
ENDBRANCH   2   6
ENDBRANCH   1   2
BRANCH   1  30
ATOM     30  C   UNL     1      16.487  21.708  10.235  1.00  0.00     0.031 C 
BRANCH  30  31
ATOM     31  C   UNL     1      15.288  20.941   9.683  1.00  0.00    -0.075 C 
ATOM     32  C   UNL     1      15.223  20.596   8.381  1.00  0.00     0.008 C 
BRANCH  31  33
ATOM     33  C   UNL     1      14.020  20.808  10.527  1.00  0.00     0.008 C 
ATOM     34  C   UNL     1      14.141  19.640  11.514  1.00  0.00     0.012 C 
ATOM     35  C   UNL     1      12.757  20.664   9.675  1.00  0.00     0.012 C 
ENDBRANCH  31  33
ENDBRANCH  30  31
ENDBRANCH   1  30
TORSDOF 7
ENDMDL
MODEL 4
REMARK VINA RESULT:    -7.785      3.387      5.264
REMARK INTER + INTRA:         -11.575
REMARK INTER:                  -9.657
REMARK INTRA:                  -1.918
REMARK UNBOUND:                -0.832
REMARK SMILES C=C(CC[C@H](C(=O)[O-])[C@H]1CC[C@]2(C)C3=C(CC[C@@]12C)[C@]1(C)CC[C@@H](O)C(C)(C)[C@@H]1CC3)C(C)C
REMARK SMILES IDX 4 1 5 2 6 3 7 4 8 5 9 6 10 7 18 8 11 9 12 10 17 11 19 12
REMARK SMILES IDX 13 13 14 14 16 15 15 16 31 17 20 18 30 19 29 20 22 21 21 22
REMARK SMILES IDX 26 23 23 24 24 25 27 26 28 27 25 28 3 30 2 31 1 32 32 33
REMARK SMILES IDX 33 34 34 35
REMARK H PARENT 25 29
REMARK Flexibility Score: inf
ROOT
ATOM      1  C   UNL     1      16.836  20.254  12.512  1.00  0.00     0.014 C 
ENDROOT
BRANCH   1   2
ATOM      2  C   UNL     1      16.325  19.188  13.522  1.00  0.00     0.039 C 
BRANCH   2   3
ATOM      3  C   UNL     1      15.701  19.819  14.743  1.00  0.00     0.045 C 
ATOM      4  O   UNL     1      16.164  20.875  15.245  1.00  0.00    -0.550 OA
ATOM      5  O   UNL     1      14.549  19.264  15.290  1.00  0.00    -0.550 OA
ENDBRANCH   2   3
BRANCH   2   6
ATOM      6  C   UNL     1      17.318  17.987  13.756  1.00  0.00     0.004 C 
ATOM      7  C   UNL     1      17.524  17.488  15.209  1.00  0.00     0.006 C 
ATOM      8  C   UNL     1      17.105  16.676  12.908  1.00  0.00    -0.020 C 
ATOM      9  C   UNL     1      17.516  15.952  15.169  1.00  0.00     0.012 C 
ATOM     10  C   UNL     1      16.652  15.605  13.949  1.00  0.00    -0.006 C 
ATOM     11  C   UNL     1      16.082  16.662  11.746  1.00  0.00     0.012 C 
ATOM     12  C   UNL     1      18.510  16.349  12.273  1.00  0.00     0.012 C 
ATOM     13  C   UNL     1      15.163  15.686  14.412  1.00  0.00     0.017 C 
ATOM     14  C   UNL     1      16.823  14.226  13.326  1.00  0.00    -0.064 C 
ATOM     15  C   UNL     1      15.741  15.210  11.273  1.00  0.00     0.032 C 
ATOM     16  C   UNL     1      16.455  14.047  12.018  1.00  0.00    -0.064 C 
ATOM     17  C   UNL     1      17.388  13.110  14.158  1.00  0.00     0.032 C 
ATOM     18  C   UNL     1      16.614  12.680  11.288  1.00  0.00    -0.008 C 
ATOM     19  C   UNL     1      16.918  11.753  13.663  1.00  0.00     0.009 C 
ATOM     20  C   UNL     1      17.326  11.571  12.183  1.00  0.00     0.007 C 
ATOM     21  C   UNL     1      15.168  12.229  10.923  1.00  0.00     0.014 C 
ATOM     22  C   UNL     1      17.466  12.931   9.995  1.00  0.00     0.016 C 
ATOM     23  C   UNL     1      17.147  10.076  11.665  1.00  0.00    -0.006 C 
ATOM     24  C   UNL     1      15.052  10.804  10.384  1.00  0.00     0.033 C 
ATOM     25  C   UNL     1      15.652   9.784  11.358  1.00  0.00     0.120 C 
ATOM     26  C   UNL     1      18.031   9.814  10.411  1.00  0.00     0.014 C 
ATOM     27  C   UNL     1      17.632   9.047  12.727  1.00  0.00     0.014 C 
BRANCH  25  28
ATOM     28  O   UNL     1      15.506   8.491  10.824  1.00  0.00    -0.393 OA
ATOM     29  H   UNL     1      16.113   7.896  11.338  1.00  0.00     0.210 HD
ENDBRANCH  25  28
ENDBRANCH   2   6
ENDBRANCH   1   2
BRANCH   1  30
ATOM     30  C   UNL     1      16.082  20.409  11.167  1.00  0.00     0.031 C 
BRANCH  30  31
ATOM     31  C   UNL     1      16.843  20.080   9.885  1.00  0.00    -0.075 C 
ATOM     32  C   UNL     1      16.308  20.337   8.675  1.00  0.00     0.008 C 
BRANCH  31  33
ATOM     33  C   UNL     1      18.088  19.195   9.950  1.00  0.00     0.008 C 
ATOM     34  C   UNL     1      19.361  20.028   9.757  1.00  0.00     0.012 C 
ATOM     35  C   UNL     1      18.043  18.040   8.946  1.00  0.00     0.012 C 
ENDBRANCH  31  33
ENDBRANCH  30  31
ENDBRANCH   1  30
TORSDOF 7
ENDMDL
MODEL 5
REMARK VINA RESULT:    -7.664      1.481      2.755
REMARK INTER + INTRA:         -11.409
REMARK INTER:                 -10.779
REMARK INTRA:                  -0.630
REMARK UNBOUND:                -0.832
REMARK SMILES C=C(CC[C@H](C(=O)[O-])[C@H]1CC[C@]2(C)C3=C(CC[C@@]12C)[C@]1(C)CC[C@@H](O)C(C)(C)[C@@H]1CC3)C(C)C
REMARK SMILES IDX 4 1 5 2 6 3 7 4 8 5 9 6 10 7 18 8 11 9 12 10 17 11 19 12
REMARK SMILES IDX 13 13 14 14 16 15 15 16 31 17 20 18 30 19 29 20 22 21 21 22
REMARK SMILES IDX 26 23 23 24 24 25 27 26 28 27 25 28 3 30 2 31 1 32 32 33
REMARK SMILES IDX 33 34 34 35
REMARK H PARENT 25 29
REMARK Flexibility Score: inf
ROOT
ATOM      1  C   UNL     1      21.076  21.631  10.475  1.00  0.00     0.014 C 
ENDROOT
BRANCH   1   2
ATOM      2  C   UNL     1      20.701  20.376   9.637  1.00  0.00     0.039 C 
BRANCH   2   3
ATOM      3  C   UNL     1      20.996  20.566   8.169  1.00  0.00     0.045 C 
ATOM      4  O   UNL     1      20.965  21.704   7.636  1.00  0.00    -0.550 OA
ATOM      5  O   UNL     1      21.378  19.473   7.398  1.00  0.00    -0.550 OA
ENDBRANCH   2   3
BRANCH   2   6
ATOM      6  C   UNL     1      19.313  19.733  10.019  1.00  0.00     0.004 C 
ATOM      7  C   UNL     1      18.173  19.793   8.970  1.00  0.00     0.006 C 
ATOM      8  C   UNL     1      19.307  18.243  10.534  1.00  0.00    -0.020 C 
ATOM      9  C   UNL     1      17.492  18.416   8.959  1.00  0.00     0.012 C 
ATOM     10  C   UNL     1      18.589  17.441   9.404  1.00  0.00    -0.006 C 
ATOM     11  C   UNL     1      20.642  17.524  10.845  1.00  0.00     0.012 C 
ATOM     12  C   UNL     1      18.485  18.264  11.879  1.00  0.00     0.012 C 
ATOM     13  C   UNL     1      19.448  17.121   8.140  1.00  0.00     0.017 C 
ATOM     14  C   UNL     1      18.159  16.094   9.969  1.00  0.00    -0.064 C 
ATOM     15  C   UNL     1      20.464  15.975  10.980  1.00  0.00     0.032 C 
ATOM     16  C   UNL     1      19.026  15.417  10.787  1.00  0.00    -0.064 C 
ATOM     17  C   UNL     1      16.803  15.551   9.617  1.00  0.00     0.032 C 
ATOM     18  C   UNL     1      18.665  14.046  11.431  1.00  0.00    -0.008 C 
ATOM     19  C   UNL     1      16.773  14.034   9.695  1.00  0.00     0.009 C 
ATOM     20  C   UNL     1      17.174  13.580  11.117  1.00  0.00     0.007 C 
ATOM     21  C   UNL     1      19.683  13.025  10.840  1.00  0.00     0.014 C 
ATOM     22  C   UNL     1      18.850  14.188  12.981  1.00  0.00     0.016 C 
ATOM     23  C   UNL     1      16.884  12.037  11.386  1.00  0.00    -0.006 C 
ATOM     24  C   UNL     1      19.391  11.561  11.164  1.00  0.00     0.033 C 
ATOM     25  C   UNL     1      17.980  11.157  10.722  1.00  0.00     0.120 C 
ATOM     26  C   UNL     1      16.790  11.747  12.912  1.00  0.00     0.014 C 
ATOM     27  C   UNL     1      15.505  11.611  10.804  1.00  0.00     0.014 C 
BRANCH  25  28
ATOM     28  O   UNL     1      17.768   9.800  11.029  1.00  0.00    -0.393 OA
ATOM     29  H   UNL     1      16.825   9.715  11.330  1.00  0.00     0.210 HD
ENDBRANCH  25  28
ENDBRANCH   2   6
ENDBRANCH   1   2
BRANCH   1  30
ATOM     30  C   UNL     1      20.598  23.017   9.974  1.00  0.00     0.031 C 
BRANCH  30  31
ATOM     31  C   UNL     1      19.169  23.439  10.310  1.00  0.00    -0.075 C 
ATOM     32  C   UNL     1      18.749  23.511  11.589  1.00  0.00     0.008 C 
BRANCH  31  33
ATOM     33  C   UNL     1      18.119  23.503   9.202  1.00  0.00     0.008 C 
ATOM     34  C   UNL     1      17.862  24.954   8.775  1.00  0.00     0.012 C 
ATOM     35  C   UNL     1      16.807  22.817   9.592  1.00  0.00     0.012 C 
ENDBRANCH  31  33
ENDBRANCH  30  31
ENDBRANCH   1  30
TORSDOF 7
ENDMDL
MODEL 6
REMARK VINA RESULT:    -7.621      2.270      9.579
REMARK INTER + INTRA:         -11.349
REMARK INTER:                 -10.246
REMARK INTRA:                  -1.103
REMARK UNBOUND:                -0.832
REMARK SMILES C=C(CC[C@H](C(=O)[O-])[C@H]1CC[C@]2(C)C3=C(CC[C@@]12C)[C@]1(C)CC[C@@H](O)C(C)(C)[C@@H]1CC3)C(C)C
REMARK SMILES IDX 4 1 5 2 6 3 7 4 8 5 9 6 10 7 18 8 11 9 12 10 17 11 19 12
REMARK SMILES IDX 13 13 14 14 16 15 15 16 31 17 20 18 30 19 29 20 22 21 21 22
REMARK SMILES IDX 26 23 23 24 24 25 27 26 28 27 25 28 3 30 2 31 1 32 32 33
REMARK SMILES IDX 33 34 34 35
REMARK H PARENT 25 29
REMARK Flexibility Score: inf
ROOT
ATOM      1  C   UNL     1      16.793  12.287  10.905  1.00  0.00     0.014 C 
ENDROOT
BRANCH   1   2
ATOM      2  C   UNL     1      17.829  12.434  12.055  1.00  0.00     0.039 C 
BRANCH   2   3
ATOM      3  C   UNL     1      17.205  12.209  13.411  1.00  0.00     0.045 C 
ATOM      4  O   UNL     1      16.337  11.318  13.594  1.00  0.00    -0.550 OA
ATOM      5  O   UNL     1      17.644  12.953  14.501  1.00  0.00    -0.550 OA
ENDBRANCH   2   3
BRANCH   2   6
ATOM      6  C   UNL     1      18.800  13.665  11.900  1.00  0.00     0.004 C 
ATOM      7  C   UNL     1      19.803  13.655  10.718  1.00  0.00     0.006 C 
ATOM      8  C   UNL     1      18.166  15.108  11.875  1.00  0.00    -0.020 C 
ATOM      9  C   UNL     1      19.800  15.063  10.106  1.00  0.00     0.012 C 
ATOM     10  C   UNL     1      18.403  15.615  10.418  1.00  0.00    -0.006 C 
ATOM     11  C   UNL     1      16.664  15.300  12.200  1.00  0.00     0.012 C 
ATOM     12  C   UNL     1      18.967  15.941  12.946  1.00  0.00     0.012 C 
ATOM     13  C   UNL     1      17.438  15.046   9.329  1.00  0.00     0.017 C 
ATOM     14  C   UNL     1      18.213  17.126  10.398  1.00  0.00    -0.064 C 
ATOM     15  C   UNL     1      16.140  16.711  11.770  1.00  0.00     0.032 C 
ATOM     16  C   UNL     1      17.171  17.666  11.105  1.00  0.00    -0.064 C 
ATOM     17  C   UNL     1      19.170  17.974   9.610  1.00  0.00     0.032 C 
ATOM     18  C   UNL     1      16.911  19.201  11.164  1.00  0.00    -0.008 C 
ATOM     19  C   UNL     1      18.526  19.277   9.169  1.00  0.00     0.009 C 
ATOM     20  C   UNL     1      18.024  20.053  10.408  1.00  0.00     0.007 C 
ATOM     21  C   UNL     1      15.521  19.416  10.493  1.00  0.00     0.014 C 
ATOM     22  C   UNL     1      16.874  19.617  12.675  1.00  0.00     0.016 C 
ATOM     23  C   UNL     1      17.609  21.556  10.078  1.00  0.00    -0.006 C 
ATOM     24  C   UNL     1      15.145  20.875  10.241  1.00  0.00     0.033 C 
ATOM     25  C   UNL     1      16.209  21.595   9.404  1.00  0.00     0.120 C 
ATOM     26  C   UNL     1      17.628  22.431  11.365  1.00  0.00     0.014 C 
ATOM     27  C   UNL     1      18.629  22.226   9.113  1.00  0.00     0.014 C 
BRANCH  25  28
ATOM     28  O   UNL     1      15.808  22.926   9.189  1.00  0.00    -0.393 OA
ATOM     29  H   UNL     1      16.569  23.389   8.749  1.00  0.00     0.210 HD
ENDBRANCH  25  28
ENDBRANCH   2   6
ENDBRANCH   1   2
BRANCH   1  30
ATOM     30  C   UNL     1      16.975  11.122   9.898  1.00  0.00     0.031 C 
BRANCH  30  31
ATOM     31  C   UNL     1      16.784   9.699  10.417  1.00  0.00    -0.075 C 
ATOM     32  C   UNL     1      15.562   9.243  10.757  1.00  0.00     0.008 C 
BRANCH  31  33
ATOM     33  C   UNL     1      18.003   8.874  10.829  1.00  0.00     0.008 C 
ATOM     34  C   UNL     1      18.030   8.662  12.349  1.00  0.00     0.012 C 
ATOM     35  C   UNL     1      19.320   9.486  10.348  1.00  0.00     0.012 C 
ENDBRANCH  31  33
ENDBRANCH  30  31
ENDBRANCH   1  30
TORSDOF 7
ENDMDL
MODEL 7
REMARK VINA RESULT:    -7.563      4.119      6.587
REMARK INTER + INTRA:         -11.269
REMARK INTER:                 -10.242
REMARK INTRA:                  -1.027
REMARK UNBOUND:                -0.832
REMARK SMILES C=C(CC[C@H](C(=O)[O-])[C@H]1CC[C@]2(C)C3=C(CC[C@@]12C)[C@]1(C)CC[C@@H](O)C(C)(C)[C@@H]1CC3)C(C)C
REMARK SMILES IDX 4 1 5 2 6 3 7 4 8 5 9 6 10 7 18 8 11 9 12 10 17 11 19 12
REMARK SMILES IDX 13 13 14 14 16 15 15 16 31 17 20 18 30 19 29 20 22 21 21 22
REMARK SMILES IDX 26 23 23 24 24 25 27 26 28 27 25 28 3 30 2 31 1 32 32 33
REMARK SMILES IDX 33 34 34 35
REMARK H PARENT 25 29
REMARK Flexibility Score: inf
ROOT
ATOM      1  C   UNL     1      17.240  20.075  15.618  1.00  0.00     0.014 C 
ENDROOT
BRANCH   1   2
ATOM      2  C   UNL     1      16.944  19.692  14.140  1.00  0.00     0.039 C 
BRANCH   2   3
ATOM      3  C   UNL     1      16.772  20.908  13.263  1.00  0.00     0.045 C 
ATOM      4  O   UNL     1      16.870  22.071  13.729  1.00  0.00    -0.550 OA
ATOM      5  O   UNL     1      16.569  20.747  11.896  1.00  0.00    -0.550 OA
ENDBRANCH   2   3
BRANCH   2   6
ATOM      6  C   UNL     1      15.900  18.524  13.970  1.00  0.00     0.004 C 
ATOM      7  C   UNL     1      14.775  18.704  12.919  1.00  0.00     0.006 C 
ATOM      8  C   UNL     1      16.452  17.069  13.720  1.00  0.00    -0.020 C 
ATOM      9  C   UNL     1      14.637  17.372  12.166  1.00  0.00     0.012 C 
ATOM     10  C   UNL     1      16.030  16.735  12.255  1.00  0.00    -0.006 C 
ATOM     11  C   UNL     1      17.968  16.783  13.848  1.00  0.00     0.012 C 
ATOM     12  C   UNL     1      15.733  16.154  14.783  1.00  0.00     0.012 C 
ATOM     13  C   UNL     1      16.896  17.383  11.128  1.00  0.00     0.017 C 
ATOM     14  C   UNL     1      16.138  15.230  12.054  1.00  0.00    -0.064 C 
ATOM     15  C   UNL     1      18.369  15.409  13.214  1.00  0.00     0.032 C 
ATOM     16  C   UNL     1      17.223  14.574  12.575  1.00  0.00    -0.064 C 
ATOM     17  C   UNL     1      15.058  14.512  11.296  1.00  0.00     0.032 C 
ATOM     18  C   UNL     1      17.409  13.034  12.442  1.00  0.00    -0.008 C 
ATOM     19  C   UNL     1      15.582  13.241  10.649  1.00  0.00     0.009 C 
ATOM     20  C   UNL     1      16.177  12.314  11.734  1.00  0.00     0.007 C 
ATOM     21  C   UNL     1      18.703  12.839  11.596  1.00  0.00     0.014 C 
ATOM     22  C   UNL     1      17.591  12.452  13.886  1.00  0.00     0.016 C 
ATOM     23  C   UNL     1      16.475  10.842  11.202  1.00  0.00    -0.006 C 
ATOM     24  C   UNL     1      18.974  11.403  11.150  1.00  0.00     0.033 C 
ATOM     25  C   UNL     1      17.788  10.823  10.371  1.00  0.00     0.120 C 
ATOM     26  C   UNL     1      16.553   9.831  12.383  1.00  0.00     0.014 C 
ATOM     27  C   UNL     1      15.322  10.323  10.296  1.00  0.00     0.014 C 
BRANCH  25  28
ATOM     28  O   UNL     1      18.094   9.509   9.972  1.00  0.00    -0.393 OA
ATOM     29  H   UNL     1      17.315   9.176   9.453  1.00  0.00     0.210 HD
ENDBRANCH  25  28
ENDBRANCH   2   6
ENDBRANCH   1   2
BRANCH   1  30
ATOM     30  C   UNL     1      16.224  19.643  16.705  1.00  0.00     0.031 C 
BRANCH  30  31
ATOM     31  C   UNL     1      16.589  18.448  17.582  1.00  0.00    -0.075 C 
ATOM     32  C   UNL     1      15.673  17.509  17.892  1.00  0.00     0.008 C 
BRANCH  31  33
ATOM     33  C   UNL     1      17.908  18.450  18.355  1.00  0.00     0.008 C 
ATOM     34  C   UNL     1      17.893  17.392  19.465  1.00  0.00     0.012 C 
ATOM     35  C   UNL     1      18.253  19.827  18.928  1.00  0.00     0.012 C 
ENDBRANCH  31  33
ENDBRANCH  30  31
ENDBRANCH   1  30
TORSDOF 7
ENDMDL
MODEL 8
REMARK VINA RESULT:    -7.533     12.796     15.957
REMARK INTER + INTRA:         -11.227
REMARK INTER:                  -9.272
REMARK INTRA:                  -1.955
REMARK UNBOUND:                -0.832
REMARK SMILES C=C(CC[C@H](C(=O)[O-])[C@H]1CC[C@]2(C)C3=C(CC[C@@]12C)[C@]1(C)CC[C@@H](O)C(C)(C)[C@@H]1CC3)C(C)C
REMARK SMILES IDX 4 1 5 2 6 3 7 4 8 5 9 6 10 7 18 8 11 9 12 10 17 11 19 12
REMARK SMILES IDX 13 13 14 14 16 15 15 16 31 17 20 18 30 19 29 20 22 21 21 22
REMARK SMILES IDX 26 23 23 24 24 25 27 26 28 27 25 28 3 30 2 31 1 32 32 33
REMARK SMILES IDX 33 34 34 35
REMARK H PARENT 25 29
REMARK Flexibility Score: inf
ROOT
ATOM      1  C   UNL     1      10.104  18.647  20.301  1.00  0.00     0.014 C 
ENDROOT
BRANCH   1   2
ATOM      2  C   UNL     1       9.987  17.173  19.822  1.00  0.00     0.039 C 
BRANCH   2   3
ATOM      3  C   UNL     1      11.206  16.731  19.048  1.00  0.00     0.045 C 
ATOM      4  O   UNL     1      11.756  17.485  18.205  1.00  0.00    -0.550 OA
ATOM      5  O   UNL     1      11.778  15.492  19.316  1.00  0.00    -0.550 OA
ENDBRANCH   2   3
BRANCH   2   6
ATOM      6  C   UNL     1       8.577  16.793  19.230  1.00  0.00     0.004 C 
ATOM      7  C   UNL     1       8.512  16.325  17.753  1.00  0.00     0.006 C 
ATOM      8  C   UNL     1       7.702  15.748  20.020  1.00  0.00    -0.020 C 
ATOM      9  C   UNL     1       7.565  15.117  17.699  1.00  0.00     0.012 C 
ATOM     10  C   UNL     1       7.662  14.490  19.096  1.00  0.00    -0.006 C 
ATOM     11  C   UNL     1       8.137  15.280  21.430  1.00  0.00     0.012 C 
ATOM     12  C   UNL     1       6.287  16.421  20.189  1.00  0.00     0.012 C 
ATOM     13  C   UNL     1       8.942  13.596  19.102  1.00  0.00     0.017 C 
ATOM     14  C   UNL     1       6.522  13.592  19.554  1.00  0.00    -0.064 C 
ATOM     15  C   UNL     1       7.372  13.995  21.892  1.00  0.00     0.032 C 
ATOM     16  C   UNL     1       6.330  13.408  20.899  1.00  0.00    -0.064 C 
ATOM     17  C   UNL     1       5.643  12.940  18.525  1.00  0.00     0.032 C 
ATOM     18  C   UNL     1       5.176  12.527  21.463  1.00  0.00    -0.008 C 
ATOM     19  C   UNL     1       5.025  11.656  19.052  1.00  0.00     0.009 C 
ATOM     20  C   UNL     1       4.210  11.959  20.330  1.00  0.00     0.007 C 
ATOM     21  C   UNL     1       5.874  11.352  22.212  1.00  0.00     0.014 C 
ATOM     22  C   UNL     1       4.348  13.412  22.457  1.00  0.00     0.016 C 
ATOM     23  C   UNL     1       3.285  10.745  20.784  1.00  0.00    -0.006 C 
ATOM     24  C   UNL     1       4.939  10.234  22.671  1.00  0.00     0.033 C 
ATOM     25  C   UNL     1       4.133   9.658  21.502  1.00  0.00     0.120 C 
ATOM     26  C   UNL     1       2.129  11.241  21.701  1.00  0.00     0.014 C 
ATOM     27  C   UNL     1       2.582  10.082  19.564  1.00  0.00     0.014 C 
BRANCH  25  28
ATOM     28  O   UNL     1       3.303   8.625  21.974  1.00  0.00    -0.393 OA
ATOM     29  H   UNL     1       3.789   7.772  21.825  1.00  0.00     0.210 HD
ENDBRANCH  25  28
ENDBRANCH   2   6
ENDBRANCH   1   2
BRANCH   1  30
ATOM     30  C   UNL     1       9.124  19.142  21.395  1.00  0.00     0.031 C 
BRANCH  30  31
ATOM     31  C   UNL     1       7.908  19.949  20.947  1.00  0.00    -0.075 C 
ATOM     32  C   UNL     1       6.734  19.859  21.602  1.00  0.00     0.008 C 
BRANCH  31  33
ATOM     33  C   UNL     1       7.922  20.644  19.585  1.00  0.00     0.008 C 
ATOM     34  C   UNL     1       7.709  22.156  19.741  1.00  0.00     0.012 C 
ATOM     35  C   UNL     1       6.899  20.054  18.611  1.00  0.00     0.012 C 
ENDBRANCH  31  33
ENDBRANCH  30  31
ENDBRANCH   1  30
TORSDOF 7
ENDMDL
MODEL 9
REMARK VINA RESULT:    -7.439      2.203      4.085
REMARK INTER + INTRA:         -11.098
REMARK INTER:                 -10.596
REMARK INTRA:                  -0.503
REMARK UNBOUND:                -0.832
REMARK SMILES C=C(CC[C@H](C(=O)[O-])[C@H]1CC[C@]2(C)C3=C(CC[C@@]12C)[C@]1(C)CC[C@@H](O)C(C)(C)[C@@H]1CC3)C(C)C
REMARK SMILES IDX 4 1 5 2 6 3 7 4 8 5 9 6 10 7 18 8 11 9 12 10 17 11 19 12
REMARK SMILES IDX 13 13 14 14 16 15 15 16 31 17 20 18 30 19 29 20 22 21 21 22
REMARK SMILES IDX 26 23 23 24 24 25 27 26 28 27 25 28 3 30 2 31 1 32 32 33
REMARK SMILES IDX 33 34 34 35
REMARK H PARENT 25 29
REMARK Flexibility Score: inf
ROOT
ATOM      1  C   UNL     1      16.545  19.972  11.115  1.00  0.00     0.014 C 
ENDROOT
BRANCH   1   2
ATOM      2  C   UNL     1      17.992  20.062  10.552  1.00  0.00     0.039 C 
BRANCH   2   3
ATOM      3  C   UNL     1      18.285  21.417   9.956  1.00  0.00     0.045 C 
ATOM      4  O   UNL     1      17.361  22.222   9.672  1.00  0.00    -0.550 OA
ATOM      5  O   UNL     1      19.604  21.818   9.776  1.00  0.00    -0.550 OA
ENDBRANCH   2   3
BRANCH   2   6
ATOM      6  C   UNL     1      18.448  18.796   9.731  1.00  0.00     0.004 C 
ATOM      7  C   UNL     1      19.969  18.553   9.558  1.00  0.00     0.006 C 
ATOM      8  C   UNL     1      17.862  17.394  10.148  1.00  0.00    -0.020 C 
ATOM      9  C   UNL     1      20.219  17.054   9.782  1.00  0.00     0.012 C 
ATOM     10  C   UNL     1      19.087  16.612  10.718  1.00  0.00    -0.006 C 
ATOM     11  C   UNL     1      16.724  17.309  11.194  1.00  0.00     0.012 C 
ATOM     12  C   UNL     1      17.300  16.757   8.821  1.00  0.00     0.012 C 
ATOM     13  C   UNL     1      19.527  16.990  12.168  1.00  0.00     0.017 C 
ATOM     14  C   UNL     1      18.736  15.131  10.760  1.00  0.00    -0.064 C 
ATOM     15  C   UNL     1      16.534  15.858  11.748  1.00  0.00     0.032 C 
ATOM     16  C   UNL     1      17.485  14.765  11.184  1.00  0.00    -0.064 C 
ATOM     17  C   UNL     1      19.763  14.121  10.334  1.00  0.00     0.032 C 
ATOM     18  C   UNL     1      17.026  13.277  11.237  1.00  0.00    -0.008 C 
ATOM     19  C   UNL     1      19.533  12.777  11.003  1.00  0.00     0.009 C 
ATOM     20  C   UNL     1      18.114  12.265  10.665  1.00  0.00     0.007 C 
ATOM     21  C   UNL     1      16.752  12.977  12.742  1.00  0.00     0.014 C 
ATOM     22  C   UNL     1      15.709  13.158  10.394  1.00  0.00     0.016 C 
ATOM     23  C   UNL     1      17.888  10.740  11.064  1.00  0.00    -0.006 C 
ATOM     24  C   UNL     1      16.492  11.508  13.070  1.00  0.00     0.033 C 
ATOM     25  C   UNL     1      17.642  10.613  12.594  1.00  0.00     0.120 C 
ATOM     26  C   UNL     1      16.705  10.125  10.261  1.00  0.00     0.014 C 
ATOM     27  C   UNL     1      19.125   9.870  10.700  1.00  0.00     0.014 C 
BRANCH  25  28
ATOM     28  O   UNL     1      17.361   9.277  12.933  1.00  0.00    -0.393 OA
ATOM     29  H   UNL     1      16.608   9.295  13.581  1.00  0.00     0.210 HD
ENDBRANCH  25  28
ENDBRANCH   2   6
ENDBRANCH   1   2
BRANCH   1  30
ATOM     30  C   UNL     1      16.280  20.512  12.543  1.00  0.00     0.031 C 
BRANCH  30  31
ATOM     31  C   UNL     1      15.616  19.571  13.545  1.00  0.00    -0.075 C 
ATOM     32  C   UNL     1      14.350  19.145  13.366  1.00  0.00     0.008 C 
BRANCH  31  33
ATOM     33  C   UNL     1      16.271  19.331  14.906  1.00  0.00     0.008 C 
ATOM     34  C   UNL     1      16.938  20.612  15.425  1.00  0.00     0.012 C 
ATOM     35  C   UNL     1      17.272  18.175  14.883  1.00  0.00     0.012 C 
ENDBRANCH  31  33
ENDBRANCH  30  31
ENDBRANCH   1  30
TORSDOF 7
ENDMDL
