MODEL 1
REMARK VINA RESULT:    -4.964      0.000      0.000
REMARK INTER + INTRA:          -6.026
REMARK INTER:                  -5.689
REMARK INTRA:                  -0.337
REMARK UNBOUND:                -0.337
REMARK SMILES COc1ccc(C(C)=O)c(O)c1
REMARK SMILES IDX 6 1 10 2 12 3 3 4 4 5 5 6 7 7 8 8 9 9 11 10 2 12 1 13
REMARK H PARENT 11 11
REMARK Flexibility Score: inf
ROOT
ATOM      1  C   UNL     1     135.406   2.136  94.632  1.00  0.00     0.059 A 
ATOM      2  C   UNL     1     134.414   2.865  93.930  1.00  0.00     0.130 A 
ATOM      3  C   UNL     1     134.313   4.250  94.110  1.00  0.00     0.093 A 
ATOM      4  C   UNL     1     135.198   4.936  94.947  1.00  0.00     0.122 A 
ATOM      5  C   UNL     1     136.200   4.218  95.619  1.00  0.00     0.047 A 
ATOM      6  C   UNL     1     136.301   2.833  95.462  1.00  0.00     0.019 A 
ENDROOT
BRANCH   1   7
ATOM      7  C   UNL     1     135.504   0.660  94.545  1.00  0.00     0.163 C 
ATOM      8  C   UNL     1     136.824  -0.037  94.674  1.00  0.00     0.093 C 
ATOM      9  O   UNL     1     134.457  -0.035  94.443  1.00  0.00    -0.294 OA
ENDBRANCH   1   7
BRANCH   2  10
ATOM     10  O   UNL     1     133.536   2.258  93.030  1.00  0.00    -0.507 OA
ATOM     11  H   UNL     1     133.807   1.961  92.102  1.00  0.00     0.293 HD
ENDBRANCH   2  10
BRANCH   4  12
ATOM     12  O   UNL     1     135.049   6.324  95.079  1.00  0.00    -0.497 OA
ATOM     13  C   UNL     1     133.800   7.006  95.046  1.00  0.00     0.278 C 
ENDBRANCH   4  12
TORSDOF 3
ENDMDL
MODEL 2
REMARK VINA RESULT:    -4.944      1.425      1.686
REMARK INTER + INTRA:          -6.004
REMARK INTER:                  -5.662
REMARK INTRA:                  -0.341
REMARK UNBOUND:                -0.337
REMARK SMILES COc1ccc(C(C)=O)c(O)c1
REMARK SMILES IDX 6 1 10 2 12 3 3 4 4 5 5 6 7 7 8 8 9 9 11 10 2 12 1 13
REMARK H PARENT 11 11
REMARK Flexibility Score: inf
ROOT
ATOM      1  C   UNL     1     134.827   1.293  94.861  1.00  0.00     0.059 A 
ATOM      2  C   UNL     1     133.993   2.437  94.909  1.00  0.00     0.130 A 
ATOM      3  C   UNL     1     134.551   3.692  95.183  1.00  0.00     0.093 A 
ATOM      4  C   UNL     1     135.927   3.843  95.378  1.00  0.00     0.122 A 
ATOM      5  C   UNL     1     136.758   2.712  95.301  1.00  0.00     0.047 A 
ATOM      6  C   UNL     1     136.211   1.453  95.046  1.00  0.00     0.019 A 
ENDROOT
BRANCH   1   7
ATOM      7  C   UNL     1     134.279  -0.070  94.659  1.00  0.00     0.163 C 
ATOM      8  C   UNL     1     134.490  -1.147  95.678  1.00  0.00     0.093 C 
ATOM      9  O   UNL     1     133.552  -0.314  93.658  1.00  0.00    -0.294 OA
ENDBRANCH   1   7
BRANCH   2  10
ATOM     10  O   UNL     1     132.620   2.374  94.661  1.00  0.00    -0.507 OA
ATOM     11  H   UNL     1     132.069   1.536  94.791  1.00  0.00     0.293 HD
ENDBRANCH   2  10
BRANCH   4  12
ATOM     12  O   UNL     1     136.426   5.127  95.642  1.00  0.00    -0.497 OA
ATOM     13  C   UNL     1     135.949   6.317  95.023  1.00  0.00     0.278 C 
ENDBRANCH   4  12
TORSDOF 3
ENDMDL
MODEL 3
REMARK VINA RESULT:    -4.802      2.294      5.195
REMARK INTER + INTRA:          -5.841
REMARK INTER:                  -5.497
REMARK INTRA:                  -0.344
REMARK UNBOUND:                -0.337
REMARK SMILES COc1ccc(C(C)=O)c(O)c1
REMARK SMILES IDX 6 1 10 2 12 3 3 4 4 5 5 6 7 7 8 8 9 9 11 10 2 12 1 13
REMARK H PARENT 11 11
REMARK Flexibility Score: inf
ROOT
ATOM      1  C   UNL     1     134.788   1.395  95.043  1.00  0.00     0.059 A 
ATOM      2  C   UNL     1     133.977   1.058  93.931  1.00  0.00     0.130 A 
ATOM      3  C   UNL     1     133.442  -0.232  93.828  1.00  0.00     0.093 A 
ATOM      4  C   UNL     1     133.666  -1.188  94.822  1.00  0.00     0.122 A 
ATOM      5  C   UNL     1     134.445  -0.845  95.939  1.00  0.00     0.047 A 
ATOM      6  C   UNL     1     134.998   0.433  96.046  1.00  0.00     0.019 A 
ENDROOT
BRANCH   1   7
ATOM      7  C   UNL     1     135.448   2.716  95.161  1.00  0.00     0.163 C 
ATOM      8  C   UNL     1     136.936   2.828  95.302  1.00  0.00     0.093 C 
ATOM      9  O   UNL     1     134.767   3.772  95.059  1.00  0.00    -0.294 OA
ENDBRANCH   1   7
BRANCH   2  10
ATOM     10  O   UNL     1     133.658   1.979  92.931  1.00  0.00    -0.507 OA
ATOM     11  H   UNL     1     132.736   2.377  92.813  1.00  0.00     0.293 HD
ENDBRANCH   2  10
BRANCH   4  12
ATOM     12  O   UNL     1     133.096  -2.460  94.664  1.00  0.00    -0.497 OA
ATOM     13  C   UNL     1     133.390  -3.582  95.490  1.00  0.00     0.278 C 
ENDBRANCH   4  12
TORSDOF 3
ENDMDL
MODEL 4
REMARK VINA RESULT:    -4.768      1.247      4.582
REMARK INTER + INTRA:          -5.802
REMARK INTER:                  -5.483
REMARK INTRA:                  -0.320
REMARK UNBOUND:                -0.337
REMARK SMILES COc1ccc(C(C)=O)c(O)c1
REMARK SMILES IDX 6 1 10 2 12 3 3 4 4 5 5 6 7 7 8 8 9 9 11 10 2 12 1 13
REMARK H PARENT 11 11
REMARK Flexibility Score: inf
ROOT
ATOM      1  C   UNL     1     134.785   4.557  94.988  1.00  0.00     0.059 A 
ATOM      2  C   UNL     1     134.305   3.827  93.873  1.00  0.00     0.130 A 
ATOM      3  C   UNL     1     134.345   2.427  93.892  1.00  0.00     0.093 A 
ATOM      4  C   UNL     1     134.820   1.733  95.008  1.00  0.00     0.122 A 
ATOM      5  C   UNL     1     135.268   2.457  96.125  1.00  0.00     0.047 A 
ATOM      6  C   UNL     1     135.250   3.853  96.112  1.00  0.00     0.019 A 
ENDROOT
BRANCH   1   7
ATOM      7  C   UNL     1     134.846   6.038  94.989  1.00  0.00     0.163 C 
ATOM      8  C   UNL     1     136.159   6.759  94.997  1.00  0.00     0.093 C 
ATOM      9  O   UNL     1     133.784   6.712  94.897  1.00  0.00    -0.294 OA
ENDBRANCH   1   7
BRANCH   2  10
ATOM     10  O   UNL     1     133.759   4.450  92.750  1.00  0.00    -0.507 OA
ATOM     11  H   UNL     1     132.974   5.087  92.792  1.00  0.00     0.293 HD
ENDBRANCH   2  10
BRANCH   4  12
ATOM     12  O   UNL     1     134.826   0.331  94.967  1.00  0.00    -0.497 OA
ATOM     13  C   UNL     1     135.924  -0.481  95.374  1.00  0.00     0.278 C 
ENDBRANCH   4  12
TORSDOF 3
ENDMDL
MODEL 5
REMARK VINA RESULT:    -4.634      1.977      2.736
REMARK INTER + INTRA:          -5.649
REMARK INTER:                  -5.308
REMARK INTRA:                  -0.341
REMARK UNBOUND:                -0.337
REMARK SMILES COc1ccc(C(C)=O)c(O)c1
REMARK SMILES IDX 6 1 10 2 12 3 3 4 4 5 5 6 7 7 8 8 9 9 11 10 2 12 1 13
REMARK H PARENT 11 11
REMARK Flexibility Score: inf
ROOT
ATOM      1  C   UNL     1     134.685   0.814  94.876  1.00  0.00     0.059 A 
ATOM      2  C   UNL     1     136.097   0.910  94.809  1.00  0.00     0.130 A 
ATOM      3  C   UNL     1     136.718   2.150  95.002  1.00  0.00     0.093 A 
ATOM      4  C   UNL     1     135.971   3.295  95.292  1.00  0.00     0.122 A 
ATOM      5  C   UNL     1     134.573   3.194  95.389  1.00  0.00     0.047 A 
ATOM      6  C   UNL     1     133.940   1.966  95.182  1.00  0.00     0.019 A 
ENDROOT
BRANCH   1   7
ATOM      7  C   UNL     1     133.970  -0.455  94.598  1.00  0.00     0.163 C 
ATOM      8  C   UNL     1     132.973  -0.552  93.484  1.00  0.00     0.093 C 
ATOM      9  O   UNL     1     134.259  -1.495  95.248  1.00  0.00    -0.294 OA
ENDBRANCH   1   7
BRANCH   2  10
ATOM     10  O   UNL     1     136.912  -0.201  94.585  1.00  0.00    -0.507 OA
ATOM     11  H   UNL     1     136.591  -1.047  94.134  1.00  0.00     0.293 HD
ENDBRANCH   2  10
BRANCH   4  12
ATOM     12  O   UNL     1     136.653   4.505  95.482  1.00  0.00    -0.497 OA
ATOM     13  C   UNL     1     136.062   5.793  95.336  1.00  0.00     0.278 C 
ENDBRANCH   4  12
TORSDOF 3
ENDMDL
MODEL 6
REMARK VINA RESULT:    -4.620      1.740      4.952
REMARK INTER + INTRA:          -5.633
REMARK INTER:                  -5.299
REMARK INTRA:                  -0.334
REMARK UNBOUND:                -0.337
REMARK SMILES COc1ccc(C(C)=O)c(O)c1
REMARK SMILES IDX 6 1 10 2 12 3 3 4 4 5 5 6 7 7 8 8 9 9 11 10 2 12 1 13
REMARK H PARENT 11 11
REMARK Flexibility Score: inf
ROOT
ATOM      1  C   UNL     1     135.234   3.349  94.625  1.00  0.00     0.059 A 
ATOM      2  C   UNL     1     136.112   2.284  94.948  1.00  0.00     0.130 A 
ATOM      3  C   UNL     1     135.666   0.961  94.842  1.00  0.00     0.093 A 
ATOM      4  C   UNL     1     134.376   0.667  94.391  1.00  0.00     0.122 A 
ATOM      5  C   UNL     1     133.516   1.722  94.042  1.00  0.00     0.047 A 
ATOM      6  C   UNL     1     133.943   3.047  94.159  1.00  0.00     0.019 A 
ENDROOT
BRANCH   1   7
ATOM      7  C   UNL     1     135.625   4.768  94.799  1.00  0.00     0.163 C 
ATOM      8  C   UNL     1     135.071   5.838  93.909  1.00  0.00     0.093 C 
ATOM      9  O   UNL     1     136.369   5.102  95.760  1.00  0.00    -0.294 OA
ENDBRANCH   1   7
BRANCH   2  10
ATOM     10  O   UNL     1     137.433   2.498  95.346  1.00  0.00    -0.507 OA
ATOM     11  H   UNL     1     137.927   3.367  95.195  1.00  0.00     0.293 HD
ENDBRANCH   2  10
BRANCH   4  12
ATOM     12  O   UNL     1     133.992  -0.678  94.300  1.00  0.00    -0.497 OA
ATOM     13  C   UNL     1     134.110  -1.622  95.360  1.00  0.00     0.278 C 
ENDBRANCH   4  12
TORSDOF 3
ENDMDL
MODEL 7
REMARK VINA RESULT:    -4.620      2.001      2.967
REMARK INTER + INTRA:          -5.632
REMARK INTER:                  -5.398
REMARK INTRA:                  -0.235
REMARK UNBOUND:                -0.337
REMARK SMILES COc1ccc(C(C)=O)c(O)c1
REMARK SMILES IDX 6 1 10 2 12 3 3 4 4 5 5 6 7 7 8 8 9 9 11 10 2 12 1 13
REMARK H PARENT 11 11
REMARK Flexibility Score: inf
ROOT
ATOM      1  C   UNL     1     135.250   2.395  94.333  1.00  0.00     0.059 A 
ATOM      2  C   UNL     1     135.066   3.799  94.396  1.00  0.00     0.130 A 
ATOM      3  C   UNL     1     133.892   4.369  93.890  1.00  0.00     0.093 A 
ATOM      4  C   UNL     1     132.877   3.573  93.350  1.00  0.00     0.122 A 
ATOM      5  C   UNL     1     133.047   2.179  93.314  1.00  0.00     0.047 A 
ATOM      6  C   UNL     1     134.221   1.599  93.800  1.00  0.00     0.019 A 
ENDROOT
BRANCH   1   7
ATOM      7  C   UNL     1     136.507   1.748  94.776  1.00  0.00     0.163 C 
ATOM      8  C   UNL     1     136.724   0.276  94.598  1.00  0.00     0.093 C 
ATOM      9  O   UNL     1     137.449   2.449  95.234  1.00  0.00    -0.294 OA
ENDBRANCH   1   7
BRANCH   2  10
ATOM     10  O   UNL     1     136.007   4.651  94.978  1.00  0.00    -0.507 OA
ATOM     11  H   UNL     1     136.972   4.704  94.679  1.00  0.00     0.293 HD
ENDBRANCH   2  10
BRANCH   4  12
ATOM     12  O   UNL     1     131.722   4.203  92.867  1.00  0.00    -0.497 OA
ATOM     13  C   UNL     1     131.450   5.595  92.998  1.00  0.00     0.278 C 
ENDBRANCH   4  12
TORSDOF 3
ENDMDL
MODEL 8
REMARK VINA RESULT:    -4.614      2.266      4.716
REMARK INTER + INTRA:          -5.625
REMARK INTER:                  -5.316
REMARK INTRA:                  -0.309
REMARK UNBOUND:                -0.337
REMARK SMILES COc1ccc(C(C)=O)c(O)c1
REMARK SMILES IDX 6 1 10 2 12 3 3 4 4 5 5 6 7 7 8 8 9 9 11 10 2 12 1 13
REMARK H PARENT 11 11
REMARK Flexibility Score: inf
ROOT
ATOM      1  C   UNL     1     134.806   1.826  94.449  1.00  0.00     0.059 A 
ATOM      2  C   UNL     1     133.772   2.050  93.506  1.00  0.00     0.130 A 
ATOM      3  C   UNL     1     132.938   0.991  93.126  1.00  0.00     0.093 A 
ATOM      4  C   UNL     1     133.086  -0.281  93.687  1.00  0.00     0.122 A 
ATOM      5  C   UNL     1     134.092  -0.495  94.643  1.00  0.00     0.047 A 
ATOM      6  C   UNL     1     134.941   0.549  95.018  1.00  0.00     0.019 A 
ENDROOT
BRANCH   1   7
ATOM      7  C   UNL     1     135.769   2.889  94.823  1.00  0.00     0.163 C 
ATOM      8  C   UNL     1     137.157   2.550  95.276  1.00  0.00     0.093 C 
ATOM      9  O   UNL     1     135.455   4.101  94.683  1.00  0.00    -0.294 OA
ENDBRANCH   1   7
BRANCH   2  10
ATOM     10  O   UNL     1     133.524   3.307  92.952  1.00  0.00    -0.507 OA
ATOM     11  H   UNL     1     132.594   3.673  92.794  1.00  0.00     0.293 HD
ENDBRANCH   2  10
BRANCH   4  12
ATOM     12  O   UNL     1     132.215  -1.298  93.270  1.00  0.00    -0.497 OA
ATOM     13  C   UNL     1     131.435  -1.252  92.079  1.00  0.00     0.278 C 
ENDBRANCH   4  12
TORSDOF 3
ENDMDL
MODEL 9
REMARK VINA RESULT:    -4.594      1.680      2.280
REMARK INTER + INTRA:          -5.602
REMARK INTER:                  -5.264
REMARK INTRA:                  -0.338
REMARK UNBOUND:                -0.337
REMARK SMILES COc1ccc(C(C)=O)c(O)c1
REMARK SMILES IDX 6 1 10 2 12 3 3 4 4 5 5 6 7 7 8 8 9 9 11 10 2 12 1 13
REMARK H PARENT 11 11
REMARK Flexibility Score: inf
ROOT
ATOM      1  C   UNL     1     135.187   1.631  94.833  1.00  0.00     0.059 A 
ATOM      2  C   UNL     1     136.081   2.725  94.948  1.00  0.00     0.130 A 
ATOM      3  C   UNL     1     135.638   4.017  94.641  1.00  0.00     0.093 A 
ATOM      4  C   UNL     1     134.316   4.255  94.253  1.00  0.00     0.122 A 
ATOM      5  C   UNL     1     133.423   3.174  94.167  1.00  0.00     0.047 A 
ATOM      6  C   UNL     1     133.857   1.878  94.454  1.00  0.00     0.019 A 
ENDROOT
BRANCH   1   7
ATOM      7  C   UNL     1     135.625   0.233  95.063  1.00  0.00     0.163 C 
ATOM      8  C   UNL     1     134.720  -0.761  95.724  1.00  0.00     0.093 C 
ATOM      9  O   UNL     1     136.740  -0.157  94.625  1.00  0.00    -0.294 OA
ENDBRANCH   1   7
BRANCH   2  10
ATOM     10  O   UNL     1     137.396   2.573  95.390  1.00  0.00    -0.507 OA
ATOM     11  H   UNL     1     137.845   1.674  95.507  1.00  0.00     0.293 HD
ENDBRANCH   2  10
BRANCH   4  12
ATOM     12  O   UNL     1     133.933   5.573  93.966  1.00  0.00    -0.497 OA
ATOM     13  C   UNL     1     134.030   6.657  94.884  1.00  0.00     0.278 C 
ENDBRANCH   4  12
TORSDOF 3
ENDMDL
