MODEL 1
REMARK VINA RESULT:    -7.104      0.000      0.000
REMARK INTER + INTRA:          -7.785
REMARK INTER:                  -7.519
REMARK INTRA:                  -0.265
REMARK UNBOUND:                -0.265
REMARK SMILES O=c1cc(-c2ccccc2)oc2ccccc12
REMARK SMILES IDX 4 1 3 2 2 3 1 4 17 5 16 6 15 7 14 8 13 9 12 10 11 11 5 12
REMARK SMILES IDX 8 13 7 14 9 15 6 16 10 17
REMARK H PARENT
REMARK Flexibility Score: inf
ROOT
ATOM      1  C   UNL     1      11.532 -32.910 -19.189  1.00  0.00     0.138 A 
ATOM      2  C   UNL     1      12.056 -33.053 -17.886  1.00  0.00     0.100 A 
ATOM      3  C   UNL     1      13.427 -33.247 -17.713  1.00  0.00     0.193 A 
ATOM      4  O   UNL     1      13.894 -33.373 -16.548  1.00  0.00    -0.289 OA
ATOM      5  C   UNL     1      14.264 -33.298 -18.835  1.00  0.00     0.065 A 
ATOM      6  C   UNL     1      15.655 -33.491 -18.730  1.00  0.00     0.016 A 
ATOM      7  C   UNL     1      16.444 -33.534 -19.884  1.00  0.00     0.001 A 
ATOM      8  C   UNL     1      15.857 -33.387 -21.144  1.00  0.00     0.004 A 
ATOM      9  C   UNL     1      14.477 -33.195 -21.257  1.00  0.00     0.048 A 
ATOM     10  C   UNL     1      13.677 -33.150 -20.110  1.00  0.00     0.138 A 
ATOM     11  O   UNL     1      12.367 -32.966 -20.228  1.00  0.00    -0.456 OA
ENDROOT
BRANCH   1  12
ATOM     12  C   UNL     1      10.077 -32.700 -19.463  1.00  0.00     0.017 A 
ATOM     13  C   UNL     1       7.317 -32.292 -19.885  1.00  0.00     0.000 A 
ATOM     14  C   UNL     1       7.832 -32.292 -18.590  1.00  0.00     0.001 A 
ATOM     15  C   UNL     1       8.166 -32.495 -20.972  1.00  0.00     0.001 A 
ATOM     16  C   UNL     1       9.199 -32.493 -18.378  1.00  0.00     0.012 A 
ATOM     17  C   UNL     1       9.535 -32.697 -20.770  1.00  0.00     0.012 A 
ENDBRANCH   1  12
TORSDOF 1
ENDMDL
MODEL 2
REMARK VINA RESULT:    -7.054      1.184      5.803
REMARK INTER + INTRA:          -7.731
REMARK INTER:                  -7.466
REMARK INTRA:                  -0.265
REMARK UNBOUND:                -0.265
REMARK SMILES O=c1cc(-c2ccccc2)oc2ccccc12
REMARK SMILES IDX 4 1 3 2 2 3 1 4 17 5 16 6 15 7 14 8 13 9 12 10 11 11 5 12
REMARK SMILES IDX 8 13 7 14 9 15 6 16 10 17
REMARK H PARENT
REMARK Flexibility Score: inf
ROOT
ATOM      1  C   UNL     1      12.250 -33.267 -19.381  1.00  0.00     0.138 A 
ATOM      2  C   UNL     1      11.755 -33.554 -18.092  1.00  0.00     0.100 A 
ATOM      3  C   UNL     1      10.384 -33.466 -17.845  1.00  0.00     0.193 A 
ATOM      4  O   UNL     1       9.942 -33.723 -16.693  1.00  0.00    -0.289 OA
ATOM      5  C   UNL     1       9.519 -33.092 -18.883  1.00  0.00     0.065 A 
ATOM      6  C   UNL     1       8.127 -32.984 -18.701  1.00  0.00     0.016 A 
ATOM      7  C   UNL     1       7.309 -32.608 -19.771  1.00  0.00     0.001 A 
ATOM      8  C   UNL     1       7.868 -32.337 -21.023  1.00  0.00     0.004 A 
ATOM      9  C   UNL     1       9.249 -32.442 -21.212  1.00  0.00     0.048 A 
ATOM     10  C   UNL     1      10.078 -32.818 -20.149  1.00  0.00     0.138 A 
ATOM     11  O   UNL     1      11.389 -32.915 -20.339  1.00  0.00    -0.456 OA
ENDROOT
BRANCH   1  12
ATOM     12  C   UNL     1      13.703 -33.337 -19.731  1.00  0.00     0.017 A 
ATOM     13  C   UNL     1      16.464 -33.480 -20.295  1.00  0.00     0.000 A 
ATOM     14  C   UNL     1      16.015 -33.578 -18.979  1.00  0.00     0.001 A 
ATOM     15  C   UNL     1      15.548 -33.310 -21.332  1.00  0.00     0.001 A 
ATOM     16  C   UNL     1      14.647 -33.508 -18.696  1.00  0.00     0.012 A 
ATOM     17  C   UNL     1      14.178 -33.239 -21.059  1.00  0.00     0.012 A 
ENDBRANCH   1  12
TORSDOF 1
ENDMDL
MODEL 3
REMARK VINA RESULT:    -6.794      5.446      7.489
REMARK INTER + INTRA:          -7.456
REMARK INTER:                  -7.191
REMARK INTRA:                  -0.266
REMARK UNBOUND:                -0.265
REMARK SMILES O=c1cc(-c2ccccc2)oc2ccccc12
REMARK SMILES IDX 4 1 3 2 2 3 1 4 17 5 16 6 15 7 14 8 13 9 12 10 11 11 5 12
REMARK SMILES IDX 8 13 7 14 9 15 6 16 10 17
REMARK H PARENT
REMARK Flexibility Score: inf
ROOT
ATOM      1  C   UNL     1       8.180 -28.271 -17.891  1.00  0.00     0.138 A 
ATOM      2  C   UNL     1       8.568 -27.864 -19.185  1.00  0.00     0.100 A 
ATOM      3  C   UNL     1       8.589 -28.797 -20.223  1.00  0.00     0.193 A 
ATOM      4  O   UNL     1       8.935 -28.432 -21.380  1.00  0.00    -0.289 OA
ATOM      5  C   UNL     1       8.224 -30.125 -19.965  1.00  0.00     0.065 A 
ATOM      6  C   UNL     1       8.223 -31.115 -20.966  1.00  0.00     0.016 A 
ATOM      7  C   UNL     1       7.850 -32.426 -20.653  1.00  0.00     0.001 A 
ATOM      8  C   UNL     1       7.478 -32.759 -19.347  1.00  0.00     0.004 A 
ATOM      9  C   UNL     1       7.475 -31.782 -18.347  1.00  0.00     0.048 A 
ATOM     10  C   UNL     1       7.847 -30.467 -18.649  1.00  0.00     0.138 A 
ATOM     11  O   UNL     1       7.841 -29.546 -17.691  1.00  0.00    -0.456 OA
ENDROOT
BRANCH   1  12
ATOM     12  C   UNL     1       8.130 -27.337 -16.724  1.00  0.00     0.017 A 
ATOM     13  C   UNL     1       8.073 -25.504 -14.578  1.00  0.00     0.000 A 
ATOM     14  C   UNL     1       8.561 -25.107 -15.822  1.00  0.00     0.001 A 
ATOM     15  C   UNL     1       7.615 -26.808 -14.395  1.00  0.00     0.001 A 
ATOM     16  C   UNL     1       8.589 -26.013 -16.887  1.00  0.00     0.012 A 
ATOM     17  C   UNL     1       7.639 -27.721 -15.454  1.00  0.00     0.012 A 
ENDBRANCH   1  12
TORSDOF 1
ENDMDL
MODEL 4
REMARK VINA RESULT:    -6.704     10.504     12.231
REMARK INTER + INTRA:          -7.361
REMARK INTER:                  -7.131
REMARK INTRA:                  -0.230
REMARK UNBOUND:                -0.265
REMARK SMILES O=c1cc(-c2ccccc2)oc2ccccc12
REMARK SMILES IDX 4 1 3 2 2 3 1 4 17 5 16 6 15 7 14 8 13 9 12 10 11 11 5 12
REMARK SMILES IDX 8 13 7 14 9 15 6 16 10 17
REMARK H PARENT
REMARK Flexibility Score: inf
ROOT
ATOM      1  C   UNL     1       7.371 -23.756 -13.542  1.00  0.00     0.138 A 
ATOM      2  C   UNL     1       7.473 -24.881 -14.386  1.00  0.00     0.100 A 
ATOM      3  C   UNL     1       8.207 -25.992 -13.967  1.00  0.00     0.193 A 
ATOM      4  O   UNL     1       8.298 -26.998 -14.721  1.00  0.00    -0.289 OA
ATOM      5  C   UNL     1       8.832 -25.974 -12.712  1.00  0.00     0.065 A 
ATOM      6  C   UNL     1       9.586 -27.060 -12.229  1.00  0.00     0.016 A 
ATOM      7  C   UNL     1      10.188 -26.988 -10.970  1.00  0.00     0.001 A 
ATOM      8  C   UNL     1      10.046 -25.839 -10.185  1.00  0.00     0.004 A 
ATOM      9  C   UNL     1       9.298 -24.756 -10.657  1.00  0.00     0.048 A 
ATOM     10  C   UNL     1       8.691 -24.817 -11.917  1.00  0.00     0.138 A 
ATOM     11  O   UNL     1       7.982 -23.782 -12.356  1.00  0.00    -0.456 OA
ENDROOT
BRANCH   1  12
ATOM     12  C   UNL     1       6.605 -22.526 -13.913  1.00  0.00     0.017 A 
ATOM     13  C   UNL     1       5.223 -20.191 -14.689  1.00  0.00     0.000 A 
ATOM     14  C   UNL     1       6.342 -20.610 -15.407  1.00  0.00     0.001 A 
ATOM     15  C   UNL     1       4.789 -20.925 -13.586  1.00  0.00     0.001 A 
ATOM     16  C   UNL     1       7.028 -21.767 -15.025  1.00  0.00     0.012 A 
ATOM     17  C   UNL     1       5.469 -22.084 -13.197  1.00  0.00     0.012 A 
ENDBRANCH   1  12
TORSDOF 1
ENDMDL
MODEL 5
REMARK VINA RESULT:    -6.590      2.317      3.613
REMARK INTER + INTRA:          -7.241
REMARK INTER:                  -6.996
REMARK INTRA:                  -0.245
REMARK UNBOUND:                -0.265
REMARK SMILES O=c1cc(-c2ccccc2)oc2ccccc12
REMARK SMILES IDX 4 1 3 2 2 3 1 4 17 5 16 6 15 7 14 8 13 9 12 10 11 11 5 12
REMARK SMILES IDX 8 13 7 14 9 15 6 16 10 17
REMARK H PARENT
REMARK Flexibility Score: inf
ROOT
ATOM      1  C   UNL     1      14.020 -32.665 -19.991  1.00  0.00     0.138 A 
ATOM      2  C   UNL     1      14.100 -31.257 -20.018  1.00  0.00     0.100 A 
ATOM      3  C   UNL     1      15.281 -30.642 -20.437  1.00  0.00     0.193 A 
ATOM      4  O   UNL     1      15.352 -29.384 -20.462  1.00  0.00    -0.289 OA
ATOM      5  C   UNL     1      16.371 -31.434 -20.826  1.00  0.00     0.065 A 
ATOM      6  C   UNL     1      17.590 -30.878 -21.259  1.00  0.00     0.016 A 
ATOM      7  C   UNL     1      18.645 -31.714 -21.636  1.00  0.00     0.001 A 
ATOM      8  C   UNL     1      18.496 -33.103 -21.583  1.00  0.00     0.004 A 
ATOM      9  C   UNL     1      17.289 -33.663 -21.154  1.00  0.00     0.048 A 
ATOM     10  C   UNL     1      16.226 -32.836 -20.775  1.00  0.00     0.138 A 
ATOM     11  O   UNL     1      15.083 -33.379 -20.369  1.00  0.00    -0.456 OA
ENDROOT
BRANCH   1  12
ATOM     12  C   UNL     1      12.795 -33.403 -19.555  1.00  0.00     0.017 A 
ATOM     13  C   UNL     1      10.539 -34.855 -18.678  1.00  0.00     0.000 A 
ATOM     14  C   UNL     1      11.813 -35.215 -18.242  1.00  0.00     0.001 A 
ATOM     15  C   UNL     1      10.380 -33.777 -19.549  1.00  0.00     0.001 A 
ATOM     16  C   UNL     1      12.932 -34.497 -18.674  1.00  0.00     0.012 A 
ATOM     17  C   UNL     1      11.494 -33.053 -19.986  1.00  0.00     0.012 A 
ENDBRANCH   1  12
TORSDOF 1
ENDMDL
MODEL 6
REMARK VINA RESULT:    -6.522      5.232      7.642
REMARK INTER + INTRA:          -7.169
REMARK INTER:                  -6.903
REMARK INTRA:                  -0.266
REMARK UNBOUND:                -0.265
REMARK SMILES O=c1cc(-c2ccccc2)oc2ccccc12
REMARK SMILES IDX 4 1 3 2 2 3 1 4 17 5 16 6 15 7 14 8 13 9 12 10 11 11 5 12
REMARK SMILES IDX 8 13 7 14 9 15 6 16 10 17
REMARK H PARENT
REMARK Flexibility Score: inf
ROOT
ATOM      1  C   UNL     1       8.470 -28.965 -18.592  1.00  0.00     0.138 A 
ATOM      2  C   UNL     1       9.303 -27.991 -19.181  1.00  0.00     0.100 A 
ATOM      3  C   UNL     1       9.462 -26.752 -18.557  1.00  0.00     0.193 A 
ATOM      4  O   UNL     1      10.207 -25.882 -19.084  1.00  0.00    -0.289 OA
ATOM      5  C   UNL     1       8.791 -26.494 -17.354  1.00  0.00     0.065 A 
ATOM      6  C   UNL     1       8.908 -25.267 -16.674  1.00  0.00     0.016 A 
ATOM      7  C   UNL     1       8.217 -25.063 -15.476  1.00  0.00     0.001 A 
ATOM      8  C   UNL     1       7.407 -26.073 -14.949  1.00  0.00     0.004 A 
ATOM      9  C   UNL     1       7.285 -27.295 -15.618  1.00  0.00     0.048 A 
ATOM     10  C   UNL     1       7.973 -27.511 -16.818  1.00  0.00     0.138 A 
ATOM     11  O   UNL     1       7.851 -28.676 -17.446  1.00  0.00    -0.456 OA
ENDROOT
BRANCH   1  12
ATOM     12  C   UNL     1       8.244 -30.316 -19.193  1.00  0.00     0.017 A 
ATOM     13  C   UNL     1       7.875 -32.839 -20.403  1.00  0.00     0.000 A 
ATOM     14  C   UNL     1       8.670 -31.877 -21.023  1.00  0.00     0.001 A 
ATOM     15  C   UNL     1       7.262 -32.553 -19.184  1.00  0.00     0.001 A 
ATOM     16  C   UNL     1       8.855 -30.626 -20.426  1.00  0.00     0.012 A 
ATOM     17  C   UNL     1       7.441 -31.305 -18.579  1.00  0.00     0.012 A 
ENDBRANCH   1  12
TORSDOF 1
ENDMDL
MODEL 7
REMARK VINA RESULT:    -6.521      3.367      5.955
REMARK INTER + INTRA:          -7.168
REMARK INTER:                  -6.938
REMARK INTRA:                  -0.230
REMARK UNBOUND:                -0.265
REMARK SMILES O=c1cc(-c2ccccc2)oc2ccccc12
REMARK SMILES IDX 4 1 3 2 2 3 1 4 17 5 16 6 15 7 14 8 13 9 12 10 11 11 5 12
REMARK SMILES IDX 8 13 7 14 9 15 6 16 10 17
REMARK H PARENT
REMARK Flexibility Score: inf
ROOT
ATOM      1  C   UNL     1      10.305 -33.535 -16.243  1.00  0.00     0.138 A 
ATOM      2  C   UNL     1      11.293 -34.107 -17.072  1.00  0.00     0.100 A 
ATOM      3  C   UNL     1      11.181 -33.986 -18.458  1.00  0.00     0.193 A 
ATOM      4  O   UNL     1      12.065 -34.497 -19.199  1.00  0.00    -0.289 OA
ATOM      5  C   UNL     1      10.090 -33.299 -19.006  1.00  0.00     0.065 A 
ATOM      6  C   UNL     1       9.918 -33.142 -20.395  1.00  0.00     0.016 A 
ATOM      7  C   UNL     1       8.810 -32.447 -20.888  1.00  0.00     0.001 A 
ATOM      8  C   UNL     1       7.868 -31.906 -20.007  1.00  0.00     0.004 A 
ATOM      9  C   UNL     1       8.031 -32.058 -18.627  1.00  0.00     0.048 A 
ATOM     10  C   UNL     1       9.137 -32.752 -18.121  1.00  0.00     0.138 A 
ATOM     11  O   UNL     1       9.283 -32.890 -16.808  1.00  0.00    -0.456 OA
ENDROOT
BRANCH   1  12
ATOM     12  C   UNL     1      10.347 -33.618 -14.750  1.00  0.00     0.017 A 
ATOM     13  C   UNL     1      10.417 -33.871 -11.940  1.00  0.00     0.000 A 
ATOM     14  C   UNL     1      10.280 -35.004 -12.739  1.00  0.00     0.001 A 
ATOM     15  C   UNL     1      10.519 -32.612 -12.530  1.00  0.00     0.001 A 
ATOM     16  C   UNL     1      10.245 -34.882 -14.131  1.00  0.00     0.012 A 
ATOM     17  C   UNL     1      10.485 -32.480 -13.922  1.00  0.00     0.012 A 
ENDBRANCH   1  12
TORSDOF 1
ENDMDL
MODEL 8
REMARK VINA RESULT:    -6.460      4.749      6.907
REMARK INTER + INTRA:          -7.103
REMARK INTER:                  -6.864
REMARK INTRA:                  -0.239
REMARK UNBOUND:                -0.265
REMARK SMILES O=c1cc(-c2ccccc2)oc2ccccc12
REMARK SMILES IDX 4 1 3 2 2 3 1 4 17 5 16 6 15 7 14 8 13 9 12 10 11 11 5 12
REMARK SMILES IDX 8 13 7 14 9 15 6 16 10 17
REMARK H PARENT
REMARK Flexibility Score: inf
ROOT
ATOM      1  C   UNL     1       8.345 -28.895 -17.138  1.00  0.00     0.138 A 
ATOM      2  C   UNL     1       8.802 -29.974 -16.353  1.00  0.00     0.100 A 
ATOM      3  C   UNL     1       8.871 -31.251 -16.913  1.00  0.00     0.193 A 
ATOM      4  O   UNL     1       9.280 -32.216 -16.211  1.00  0.00    -0.289 OA
ATOM      5  C   UNL     1       8.484 -31.443 -18.246  1.00  0.00     0.065 A 
ATOM      6  C   UNL     1       8.528 -32.704 -18.871  1.00  0.00     0.016 A 
ATOM      7  C   UNL     1       8.131 -32.838 -20.204  1.00  0.00     0.001 A 
ATOM      8  C   UNL     1       7.687 -31.724 -20.922  1.00  0.00     0.004 A 
ATOM      9  C   UNL     1       7.640 -30.468 -20.310  1.00  0.00     0.048 A 
ATOM     10  C   UNL     1       8.035 -30.321 -18.975  1.00  0.00     0.138 A 
ATOM     11  O   UNL     1       7.987 -29.123 -18.403  1.00  0.00    -0.456 OA
ENDROOT
BRANCH   1  12
ATOM     12  C   UNL     1       8.240 -27.496 -16.618  1.00  0.00     0.017 A 
ATOM     13  C   UNL     1       8.097 -24.827 -15.712  1.00  0.00     0.000 A 
ATOM     14  C   UNL     1       8.800 -25.132 -16.876  1.00  0.00     0.001 A 
ATOM     15  C   UNL     1       7.466 -25.843 -14.995  1.00  0.00     0.001 A 
ATOM     16  C   UNL     1       8.872 -26.453 -17.328  1.00  0.00     0.012 A 
ATOM     17  C   UNL     1       7.532 -27.167 -15.438  1.00  0.00     0.012 A 
ENDBRANCH   1  12
TORSDOF 1
ENDMDL
MODEL 9
REMARK VINA RESULT:    -6.399      9.387     11.564
REMARK INTER + INTRA:          -7.038
REMARK INTER:                  -6.817
REMARK INTRA:                  -0.221
REMARK UNBOUND:                -0.265
REMARK SMILES O=c1cc(-c2ccccc2)oc2ccccc12
REMARK SMILES IDX 4 1 3 2 2 3 1 4 17 5 16 6 15 7 14 8 13 9 12 10 11 11 5 12
REMARK SMILES IDX 8 13 7 14 9 15 6 16 10 17
REMARK H PARENT
REMARK Flexibility Score: inf
ROOT
ATOM      1  C   UNL     1      13.772 -35.707  -9.685  1.00  0.00     0.138 A 
ATOM      2  C   UNL     1      13.741 -37.114  -9.585  1.00  0.00     0.100 A 
ATOM      3  C   UNL     1      13.983 -37.722  -8.352  1.00  0.00     0.193 A 
ATOM      4  O   UNL     1      13.954 -38.979  -8.263  1.00  0.00    -0.289 OA
ATOM      5  C   UNL     1      14.255 -36.925  -7.231  1.00  0.00     0.065 A 
ATOM      6  C   UNL     1      14.508 -37.475  -5.960  1.00  0.00     0.016 A 
ATOM      7  C   UNL     1      14.773 -36.634  -4.875  1.00  0.00     0.001 A 
ATOM      8  C   UNL     1      14.789 -35.246  -5.047  1.00  0.00     0.004 A 
ATOM      9  C   UNL     1      14.539 -34.693  -6.306  1.00  0.00     0.048 A 
ATOM     10  C   UNL     1      14.272 -35.525  -7.400  1.00  0.00     0.138 A 
ATOM     11  O   UNL     1      14.035 -34.988  -8.592  1.00  0.00    -0.456 OA
ENDROOT
BRANCH   1  12
ATOM     12  C   UNL     1      13.524 -34.975 -10.966  1.00  0.00     0.017 A 
ATOM     13  C   UNL     1      13.149 -33.612 -13.409  1.00  0.00     0.000 A 
ATOM     14  C   UNL     1      14.393 -34.159 -13.099  1.00  0.00     0.001 A 
ATOM     15  C   UNL     1      12.090 -33.738 -12.510  1.00  0.00     0.001 A 
ATOM     16  C   UNL     1      14.582 -34.835 -11.890  1.00  0.00     0.012 A 
ATOM     17  C   UNL     1      12.269 -34.414 -11.299  1.00  0.00     0.012 A 
ENDBRANCH   1  12
TORSDOF 1
ENDMDL
