MODEL 1
REMARK VINA RESULT:    -6.286      0.000      0.000
REMARK INTER + INTRA:         -21.592
REMARK INTER:                 -16.574
REMARK INTRA:                  -5.018
REMARK UNBOUND:                -5.018
REMARK SMILES CCCCCCCCCCCCCCCCCCCCCCCCCCCCCC(=O)[O-]
REMARK SMILES IDX 16 1 17 2 18 3 19 4 20 5 21 6 22 7 23 8 24 9 25 10 26 11
REMARK SMILES IDX 27 12 28 13 29 14 30 15 31 16 32 17 15 18 14 19 13 20 12 21
REMARK SMILES IDX 11 22 10 23 9 24 8 25 7 26 6 27 5 28 4 29 3 30 2 31 1 32
REMARK H PARENT
REMARK Flexibility Score: inf
ROOT
ATOM      1  C   UNL     1     101.787 103.200 230.601  1.00  0.00     0.000 C 
ENDROOT
BRANCH   1   2
ATOM      2  C   UNL     1     100.734 103.256 229.473  1.00  0.00     0.000 C 
BRANCH   2   3
ATOM      3  C   UNL     1     101.233 103.822 228.123  1.00  0.00     0.000 C 
BRANCH   3   4
ATOM      4  C   UNL     1     102.146 105.057 228.253  1.00  0.00     0.000 C 
BRANCH   4   5
ATOM      5  C   UNL     1     102.966 105.343 226.975  1.00  0.00     0.000 C 
BRANCH   5   6
ATOM      6  C   UNL     1     104.477 105.431 227.242  1.00  0.00     0.000 C 
BRANCH   6   7
ATOM      7  C   UNL     1     104.917 104.578 228.442  1.00  0.00     0.000 C 
BRANCH   7   8
ATOM      8  C   UNL     1     106.109 103.688 228.061  1.00  0.00     0.000 C 
BRANCH   8   9
ATOM      9  C   UNL     1     106.596 103.915 226.620  1.00  0.00     0.000 C 
BRANCH   9  10
ATOM     10  C   UNL     1     108.129 103.933 226.442  1.00  0.00     0.000 C 
BRANCH  10  11
ATOM     11  C   UNL     1     108.943 103.513 227.683  1.00  0.00     0.000 C 
BRANCH  11  12
ATOM     12  C   UNL     1     110.453 103.340 227.440  1.00  0.00     0.000 C 
BRANCH  12  13
ATOM     13  C   UNL     1     111.191 102.760 228.659  1.00  0.00     0.006 C 
BRANCH  13  14
ATOM     14  C   UNL     1     110.603 103.263 229.985  1.00  0.00     0.053 C 
BRANCH  14  15
ATOM     15  C   UNL     1     111.550 104.170 230.707  1.00  0.00     0.041 C 
ATOM     16  O   UNL     1     112.496 103.686 231.385  1.00  0.00    -0.550 OA
ATOM     17  O   UNL     1     111.386 105.548 230.640  1.00  0.00    -0.550 OA
ENDBRANCH  14  15
ENDBRANCH  13  14
ENDBRANCH  12  13
ENDBRANCH  11  12
ENDBRANCH  10  11
ENDBRANCH   9  10
ENDBRANCH   8   9
ENDBRANCH   7   8
ENDBRANCH   6   7
ENDBRANCH   5   6
ENDBRANCH   4   5
ENDBRANCH   3   4
ENDBRANCH   2   3
ENDBRANCH   1   2
BRANCH   1  18
ATOM     18  C   UNL     1     102.895 102.153 230.391  1.00  0.00     0.000 C 
BRANCH  18  19
ATOM     19  C   UNL     1     104.093 102.360 231.341  1.00  0.00     0.000 C 
BRANCH  19  20
ATOM     20  C   UNL     1     105.240 101.370 231.071  1.00  0.00     0.000 C 
BRANCH  20  21
ATOM     21  C   UNL     1     106.644 101.999 231.175  1.00  0.00     0.000 C 
BRANCH  21  22
ATOM     22  C   UNL     1     106.725 103.077 232.268  1.00  0.00     0.000 C 
BRANCH  22  23
ATOM     23  C   UNL     1     106.907 104.476 231.658  1.00  0.00     0.000 C 
BRANCH  23  24
ATOM     24  C   UNL     1     105.719 105.414 231.970  1.00  0.00    -0.000 C 
BRANCH  24  25
ATOM     25  C   UNL     1     105.585 105.779 233.462  1.00  0.00    -0.000 C 
BRANCH  25  26
ATOM     26  C   UNL     1     104.170 106.187 233.909  1.00  0.00    -0.000 C 
BRANCH  26  27
ATOM     27  C   UNL     1     103.015 105.505 233.144  1.00  0.00    -0.000 C 
BRANCH  27  28
ATOM     28  C   UNL     1     101.967 106.468 232.558  1.00  0.00    -0.000 C 
BRANCH  28  29
ATOM     29  C   UNL     1     102.200 106.769 231.066  1.00  0.00    -0.000 C 
BRANCH  29  30
ATOM     30  C   UNL     1     102.926 108.107 230.843  1.00  0.00    -0.000 C 
BRANCH  30  31
ATOM     31  C   UNL     1     104.072 107.994 229.828  1.00  0.00    -0.003 C 
ATOM     32  C   UNL     1     105.384 108.495 230.423  1.00  0.00     0.004 C 
ENDBRANCH  30  31
ENDBRANCH  29  30
ENDBRANCH  28  29
ENDBRANCH  27  28
ENDBRANCH  26  27
ENDBRANCH  25  26
ENDBRANCH  24  25
ENDBRANCH  23  24
ENDBRANCH  22  23
ENDBRANCH  21  22
ENDBRANCH  20  21
ENDBRANCH  19  20
ENDBRANCH  18  19
ENDBRANCH   1  18
TORSDOF 28
ENDMDL
MODEL 2
REMARK VINA RESULT:    -6.130      0.804      3.648
REMARK INTER + INTRA:         -21.182
REMARK INTER:                 -16.546
REMARK INTRA:                  -4.636
REMARK UNBOUND:                -5.018
REMARK SMILES CCCCCCCCCCCCCCCCCCCCCCCCCCCCCC(=O)[O-]
REMARK SMILES IDX 16 1 17 2 18 3 19 4 20 5 21 6 22 7 23 8 24 9 25 10 26 11
REMARK SMILES IDX 27 12 28 13 29 14 30 15 31 16 32 17 15 18 14 19 13 20 12 21
REMARK SMILES IDX 11 22 10 23 9 24 8 25 7 26 6 27 5 28 4 29 3 30 2 31 1 32
REMARK H PARENT
REMARK Flexibility Score: inf
ROOT
ATOM      1  C   UNL     1     101.372 106.965 232.183  1.00  0.00     0.000 C 
ENDROOT
BRANCH   1   2
ATOM      2  C   UNL     1     102.406 106.765 231.054  1.00  0.00     0.000 C 
BRANCH   2   3
ATOM      3  C   UNL     1     103.050 108.059 230.502  1.00  0.00     0.000 C 
BRANCH   3   4
ATOM      4  C   UNL     1     104.582 108.118 230.655  1.00  0.00     0.000 C 
BRANCH   4   5
ATOM      5  C   UNL     1     105.334 107.882 229.325  1.00  0.00     0.000 C 
BRANCH   5   6
ATOM      6  C   UNL     1     104.643 106.848 228.423  1.00  0.00     0.000 C 
BRANCH   6   7
ATOM      7  C   UNL     1     105.359 105.488 228.424  1.00  0.00     0.000 C 
BRANCH   7   8
ATOM      8  C   UNL     1     105.161 104.774 227.080  1.00  0.00     0.000 C 
BRANCH   8   9
ATOM      9  C   UNL     1     106.135 103.602 226.869  1.00  0.00     0.000 C 
BRANCH   9  10
ATOM     10  C   UNL     1     107.616 104.001 226.705  1.00  0.00     0.000 C 
BRANCH  10  11
ATOM     11  C   UNL     1     108.537 103.626 227.884  1.00  0.00     0.000 C 
BRANCH  11  12
ATOM     12  C   UNL     1     109.987 103.292 227.493  1.00  0.00     0.000 C 
BRANCH  12  13
ATOM     13  C   UNL     1     110.854 102.895 228.701  1.00  0.00     0.006 C 
BRANCH  13  14
ATOM     14  C   UNL     1     111.685 104.073 229.231  1.00  0.00     0.053 C 
BRANCH  14  15
ATOM     15  C   UNL     1     111.576 104.208 230.718  1.00  0.00     0.041 C 
ATOM     16  O   UNL     1     112.417 103.642 231.467  1.00  0.00    -0.550 OA
ATOM     17  O   UNL     1     110.545 104.950 231.279  1.00  0.00    -0.550 OA
ENDBRANCH  14  15
ENDBRANCH  13  14
ENDBRANCH  12  13
ENDBRANCH  11  12
ENDBRANCH  10  11
ENDBRANCH   9  10
ENDBRANCH   8   9
ENDBRANCH   7   8
ENDBRANCH   6   7
ENDBRANCH   5   6
ENDBRANCH   4   5
ENDBRANCH   3   4
ENDBRANCH   2   3
ENDBRANCH   1   2
BRANCH   1  18
ATOM     18  C   UNL     1     101.773 106.348 233.534  1.00  0.00     0.000 C 
BRANCH  18  19
ATOM     19  C   UNL     1     103.045 105.481 233.435  1.00  0.00     0.000 C 
BRANCH  19  20
ATOM     20  C   UNL     1     104.262 106.136 234.114  1.00  0.00     0.000 C 
BRANCH  20  21
ATOM     21  C   UNL     1     105.598 105.866 233.393  1.00  0.00     0.000 C 
BRANCH  21  22
ATOM     22  C   UNL     1     105.419 105.030 232.115  1.00  0.00     0.000 C 
BRANCH  22  23
ATOM     23  C   UNL     1     106.708 104.273 231.759  1.00  0.00     0.000 C 
BRANCH  23  24
ATOM     24  C   UNL     1     106.689 102.810 232.254  1.00  0.00    -0.000 C 
BRANCH  24  25
ATOM     25  C   UNL     1     106.593 101.767 231.123  1.00  0.00    -0.000 C 
BRANCH  25  26
ATOM     26  C   UNL     1     105.188 101.184 230.890  1.00  0.00    -0.000 C 
BRANCH  26  27
ATOM     27  C   UNL     1     104.124 102.199 230.422  1.00  0.00    -0.000 C 
BRANCH  27  28
ATOM     28  C   UNL     1     102.767 102.096 231.142  1.00  0.00    -0.000 C 
BRANCH  28  29
ATOM     29  C   UNL     1     101.627 102.792 230.375  1.00  0.00    -0.000 C 
BRANCH  29  30
ATOM     30  C   UNL     1     102.149 103.777 229.315  1.00  0.00    -0.000 C 
BRANCH  30  31
ATOM     31  C   UNL     1     101.237 103.854 228.083  1.00  0.00    -0.003 C 
ATOM     32  C   UNL     1     101.238 105.258 227.486  1.00  0.00     0.004 C 
ENDBRANCH  30  31
ENDBRANCH  29  30
ENDBRANCH  28  29
ENDBRANCH  27  28
ENDBRANCH  26  27
ENDBRANCH  25  26
ENDBRANCH  24  25
ENDBRANCH  23  24
ENDBRANCH  22  23
ENDBRANCH  21  22
ENDBRANCH  20  21
ENDBRANCH  19  20
ENDBRANCH  18  19
ENDBRANCH   1  18
TORSDOF 28
ENDMDL
MODEL 3
REMARK VINA RESULT:    -6.102      1.287      4.027
REMARK INTER + INTRA:         -21.107
REMARK INTER:                 -16.594
REMARK INTRA:                  -4.514
REMARK UNBOUND:                -5.018
REMARK SMILES CCCCCCCCCCCCCCCCCCCCCCCCCCCCCC(=O)[O-]
REMARK SMILES IDX 16 1 17 2 18 3 19 4 20 5 21 6 22 7 23 8 24 9 25 10 26 11
REMARK SMILES IDX 27 12 28 13 29 14 30 15 31 16 32 17 15 18 14 19 13 20 12 21
REMARK SMILES IDX 11 22 10 23 9 24 8 25 7 26 6 27 5 28 4 29 3 30 2 31 1 32
REMARK H PARENT
REMARK Flexibility Score: inf
ROOT
ATOM      1  C   UNL     1     101.217 105.500 228.825  1.00  0.00     0.000 C 
ENDROOT
BRANCH   1   2
ATOM      2  C   UNL     1     101.545 103.999 228.675  1.00  0.00     0.000 C 
BRANCH   2   3
ATOM      3  C   UNL     1     100.870 103.063 229.705  1.00  0.00     0.000 C 
BRANCH   3   4
ATOM      4  C   UNL     1     101.844 102.116 230.433  1.00  0.00     0.000 C 
BRANCH   4   5
ATOM      5  C   UNL     1     102.958 102.863 231.200  1.00  0.00     0.000 C 
BRANCH   5   6
ATOM      6  C   UNL     1     104.321 102.160 231.109  1.00  0.00     0.000 C 
BRANCH   6   7
ATOM      7  C   UNL     1     105.499 103.116 231.351  1.00  0.00     0.000 C 
BRANCH   7   8
ATOM      8  C   UNL     1     106.833 102.405 231.085  1.00  0.00     0.000 C 
BRANCH   8   9
ATOM      9  C   UNL     1     107.795 103.230 230.214  1.00  0.00     0.000 C 
BRANCH   9  10
ATOM     10  C   UNL     1     109.024 102.461 229.686  1.00  0.00     0.000 C 
BRANCH  10  11
ATOM     11  C   UNL     1     109.818 103.169 228.569  1.00  0.00     0.000 C 
BRANCH  11  12
ATOM     12  C   UNL     1     111.340 102.943 228.612  1.00  0.00     0.000 C 
BRANCH  12  13
ATOM     13  C   UNL     1     112.095 104.098 229.293  1.00  0.00     0.006 C 
BRANCH  13  14
ATOM     14  C   UNL     1     112.316 103.842 230.791  1.00  0.00     0.053 C 
BRANCH  14  15
ATOM     15  C   UNL     1     111.691 104.908 231.637  1.00  0.00     0.041 C 
ATOM     16  O   UNL     1     112.419 105.704 232.290  1.00  0.00    -0.550 OA
ATOM     17  O   UNL     1     110.308 105.019 231.714  1.00  0.00    -0.550 OA
ENDBRANCH  14  15
ENDBRANCH  13  14
ENDBRANCH  12  13
ENDBRANCH  11  12
ENDBRANCH  10  11
ENDBRANCH   9  10
ENDBRANCH   8   9
ENDBRANCH   7   8
ENDBRANCH   6   7
ENDBRANCH   5   6
ENDBRANCH   4   5
ENDBRANCH   3   4
ENDBRANCH   2   3
ENDBRANCH   1   2
BRANCH   1  18
ATOM     18  C   UNL     1     100.374 105.851 230.063  1.00  0.00     0.000 C 
BRANCH  18  19
ATOM     19  C   UNL     1     101.241 106.196 231.292  1.00  0.00     0.000 C 
BRANCH  19  20
ATOM     20  C   UNL     1     100.419 106.280 232.591  1.00  0.00     0.000 C 
BRANCH  20  21
ATOM     21  C   UNL     1     101.279 106.418 233.863  1.00  0.00     0.000 C 
BRANCH  21  22
ATOM     22  C   UNL     1     102.499 105.484 233.853  1.00  0.00     0.000 C 
BRANCH  22  23
ATOM     23  C   UNL     1     103.750 106.194 234.394  1.00  0.00     0.000 C 
BRANCH  23  24
ATOM     24  C   UNL     1     104.960 106.064 233.442  1.00  0.00    -0.000 C 
BRANCH  24  25
ATOM     25  C   UNL     1     104.943 107.063 232.268  1.00  0.00    -0.000 C 
BRANCH  25  26
ATOM     26  C   UNL     1     104.381 106.508 230.947  1.00  0.00    -0.000 C 
BRANCH  26  27
ATOM     27  C   UNL     1     104.287 107.527 229.791  1.00  0.00    -0.000 C 
BRANCH  27  28
ATOM     28  C   UNL     1     104.824 107.024 228.438  1.00  0.00    -0.000 C 
BRANCH  28  29
ATOM     29  C   UNL     1     105.332 105.572 228.498  1.00  0.00    -0.000 C 
BRANCH  29  30
ATOM     30  C   UNL     1     105.061 104.801 227.195  1.00  0.00    -0.000 C 
BRANCH  30  31
ATOM     31  C   UNL     1     106.004 103.603 227.012  1.00  0.00    -0.003 C 
ATOM     32  C   UNL     1     107.254 104.002 226.233  1.00  0.00     0.004 C 
ENDBRANCH  30  31
ENDBRANCH  29  30
ENDBRANCH  28  29
ENDBRANCH  27  28
ENDBRANCH  26  27
ENDBRANCH  25  26
ENDBRANCH  24  25
ENDBRANCH  23  24
ENDBRANCH  22  23
ENDBRANCH  21  22
ENDBRANCH  20  21
ENDBRANCH  19  20
ENDBRANCH  18  19
ENDBRANCH   1  18
TORSDOF 28
ENDMDL
MODEL 4
REMARK VINA RESULT:    -6.098      1.268      4.886
REMARK INTER + INTRA:         -21.096
REMARK INTER:                 -16.205
REMARK INTRA:                  -4.891
REMARK UNBOUND:                -5.018
REMARK SMILES CCCCCCCCCCCCCCCCCCCCCCCCCCCCCC(=O)[O-]
REMARK SMILES IDX 16 1 17 2 18 3 19 4 20 5 21 6 22 7 23 8 24 9 25 10 26 11
REMARK SMILES IDX 27 12 28 13 29 14 30 15 31 16 32 17 15 18 14 19 13 20 12 21
REMARK SMILES IDX 11 22 10 23 9 24 8 25 7 26 6 27 5 28 4 29 3 30 2 31 1 32
REMARK H PARENT
REMARK Flexibility Score: inf
ROOT
ATOM      1  C   UNL     1     101.481 106.274 233.462  1.00  0.00     0.000 C 
ENDROOT
BRANCH   1   2
ATOM      2  C   UNL     1     102.765 105.444 233.684  1.00  0.00     0.000 C 
BRANCH   2   3
ATOM      3  C   UNL     1     103.904 106.167 234.441  1.00  0.00     0.000 C 
BRANCH   3   4
ATOM      4  C   UNL     1     105.268 106.119 233.726  1.00  0.00     0.000 C 
BRANCH   4   5
ATOM      5  C   UNL     1     105.353 105.008 232.654  1.00  0.00     0.000 C 
BRANCH   5   6
ATOM      6  C   UNL     1     106.482 104.001 232.926  1.00  0.00     0.000 C 
BRANCH   6   7
ATOM      7  C   UNL     1     107.791 104.372 232.212  1.00  0.00     0.000 C 
BRANCH   7   8
ATOM      8  C   UNL     1     107.524 104.712 230.740  1.00  0.00     0.000 C 
BRANCH   8   9
ATOM      9  C   UNL     1     107.463 103.470 229.834  1.00  0.00     0.000 C 
BRANCH   9  10
ATOM     10  C   UNL     1     108.215 102.233 230.368  1.00  0.00     0.000 C 
BRANCH  10  11
ATOM     11  C   UNL     1     109.582 101.954 229.710  1.00  0.00     0.000 C 
BRANCH  11  12
ATOM     12  C   UNL     1     110.145 103.114 228.871  1.00  0.00     0.000 C 
BRANCH  12  13
ATOM     13  C   UNL     1     111.664 103.293 229.044  1.00  0.00     0.006 C 
BRANCH  13  14
ATOM     14  C   UNL     1     112.015 104.617 229.737  1.00  0.00     0.053 C 
BRANCH  14  15
ATOM     15  C   UNL     1     111.896 104.517 231.226  1.00  0.00     0.041 C 
ATOM     16  O   UNL     1     110.976 105.131 231.830  1.00  0.00    -0.550 OA
ATOM     17  O   UNL     1     112.805 103.753 231.949  1.00  0.00    -0.550 OA
ENDBRANCH  14  15
ENDBRANCH  13  14
ENDBRANCH  12  13
ENDBRANCH  11  12
ENDBRANCH  10  11
ENDBRANCH   9  10
ENDBRANCH   8   9
ENDBRANCH   7   8
ENDBRANCH   6   7
ENDBRANCH   5   6
ENDBRANCH   4   5
ENDBRANCH   3   4
ENDBRANCH   2   3
ENDBRANCH   1   2
BRANCH   1  18
ATOM     18  C   UNL     1     101.320 106.835 232.038  1.00  0.00     0.000 C 
BRANCH  18  19
ATOM     19  C   UNL     1     102.559 106.574 231.156  1.00  0.00     0.000 C 
BRANCH  19  20
ATOM     20  C   UNL     1     103.094 107.856 230.493  1.00  0.00     0.000 C 
BRANCH  20  21
ATOM     21  C   UNL     1     104.520 108.238 230.936  1.00  0.00     0.000 C 
BRANCH  21  22
ATOM     22  C   UNL     1     105.601 107.640 230.021  1.00  0.00     0.000 C 
BRANCH  22  23
ATOM     23  C   UNL     1     105.011 107.210 228.668  1.00  0.00     0.000 C 
BRANCH  23  24
ATOM     24  C   UNL     1     104.766 105.687 228.588  1.00  0.00    -0.000 C 
BRANCH  24  25
ATOM     25  C   UNL     1     104.375 105.189 227.183  1.00  0.00    -0.000 C 
BRANCH  25  26
ATOM     26  C   UNL     1     102.869 105.237 226.869  1.00  0.00    -0.000 C 
BRANCH  26  27
ATOM     27  C   UNL     1     101.939 105.199 228.100  1.00  0.00    -0.000 C 
BRANCH  27  28
ATOM     28  C   UNL     1     101.215 103.859 228.325  1.00  0.00    -0.000 C 
BRANCH  28  29
ATOM     29  C   UNL     1     100.808 103.638 229.794  1.00  0.00    -0.000 C 
BRANCH  29  30
ATOM     30  C   UNL     1     101.451 102.378 230.398  1.00  0.00    -0.000 C 
BRANCH  30  31
ATOM     31  C   UNL     1     102.741 102.687 231.170  1.00  0.00    -0.003 C 
ATOM     32  C   UNL     1     103.972 102.443 230.302  1.00  0.00     0.004 C 
ENDBRANCH  30  31
ENDBRANCH  29  30
ENDBRANCH  28  29
ENDBRANCH  27  28
ENDBRANCH  26  27
ENDBRANCH  25  26
ENDBRANCH  24  25
ENDBRANCH  23  24
ENDBRANCH  22  23
ENDBRANCH  21  22
ENDBRANCH  20  21
ENDBRANCH  19  20
ENDBRANCH  18  19
ENDBRANCH   1  18
TORSDOF 28
ENDMDL
MODEL 5
REMARK VINA RESULT:    -6.085      1.454      3.868
REMARK INTER + INTRA:         -21.064
REMARK INTER:                 -16.153
REMARK INTRA:                  -4.912
REMARK UNBOUND:                -5.018
REMARK SMILES CCCCCCCCCCCCCCCCCCCCCCCCCCCCCC(=O)[O-]
REMARK SMILES IDX 16 1 17 2 18 3 19 4 20 5 21 6 22 7 23 8 24 9 25 10 26 11
REMARK SMILES IDX 27 12 28 13 29 14 30 15 31 16 32 17 15 18 14 19 13 20 12 21
REMARK SMILES IDX 11 22 10 23 9 24 8 25 7 26 6 27 5 28 4 29 3 30 2 31 1 32
REMARK H PARENT
REMARK Flexibility Score: inf
ROOT
ATOM      1  C   UNL     1     102.010 105.368 226.995  1.00  0.00     0.000 C 
ENDROOT
BRANCH   1   2
ATOM      2  C   UNL     1     101.664 104.999 228.454  1.00  0.00     0.000 C 
BRANCH   2   3
ATOM      3  C   UNL     1     100.963 103.634 228.648  1.00  0.00     0.000 C 
BRANCH   3   4
ATOM      4  C   UNL     1     101.610 102.737 229.722  1.00  0.00     0.000 C 
BRANCH   4   5
ATOM      5  C   UNL     1     102.468 103.527 230.737  1.00  0.00     0.000 C 
BRANCH   5   6
ATOM      6  C   UNL     1     103.563 102.669 231.389  1.00  0.00     0.000 C 
BRANCH   6   7
ATOM      7  C   UNL     1     104.537 102.071 230.362  1.00  0.00     0.000 C 
BRANCH   7   8
ATOM      8  C   UNL     1     105.406 100.986 231.012  1.00  0.00     0.000 C 
BRANCH   8   9
ATOM      9  C   UNL     1     106.814 101.483 231.386  1.00  0.00     0.000 C 
BRANCH   9  10
ATOM     10  C   UNL     1     106.891 102.960 231.827  1.00  0.00     0.000 C 
BRANCH  10  11
ATOM     11  C   UNL     1     107.649 103.898 230.864  1.00  0.00     0.000 C 
BRANCH  11  12
ATOM     12  C   UNL     1     108.173 103.226 229.583  1.00  0.00     0.000 C 
BRANCH  12  13
ATOM     13  C   UNL     1     109.497 102.473 229.804  1.00  0.00     0.006 C 
BRANCH  13  14
ATOM     14  C   UNL     1     110.649 103.076 228.988  1.00  0.00     0.053 C 
BRANCH  14  15
ATOM     15  C   UNL     1     111.552 103.918 229.836  1.00  0.00     0.041 C 
ATOM     16  O   UNL     1     111.198 104.251 230.999  1.00  0.00    -0.550 OA
ATOM     17  O   UNL     1     112.780 104.341 229.343  1.00  0.00    -0.550 OA
ENDBRANCH  14  15
ENDBRANCH  13  14
ENDBRANCH  12  13
ENDBRANCH  11  12
ENDBRANCH  10  11
ENDBRANCH   9  10
ENDBRANCH   8   9
ENDBRANCH   7   8
ENDBRANCH   6   7
ENDBRANCH   5   6
ENDBRANCH   4   5
ENDBRANCH   3   4
ENDBRANCH   2   3
ENDBRANCH   1   2
BRANCH   1  18
ATOM     18  C   UNL     1     103.514 105.545 226.719  1.00  0.00     0.000 C 
BRANCH  18  19
ATOM     19  C   UNL     1     104.395 104.804 227.747  1.00  0.00     0.000 C 
BRANCH  19  20
ATOM     20  C   UNL     1     105.375 105.745 228.472  1.00  0.00     0.000 C 
BRANCH  20  21
ATOM     21  C   UNL     1     104.832 107.173 228.674  1.00  0.00     0.000 C 
BRANCH  21  22
ATOM     22  C   UNL     1     104.247 107.387 230.079  1.00  0.00     0.000 C 
BRANCH  22  23
ATOM     23  C   UNL     1     104.778 106.340 231.071  1.00  0.00     0.000 C 
BRANCH  23  24
ATOM     24  C   UNL     1     104.945 106.909 232.497  1.00  0.00    -0.000 C 
BRANCH  24  25
ATOM     25  C   UNL     1     104.823 105.851 233.612  1.00  0.00    -0.000 C 
BRANCH  25  26
ATOM     26  C   UNL     1     103.552 105.954 234.473  1.00  0.00    -0.000 C 
BRANCH  26  27
ATOM     27  C   UNL     1     102.221 105.821 233.702  1.00  0.00    -0.000 C 
BRANCH  27  28
ATOM     28  C   UNL     1     101.172 106.900 234.029  1.00  0.00    -0.000 C 
BRANCH  28  29
ATOM     29  C   UNL     1      99.881 106.747 233.204  1.00  0.00    -0.000 C 
BRANCH  29  30
ATOM     30  C   UNL     1     100.067 105.828 231.985  1.00  0.00    -0.000 C 
BRANCH  30  31
ATOM     31  C   UNL     1      98.743 105.517 231.273  1.00  0.00    -0.003 C 
ATOM     32  C   UNL     1      98.478 104.015 231.240  1.00  0.00     0.004 C 
ENDBRANCH  30  31
ENDBRANCH  29  30
ENDBRANCH  28  29
ENDBRANCH  27  28
ENDBRANCH  26  27
ENDBRANCH  25  26
ENDBRANCH  24  25
ENDBRANCH  23  24
ENDBRANCH  22  23
ENDBRANCH  21  22
ENDBRANCH  20  21
ENDBRANCH  19  20
ENDBRANCH  18  19
ENDBRANCH   1  18
TORSDOF 28
ENDMDL
MODEL 6
REMARK VINA RESULT:    -6.050      1.004      4.522
REMARK INTER + INTRA:         -20.972
REMARK INTER:                 -16.099
REMARK INTRA:                  -4.873
REMARK UNBOUND:                -5.018
REMARK SMILES CCCCCCCCCCCCCCCCCCCCCCCCCCCCCC(=O)[O-]
REMARK SMILES IDX 16 1 17 2 18 3 19 4 20 5 21 6 22 7 23 8 24 9 25 10 26 11
REMARK SMILES IDX 27 12 28 13 29 14 30 15 31 16 32 17 15 18 14 19 13 20 12 21
REMARK SMILES IDX 11 22 10 23 9 24 8 25 7 26 6 27 5 28 4 29 3 30 2 31 1 32
REMARK H PARENT
REMARK Flexibility Score: inf
ROOT
ATOM      1  C   UNL     1     105.352 106.425 232.880  1.00  0.00     0.000 C 
ENDROOT
BRANCH   1   2
ATOM      2  C   UNL     1     104.776 106.440 231.448  1.00  0.00     0.000 C 
BRANCH   2   3
ATOM      3  C   UNL     1     104.336 107.826 230.920  1.00  0.00     0.000 C 
BRANCH   3   4
ATOM      4  C   UNL     1     104.996 108.235 229.589  1.00  0.00     0.000 C 
BRANCH   4   5
ATOM      5  C   UNL     1     105.368 107.027 228.699  1.00  0.00     0.000 C 
BRANCH   5   6
ATOM      6  C   UNL     1     104.191 106.529 227.846  1.00  0.00     0.000 C 
BRANCH   6   7
ATOM      7  C   UNL     1     104.469 105.168 227.188  1.00  0.00     0.000 C 
BRANCH   7   8
ATOM      8  C   UNL     1     105.754 104.549 227.756  1.00  0.00     0.000 C 
BRANCH   8   9
ATOM      9  C   UNL     1     106.503 103.671 226.738  1.00  0.00     0.000 C 
BRANCH   9  10
ATOM     10  C   UNL     1     108.003 103.994 226.573  1.00  0.00     0.000 C 
BRANCH  10  11
ATOM     11  C   UNL     1     108.907 103.545 227.739  1.00  0.00     0.000 C 
BRANCH  11  12
ATOM     12  C   UNL     1     110.378 103.297 227.360  1.00  0.00     0.000 C 
BRANCH  12  13
ATOM     13  C   UNL     1     111.281 103.074 228.586  1.00  0.00     0.006 C 
BRANCH  13  14
ATOM     14  C   UNL     1     110.603 103.515 229.892  1.00  0.00     0.053 C 
BRANCH  14  15
ATOM     15  C   UNL     1     111.575 104.148 230.838  1.00  0.00     0.041 C 
ATOM     16  O   UNL     1     112.810 103.926 230.719  1.00  0.00    -0.550 OA
ATOM     17  O   UNL     1     111.120 104.976 231.857  1.00  0.00    -0.550 OA
ENDBRANCH  14  15
ENDBRANCH  13  14
ENDBRANCH  12  13
ENDBRANCH  11  12
ENDBRANCH  10  11
ENDBRANCH   9  10
ENDBRANCH   8   9
ENDBRANCH   7   8
ENDBRANCH   6   7
ENDBRANCH   5   6
ENDBRANCH   4   5
ENDBRANCH   3   4
ENDBRANCH   2   3
ENDBRANCH   1   2
BRANCH   1  18
ATOM     18  C   UNL     1     104.306 106.214 233.989  1.00  0.00     0.000 C 
BRANCH  18  19
ATOM     19  C   UNL     1     103.023 105.532 233.470  1.00  0.00     0.000 C 
BRANCH  19  20
ATOM     20  C   UNL     1     101.743 106.158 234.053  1.00  0.00     0.000 C 
BRANCH  20  21
ATOM     21  C   UNL     1     100.822 106.794 232.993  1.00  0.00     0.000 C 
BRANCH  21  22
ATOM     22  C   UNL     1     100.438 105.807 231.879  1.00  0.00     0.000 C 
BRANCH  22  23
ATOM     23  C   UNL     1     101.054 106.218 230.532  1.00  0.00     0.000 C 
BRANCH  23  24
ATOM     24  C   UNL     1     101.229 105.021 229.572  1.00  0.00    -0.000 C 
BRANCH  24  25
ATOM     25  C   UNL     1     102.388 104.078 229.952  1.00  0.00    -0.000 C 
BRANCH  25  26
ATOM     26  C   UNL     1     101.961 102.735 230.571  1.00  0.00    -0.000 C 
BRANCH  26  27
ATOM     27  C   UNL     1     103.115 101.765 230.901  1.00  0.00    -0.000 C 
BRANCH  27  28
ATOM     28  C   UNL     1     104.470 102.130 230.267  1.00  0.00    -0.000 C 
BRANCH  28  29
ATOM     29  C   UNL     1     105.668 101.542 231.036  1.00  0.00    -0.000 C 
BRANCH  29  30
ATOM     30  C   UNL     1     106.992 102.238 230.681  1.00  0.00    -0.000 C 
BRANCH  30  31
ATOM     31  C   UNL     1     107.181 103.564 231.431  1.00  0.00    -0.003 C 
ATOM     32  C   UNL     1     106.966 103.381 232.930  1.00  0.00     0.004 C 
ENDBRANCH  30  31
ENDBRANCH  29  30
ENDBRANCH  28  29
ENDBRANCH  27  28
ENDBRANCH  26  27
ENDBRANCH  25  26
ENDBRANCH  24  25
ENDBRANCH  23  24
ENDBRANCH  22  23
ENDBRANCH  21  22
ENDBRANCH  20  21
ENDBRANCH  19  20
ENDBRANCH  18  19
ENDBRANCH   1  18
TORSDOF 28
ENDMDL
MODEL 7
REMARK VINA RESULT:    -6.037      1.158      3.514
REMARK INTER + INTRA:         -20.937
REMARK INTER:                 -15.932
REMARK INTRA:                  -5.004
REMARK UNBOUND:                -5.018
REMARK SMILES CCCCCCCCCCCCCCCCCCCCCCCCCCCCCC(=O)[O-]
REMARK SMILES IDX 16 1 17 2 18 3 19 4 20 5 21 6 22 7 23 8 24 9 25 10 26 11
REMARK SMILES IDX 27 12 28 13 29 14 30 15 31 16 32 17 15 18 14 19 13 20 12 21
REMARK SMILES IDX 11 22 10 23 9 24 8 25 7 26 6 27 5 28 4 29 3 30 2 31 1 32
REMARK H PARENT
REMARK Flexibility Score: inf
ROOT
ATOM      1  C   UNL     1     104.814 106.203 232.086  1.00  0.00     0.000 C 
ENDROOT
BRANCH   1   2
ATOM      2  C   UNL     1     104.556 107.707 231.847  1.00  0.00     0.000 C 
BRANCH   2   3
ATOM      3  C   UNL     1     105.448 108.374 230.775  1.00  0.00     0.000 C 
BRANCH   3   4
ATOM      4  C   UNL     1     105.785 107.466 229.577  1.00  0.00     0.000 C 
BRANCH   4   5
ATOM      5  C   UNL     1     104.718 107.515 228.459  1.00  0.00     0.000 C 
BRANCH   5   6
ATOM      6  C   UNL     1     104.084 106.144 228.178  1.00  0.00     0.000 C 
BRANCH   6   7
ATOM      7  C   UNL     1     105.032 104.977 228.495  1.00  0.00     0.000 C 
BRANCH   7   8
ATOM      8  C   UNL     1     105.616 104.391 227.202  1.00  0.00     0.000 C 
BRANCH   8   9
ATOM      9  C   UNL     1     106.924 103.614 227.428  1.00  0.00     0.000 C 
BRANCH   9  10
ATOM     10  C   UNL     1     108.048 103.916 226.414  1.00  0.00     0.000 C 
BRANCH  10  11
ATOM     11  C   UNL     1     109.472 103.545 226.877  1.00  0.00     0.000 C 
BRANCH  11  12
ATOM     12  C   UNL     1     109.598 103.195 228.370  1.00  0.00     0.000 C 
BRANCH  12  13
ATOM     13  C   UNL     1     111.035 102.822 228.776  1.00  0.00     0.006 C 
BRANCH  13  14
ATOM     14  C   UNL     1     111.818 104.030 229.311  1.00  0.00     0.053 C 
BRANCH  14  15
ATOM     15  C   UNL     1     111.654 104.191 230.790  1.00  0.00     0.041 C 
ATOM     16  O   UNL     1     112.481 103.660 231.579  1.00  0.00    -0.550 OA
ATOM     17  O   UNL     1     110.585 104.918 231.300  1.00  0.00    -0.550 OA
ENDBRANCH  14  15
ENDBRANCH  13  14
ENDBRANCH  12  13
ENDBRANCH  11  12
ENDBRANCH  10  11
ENDBRANCH   9  10
ENDBRANCH   8   9
ENDBRANCH   7   8
ENDBRANCH   6   7
ENDBRANCH   5   6
ENDBRANCH   4   5
ENDBRANCH   3   4
ENDBRANCH   2   3
ENDBRANCH   1   2
BRANCH   1  18
ATOM     18  C   UNL     1     105.581 105.882 233.381  1.00  0.00     0.000 C 
BRANCH  18  19
ATOM     19  C   UNL     1     106.792 104.957 233.138  1.00  0.00     0.000 C 
BRANCH  19  20
ATOM     20  C   UNL     1     107.068 104.726 231.641  1.00  0.00     0.000 C 
BRANCH  20  21
ATOM     21  C   UNL     1     107.330 103.251 231.277  1.00  0.00     0.000 C 
BRANCH  21  22
ATOM     22  C   UNL     1     106.242 102.309 231.818  1.00  0.00     0.000 C 
BRANCH  22  23
ATOM     23  C   UNL     1     105.757 101.334 230.734  1.00  0.00     0.000 C 
BRANCH  23  24
ATOM     24  C   UNL     1     104.236 101.438 230.483  1.00  0.00    -0.000 C 
BRANCH  24  25
ATOM     25  C   UNL     1     103.582 102.684 231.111  1.00  0.00    -0.000 C 
BRANCH  25  26
ATOM     26  C   UNL     1     102.096 102.885 230.766  1.00  0.00    -0.000 C 
BRANCH  26  27
ATOM     27  C   UNL     1     101.821 103.703 229.487  1.00  0.00    -0.000 C 
BRANCH  27  28
ATOM     28  C   UNL     1     100.860 104.892 229.670  1.00  0.00    -0.000 C 
BRANCH  28  29
ATOM     29  C   UNL     1      99.767 104.621 230.721  1.00  0.00    -0.000 C 
BRANCH  29  30
ATOM     30  C   UNL     1      99.737 105.690 231.827  1.00  0.00    -0.000 C 
BRANCH  30  31
ATOM     31  C   UNL     1     101.133 106.241 232.151  1.00  0.00    -0.003 C 
ATOM     32  C   UNL     1     101.262 106.566 233.636  1.00  0.00     0.004 C 
ENDBRANCH  30  31
ENDBRANCH  29  30
ENDBRANCH  28  29
ENDBRANCH  27  28
ENDBRANCH  26  27
ENDBRANCH  25  26
ENDBRANCH  24  25
ENDBRANCH  23  24
ENDBRANCH  22  23
ENDBRANCH  21  22
ENDBRANCH  20  21
ENDBRANCH  19  20
ENDBRANCH  18  19
ENDBRANCH   1  18
TORSDOF 28
ENDMDL
MODEL 8
REMARK VINA RESULT:    -6.012      3.621      7.465
REMARK INTER + INTRA:         -20.870
REMARK INTER:                 -16.251
REMARK INTRA:                  -4.619
REMARK UNBOUND:                -5.018
REMARK SMILES CCCCCCCCCCCCCCCCCCCCCCCCCCCCCC(=O)[O-]
REMARK SMILES IDX 16 1 17 2 18 3 19 4 20 5 21 6 22 7 23 8 24 9 25 10 26 11
REMARK SMILES IDX 27 12 28 13 29 14 30 15 31 16 32 17 15 18 14 19 13 20 12 21
REMARK SMILES IDX 11 22 10 23 9 24 8 25 7 26 6 27 5 28 4 29 3 30 2 31 1 32
REMARK H PARENT
REMARK Flexibility Score: inf
ROOT
ATOM      1  C   UNL     1     102.012 104.609 229.017  1.00  0.00     0.000 C 
ENDROOT
BRANCH   1   2
ATOM      2  C   UNL     1     101.858 105.104 227.562  1.00  0.00     0.000 C 
BRANCH   2   3
ATOM      3  C   UNL     1     103.149 105.645 226.903  1.00  0.00     0.000 C 
BRANCH   3   4
ATOM      4  C   UNL     1     104.431 104.894 227.312  1.00  0.00     0.000 C 
BRANCH   4   5
ATOM      5  C   UNL     1     105.301 105.682 228.318  1.00  0.00     0.000 C 
BRANCH   5   6
ATOM      6  C   UNL     1     104.956 107.178 228.362  1.00  0.00     0.000 C 
BRANCH   6   7
ATOM      7  C   UNL     1     104.869 107.724 229.796  1.00  0.00     0.000 C 
BRANCH   7   8
ATOM      8  C   UNL     1     105.742 106.890 230.743  1.00  0.00     0.000 C 
BRANCH   8   9
ATOM      9  C   UNL     1     104.951 106.276 231.911  1.00  0.00     0.000 C 
BRANCH   9  10
ATOM     10  C   UNL     1     103.433 106.554 231.891  1.00  0.00     0.000 C 
BRANCH  10  11
ATOM     11  C   UNL     1     102.582 105.642 232.798  1.00  0.00     0.000 C 
BRANCH  11  12
ATOM     12  C   UNL     1     101.664 106.384 233.785  1.00  0.00     0.000 C 
BRANCH  12  13
ATOM     13  C   UNL     1     100.249 106.614 233.226  1.00  0.00     0.006 C 
BRANCH  13  14
ATOM     14  C   UNL     1     100.061 105.969 231.845  1.00  0.00     0.053 C 
BRANCH  14  15
ATOM     15  C   UNL     1      98.678 105.423 231.668  1.00  0.00     0.041 C 
ATOM     16  O   UNL     1      98.512 104.245 231.251  1.00  0.00    -0.550 OA
ATOM     17  O   UNL     1      97.572 106.215 231.953  1.00  0.00    -0.550 OA
ENDBRANCH  14  15
ENDBRANCH  13  14
ENDBRANCH  12  13
ENDBRANCH  11  12
ENDBRANCH  10  11
ENDBRANCH   9  10
ENDBRANCH   8   9
ENDBRANCH   7   8
ENDBRANCH   6   7
ENDBRANCH   5   6
ENDBRANCH   4   5
ENDBRANCH   3   4
ENDBRANCH   2   3
ENDBRANCH   1   2
BRANCH   1  18
ATOM     18  C   UNL     1     101.300 103.279 229.319  1.00  0.00     0.000 C 
BRANCH  18  19
ATOM     19  C   UNL     1     102.059 102.422 230.353  1.00  0.00     0.000 C 
BRANCH  19  20
ATOM     20  C   UNL     1     103.476 102.955 230.636  1.00  0.00     0.000 C 
BRANCH  20  21
ATOM     21  C   UNL     1     104.599 102.081 230.044  1.00  0.00     0.000 C 
BRANCH  21  22
ATOM     22  C   UNL     1     105.265 101.183 231.100  1.00  0.00     0.000 C 
BRANCH  22  23
ATOM     23  C   UNL     1     106.742 101.556 231.299  1.00  0.00     0.000 C 
BRANCH  23  24
ATOM     24  C   UNL     1     106.919 102.968 231.901  1.00  0.00    -0.000 C 
BRANCH  24  25
ATOM     25  C   UNL     1     107.908 103.860 231.126  1.00  0.00    -0.000 C 
BRANCH  25  26
ATOM     26  C   UNL     1     107.900 103.669 229.598  1.00  0.00    -0.000 C 
BRANCH  26  27
ATOM     27  C   UNL     1     109.214 103.129 228.995  1.00  0.00    -0.000 C 
BRANCH  27  28
ATOM     28  C   UNL     1     110.310 102.795 230.023  1.00  0.00    -0.000 C 
BRANCH  28  29
ATOM     29  C   UNL     1     111.554 103.691 229.884  1.00  0.00    -0.000 C 
BRANCH  29  30
ATOM     30  C   UNL     1     111.380 105.051 230.581  1.00  0.00    -0.000 C 
BRANCH  30  31
ATOM     31  C   UNL     1     112.055 105.098 231.959  1.00  0.00    -0.003 C 
ATOM     32  C   UNL     1     113.068 103.967 232.112  1.00  0.00     0.004 C 
ENDBRANCH  30  31
ENDBRANCH  29  30
ENDBRANCH  28  29
ENDBRANCH  27  28
ENDBRANCH  26  27
ENDBRANCH  25  26
ENDBRANCH  24  25
ENDBRANCH  23  24
ENDBRANCH  22  23
ENDBRANCH  21  22
ENDBRANCH  20  21
ENDBRANCH  19  20
ENDBRANCH  18  19
ENDBRANCH   1  18
TORSDOF 28
ENDMDL
MODEL 9
REMARK VINA RESULT:    -5.982      2.340      5.427
REMARK INTER + INTRA:         -20.792
REMARK INTER:                 -15.805
REMARK INTRA:                  -4.987
REMARK UNBOUND:                -5.018
REMARK SMILES CCCCCCCCCCCCCCCCCCCCCCCCCCCCCC(=O)[O-]
REMARK SMILES IDX 16 1 17 2 18 3 19 4 20 5 21 6 22 7 23 8 24 9 25 10 26 11
REMARK SMILES IDX 27 12 28 13 29 14 30 15 31 16 32 17 15 18 14 19 13 20 12 21
REMARK SMILES IDX 11 22 10 23 9 24 8 25 7 26 6 27 5 28 4 29 3 30 2 31 1 32
REMARK H PARENT
REMARK Flexibility Score: inf
ROOT
ATOM      1  C   UNL     1     105.062 104.742 226.627  1.00  0.00     0.000 C 
ENDROOT
BRANCH   1   2
ATOM      2  C   UNL     1     106.090 103.590 226.634  1.00  0.00     0.000 C 
BRANCH   2   3
ATOM      3  C   UNL     1     107.555 104.002 226.355  1.00  0.00     0.000 C 
BRANCH   3   4
ATOM      4  C   UNL     1     108.541 103.638 227.482  1.00  0.00     0.000 C 
BRANCH   4   5
ATOM      5  C   UNL     1     109.991 103.449 226.982  1.00  0.00     0.000 C 
BRANCH   5   6
ATOM      6  C   UNL     1     110.942 102.955 228.083  1.00  0.00     0.000 C 
BRANCH   6   7
ATOM      7  C   UNL     1     110.300 102.985 229.479  1.00  0.00     0.000 C 
BRANCH   7   8
ATOM      8  C   UNL     1     111.155 103.814 230.447  1.00  0.00     0.000 C 
BRANCH   8   9
ATOM      9  C   UNL     1     110.327 104.792 231.299  1.00  0.00     0.000 C 
BRANCH   9  10
ATOM     10  C   UNL     1     108.797 104.674 231.131  1.00  0.00     0.000 C 
BRANCH  10  11
ATOM     11  C   UNL     1     108.009 104.399 232.427  1.00  0.00     0.000 C 
BRANCH  11  12
ATOM     12  C   UNL     1     106.833 103.417 232.275  1.00  0.00     0.000 C 
BRANCH  12  13
ATOM     13  C   UNL     1     106.128 103.539 230.913  1.00  0.00     0.006 C 
BRANCH  13  14
ATOM     14  C   UNL     1     106.079 102.199 230.165  1.00  0.00     0.053 C 
BRANCH  14  15
ATOM     15  C   UNL     1     105.079 101.260 230.766  1.00  0.00     0.041 C 
ATOM     16  O   UNL     1     105.392 100.059 230.985  1.00  0.00    -0.550 OA
ATOM     17  O   UNL     1     103.800 101.706 231.076  1.00  0.00    -0.550 OA
ENDBRANCH  14  15
ENDBRANCH  13  14
ENDBRANCH  12  13
ENDBRANCH  11  12
ENDBRANCH  10  11
ENDBRANCH   9  10
ENDBRANCH   8   9
ENDBRANCH   7   8
ENDBRANCH   6   7
ENDBRANCH   5   6
ENDBRANCH   4   5
ENDBRANCH   3   4
ENDBRANCH   2   3
ENDBRANCH   1   2
BRANCH   1  18
ATOM     18  C   UNL     1     104.858 105.426 227.991  1.00  0.00     0.000 C 
BRANCH  18  19
ATOM     19  C   UNL     1     103.725 104.778 228.814  1.00  0.00     0.000 C 
BRANCH  19  20
ATOM     20  C   UNL     1     102.389 104.736 228.051  1.00  0.00     0.000 C 
BRANCH  20  21
ATOM     21  C   UNL     1     101.315 103.859 228.724  1.00  0.00     0.000 C 
BRANCH  21  22
ATOM     22  C   UNL     1     101.162 104.162 230.223  1.00  0.00     0.000 C 
BRANCH  22  23
ATOM     23  C   UNL     1     100.651 105.593 230.454  1.00  0.00     0.000 C 
BRANCH  23  24
ATOM     24  C   UNL     1     100.241 105.844 231.922  1.00  0.00    -0.000 C 
BRANCH  24  25
ATOM     25  C   UNL     1     101.175 106.809 232.678  1.00  0.00    -0.000 C 
BRANCH  25  26
ATOM     26  C   UNL     1     101.571 106.359 234.095  1.00  0.00    -0.000 C 
BRANCH  26  27
ATOM     27  C   UNL     1     103.029 105.877 234.251  1.00  0.00    -0.000 C 
BRANCH  27  28
ATOM     28  C   UNL     1     103.794 105.689 232.928  1.00  0.00    -0.000 C 
BRANCH  28  29
ATOM     29  C   UNL     1     105.028 106.603 232.816  1.00  0.00    -0.000 C 
BRANCH  29  30
ATOM     30  C   UNL     1     105.316 107.026 231.365  1.00  0.00    -0.000 C 
BRANCH  30  31
ATOM     31  C   UNL     1     104.632 108.347 230.990  1.00  0.00    -0.003 C 
ATOM     32  C   UNL     1     103.390 108.100 230.138  1.00  0.00     0.004 C 
ENDBRANCH  30  31
ENDBRANCH  29  30
ENDBRANCH  28  29
ENDBRANCH  27  28
ENDBRANCH  26  27
ENDBRANCH  25  26
ENDBRANCH  24  25
ENDBRANCH  23  24
ENDBRANCH  22  23
ENDBRANCH  21  22
ENDBRANCH  20  21
ENDBRANCH  19  20
ENDBRANCH  18  19
ENDBRANCH   1  18
TORSDOF 28
ENDMDL
