MODEL 1
REMARK VINA RESULT:    -7.214      0.000      0.000
REMARK INTER + INTRA:         -11.140
REMARK INTER:                 -10.166
REMARK INTRA:                  -0.974
REMARK UNBOUND:                -0.974
REMARK SMILES C[C@@H](CO)CCC(=O)[C@@H](C)[C@@H]1C(=O)C[C@H]2[C@@H]3CC=C4C[C@H](O)CC[C@@]4(C)[C@H]3CC[C@]21C
REMARK SMILES IDX 6 1 5 2 2 3 1 4 3 5 4 6 7 8 8 9 9 10 10 11 11 12 12 13 30 14
REMARK SMILES IDX 13 15 14 16 15 17 29 18 31 19 16 20 28 21 27 22 17 23 25 24
REMARK SMILES IDX 18 25 19 26 24 27 26 28 20 29 23 30 21 31 22 32
REMARK H PARENT 4 7 22 33
REMARK Flexibility Score: inf
ROOT
ATOM      1  C   UNL     1     140.108 134.002 150.352  1.00  0.00     0.076 C 
ENDROOT
BRANCH   1   2
ATOM      2  C   UNL     1     139.046 133.386 151.306  1.00  0.00     0.013 C 
BRANCH   2   3
ATOM      3  C   UNL     1     137.787 132.789 150.633  1.00  0.00     0.012 C 
ATOM      4  C   UNL     1     137.572 133.334 149.219  1.00  0.00     0.010 C 
BRANCH   3   5
ATOM      5  C   UNL     1     137.799 131.237 150.660  1.00  0.00     0.159 C 
BRANCH   5   6
ATOM      6  O   UNL     1     139.040 130.680 151.050  1.00  0.00    -0.396 OA
ATOM      7  H   UNL     1     139.741 131.382 151.021  1.00  0.00     0.210 HD
ENDBRANCH   5   6
ENDBRANCH   3   5
ENDBRANCH   2   3
ENDBRANCH   1   2
BRANCH   1   8
ATOM      8  C   UNL     1     141.348 133.116 150.181  1.00  0.00     0.136 C 
ATOM      9  O   UNL     1     141.555 132.213 150.998  1.00  0.00    -0.299 OA
BRANCH   8  10
ATOM     10  C   UNL     1     142.266 133.262 148.970  1.00  0.00     0.064 C 
ATOM     11  C   UNL     1     141.571 132.659 147.733  1.00  0.00     0.017 C 
BRANCH  10  12
ATOM     12  C   UNL     1     142.721 134.759 148.775  1.00  0.00     0.072 C 
ATOM     13  C   UNL     1     142.447 135.264 147.396  1.00  0.00     0.137 C 
ATOM     14  C   UNL     1     144.275 135.037 148.909  1.00  0.00    -0.019 C 
ATOM     15  O   UNL     1     141.337 135.610 147.021  1.00  0.00    -0.299 OA
ATOM     16  C   UNL     1     143.646 135.424 146.553  1.00  0.00     0.080 C 
ATOM     17  C   UNL     1     144.786 134.896 147.437  1.00  0.00     0.007 C 
ATOM     18  C   UNL     1     144.494 136.489 149.495  1.00  0.00     0.008 C 
ATOM     19  C   UNL     1     145.034 134.021 149.826  1.00  0.00     0.012 C 
ATOM     20  C   UNL     1     146.145 135.585 147.091  1.00  0.00     0.001 C 
ATOM     21  C   UNL     1     145.378 137.422 148.651  1.00  0.00     0.005 C 
ATOM     22  C   UNL     1     146.590 136.659 148.110  1.00  0.00     0.003 C 
ATOM     23  C   UNL     1     147.310 134.605 146.935  1.00  0.00     0.031 C 
ATOM     24  C   UNL     1     147.748 137.550 147.515  1.00  0.00    -0.008 C 
ATOM     25  C   UNL     1     148.529 135.358 146.458  1.00  0.00    -0.027 C 
ATOM     26  C   UNL     1     148.737 136.679 146.708  1.00  0.00    -0.065 C 
ATOM     27  C   UNL     1     147.183 138.657 146.569  1.00  0.00     0.014 C 
ATOM     28  C   UNL     1     148.524 138.207 148.690  1.00  0.00     0.016 C 
ATOM     29  C   UNL     1     149.816 137.394 145.922  1.00  0.00     0.063 C 
ATOM     30  C   UNL     1     148.272 139.381 145.740  1.00  0.00     0.033 C 
ATOM     31  C   UNL     1     149.133 138.380 144.957  1.00  0.00     0.118 C 
BRANCH  31  32
ATOM     32  O   UNL     1     150.097 139.084 144.218  1.00  0.00    -0.393 OA
ATOM     33  H   UNL     1     150.179 138.611 143.348  1.00  0.00     0.210 HD
ENDBRANCH  31  32
ENDBRANCH  10  12
ENDBRANCH   8  10
ENDBRANCH   1   8
TORSDOF 8
ENDMDL
MODEL 2
REMARK VINA RESULT:    -6.971      2.078      8.571
REMARK INTER + INTRA:         -10.798
REMARK INTER:                  -9.695
REMARK INTRA:                  -1.102
REMARK UNBOUND:                -0.974
REMARK SMILES C[C@@H](CO)CCC(=O)[C@@H](C)[C@@H]1C(=O)C[C@H]2[C@@H]3CC=C4C[C@H](O)CC[C@@]4(C)[C@H]3CC[C@]21C
REMARK SMILES IDX 6 1 5 2 2 3 1 4 3 5 4 6 7 8 8 9 9 10 10 11 11 12 12 13 30 14
REMARK SMILES IDX 13 15 14 16 15 17 29 18 31 19 16 20 28 21 27 22 17 23 25 24
REMARK SMILES IDX 18 25 19 26 24 27 26 28 20 29 23 30 21 31 22 32
REMARK H PARENT 4 7 22 33
REMARK Flexibility Score: inf
ROOT
ATOM      1  C   UNL     1     148.017 139.090 145.863  1.00  0.00     0.076 C 
ENDROOT
BRANCH   1   2
ATOM      2  C   UNL     1     147.351 139.017 144.460  1.00  0.00     0.013 C 
BRANCH   2   3
ATOM      3  C   UNL     1     145.824 138.764 144.440  1.00  0.00     0.012 C 
ATOM      4  C   UNL     1     145.068 139.708 145.379  1.00  0.00     0.010 C 
BRANCH   3   5
ATOM      5  C   UNL     1     145.251 138.802 142.998  1.00  0.00     0.159 C 
BRANCH   5   6
ATOM      6  O   UNL     1     144.728 137.564 142.556  1.00  0.00    -0.396 OA
ATOM      7  H   UNL     1     144.938 137.441 141.593  1.00  0.00     0.210 HD
ENDBRANCH   5   6
ENDBRANCH   3   5
ENDBRANCH   2   3
ENDBRANCH   1   2
BRANCH   1   8
ATOM      8  C   UNL     1     148.562 137.739 146.340  1.00  0.00     0.136 C 
ATOM      9  O   UNL     1     149.581 137.285 145.810  1.00  0.00    -0.299 OA
BRANCH   8  10
ATOM     10  C   UNL     1     147.934 137.002 147.520  1.00  0.00     0.064 C 
ATOM     11  C   UNL     1     148.557 137.522 148.831  1.00  0.00     0.017 C 
BRANCH  10  12
ATOM     12  C   UNL     1     146.361 137.101 147.484  1.00  0.00     0.072 C 
ATOM     13  C   UNL     1     145.806 137.823 148.669  1.00  0.00     0.137 C 
ATOM     14  C   UNL     1     145.575 135.728 147.557  1.00  0.00    -0.019 C 
ATOM     15  O   UNL     1     145.826 139.040 148.777  1.00  0.00    -0.299 OA
ATOM     16  C   UNL     1     145.126 136.959 149.649  1.00  0.00     0.080 C 
ATOM     17  C   UNL     1     145.331 135.542 149.091  1.00  0.00     0.007 C 
ATOM     18  C   UNL     1     144.230 135.855 146.737  1.00  0.00     0.008 C 
ATOM     19  C   UNL     1     146.371 134.500 147.001  1.00  0.00     0.012 C 
ATOM     20  C   UNL     1     144.170 134.586 149.513  1.00  0.00     0.001 C 
ATOM     21  C   UNL     1     142.942 135.526 147.511  1.00  0.00     0.005 C 
ATOM     22  C   UNL     1     143.153 134.288 148.388  1.00  0.00     0.003 C 
ATOM     23  C   UNL     1     144.648 133.237 150.054  1.00  0.00     0.031 C 
ATOM     24  C   UNL     1     141.842 133.638 148.976  1.00  0.00    -0.008 C 
ATOM     25  C   UNL     1     143.459 132.460 150.566  1.00  0.00    -0.027 C 
ATOM     26  C   UNL     1     142.195 132.631 150.094  1.00  0.00    -0.065 C 
ATOM     27  C   UNL     1     140.889 134.722 149.573  1.00  0.00     0.014 C 
ATOM     28  C   UNL     1     141.115 132.868 147.838  1.00  0.00     0.016 C 
ATOM     29  C   UNL     1     141.049 132.040 150.889  1.00  0.00     0.063 C 
ATOM     30  C   UNL     1     139.726 134.134 150.410  1.00  0.00     0.033 C 
ATOM     31  C   UNL     1     140.248 133.199 151.509  1.00  0.00     0.118 C 
BRANCH  31  32
ATOM     32  O   UNL     1     139.159 132.700 152.241  1.00  0.00    -0.393 OA
ATOM     33  H   UNL     1     139.391 132.821 153.200  1.00  0.00     0.210 HD
ENDBRANCH  31  32
ENDBRANCH  10  12
ENDBRANCH   8  10
ENDBRANCH   1   8
TORSDOF 8
ENDMDL
MODEL 3
REMARK VINA RESULT:    -6.871      1.785      9.399
REMARK INTER + INTRA:         -10.657
REMARK INTER:                  -9.895
REMARK INTRA:                  -0.762
REMARK UNBOUND:                -0.974
REMARK SMILES C[C@@H](CO)CCC(=O)[C@@H](C)[C@@H]1C(=O)C[C@H]2[C@@H]3CC=C4C[C@H](O)CC[C@@]4(C)[C@H]3CC[C@]21C
REMARK SMILES IDX 6 1 5 2 2 3 1 4 3 5 4 6 7 8 8 9 9 10 10 11 11 12 12 13 30 14
REMARK SMILES IDX 13 15 14 16 15 17 29 18 31 19 16 20 28 21 27 22 17 23 25 24
REMARK SMILES IDX 18 25 19 26 24 27 26 28 20 29 23 30 21 31 22 32
REMARK H PARENT 4 7 22 33
REMARK Flexibility Score: inf
ROOT
ATOM      1  C   UNL     1     148.040 138.642 145.286  1.00  0.00     0.076 C 
ENDROOT
BRANCH   1   2
ATOM      2  C   UNL     1     149.140 139.492 144.589  1.00  0.00     0.013 C 
BRANCH   2   3
ATOM      3  C   UNL     1     149.572 139.027 143.178  1.00  0.00     0.012 C 
ATOM      4  C   UNL     1     149.134 140.006 142.085  1.00  0.00     0.010 C 
BRANCH   3   5
ATOM      5  C   UNL     1     151.093 138.728 143.110  1.00  0.00     0.159 C 
BRANCH   5   6
ATOM      6  O   UNL     1     151.422 137.370 143.336  1.00  0.00    -0.396 OA
ATOM      7  H   UNL     1     152.403 137.248 143.240  1.00  0.00     0.210 HD
ENDBRANCH   5   6
ENDBRANCH   3   5
ENDBRANCH   2   3
ENDBRANCH   1   2
BRANCH   1   8
ATOM      8  C   UNL     1     148.611 137.490 146.120  1.00  0.00     0.136 C 
ATOM      9  O   UNL     1     149.655 136.943 145.749  1.00  0.00    -0.299 OA
BRANCH   8  10
ATOM     10  C   UNL     1     147.975 137.079 147.446  1.00  0.00     0.064 C 
ATOM     11  C   UNL     1     148.578 137.931 148.581  1.00  0.00     0.017 C 
BRANCH  10  12
ATOM     12  C   UNL     1     146.402 137.146 147.370  1.00  0.00     0.072 C 
ATOM     13  C   UNL     1     145.807 137.905 148.512  1.00  0.00     0.137 C 
ATOM     14  C   UNL     1     145.639 135.762 147.481  1.00  0.00    -0.019 C 
ATOM     15  O   UNL     1     145.802 139.126 148.570  1.00  0.00    -0.299 OA
ATOM     16  C   UNL     1     145.119 137.068 149.511  1.00  0.00     0.080 C 
ATOM     17  C   UNL     1     145.364 135.634 149.016  1.00  0.00     0.007 C 
ATOM     18  C   UNL     1     144.312 135.830 146.627  1.00  0.00     0.008 C 
ATOM     19  C   UNL     1     146.471 134.529 146.995  1.00  0.00     0.012 C 
ATOM     20  C   UNL     1     144.210 134.674 149.451  1.00  0.00     0.001 C 
ATOM     21  C   UNL     1     143.013 135.508 147.385  1.00  0.00     0.005 C 
ATOM     22  C   UNL     1     143.225 134.311 148.316  1.00  0.00     0.003 C 
ATOM     23  C   UNL     1     144.700 133.357 150.057  1.00  0.00     0.031 C 
ATOM     24  C   UNL     1     141.913 133.660 148.900  1.00  0.00    -0.008 C 
ATOM     25  C   UNL     1     143.514 132.579 150.574  1.00  0.00    -0.027 C 
ATOM     26  C   UNL     1     142.258 132.707 150.067  1.00  0.00    -0.065 C 
ATOM     27  C   UNL     1     140.927 134.749 149.431  1.00  0.00     0.014 C 
ATOM     28  C   UNL     1     141.227 132.831 147.779  1.00  0.00     0.016 C 
ATOM     29  C   UNL     1     141.106 132.126 150.859  1.00  0.00     0.063 C 
ATOM     30  C   UNL     1     139.756 134.173 150.265  1.00  0.00     0.033 C 
ATOM     31  C   UNL     1     140.269 133.293 151.413  1.00  0.00     0.118 C 
BRANCH  31  32
ATOM     32  O   UNL     1     139.172 132.804 152.140  1.00  0.00    -0.393 OA
ATOM     33  H   UNL     1     138.390 132.852 151.528  1.00  0.00     0.210 HD
ENDBRANCH  31  32
ENDBRANCH  10  12
ENDBRANCH   8  10
ENDBRANCH   1   8
TORSDOF 8
ENDMDL
MODEL 4
REMARK VINA RESULT:    -6.622      1.478      2.260
REMARK INTER + INTRA:         -10.306
REMARK INTER:                  -9.221
REMARK INTRA:                  -1.086
REMARK UNBOUND:                -0.974
REMARK SMILES C[C@@H](CO)CCC(=O)[C@@H](C)[C@@H]1C(=O)C[C@H]2[C@@H]3CC=C4C[C@H](O)CC[C@@]4(C)[C@H]3CC[C@]21C
REMARK SMILES IDX 6 1 5 2 2 3 1 4 3 5 4 6 7 8 8 9 9 10 10 11 11 12 12 13 30 14
REMARK SMILES IDX 13 15 14 16 15 17 29 18 31 19 16 20 28 21 27 22 17 23 25 24
REMARK SMILES IDX 18 25 19 26 24 27 26 28 20 29 23 30 21 31 22 32
REMARK H PARENT 4 7 22 33
REMARK Flexibility Score: inf
ROOT
ATOM      1  C   UNL     1     141.095 132.563 151.040  1.00  0.00     0.076 C 
ENDROOT
BRANCH   1   2
ATOM      2  C   UNL     1     141.248 131.016 150.981  1.00  0.00     0.013 C 
BRANCH   2   3
ATOM      3  C   UNL     1     142.621 130.447 151.415  1.00  0.00     0.012 C 
ATOM      4  C   UNL     1     143.446 129.953 150.223  1.00  0.00     0.010 C 
BRANCH   3   5
ATOM      5  C   UNL     1     143.413 131.456 152.288  1.00  0.00     0.159 C 
BRANCH   5   6
ATOM      6  O   UNL     1     143.096 131.395 153.666  1.00  0.00    -0.396 OA
ATOM      7  H   UNL     1     143.892 131.091 154.175  1.00  0.00     0.210 HD
ENDBRANCH   5   6
ENDBRANCH   3   5
ENDBRANCH   2   3
ENDBRANCH   1   2
BRANCH   1   8
ATOM      8  C   UNL     1     141.177 133.228 149.661  1.00  0.00     0.136 C 
ATOM      9  O   UNL     1     140.167 133.764 149.195  1.00  0.00    -0.299 OA
BRANCH   8  10
ATOM     10  C   UNL     1     142.501 133.330 148.907  1.00  0.00     0.064 C 
ATOM     11  C   UNL     1     142.397 132.530 147.593  1.00  0.00     0.017 C 
BRANCH  10  12
ATOM     12  C   UNL     1     142.927 134.834 148.702  1.00  0.00     0.072 C 
ATOM     13  C   UNL     1     142.654 135.320 147.315  1.00  0.00     0.137 C 
ATOM     14  C   UNL     1     144.473 135.145 148.846  1.00  0.00    -0.019 C 
ATOM     15  O   UNL     1     141.540 135.640 146.928  1.00  0.00    -0.299 OA
ATOM     16  C   UNL     1     143.856 135.497 146.481  1.00  0.00     0.080 C 
ATOM     17  C   UNL     1     145.000 135.001 147.379  1.00  0.00     0.007 C 
ATOM     18  C   UNL     1     144.657 136.607 149.419  1.00  0.00     0.008 C 
ATOM     19  C   UNL     1     145.245 134.154 149.778  1.00  0.00     0.012 C 
ATOM     20  C   UNL     1     146.347 135.715 147.038  1.00  0.00     0.001 C 
ATOM     21  C   UNL     1     145.529 137.550 148.573  1.00  0.00     0.005 C 
ATOM     22  C   UNL     1     146.761 136.807 148.050  1.00  0.00     0.003 C 
ATOM     23  C   UNL     1     147.533 134.757 146.900  1.00  0.00     0.031 C 
ATOM     24  C   UNL     1     147.905 137.716 147.456  1.00  0.00    -0.008 C 
ATOM     25  C   UNL     1     148.740 135.531 146.426  1.00  0.00    -0.027 C 
ATOM     26  C   UNL     1     148.919 136.858 146.665  1.00  0.00    -0.065 C 
ATOM     27  C   UNL     1     147.326 138.802 146.495  1.00  0.00     0.014 C 
ATOM     28  C   UNL     1     148.658 138.400 148.631  1.00  0.00     0.016 C 
ATOM     29  C   UNL     1     149.989 137.587 145.881  1.00  0.00     0.063 C 
ATOM     30  C   UNL     1     148.406 139.540 145.667  1.00  0.00     0.033 C 
ATOM     31  C   UNL     1     149.295 138.550 144.902  1.00  0.00     0.118 C 
BRANCH  31  32
ATOM     32  O   UNL     1     150.250 139.267 144.164  1.00  0.00    -0.393 OA
ATOM     33  H   UNL     1     150.443 138.721 143.356  1.00  0.00     0.210 HD
ENDBRANCH  31  32
ENDBRANCH  10  12
ENDBRANCH   8  10
ENDBRANCH   1   8
TORSDOF 8
ENDMDL
MODEL 5
REMARK VINA RESULT:    -6.577      2.178      9.304
REMARK INTER + INTRA:         -10.243
REMARK INTER:                  -9.512
REMARK INTRA:                  -0.731
REMARK UNBOUND:                -0.974
REMARK SMILES C[C@@H](CO)CCC(=O)[C@@H](C)[C@@H]1C(=O)C[C@H]2[C@@H]3CC=C4C[C@H](O)CC[C@@]4(C)[C@H]3CC[C@]21C
REMARK SMILES IDX 6 1 5 2 2 3 1 4 3 5 4 6 7 8 8 9 9 10 10 11 11 12 12 13 30 14
REMARK SMILES IDX 13 15 14 16 15 17 29 18 31 19 16 20 28 21 27 22 17 23 25 24
REMARK SMILES IDX 18 25 19 26 24 27 26 28 20 29 23 30 21 31 22 32
REMARK H PARENT 4 7 22 33
REMARK Flexibility Score: inf
ROOT
ATOM      1  C   UNL     1     149.340 139.302 147.775  1.00  0.00     0.076 C 
ENDROOT
BRANCH   1   2
ATOM      2  C   UNL     1     150.888 139.161 147.732  1.00  0.00     0.013 C 
BRANCH   2   3
ATOM      3  C   UNL     1     151.648 139.576 149.014  1.00  0.00     0.012 C 
ATOM      4  C   UNL     1     150.843 140.554 149.874  1.00  0.00     0.010 C 
BRANCH   3   5
ATOM      5  C   UNL     1     152.122 138.344 149.829  1.00  0.00     0.159 C 
BRANCH   5   6
ATOM      6  O   UNL     1     152.013 137.118 149.131  1.00  0.00    -0.396 OA
ATOM      7  H   UNL     1     151.845 136.383 149.778  1.00  0.00     0.210 HD
ENDBRANCH   5   6
ENDBRANCH   3   5
ENDBRANCH   2   3
ENDBRANCH   1   2
BRANCH   1   8
ATOM      8  C   UNL     1     148.616 138.241 146.937  1.00  0.00     0.136 C 
ATOM      9  O   UNL     1     148.638 138.335 145.706  1.00  0.00    -0.299 OA
BRANCH   8  10
ATOM     10  C   UNL     1     147.965 137.025 147.589  1.00  0.00     0.064 C 
ATOM     11  C   UNL     1     148.497 136.876 149.028  1.00  0.00     0.017 C 
BRANCH  10  12
ATOM     12  C   UNL     1     146.392 137.103 147.501  1.00  0.00     0.072 C 
ATOM     13  C   UNL     1     145.791 137.839 148.654  1.00  0.00     0.137 C 
ATOM     14  C   UNL     1     145.621 135.721 147.574  1.00  0.00    -0.019 C 
ATOM     15  O   UNL     1     145.792 139.058 148.740  1.00  0.00    -0.299 OA
ATOM     16  C   UNL     1     145.090 136.983 149.628  1.00  0.00     0.080 C 
ATOM     17  C   UNL     1     145.331 135.559 149.102  1.00  0.00     0.007 C 
ATOM     18  C   UNL     1     144.302 135.816 146.709  1.00  0.00     0.008 C 
ATOM     19  C   UNL     1     146.450 134.494 147.067  1.00  0.00     0.012 C 
ATOM     20  C   UNL     1     144.168 134.596 149.504  1.00  0.00     0.001 C 
ATOM     21  C   UNL     1     142.995 135.484 147.447  1.00  0.00     0.005 C 
ATOM     22  C   UNL     1     143.192 134.265 148.353  1.00  0.00     0.003 C 
ATOM     23  C   UNL     1     144.646 133.263 150.085  1.00  0.00     0.031 C 
ATOM     24  C   UNL     1     141.871 133.608 148.910  1.00  0.00    -0.008 C 
ATOM     25  C   UNL     1     143.450 132.480 150.573  1.00  0.00    -0.027 C 
ATOM     26  C   UNL     1     142.200 132.626 150.058  1.00  0.00    -0.065 C 
ATOM     27  C   UNL     1     140.886 134.690 149.457  1.00  0.00     0.014 C 
ATOM     28  C   UNL     1     141.191 132.808 147.764  1.00  0.00     0.016 C 
ATOM     29  C   UNL     1     141.037 132.035 150.826  1.00  0.00     0.063 C 
ATOM     30  C   UNL     1     139.704 134.103 150.266  1.00  0.00     0.033 C 
ATOM     31  C   UNL     1     140.202 133.194 151.399  1.00  0.00     0.118 C 
BRANCH  31  32
ATOM     32  O   UNL     1     139.095 132.694 152.105  1.00  0.00    -0.393 OA
ATOM     33  H   UNL     1     139.458 132.289 152.937  1.00  0.00     0.210 HD
ENDBRANCH  31  32
ENDBRANCH  10  12
ENDBRANCH   8  10
ENDBRANCH   1   8
TORSDOF 8
ENDMDL
MODEL 6
REMARK VINA RESULT:    -6.524      1.890      3.237
REMARK INTER + INTRA:         -10.168
REMARK INTER:                  -9.411
REMARK INTRA:                  -0.757
REMARK UNBOUND:                -0.974
REMARK SMILES C[C@@H](CO)CCC(=O)[C@@H](C)[C@@H]1C(=O)C[C@H]2[C@@H]3CC=C4C[C@H](O)CC[C@@]4(C)[C@H]3CC[C@]21C
REMARK SMILES IDX 6 1 5 2 2 3 1 4 3 5 4 6 7 8 8 9 9 10 10 11 11 12 12 13 30 14
REMARK SMILES IDX 13 15 14 16 15 17 29 18 31 19 16 20 28 21 27 22 17 23 25 24
REMARK SMILES IDX 18 25 19 26 24 27 26 28 20 29 23 30 21 31 22 32
REMARK H PARENT 4 7 22 33
REMARK Flexibility Score: inf
ROOT
ATOM      1  C   UNL     1     139.662 133.417 147.700  1.00  0.00     0.076 C 
ENDROOT
BRANCH   1   2
ATOM      2  C   UNL     1     138.959 132.513 148.751  1.00  0.00     0.013 C 
BRANCH   2   3
ATOM      3  C   UNL     1     138.625 133.176 150.110  1.00  0.00     0.012 C 
ATOM      4  C   UNL     1     137.165 132.962 150.516  1.00  0.00     0.010 C 
BRANCH   3   5
ATOM      5  C   UNL     1     139.607 132.730 151.226  1.00  0.00     0.159 C 
BRANCH   5   6
ATOM      6  O   UNL     1     139.313 133.273 152.499  1.00  0.00    -0.396 OA
ATOM      7  H   UNL     1     138.522 133.869 152.430  1.00  0.00     0.210 HD
ENDBRANCH   5   6
ENDBRANCH   3   5
ENDBRANCH   2   3
ENDBRANCH   1   2
BRANCH   1   8
ATOM      8  C   UNL     1     141.191 133.318 147.750  1.00  0.00     0.136 C 
ATOM      9  O   UNL     1     141.728 132.232 147.510  1.00  0.00    -0.299 OA
BRANCH   8  10
ATOM     10  C   UNL     1     142.059 134.552 147.986  1.00  0.00     0.064 C 
ATOM     11  C   UNL     1     141.613 135.242 149.291  1.00  0.00     0.017 C 
BRANCH  10  12
ATOM     12  C   UNL     1     143.592 134.187 147.956  1.00  0.00     0.072 C 
ATOM     13  C   UNL     1     144.156 133.971 149.323  1.00  0.00     0.137 C 
ATOM     14  C   UNL     1     144.563 135.302 147.388  1.00  0.00    -0.019 C 
ATOM     15  O   UNL     1     143.980 132.944 149.962  1.00  0.00    -0.299 OA
ATOM     16  C   UNL     1     145.041 135.049 149.797  1.00  0.00     0.080 C 
ATOM     17  C   UNL     1     144.979 136.094 148.672  1.00  0.00     0.007 C 
ATOM     18  C   UNL     1     145.791 134.609 146.675  1.00  0.00     0.008 C 
ATOM     19  C   UNL     1     143.892 136.280 146.366  1.00  0.00     0.012 C 
ATOM     20  C   UNL     1     146.296 136.930 148.593  1.00  0.00     0.001 C 
ATOM     21  C   UNL     1     147.181 135.023 147.186  1.00  0.00     0.005 C 
ATOM     22  C   UNL     1     147.229 136.535 147.425  1.00  0.00     0.003 C 
ATOM     23  C   UNL     1     146.063 138.439 148.489  1.00  0.00     0.031 C 
ATOM     24  C   UNL     1     148.669 137.148 147.627  1.00  0.00    -0.008 C 
ATOM     25  C   UNL     1     147.392 139.152 148.569  1.00  0.00    -0.027 C 
ATOM     26  C   UNL     1     148.568 138.584 148.189  1.00  0.00    -0.065 C 
ATOM     27  C   UNL     1     149.517 136.290 148.618  1.00  0.00     0.014 C 
ATOM     28  C   UNL     1     149.379 137.213 146.246  1.00  0.00     0.016 C 
ATOM     29  C   UNL     1     149.856 139.262 148.607  1.00  0.00     0.063 C 
ATOM     30  C   UNL     1     150.826 136.981 149.074  1.00  0.00     0.033 C 
ATOM     31  C   UNL     1     150.548 138.374 149.656  1.00  0.00     0.118 C 
BRANCH  31  32
ATOM     32  O   UNL     1     151.762 138.953 150.060  1.00  0.00    -0.393 OA
ATOM     33  H   UNL     1     152.272 138.234 150.518  1.00  0.00     0.210 HD
ENDBRANCH  31  32
ENDBRANCH  10  12
ENDBRANCH   8  10
ENDBRANCH   1   8
TORSDOF 8
ENDMDL
MODEL 7
REMARK VINA RESULT:    -6.442      2.030      3.399
REMARK INTER + INTRA:         -10.053
REMARK INTER:                  -8.928
REMARK INTRA:                  -1.124
REMARK UNBOUND:                -0.974
REMARK SMILES C[C@@H](CO)CCC(=O)[C@@H](C)[C@@H]1C(=O)C[C@H]2[C@@H]3CC=C4C[C@H](O)CC[C@@]4(C)[C@H]3CC[C@]21C
REMARK SMILES IDX 6 1 5 2 2 3 1 4 3 5 4 6 7 8 8 9 9 10 10 11 11 12 12 13 30 14
REMARK SMILES IDX 13 15 14 16 15 17 29 18 31 19 16 20 28 21 27 22 17 23 25 24
REMARK SMILES IDX 18 25 19 26 24 27 26 28 20 29 23 30 21 31 22 32
REMARK H PARENT 4 7 22 33
REMARK Flexibility Score: inf
ROOT
ATOM      1  C   UNL     1     137.408 132.526 147.667  1.00  0.00     0.076 C 
ENDROOT
BRANCH   1   2
ATOM      2  C   UNL     1     137.153 133.425 148.910  1.00  0.00     0.013 C 
BRANCH   2   3
ATOM      3  C   UNL     1     137.250 132.729 150.289  1.00  0.00     0.012 C 
ATOM      4  C   UNL     1     137.041 131.215 150.190  1.00  0.00     0.010 C 
BRANCH   3   5
ATOM      5  C   UNL     1     138.570 133.084 151.023  1.00  0.00     0.159 C 
BRANCH   5   6
ATOM      6  O   UNL     1     139.295 131.956 151.477  1.00  0.00    -0.396 OA
ATOM      7  H   UNL     1     138.704 131.159 151.470  1.00  0.00     0.210 HD
ENDBRANCH   5   6
ENDBRANCH   3   5
ENDBRANCH   2   3
ENDBRANCH   1   2
BRANCH   1   8
ATOM      8  C   UNL     1     138.725 132.850 146.952  1.00  0.00     0.136 C 
ATOM      9  O   UNL     1     138.686 133.305 145.805  1.00  0.00    -0.299 OA
BRANCH   8  10
ATOM     10  C   UNL     1     140.068 132.718 147.666  1.00  0.00     0.064 C 
ATOM     11  C   UNL     1     140.382 131.225 147.882  1.00  0.00     0.017 C 
BRANCH  10  12
ATOM     12  C   UNL     1     141.202 133.499 146.898  1.00  0.00     0.072 C 
ATOM     13  C   UNL     1     142.146 132.584 146.188  1.00  0.00     0.137 C 
ATOM     14  C   UNL     1     142.198 134.342 147.796  1.00  0.00    -0.019 C 
ATOM     15  O   UNL     1     141.876 132.042 145.126  1.00  0.00    -0.299 OA
ATOM     16  C   UNL     1     143.478 132.476 146.808  1.00  0.00     0.080 C 
ATOM     17  C   UNL     1     143.358 133.332 148.079  1.00  0.00     0.007 C 
ATOM     18  C   UNL     1     142.679 135.612 146.987  1.00  0.00     0.008 C 
ATOM     19  C   UNL     1     141.587 134.830 149.151  1.00  0.00     0.012 C 
ATOM     20  C   UNL     1     144.738 133.936 148.495  1.00  0.00     0.001 C 
ATOM     21  C   UNL     1     144.202 135.773 146.841  1.00  0.00     0.005 C 
ATOM     22  C   UNL     1     144.900 135.437 148.162  1.00  0.00     0.003 C 
ATOM     23  C   UNL     1     145.061 133.769 149.981  1.00  0.00     0.031 C 
ATOM     24  C   UNL     1     146.412 135.874 148.264  1.00  0.00    -0.008 C 
ATOM     25  C   UNL     1     146.469 134.251 150.239  1.00  0.00    -0.027 C 
ATOM     26  C   UNL     1     147.088 135.191 149.475  1.00  0.00    -0.065 C 
ATOM     27  C   UNL     1     147.204 135.485 146.976  1.00  0.00     0.014 C 
ATOM     28  C   UNL     1     146.472 137.412 148.475  1.00  0.00     0.016 C 
ATOM     29  C   UNL     1     148.585 135.361 149.626  1.00  0.00     0.063 C 
ATOM     30  C   UNL     1     148.739 135.629 147.122  1.00  0.00     0.033 C 
ATOM     31  C   UNL     1     149.258 134.852 148.339  1.00  0.00     0.118 C 
BRANCH  31  32
ATOM     32  O   UNL     1     150.651 135.008 148.423  1.00  0.00    -0.393 OA
ATOM     33  H   UNL     1     150.980 134.259 148.986  1.00  0.00     0.210 HD
ENDBRANCH  31  32
ENDBRANCH  10  12
ENDBRANCH   8  10
ENDBRANCH   1   8
TORSDOF 8
ENDMDL
MODEL 8
REMARK VINA RESULT:    -6.439      2.614      4.455
REMARK INTER + INTRA:         -10.048
REMARK INTER:                  -9.058
REMARK INTRA:                  -0.990
REMARK UNBOUND:                -0.974
REMARK SMILES C[C@@H](CO)CCC(=O)[C@@H](C)[C@@H]1C(=O)C[C@H]2[C@@H]3CC=C4C[C@H](O)CC[C@@]4(C)[C@H]3CC[C@]21C
REMARK SMILES IDX 6 1 5 2 2 3 1 4 3 5 4 6 7 8 8 9 9 10 10 11 11 12 12 13 30 14
REMARK SMILES IDX 13 15 14 16 15 17 29 18 31 19 16 20 28 21 27 22 17 23 25 24
REMARK SMILES IDX 18 25 19 26 24 27 26 28 20 29 23 30 21 31 22 32
REMARK H PARENT 4 7 22 33
REMARK Flexibility Score: inf
ROOT
ATOM      1  C   UNL     1     137.502 133.467 147.446  1.00  0.00     0.076 C 
ENDROOT
BRANCH   1   2
ATOM      2  C   UNL     1     137.495 133.514 145.891  1.00  0.00     0.013 C 
BRANCH   2   3
ATOM      3  C   UNL     1     137.951 134.845 145.246  1.00  0.00     0.012 C 
ATOM      4  C   UNL     1     139.039 134.633 144.190  1.00  0.00     0.010 C 
BRANCH   3   5
ATOM      5  C   UNL     1     136.752 135.655 144.686  1.00  0.00     0.159 C 
BRANCH   5   6
ATOM      6  O   UNL     1     136.761 137.022 145.054  1.00  0.00    -0.396 OA
ATOM      7  H   UNL     1     135.827 137.356 145.107  1.00  0.00     0.210 HD
ENDBRANCH   5   6
ENDBRANCH   3   5
ENDBRANCH   2   3
ENDBRANCH   1   2
BRANCH   1   8
ATOM      8  C   UNL     1     138.008 132.131 148.003  1.00  0.00     0.136 C 
ATOM      9  O   UNL     1     137.226 131.177 148.072  1.00  0.00    -0.299 OA
BRANCH   8  10
ATOM     10  C   UNL     1     139.475 131.931 148.374  1.00  0.00     0.064 C 
ATOM     11  C   UNL     1     139.838 130.441 148.219  1.00  0.00     0.017 C 
BRANCH  10  12
ATOM     12  C   UNL     1     140.410 132.899 147.552  1.00  0.00     0.072 C 
ATOM     13  C   UNL     1     141.309 132.164 146.612  1.00  0.00     0.137 C 
ATOM     14  C   UNL     1     141.455 133.740 148.393  1.00  0.00    -0.019 C 
ATOM     15  O   UNL     1     140.928 131.711 145.542  1.00  0.00    -0.299 OA
ATOM     16  C   UNL     1     142.724 132.127 147.021  1.00  0.00     0.080 C 
ATOM     17  C   UNL     1     142.726 132.828 148.388  1.00  0.00     0.007 C 
ATOM     18  C   UNL     1     141.699 135.130 147.682  1.00  0.00     0.008 C 
ATOM     19  C   UNL     1     141.017 134.018 149.870  1.00  0.00     0.012 C 
ATOM     20  C   UNL     1     144.097 133.522 148.674  1.00  0.00     0.001 C 
ATOM     21  C   UNL     1     143.162 135.458 147.342  1.00  0.00     0.005 C 
ATOM     22  C   UNL     1     144.079 135.058 148.502  1.00  0.00     0.003 C 
ATOM     23  C   UNL     1     144.654 133.234 150.070  1.00  0.00     0.031 C 
ATOM     24  C   UNL     1     145.546 135.632 148.441  1.00  0.00    -0.008 C 
ATOM     25  C   UNL     1     146.039 133.826 150.181  1.00  0.00    -0.027 C 
ATOM     26  C   UNL     1     146.454 134.899 149.455  1.00  0.00    -0.065 C 
ATOM     27  C   UNL     1     146.164 135.463 147.017  1.00  0.00     0.014 C 
ATOM     28  C   UNL     1     145.507 137.138 148.822  1.00  0.00     0.016 C 
ATOM     29  C   UNL     1     147.937 135.202 149.412  1.00  0.00     0.063 C 
ATOM     30  C   UNL     1     147.685 135.746 146.961  1.00  0.00     0.033 C 
ATOM     31  C   UNL     1     148.447 134.901 147.992  1.00  0.00     0.118 C 
BRANCH  31  32
ATOM     32  O   UNL     1     149.818 135.188 147.896  1.00  0.00    -0.393 OA
ATOM     33  H   UNL     1     149.994 135.918 148.548  1.00  0.00     0.210 HD
ENDBRANCH  31  32
ENDBRANCH  10  12
ENDBRANCH   8  10
ENDBRANCH   1   8
TORSDOF 8
ENDMDL
MODEL 9
REMARK VINA RESULT:    -6.419      5.774      9.424
REMARK INTER + INTRA:         -10.021
REMARK INTER:                  -9.004
REMARK INTRA:                  -1.017
REMARK UNBOUND:                -0.974
REMARK SMILES C[C@@H](CO)CCC(=O)[C@@H](C)[C@@H]1C(=O)C[C@H]2[C@@H]3CC=C4C[C@H](O)CC[C@@]4(C)[C@H]3CC[C@]21C
REMARK SMILES IDX 6 1 5 2 2 3 1 4 3 5 4 6 7 8 8 9 9 10 10 11 11 12 12 13 30 14
REMARK SMILES IDX 13 15 14 16 15 17 29 18 31 19 16 20 28 21 27 22 17 23 25 24
REMARK SMILES IDX 18 25 19 26 24 27 26 28 20 29 23 30 21 31 22 32
REMARK H PARENT 4 7 22 33
REMARK Flexibility Score: inf
ROOT
ATOM      1  C   UNL     1     137.518 133.208 141.173  1.00  0.00     0.076 C 
ENDROOT
BRANCH   1   2
ATOM      2  C   UNL     1     138.300 132.386 140.109  1.00  0.00     0.013 C 
BRANCH   2   3
ATOM      3  C   UNL     1     139.840 132.539 140.123  1.00  0.00     0.012 C 
ATOM      4  C   UNL     1     140.420 132.439 141.536  1.00  0.00     0.010 C 
BRANCH   3   5
ATOM      5  C   UNL     1     140.527 131.549 139.145  1.00  0.00     0.159 C 
BRANCH   5   6
ATOM      6  O   UNL     1     141.089 130.415 139.777  1.00  0.00    -0.396 OA
ATOM      7  H   UNL     1     142.016 130.623 140.064  1.00  0.00     0.210 HD
ENDBRANCH   5   6
ENDBRANCH   3   5
ENDBRANCH   2   3
ENDBRANCH   1   2
BRANCH   1   8
ATOM      8  C   UNL     1     136.485 132.372 141.937  1.00  0.00     0.136 C 
ATOM      9  O   UNL     1     135.709 131.652 141.300  1.00  0.00    -0.299 OA
BRANCH   8  10
ATOM     10  C   UNL     1     136.466 132.336 143.463  1.00  0.00     0.064 C 
ATOM     11  C   UNL     1     135.646 131.117 143.930  1.00  0.00     0.017 C 
BRANCH  10  12
ATOM     12  C   UNL     1     137.927 132.381 144.054  1.00  0.00     0.072 C 
ATOM     13  C   UNL     1     138.383 131.048 144.552  1.00  0.00     0.137 C 
ATOM     14  C   UNL     1     138.131 133.284 145.339  1.00  0.00    -0.019 C 
ATOM     15  O   UNL     1     138.769 130.156 143.811  1.00  0.00    -0.299 OA
ATOM     16  C   UNL     1     138.443 130.931 146.019  1.00  0.00     0.080 C 
ATOM     17  C   UNL     1     137.898 132.279 146.516  1.00  0.00     0.007 C 
ATOM     18  C   UNL     1     139.595 133.881 145.328  1.00  0.00     0.008 C 
ATOM     19  C   UNL     1     137.120 134.472 145.458  1.00  0.00     0.012 C 
ATOM     20  C   UNL     1     138.500 132.664 147.905  1.00  0.00     0.001 C 
ATOM     21  C   UNL     1     140.442 133.593 146.578  1.00  0.00     0.005 C 
ATOM     22  C   UNL     1     139.594 133.754 147.843  1.00  0.00     0.003 C 
ATOM     23  C   UNL     1     137.455 133.135 148.920  1.00  0.00     0.031 C 
ATOM     24  C   UNL     1     140.397 133.820 149.199  1.00  0.00    -0.008 C 
ATOM     25  C   UNL     1     138.122 133.336 150.260  1.00  0.00    -0.027 C 
ATOM     26  C   UNL     1     139.441 133.640 150.400  1.00  0.00    -0.065 C 
ATOM     27  C   UNL     1     141.487 132.704 149.268  1.00  0.00     0.014 C 
ATOM     28  C   UNL     1     141.066 135.218 149.314  1.00  0.00     0.016 C 
ATOM     29  C   UNL     1     140.063 133.503 151.774  1.00  0.00     0.063 C 
ATOM     30  C   UNL     1     142.116 132.536 150.673  1.00  0.00     0.033 C 
ATOM     31  C   UNL     1     141.038 132.313 151.742  1.00  0.00     0.118 C 
BRANCH  31  32
ATOM     32  O   UNL     1     141.658 132.159 152.993  1.00  0.00    -0.393 OA
ATOM     33  H   UNL     1     141.974 131.218 153.031  1.00  0.00     0.210 HD
ENDBRANCH  31  32
ENDBRANCH  10  12
ENDBRANCH   8  10
ENDBRANCH   1   8
TORSDOF 8
ENDMDL
