MODEL 1
REMARK VINA RESULT:    31.761      0.000      0.000
REMARK INTER + INTRA:          37.961
REMARK INTER:                  38.259
REMARK INTRA:                  -0.298
REMARK UNBOUND:                -0.298
REMARK SMILES COc1ccc([C@H]2CC(=O)c3c(O)cc(O)cc3O2)cc1O
REMARK SMILES IDX 7 1 8 2 9 3 10 4 11 5 12 6 14 7 15 8 17 9 18 10 19 11 6 12
REMARK SMILES IDX 3 13 21 14 4 15 20 16 5 17 2 18 1 19 22 20 13 22 16 24
REMARK H PARENT 22 21 13 23 16 25
REMARK Flexibility Score: inf
ROOT
ATOM      1  C   UNL     1      15.114   7.897  15.994  1.00  0.00     0.211 C 
ATOM      2  C   UNL     1      14.208   7.754  14.762  1.00  0.00     0.131 C 
ATOM      3  C   UNL     1      13.384   6.502  14.870  1.00  0.00     0.174 C 
ATOM      4  O   UNL     1      12.221   6.485  14.383  1.00  0.00    -0.294 OA
ATOM      5  C   UNL     1      13.975   5.293  15.491  1.00  0.00     0.102 A 
ATOM      6  C   UNL     1      13.360   4.024  15.428  1.00  0.00     0.133 A 
ATOM      7  C   UNL     1      14.000   2.912  15.997  1.00  0.00     0.093 A 
ATOM      8  C   UNL     1      15.245   3.050  16.617  1.00  0.00     0.123 A 
ATOM      9  C   UNL     1      15.854   4.308  16.684  1.00  0.00     0.093 A 
ATOM     10  C   UNL     1      15.218   5.427  16.138  1.00  0.00     0.138 A 
ATOM     11  O   UNL     1      15.831   6.682  16.235  1.00  0.00    -0.484 OA
ENDROOT
BRANCH   1  12
ATOM     12  C   UNL     1      16.082   9.042  15.816  1.00  0.00    -0.003 A 
ATOM     13  C   UNL     1      17.835  11.221  15.450  1.00  0.00     0.160 A 
ATOM     14  C   UNL     1      16.919  11.222  16.512  1.00  0.00     0.158 A 
ATOM     15  C   UNL     1      17.863  10.126  14.566  1.00  0.00     0.051 A 
ATOM     16  C   UNL     1      16.044  10.140  16.690  1.00  0.00     0.057 A 
ATOM     17  C   UNL     1      16.990   9.051  14.746  1.00  0.00     0.011 A 
BRANCH  13  18
ATOM     18  O   UNL     1      18.695  12.321  15.306  1.00  0.00    -0.493 OA
ATOM     19  C   UNL     1      18.361  13.518  14.611  1.00  0.00     0.278 C 
ENDBRANCH  13  18
BRANCH  14  20
ATOM     20  O   UNL     1      16.882  12.306  17.387  1.00  0.00    -0.504 OA
ATOM     21  H   UNL     1      16.492  13.199  17.110  1.00  0.00     0.293 HD
ENDBRANCH  14  20
ENDBRANCH   1  12
BRANCH   6  22
ATOM     22  O   UNL     1      12.126   3.860  14.797  1.00  0.00    -0.507 OA
ATOM     23  H   UNL     1      11.601   2.998  14.871  1.00  0.00     0.293 HD
ENDBRANCH   6  22
BRANCH   8  24
ATOM     24  O   UNL     1      15.866   1.931  17.167  1.00  0.00    -0.508 OA
ATOM     25  H   UNL     1      16.536   2.015  17.922  1.00  0.00     0.293 HD
ENDBRANCH   8  24
TORSDOF 5
ENDMDL
MODEL 2
REMARK VINA RESULT:    32.513      5.259      7.321
REMARK INTER + INTRA:          38.867
REMARK INTER:                  39.248
REMARK INTRA:                  -0.380
REMARK UNBOUND:                -0.298
REMARK SMILES COc1ccc([C@H]2CC(=O)c3c(O)cc(O)cc3O2)cc1O
REMARK SMILES IDX 7 1 8 2 9 3 10 4 11 5 12 6 14 7 15 8 17 9 18 10 19 11 6 12
REMARK SMILES IDX 3 13 21 14 4 15 20 16 5 17 2 18 1 19 22 20 13 22 16 24
REMARK H PARENT 22 21 13 23 16 25
REMARK Flexibility Score: inf
ROOT
ATOM      1  C   UNL     1      17.138   2.834  13.235  1.00  0.00     0.211 C 
ATOM      2  C   UNL     1      17.789   3.003  14.616  1.00  0.00     0.131 C 
ATOM      3  C   UNL     1      16.729   3.099  15.678  1.00  0.00     0.174 C 
ATOM      4  O   UNL     1      16.961   2.631  16.825  1.00  0.00    -0.294 OA
ATOM      5  C   UNL     1      15.456   3.796  15.375  1.00  0.00     0.102 A 
ATOM      6  C   UNL     1      14.512   4.128  16.370  1.00  0.00     0.133 A 
ATOM      7  C   UNL     1      13.350   4.832  16.019  1.00  0.00     0.093 A 
ATOM      8  C   UNL     1      13.125   5.214  14.693  1.00  0.00     0.123 A 
ATOM      9  C   UNL     1      14.058   4.883  13.705  1.00  0.00     0.093 A 
ATOM     10  C   UNL     1      15.211   4.165  14.038  1.00  0.00     0.138 A 
ATOM     11  O   UNL     1      16.122   3.821  13.033  1.00  0.00    -0.484 OA
ENDROOT
BRANCH   1  12
ATOM     12  C   UNL     1      18.174   2.926  12.141  1.00  0.00    -0.003 A 
ATOM     13  C   UNL     1      20.072   3.043  10.058  1.00  0.00     0.160 A 
ATOM     14  C   UNL     1      18.850   3.720   9.939  1.00  0.00     0.158 A 
ATOM     15  C   UNL     1      20.336   2.298  11.223  1.00  0.00     0.051 A 
ATOM     16  C   UNL     1      17.905   3.657  10.974  1.00  0.00     0.057 A 
ATOM     17  C   UNL     1      19.392   2.236  12.250  1.00  0.00     0.011 A 
BRANCH  13  18
ATOM     18  O   UNL     1      20.993   3.132   9.003  1.00  0.00    -0.493 OA
ATOM     19  C   UNL     1      21.516   2.013   8.294  1.00  0.00     0.278 C 
ENDBRANCH  13  18
BRANCH  14  20
ATOM     20  O   UNL     1      18.581   4.454   8.786  1.00  0.00    -0.504 OA
ATOM     21  H   UNL     1      19.053   4.261   7.910  1.00  0.00     0.293 HD
ENDBRANCH  14  20
ENDBRANCH   1  12
BRANCH   6  22
ATOM     22  O   UNL     1      14.726   3.773  17.702  1.00  0.00    -0.507 OA
ATOM     23  H   UNL     1      15.439   4.221  18.265  1.00  0.00     0.293 HD
ENDBRANCH   6  22
BRANCH   8  24
ATOM     24  O   UNL     1      11.969   5.920  14.368  1.00  0.00    -0.508 OA
ATOM     25  H   UNL     1      11.995   6.727  13.756  1.00  0.00     0.293 HD
ENDBRANCH   8  24
TORSDOF 5
ENDMDL
MODEL 3
REMARK VINA RESULT:    32.848      1.627      2.029
REMARK INTER + INTRA:          39.271
REMARK INTER:                  39.654
REMARK INTRA:                  -0.384
REMARK UNBOUND:                -0.298
REMARK SMILES COc1ccc([C@H]2CC(=O)c3c(O)cc(O)cc3O2)cc1O
REMARK SMILES IDX 7 1 8 2 9 3 10 4 11 5 12 6 14 7 15 8 17 9 18 10 19 11 6 12
REMARK SMILES IDX 3 13 21 14 4 15 20 16 5 17 2 18 1 19 22 20 13 22 16 24
REMARK H PARENT 22 21 13 23 16 25
REMARK Flexibility Score: inf
ROOT
ATOM      1  C   UNL     1      14.972   8.109  16.725  1.00  0.00     0.211 C 
ATOM      2  C   UNL     1      14.650   8.215  15.227  1.00  0.00     0.131 C 
ATOM      3  C   UNL     1      13.908   6.991  14.771  1.00  0.00     0.174 C 
ATOM      4  O   UNL     1      13.045   7.097  13.858  1.00  0.00    -0.294 OA
ATOM      5  C   UNL     1      14.247   5.673  15.359  1.00  0.00     0.102 A 
ATOM      6  C   UNL     1      13.767   4.455  14.831  1.00  0.00     0.133 A 
ATOM      7  C   UNL     1      14.168   3.240  15.409  1.00  0.00     0.093 A 
ATOM      8  C   UNL     1      15.047   3.227  16.496  1.00  0.00     0.123 A 
ATOM      9  C   UNL     1      15.522   4.434  17.022  1.00  0.00     0.093 A 
ATOM     10  C   UNL     1      15.114   5.651  16.468  1.00  0.00     0.138 A 
ATOM     11  O   UNL     1      15.580   6.850  17.023  1.00  0.00    -0.484 OA
ENDROOT
BRANCH   1  12
ATOM     12  C   UNL     1      15.877   9.236  17.159  1.00  0.00    -0.003 A 
ATOM     13  C   UNL     1      17.528  11.351  18.032  1.00  0.00     0.160 A 
ATOM     14  C   UNL     1      17.715  10.055  18.533  1.00  0.00     0.158 A 
ATOM     15  C   UNL     1      16.502  11.585  17.096  1.00  0.00     0.051 A 
ATOM     16  C   UNL     1      16.890   9.005  18.102  1.00  0.00     0.057 A 
ATOM     17  C   UNL     1      15.682  10.538  16.670  1.00  0.00     0.011 A 
BRANCH  13  18
ATOM     18  O   UNL     1      18.374  12.374  18.486  1.00  0.00    -0.493 OA
ATOM     19  C   UNL     1      17.945  13.492  19.257  1.00  0.00     0.278 C 
ENDBRANCH  13  18
BRANCH  14  20
ATOM     20  O   UNL     1      18.724   9.818  19.464  1.00  0.00    -0.504 OA
ATOM     21  H   UNL     1      19.406  10.529  19.701  1.00  0.00     0.293 HD
ENDBRANCH  14  20
ENDBRANCH   1  12
BRANCH   6  22
ATOM     22  O   UNL     1      12.904   4.444  13.735  1.00  0.00    -0.507 OA
ATOM     23  H   UNL     1      13.229   4.212  12.804  1.00  0.00     0.293 HD
ENDBRANCH   6  22
BRANCH   8  24
ATOM     24  O   UNL     1      15.440   2.010  17.047  1.00  0.00    -0.508 OA
ATOM     25  H   UNL     1      16.025   1.361  16.535  1.00  0.00     0.293 HD
ENDBRANCH   8  24
TORSDOF 5
ENDMDL
MODEL 4
REMARK VINA RESULT:    33.413      4.705      6.717
REMARK INTER + INTRA:          39.951
REMARK INTER:                  40.279
REMARK INTRA:                  -0.328
REMARK UNBOUND:                -0.298
REMARK SMILES COc1ccc([C@H]2CC(=O)c3c(O)cc(O)cc3O2)cc1O
REMARK SMILES IDX 7 1 8 2 9 3 10 4 11 5 12 6 14 7 15 8 17 9 18 10 19 11 6 12
REMARK SMILES IDX 3 13 21 14 4 15 20 16 5 17 2 18 1 19 22 20 13 22 16 24
REMARK H PARENT 22 21 13 23 16 25
REMARK Flexibility Score: inf
ROOT
ATOM      1  C   UNL     1      17.366   3.203  13.762  1.00  0.00     0.211 C 
ATOM      2  C   UNL     1      17.520   2.874  15.255  1.00  0.00     0.131 C 
ATOM      3  C   UNL     1      16.168   2.723  15.892  1.00  0.00     0.174 C 
ATOM      4  O   UNL     1      16.019   1.901  16.836  1.00  0.00    -0.294 OA
ATOM      5  C   UNL     1      15.049   3.585  15.440  1.00  0.00     0.102 A 
ATOM      6  C   UNL     1      13.822   3.668  16.131  1.00  0.00     0.133 A 
ATOM      7  C   UNL     1      12.824   4.542  15.674  1.00  0.00     0.093 A 
ATOM      8  C   UNL     1      13.040   5.338  14.546  1.00  0.00     0.123 A 
ATOM      9  C   UNL     1      14.255   5.255  13.857  1.00  0.00     0.093 A 
ATOM     10  C   UNL     1      15.250   4.373  14.291  1.00  0.00     0.138 A 
ATOM     11  O   UNL     1      16.451   4.285  13.576  1.00  0.00    -0.484 OA
ENDROOT
BRANCH   1  12
ATOM     12  C   UNL     1      18.703   3.544  13.149  1.00  0.00    -0.003 A 
ATOM     13  C   UNL     1      21.234   4.133  12.051  1.00  0.00     0.160 A 
ATOM     14  C   UNL     1      20.527   2.998  11.629  1.00  0.00     0.158 A 
ATOM     15  C   UNL     1      20.670   4.968  13.034  1.00  0.00     0.051 A 
ATOM     16  C   UNL     1      19.270   2.703  12.179  1.00  0.00     0.057 A 
ATOM     17  C   UNL     1      19.420   4.671  13.581  1.00  0.00     0.011 A 
BRANCH  13  18
ATOM     18  O   UNL     1      22.487   4.394  11.475  1.00  0.00    -0.493 OA
ATOM     19  C   UNL     1      23.725   3.917  11.990  1.00  0.00     0.278 C 
ENDBRANCH  13  18
BRANCH  14  20
ATOM     20  O   UNL     1      21.081   2.163  10.660  1.00  0.00    -0.504 OA
ATOM     21  H   UNL     1      22.083   2.112  10.514  1.00  0.00     0.293 HD
ENDBRANCH  14  20
ENDBRANCH   1  12
BRANCH   6  22
ATOM     22  O   UNL     1      13.592   2.896  17.271  1.00  0.00    -0.507 OA
ATOM     23  H   UNL     1      13.826   1.912  17.303  1.00  0.00     0.293 HD
ENDBRANCH   6  22
BRANCH   8  24
ATOM     24  O   UNL     1      12.039   6.206  14.115  1.00  0.00    -0.508 OA
ATOM     25  H   UNL     1      11.912   6.423  13.134  1.00  0.00     0.293 HD
ENDBRANCH   8  24
TORSDOF 5
ENDMDL
MODEL 5
REMARK VINA RESULT:    33.605      5.371      8.597
REMARK INTER + INTRA:          40.182
REMARK INTER:                  40.513
REMARK INTRA:                  -0.331
REMARK UNBOUND:                -0.298
REMARK SMILES COc1ccc([C@H]2CC(=O)c3c(O)cc(O)cc3O2)cc1O
REMARK SMILES IDX 7 1 8 2 9 3 10 4 11 5 12 6 14 7 15 8 17 9 18 10 19 11 6 12
REMARK SMILES IDX 3 13 21 14 4 15 20 16 5 17 2 18 1 19 22 20 13 22 16 24
REMARK H PARENT 22 21 13 23 16 25
REMARK Flexibility Score: inf
ROOT
ATOM      1  C   UNL     1      18.304   1.413  14.518  1.00  0.00     0.211 C 
ATOM      2  C   UNL     1      18.827   0.688  15.767  1.00  0.00     0.131 C 
ATOM      3  C   UNL     1      19.838  -0.352  15.375  1.00  0.00     0.174 C 
ATOM      4  O   UNL     1      20.796  -0.605  16.154  1.00  0.00    -0.294 OA
ATOM      5  C   UNL     1      19.656  -1.105  14.111  1.00  0.00     0.102 A 
ATOM      6  C   UNL     1      20.422  -2.243  13.783  1.00  0.00     0.133 A 
ATOM      7  C   UNL     1      20.164  -2.936  12.590  1.00  0.00     0.093 A 
ATOM      8  C   UNL     1      19.146  -2.513  11.730  1.00  0.00     0.123 A 
ATOM      9  C   UNL     1      18.387  -1.382  12.052  1.00  0.00     0.093 A 
ATOM     10  C   UNL     1      18.648  -0.672  13.228  1.00  0.00     0.138 A 
ATOM     11  O   UNL     1      17.895   0.471  13.522  1.00  0.00    -0.484 OA
ENDROOT
BRANCH   1  12
ATOM     12  C   UNL     1      17.155   2.326  14.870  1.00  0.00    -0.003 A 
ATOM     13  C   UNL     1      14.959   3.975  15.515  1.00  0.00     0.160 A 
ATOM     14  C   UNL     1      15.474   3.080  16.464  1.00  0.00     0.158 A 
ATOM     15  C   UNL     1      15.545   4.034  14.236  1.00  0.00     0.051 A 
ATOM     16  C   UNL     1      16.563   2.257  16.140  1.00  0.00     0.057 A 
ATOM     17  C   UNL     1      16.628   3.212  13.917  1.00  0.00     0.011 A 
BRANCH  13  18
ATOM     18  O   UNL     1      13.870   4.783  15.877  1.00  0.00    -0.493 OA
ATOM     19  C   UNL     1      12.877   5.250  14.970  1.00  0.00     0.278 C 
ENDBRANCH  13  18
BRANCH  14  20
ATOM     20  O   UNL     1      14.895   3.013  17.730  1.00  0.00    -0.504 OA
ATOM     21  H   UNL     1      15.449   2.831  18.559  1.00  0.00     0.293 HD
ENDBRANCH  14  20
ENDBRANCH   1  12
BRANCH   6  22
ATOM     22  O   UNL     1      21.431  -2.694  14.636  1.00  0.00    -0.507 OA
ATOM     23  H   UNL     1      21.736  -2.149  15.432  1.00  0.00     0.293 HD
ENDBRANCH   6  22
BRANCH   8  24
ATOM     24  O   UNL     1      18.900  -3.221  10.556  1.00  0.00    -0.508 OA
ATOM     25  H   UNL     1      19.468  -4.016  10.288  1.00  0.00     0.293 HD
ENDBRANCH   8  24
TORSDOF 5
ENDMDL
MODEL 6
REMARK VINA RESULT:    33.683      2.987      3.884
REMARK INTER + INTRA:          40.277
REMARK INTER:                  39.634
REMARK INTRA:                   0.642
REMARK UNBOUND:                -0.298
REMARK SMILES COc1ccc([C@H]2CC(=O)c3c(O)cc(O)cc3O2)cc1O
REMARK SMILES IDX 7 1 8 2 9 3 10 4 11 5 12 6 14 7 15 8 17 9 18 10 19 11 6 12
REMARK SMILES IDX 3 13 21 14 4 15 20 16 5 17 2 18 1 19 22 20 13 22 16 24
REMARK H PARENT 22 21 13 23 16 25
REMARK Flexibility Score: inf
ROOT
ATOM      1  C   UNL     1      14.534   7.562  15.743  1.00  0.00     0.211 C 
ATOM      2  C   UNL     1      14.275   6.958  17.131  1.00  0.00     0.131 C 
ATOM      3  C   UNL     1      14.860   5.576  17.210  1.00  0.00     0.174 C 
ATOM      4  O   UNL     1      15.318   5.162  18.308  1.00  0.00    -0.294 OA
ATOM      5  C   UNL     1      14.831   4.704  16.011  1.00  0.00     0.102 A 
ATOM      6  C   UNL     1      15.147   3.329  16.059  1.00  0.00     0.133 A 
ATOM      7  C   UNL     1      15.052   2.553  14.895  1.00  0.00     0.093 A 
ATOM      8  C   UNL     1      14.637   3.128  13.690  1.00  0.00     0.123 A 
ATOM      9  C   UNL     1      14.327   4.492  13.639  1.00  0.00     0.093 A 
ATOM     10  C   UNL     1      14.437   5.280  14.788  1.00  0.00     0.138 A 
ATOM     11  O   UNL     1      14.146   6.648  14.714  1.00  0.00    -0.484 OA
ENDROOT
BRANCH   1  12
ATOM     12  C   UNL     1      13.794   8.868  15.581  1.00  0.00    -0.003 A 
ATOM     13  C   UNL     1      12.352  11.278  15.316  1.00  0.00     0.160 A 
ATOM     14  C   UNL     1      13.027  10.986  16.510  1.00  0.00     0.158 A 
ATOM     15  C   UNL     1      12.395  10.351  14.257  1.00  0.00     0.051 A 
ATOM     16  C   UNL     1      13.740   9.785  16.642  1.00  0.00     0.057 A 
ATOM     17  C   UNL     1      13.105   9.156  14.393  1.00  0.00     0.011 A 
BRANCH  13  18
ATOM     18  O   UNL     1      11.652  12.490  15.221  1.00  0.00    -0.493 OA
ATOM     19  C   UNL     1      11.813  13.586  16.117  1.00  0.00     0.278 C 
ENDBRANCH  13  18
BRANCH  14  20
ATOM     20  O   UNL     1      12.983  11.896  17.564  1.00  0.00    -0.504 OA
ATOM     21  H   UNL     1      13.128  12.888  17.417  1.00  0.00     0.293 HD
ENDBRANCH  14  20
ENDBRANCH   1  12
BRANCH   6  22
ATOM     22  O   UNL     1      15.544   2.730  17.255  1.00  0.00    -0.507 OA
ATOM     23  H   UNL     1      16.513   2.497  17.437  1.00  0.00     0.293 HD
ENDBRANCH   6  22
BRANCH   8  24
ATOM     24  O   UNL     1      14.541   2.336  12.548  1.00  0.00    -0.508 OA
ATOM     25  H   UNL     1      14.029   2.646  11.730  1.00  0.00     0.293 HD
ENDBRANCH   8  24
TORSDOF 5
ENDMDL
MODEL 7
REMARK VINA RESULT:    33.760      4.314      8.059
REMARK INTER + INTRA:          40.370
REMARK INTER:                  40.008
REMARK INTRA:                   0.362
REMARK UNBOUND:                -0.298
REMARK SMILES COc1ccc([C@H]2CC(=O)c3c(O)cc(O)cc3O2)cc1O
REMARK SMILES IDX 7 1 8 2 9 3 10 4 11 5 12 6 14 7 15 8 17 9 18 10 19 11 6 12
REMARK SMILES IDX 3 13 21 14 4 15 20 16 5 17 2 18 1 19 22 20 13 22 16 24
REMARK H PARENT 22 21 13 23 16 25
REMARK Flexibility Score: inf
ROOT
ATOM      1  C   UNL     1      16.968   2.919  14.401  1.00  0.00     0.211 C 
ATOM      2  C   UNL     1      15.745   2.607  13.525  1.00  0.00     0.131 C 
ATOM      3  C   UNL     1      14.780   3.758  13.558  1.00  0.00     0.174 C 
ATOM      4  O   UNL     1      14.093   4.017  12.533  1.00  0.00    -0.294 OA
ATOM      5  C   UNL     1      14.607   4.527  14.813  1.00  0.00     0.102 A 
ATOM      6  C   UNL     1      13.568   5.465  14.998  1.00  0.00     0.133 A 
ATOM      7  C   UNL     1      13.435   6.122  16.230  1.00  0.00     0.093 A 
ATOM      8  C   UNL     1      14.318   5.849  17.279  1.00  0.00     0.123 A 
ATOM      9  C   UNL     1      15.350   4.922  17.097  1.00  0.00     0.093 A 
ATOM     10  C   UNL     1      15.505   4.275  15.868  1.00  0.00     0.138 A 
ATOM     11  O   UNL     1      16.559   3.368  15.695  1.00  0.00    -0.484 OA
ENDROOT
BRANCH   1  12
ATOM     12  C   UNL     1      17.856   1.705  14.531  1.00  0.00    -0.003 A 
ATOM     13  C   UNL     1      19.454  -0.606  14.780  1.00  0.00     0.160 A 
ATOM     14  C   UNL     1      18.899  -0.261  13.540  1.00  0.00     0.158 A 
ATOM     15  C   UNL     1      19.196   0.208  15.900  1.00  0.00     0.051 A 
ATOM     16  C   UNL     1      18.101   0.886  13.418  1.00  0.00     0.057 A 
ATOM     17  C   UNL     1      18.400   1.348  15.775  1.00  0.00     0.011 A 
BRANCH  13  18
ATOM     18  O   UNL     1      20.249  -1.760  14.861  1.00  0.00    -0.493 OA
ATOM     19  C   UNL     1      21.128  -2.205  13.833  1.00  0.00     0.278 C 
ENDBRANCH  13  18
BRANCH  14  20
ATOM     20  O   UNL     1      19.145  -1.065  12.429  1.00  0.00    -0.504 OA
ATOM     21  H   UNL     1      18.695  -0.892  11.538  1.00  0.00     0.293 HD
ENDBRANCH  14  20
ENDBRANCH   1  12
BRANCH   6  22
ATOM     22  O   UNL     1      12.665   5.739  13.970  1.00  0.00    -0.507 OA
ATOM     23  H   UNL     1      12.151   6.611  13.933  1.00  0.00     0.293 HD
ENDBRANCH   6  22
BRANCH   8  24
ATOM     24  O   UNL     1      14.162   6.506  18.497  1.00  0.00    -0.508 OA
ATOM     25  H   UNL     1      13.310   6.423  19.039  1.00  0.00     0.293 HD
ENDBRANCH   8  24
TORSDOF 5
ENDMDL
