MODEL 1
REMARK VINA RESULT:     9.545      0.000      0.000
REMARK INTER + INTRA:          19.385
REMARK INTER:                  20.705
REMARK INTRA:                  -1.320
REMARK UNBOUND:                -1.320
REMARK SMILES CCCCCCCCCCCCCCCCCCCCCC(=O)[O-]
REMARK SMILES IDX 12 1 11 2 10 3 9 4 8 5 7 6 6 7 5 8 4 9 3 10 2 11 1 12 13 13
REMARK SMILES IDX 14 14 15 15 16 16 17 17 18 18 19 19 20 20 21 21 22 22 23 23
REMARK SMILES IDX 24 24
REMARK H PARENT
REMARK Flexibility Score: inf
ROOT
ATOM      1  C   UNL     1      17.433 -19.189  26.829  1.00  0.00     0.000 C 
ENDROOT
BRANCH   1   2
ATOM      2  C   UNL     1      18.813 -19.702  27.268  1.00  0.00     0.000 C 
BRANCH   2   3
ATOM      3  C   UNL     1      19.788 -19.735  26.085  1.00  0.00     0.000 C 
BRANCH   3   4
ATOM      4  C   UNL     1      21.231 -19.923  26.569  1.00  0.00    -0.000 C 
BRANCH   4   5
ATOM      5  C   UNL     1      21.885 -21.135  25.889  1.00  0.00    -0.000 C 
BRANCH   5   6
ATOM      6  C   UNL     1      22.039 -20.956  24.367  1.00  0.00    -0.000 C 
BRANCH   6   7
ATOM      7  C   UNL     1      23.470 -20.641  23.891  1.00  0.00    -0.000 C 
BRANCH   7   8
ATOM      8  C   UNL     1      24.227 -21.824  23.255  1.00  0.00    -0.000 C 
BRANCH   8   9
ATOM      9  C   UNL     1      25.134 -22.612  24.217  1.00  0.00    -0.000 C 
BRANCH   9  10
ATOM     10  C   UNL     1      25.416 -21.852  25.524  1.00  0.00    -0.000 C 
BRANCH  10  11
ATOM     11  C   UNL     1      25.970 -22.767  26.629  1.00  0.00    -0.003 C 
ATOM     12  C   UNL     1      27.479 -22.986  26.519  1.00  0.00     0.004 C 
ENDBRANCH  10  11
ENDBRANCH   9  10
ENDBRANCH   8   9
ENDBRANCH   7   8
ENDBRANCH   6   7
ENDBRANCH   5   6
ENDBRANCH   4   5
ENDBRANCH   3   4
ENDBRANCH   2   3
ENDBRANCH   1   2
BRANCH   1  13
ATOM     13  C   UNL     1      17.484 -18.416  25.502  1.00  0.00     0.000 C 
BRANCH  13  14
ATOM     14  C   UNL     1      16.871 -19.209  24.333  1.00  0.00     0.000 C 
BRANCH  14  15
ATOM     15  C   UNL     1      17.889 -19.472  23.211  1.00  0.00     0.000 C 
BRANCH  15  16
ATOM     16  C   UNL     1      17.361 -20.414  22.105  1.00  0.00     0.000 C 
BRANCH  16  17
ATOM     17  C   UNL     1      16.306 -21.420  22.604  1.00  0.00     0.000 C 
BRANCH  17  18
ATOM     18  C   UNL     1      16.309 -22.772  21.868  1.00  0.00     0.000 C 
BRANCH  18  19
ATOM     19  C   UNL     1      17.676 -23.482  21.823  1.00  0.00     0.000 C 
BRANCH  19  20
ATOM     20  C   UNL     1      17.721 -24.680  20.850  1.00  0.00     0.006 C 
BRANCH  20  21
ATOM     21  C   UNL     1      18.680 -24.443  19.676  1.00  0.00     0.053 C 
BRANCH  21  22
ATOM     22  C   UNL     1      18.156 -23.362  18.784  1.00  0.00     0.041 C 
ATOM     23  O   UNL     1      18.695 -22.224  18.785  1.00  0.00    -0.550 OA
ATOM     24  O   UNL     1      17.109 -23.628  17.913  1.00  0.00    -0.550 OA
ENDBRANCH  21  22
ENDBRANCH  20  21
ENDBRANCH  19  20
ENDBRANCH  18  19
ENDBRANCH  17  18
ENDBRANCH  16  17
ENDBRANCH  15  16
ENDBRANCH  14  15
ENDBRANCH  13  14
ENDBRANCH   1  13
TORSDOF 20
ENDMDL
MODEL 2
REMARK VINA RESULT:     9.587      3.275      7.667
REMARK INTER + INTRA:          19.476
REMARK INTER:                  20.965
REMARK INTRA:                  -1.488
REMARK UNBOUND:                -1.320
REMARK SMILES CCCCCCCCCCCCCCCCCCCCCC(=O)[O-]
REMARK SMILES IDX 12 1 11 2 10 3 9 4 8 5 7 6 6 7 5 8 4 9 3 10 2 11 1 12 13 13
REMARK SMILES IDX 14 14 15 15 16 16 17 17 18 18 19 19 20 20 21 21 22 22 23 23
REMARK SMILES IDX 24 24
REMARK H PARENT
REMARK Flexibility Score: inf
ROOT
ATOM      1  C   UNL     1      17.523 -19.115  26.754  1.00  0.00     0.000 C 
ENDROOT
BRANCH   1   2
ATOM      2  C   UNL     1      17.585 -18.461  25.365  1.00  0.00     0.000 C 
BRANCH   2   3
ATOM      3  C   UNL     1      16.994 -19.386  24.295  1.00  0.00     0.000 C 
BRANCH   3   4
ATOM      4  C   UNL     1      17.862 -19.389  23.031  1.00  0.00    -0.000 C 
BRANCH   4   5
ATOM      5  C   UNL     1      17.330 -20.396  22.001  1.00  0.00    -0.000 C 
BRANCH   5   6
ATOM      6  C   UNL     1      16.241 -21.320  22.576  1.00  0.00    -0.000 C 
BRANCH   6   7
ATOM      7  C   UNL     1      16.289 -22.776  22.071  1.00  0.00    -0.000 C 
BRANCH   7   8
ATOM      8  C   UNL     1      17.694 -23.298  21.706  1.00  0.00    -0.000 C 
BRANCH   8   9
ATOM      9  C   UNL     1      17.722 -24.690  21.050  1.00  0.00    -0.000 C 
BRANCH   9  10
ATOM     10  C   UNL     1      17.915 -24.626  19.526  1.00  0.00    -0.000 C 
BRANCH  10  11
ATOM     11  C   UNL     1      18.934 -23.554  19.106  1.00  0.00    -0.003 C 
ATOM     12  C   UNL     1      18.276 -22.300  18.532  1.00  0.00     0.004 C 
ENDBRANCH  10  11
ENDBRANCH   9  10
ENDBRANCH   8   9
ENDBRANCH   7   8
ENDBRANCH   6   7
ENDBRANCH   5   6
ENDBRANCH   4   5
ENDBRANCH   3   4
ENDBRANCH   2   3
ENDBRANCH   1   2
BRANCH   1  13
ATOM     13  C   UNL     1      18.829 -19.833  27.129  1.00  0.00     0.000 C 
BRANCH  13  14
ATOM     14  C   UNL     1      19.981 -19.507  26.160  1.00  0.00     0.000 C 
BRANCH  14  15
ATOM     15  C   UNL     1      21.327 -20.071  26.647  1.00  0.00     0.000 C 
BRANCH  15  16
ATOM     16  C   UNL     1      21.846 -21.252  25.796  1.00  0.00     0.000 C 
BRANCH  16  17
ATOM     17  C   UNL     1      22.132 -20.877  24.329  1.00  0.00     0.000 C 
BRANCH  17  18
ATOM     18  C   UNL     1      23.621 -20.674  23.997  1.00  0.00     0.000 C 
BRANCH  18  19
ATOM     19  C   UNL     1      24.269 -21.819  23.193  1.00  0.00     0.000 C 
BRANCH  19  20
ATOM     20  C   UNL     1      24.640 -23.047  24.052  1.00  0.00     0.006 C 
BRANCH  20  21
ATOM     21  C   UNL     1      26.127 -23.067  24.429  1.00  0.00     0.053 C 
BRANCH  21  22
ATOM     22  C   UNL     1      26.295 -22.874  25.903  1.00  0.00     0.041 C 
ATOM     23  O   UNL     1      27.355 -23.244  26.473  1.00  0.00    -0.550 OA
ATOM     24  O   UNL     1      25.304 -22.237  26.638  1.00  0.00    -0.550 OA
ENDBRANCH  21  22
ENDBRANCH  20  21
ENDBRANCH  19  20
ENDBRANCH  18  19
ENDBRANCH  17  18
ENDBRANCH  16  17
ENDBRANCH  15  16
ENDBRANCH  14  15
ENDBRANCH  13  14
ENDBRANCH   1  13
TORSDOF 20
ENDMDL
MODEL 3
REMARK VINA RESULT:    10.405      3.405      7.694
REMARK INTER + INTRA:          21.251
REMARK INTER:                  22.438
REMARK INTRA:                  -1.186
REMARK UNBOUND:                -1.320
REMARK SMILES CCCCCCCCCCCCCCCCCCCCCC(=O)[O-]
REMARK SMILES IDX 12 1 11 2 10 3 9 4 8 5 7 6 6 7 5 8 4 9 3 10 2 11 1 12 13 13
REMARK SMILES IDX 14 14 15 15 16 16 17 17 18 18 19 19 20 20 21 21 22 22 23 23
REMARK SMILES IDX 24 24
REMARK H PARENT
REMARK Flexibility Score: inf
ROOT
ATOM      1  C   UNL     1      17.401 -18.762  26.958  1.00  0.00     0.000 C 
ENDROOT
BRANCH   1   2
ATOM      2  C   UNL     1      17.015 -19.231  25.547  1.00  0.00     0.000 C 
BRANCH   2   3
ATOM      3  C   UNL     1      17.798 -18.459  24.478  1.00  0.00     0.000 C 
BRANCH   3   4
ATOM      4  C   UNL     1      17.888 -19.263  23.176  1.00  0.00    -0.000 C 
BRANCH   4   5
ATOM      5  C   UNL     1      16.620 -20.101  22.958  1.00  0.00    -0.000 C 
BRANCH   5   6
ATOM      6  C   UNL     1      16.825 -21.244  21.947  1.00  0.00    -0.000 C 
BRANCH   6   7
ATOM      7  C   UNL     1      16.237 -22.603  22.373  1.00  0.00    -0.000 C 
BRANCH   7   8
ATOM      8  C   UNL     1      16.438 -23.752  21.364  1.00  0.00    -0.000 C 
BRANCH   8   9
ATOM      9  C   UNL     1      17.888 -24.250  21.223  1.00  0.00    -0.000 C 
BRANCH   9  10
ATOM     10  C   UNL     1      18.268 -24.570  19.767  1.00  0.00    -0.000 C 
BRANCH  10  11
ATOM     11  C   UNL     1      17.782 -23.494  18.782  1.00  0.00    -0.003 C 
ATOM     12  C   UNL     1      18.635 -22.225  18.819  1.00  0.00     0.004 C 
ENDBRANCH  10  11
ENDBRANCH   9  10
ENDBRANCH   8   9
ENDBRANCH   7   8
ENDBRANCH   6   7
ENDBRANCH   5   6
ENDBRANCH   4   5
ENDBRANCH   3   4
ENDBRANCH   2   3
ENDBRANCH   1   2
BRANCH   1  13
ATOM     13  C   UNL     1      18.292 -19.775  27.695  1.00  0.00     0.000 C 
BRANCH  13  14
ATOM     14  C   UNL     1      19.793 -19.506  27.479  1.00  0.00     0.000 C 
BRANCH  14  15
ATOM     15  C   UNL     1      20.247 -19.856  26.051  1.00  0.00     0.000 C 
BRANCH  15  16
ATOM     16  C   UNL     1      21.405 -20.879  26.004  1.00  0.00     0.000 C 
BRANCH  16  17
ATOM     17  C   UNL     1      21.838 -21.255  24.574  1.00  0.00     0.000 C 
BRANCH  17  18
ATOM     18  C   UNL     1      23.114 -20.549  24.083  1.00  0.00     0.000 C 
BRANCH  18  19
ATOM     19  C   UNL     1      24.171 -21.480  23.458  1.00  0.00     0.000 C 
BRANCH  19  20
ATOM     20  C   UNL     1      24.502 -22.714  24.324  1.00  0.00     0.006 C 
BRANCH  20  21
ATOM     21  C   UNL     1      26.003 -22.837  24.616  1.00  0.00     0.053 C 
BRANCH  21  22
ATOM     22  C   UNL     1      26.250 -22.855  26.091  1.00  0.00     0.041 C 
ATOM     23  O   UNL     1      25.517 -22.183  26.863  1.00  0.00    -0.550 OA
ATOM     24  O   UNL     1      27.253 -23.657  26.618  1.00  0.00    -0.550 OA
ENDBRANCH  21  22
ENDBRANCH  20  21
ENDBRANCH  19  20
ENDBRANCH  18  19
ENDBRANCH  17  18
ENDBRANCH  16  17
ENDBRANCH  15  16
ENDBRANCH  14  15
ENDBRANCH  13  14
ENDBRANCH   1  13
TORSDOF 20
ENDMDL
MODEL 4
REMARK VINA RESULT:    10.501      3.258      7.860
REMARK INTER + INTRA:          21.460
REMARK INTER:                  22.240
REMARK INTRA:                  -0.780
REMARK UNBOUND:                -1.320
REMARK SMILES CCCCCCCCCCCCCCCCCCCCCC(=O)[O-]
REMARK SMILES IDX 12 1 11 2 10 3 9 4 8 5 7 6 6 7 5 8 4 9 3 10 2 11 1 12 13 13
REMARK SMILES IDX 14 14 15 15 16 16 17 17 18 18 19 19 20 20 21 21 22 22 23 23
REMARK SMILES IDX 24 24
REMARK H PARENT
REMARK Flexibility Score: inf
ROOT
ATOM      1  C   UNL     1      18.987 -19.224  27.590  1.00  0.00     0.000 C 
ENDROOT
BRANCH   1   2
ATOM      2  C   UNL     1      17.455 -19.245  27.471  1.00  0.00     0.000 C 
BRANCH   2   3
ATOM      3  C   UNL     1      16.975 -18.285  26.377  1.00  0.00     0.000 C 
BRANCH   3   4
ATOM      4  C   UNL     1      17.724 -18.532  25.062  1.00  0.00    -0.000 C 
BRANCH   4   5
ATOM      5  C   UNL     1      16.996 -19.574  24.201  1.00  0.00    -0.000 C 
BRANCH   5   6
ATOM      6  C   UNL     1      17.438 -19.546  22.727  1.00  0.00    -0.000 C 
BRANCH   6   7
ATOM      7  C   UNL     1      17.523 -20.926  22.046  1.00  0.00    -0.000 C 
BRANCH   7   8
ATOM      8  C   UNL     1      16.260 -21.801  22.175  1.00  0.00    -0.000 C 
BRANCH   8   9
ATOM      9  C   UNL     1      16.448 -23.279  21.789  1.00  0.00    -0.000 C 
BRANCH   9  10
ATOM     10  C   UNL     1      17.867 -23.586  21.280  1.00  0.00    -0.000 C 
BRANCH  10  11
ATOM     11  C   UNL     1      17.871 -24.140  19.846  1.00  0.00    -0.003 C 
ATOM     12  C   UNL     1      18.609 -23.233  18.861  1.00  0.00     0.004 C 
ENDBRANCH  10  11
ENDBRANCH   9  10
ENDBRANCH   8   9
ENDBRANCH   7   8
ENDBRANCH   6   7
ENDBRANCH   5   6
ENDBRANCH   4   5
ENDBRANCH   3   4
ENDBRANCH   2   3
ENDBRANCH   1   2
BRANCH   1  13
ATOM     13  C   UNL     1      19.663 -20.283  26.705  1.00  0.00     0.000 C 
BRANCH  13  14
ATOM     14  C   UNL     1      21.115 -19.916  26.349  1.00  0.00     0.000 C 
BRANCH  14  15
ATOM     15  C   UNL     1      21.878 -21.097  25.725  1.00  0.00     0.000 C 
BRANCH  15  16
ATOM     16  C   UNL     1      22.094 -20.956  24.201  1.00  0.00     0.000 C 
BRANCH  16  17
ATOM     17  C   UNL     1      23.543 -20.606  23.812  1.00  0.00     0.000 C 
BRANCH  17  18
ATOM     18  C   UNL     1      24.430 -21.820  23.483  1.00  0.00     0.000 C 
BRANCH  18  19
ATOM     19  C   UNL     1      24.950 -22.595  24.710  1.00  0.00     0.000 C 
BRANCH  19  20
ATOM     20  C   UNL     1      25.379 -21.687  25.882  1.00  0.00     0.006 C 
BRANCH  20  21
ATOM     21  C   UNL     1      25.577 -22.473  27.186  1.00  0.00     0.053 C 
BRANCH  21  22
ATOM     22  C   UNL     1      24.350 -22.388  28.038  1.00  0.00     0.041 C 
ATOM     23  O   UNL     1      23.269 -22.897  27.643  1.00  0.00    -0.550 OA
ATOM     24  O   UNL     1      24.415 -21.795  29.292  1.00  0.00    -0.550 OA
ENDBRANCH  21  22
ENDBRANCH  20  21
ENDBRANCH  19  20
ENDBRANCH  18  19
ENDBRANCH  17  18
ENDBRANCH  16  17
ENDBRANCH  15  16
ENDBRANCH  14  15
ENDBRANCH  13  14
ENDBRANCH   1  13
TORSDOF 20
ENDMDL
MODEL 5
REMARK VINA RESULT:    10.630      0.975      2.267
REMARK INTER + INTRA:          21.738
REMARK INTER:                  23.391
REMARK INTRA:                  -1.653
REMARK UNBOUND:                -1.320
REMARK SMILES CCCCCCCCCCCCCCCCCCCCCC(=O)[O-]
REMARK SMILES IDX 12 1 11 2 10 3 9 4 8 5 7 6 6 7 5 8 4 9 3 10 2 11 1 12 13 13
REMARK SMILES IDX 14 14 15 15 16 16 17 17 18 18 19 19 20 20 21 21 22 22 23 23
REMARK SMILES IDX 24 24
REMARK H PARENT
REMARK Flexibility Score: inf
ROOT
ATOM      1  C   UNL     1      20.094 -19.518  25.976  1.00  0.00     0.000 C 
ENDROOT
BRANCH   1   2
ATOM      2  C   UNL     1      20.836 -20.862  26.023  1.00  0.00     0.000 C 
BRANCH   2   3
ATOM      3  C   UNL     1      21.749 -21.030  24.803  1.00  0.00     0.000 C 
BRANCH   3   4
ATOM      4  C   UNL     1      23.088 -20.315  25.017  1.00  0.00    -0.000 C 
BRANCH   4   5
ATOM      5  C   UNL     1      23.984 -20.444  23.777  1.00  0.00    -0.000 C 
BRANCH   5   6
ATOM      6  C   UNL     1      23.763 -21.762  23.014  1.00  0.00    -0.000 C 
BRANCH   6   7
ATOM      7  C   UNL     1      24.371 -23.011  23.682  1.00  0.00    -0.000 C 
BRANCH   7   8
ATOM      8  C   UNL     1      25.874 -22.913  24.012  1.00  0.00    -0.000 C 
BRANCH   8   9
ATOM      9  C   UNL     1      26.248 -23.263  25.463  1.00  0.00    -0.000 C 
BRANCH   9  10
ATOM     10  C   UNL     1      26.051 -22.084  26.430  1.00  0.00    -0.000 C 
BRANCH  10  11
ATOM     11  C   UNL     1      25.334 -22.498  27.726  1.00  0.00    -0.003 C 
ATOM     12  C   UNL     1      23.812 -22.397  27.622  1.00  0.00     0.004 C 
ENDBRANCH  10  11
ENDBRANCH   9  10
ENDBRANCH   8   9
ENDBRANCH   7   8
ENDBRANCH   6   7
ENDBRANCH   5   6
ENDBRANCH   4   5
ENDBRANCH   3   4
ENDBRANCH   2   3
ENDBRANCH   1   2
BRANCH   1  13
ATOM     13  C   UNL     1      18.809 -19.521  26.819  1.00  0.00     0.000 C 
BRANCH  13  14
ATOM     14  C   UNL     1      17.710 -18.623  26.223  1.00  0.00     0.000 C 
BRANCH  14  15
ATOM     15  C   UNL     1      17.023 -19.272  25.009  1.00  0.00     0.000 C 
BRANCH  15  16
ATOM     16  C   UNL     1      17.836 -19.149  23.700  1.00  0.00     0.000 C 
BRANCH  16  17
ATOM     17  C   UNL     1      17.312 -20.044  22.561  1.00  0.00     0.000 C 
BRANCH  17  18
ATOM     18  C   UNL     1      16.249 -21.071  22.989  1.00  0.00     0.000 C 
BRANCH  18  19
ATOM     19  C   UNL     1      16.266 -22.392  22.195  1.00  0.00     0.000 C 
BRANCH  19  20
ATOM     20  C   UNL     1      17.593 -22.652  21.450  1.00  0.00     0.006 C 
BRANCH  20  21
ATOM     21  C   UNL     1      17.658 -24.063  20.850  1.00  0.00     0.053 C 
BRANCH  21  22
ATOM     22  C   UNL     1      18.091 -24.002  19.420  1.00  0.00     0.041 C 
ATOM     23  O   UNL     1      17.872 -24.974  18.650  1.00  0.00    -0.550 OA
ATOM     24  O   UNL     1      18.689 -22.852  18.923  1.00  0.00    -0.550 OA
ENDBRANCH  21  22
ENDBRANCH  20  21
ENDBRANCH  19  20
ENDBRANCH  18  19
ENDBRANCH  17  18
ENDBRANCH  16  17
ENDBRANCH  15  16
ENDBRANCH  14  15
ENDBRANCH  13  14
ENDBRANCH   1  13
TORSDOF 20
ENDMDL
MODEL 6
REMARK VINA RESULT:    10.879      2.660      6.987
REMARK INTER + INTRA:          22.280
REMARK INTER:                  20.199
REMARK INTRA:                   2.081
REMARK UNBOUND:                -1.320
REMARK SMILES CCCCCCCCCCCCCCCCCCCCCC(=O)[O-]
REMARK SMILES IDX 12 1 11 2 10 3 9 4 8 5 7 6 6 7 5 8 4 9 3 10 2 11 1 12 13 13
REMARK SMILES IDX 14 14 15 15 16 16 17 17 18 18 19 19 20 20 21 21 22 22 23 23
REMARK SMILES IDX 24 24
REMARK H PARENT
REMARK Flexibility Score: inf
ROOT
ATOM      1  C   UNL     1      16.839 -18.863  26.395  1.00  0.00     0.000 C 
ENDROOT
BRANCH   1   2
ATOM      2  C   UNL     1      17.622 -18.578  25.104  1.00  0.00     0.000 C 
BRANCH   2   3
ATOM      3  C   UNL     1      16.961 -19.257  23.899  1.00  0.00     0.000 C 
BRANCH   3   4
ATOM      4  C   UNL     1      17.941 -19.368  22.725  1.00  0.00    -0.000 C 
BRANCH   4   5
ATOM      5  C   UNL     1      17.667 -20.633  21.898  1.00  0.00    -0.000 C 
BRANCH   5   6
ATOM      6  C   UNL     1      16.420 -21.400  22.373  1.00  0.00    -0.000 C 
BRANCH   6   7
ATOM      7  C   UNL     1      16.315 -22.850  21.864  1.00  0.00    -0.000 C 
BRANCH   7   8
ATOM      8  C   UNL     1      17.655 -23.603  21.743  1.00  0.00    -0.000 C 
BRANCH   8   9
ATOM      9  C   UNL     1      17.613 -24.876  20.878  1.00  0.00    -0.000 C 
BRANCH   9  10
ATOM     10  C   UNL     1      17.908 -24.597  19.394  1.00  0.00    -0.000 C 
BRANCH  10  11
ATOM     11  C   UNL     1      18.947 -23.481  19.200  1.00  0.00    -0.003 C 
ATOM     12  C   UNL     1      18.362 -22.231  18.544  1.00  0.00     0.004 C 
ENDBRANCH  10  11
ENDBRANCH   9  10
ENDBRANCH   8   9
ENDBRANCH   7   8
ENDBRANCH   6   7
ENDBRANCH   5   6
ENDBRANCH   4   5
ENDBRANCH   3   4
ENDBRANCH   2   3
ENDBRANCH   1   2
BRANCH   1  13
ATOM     13  C   UNL     1      16.738 -17.632  27.310  1.00  0.00     0.000 C 
BRANCH  13  14
ATOM     14  C   UNL     1      16.609 -18.011  28.796  1.00  0.00     0.000 C 
BRANCH  14  15
ATOM     15  C   UNL     1      17.283 -19.356  29.115  1.00  0.00     0.000 C 
BRANCH  15  16
ATOM     16  C   UNL     1      17.978 -20.003  27.895  1.00  0.00     0.000 C 
BRANCH  16  17
ATOM     17  C   UNL     1      19.446 -19.569  27.720  1.00  0.00     0.000 C 
BRANCH  17  18
ATOM     18  C   UNL     1      20.029 -19.826  26.319  1.00  0.00     0.000 C 
BRANCH  18  19
ATOM     19  C   UNL     1      21.519 -20.218  26.298  1.00  0.00     0.000 C 
BRANCH  19  20
ATOM     20  C   UNL     1      21.856 -21.323  25.273  1.00  0.00     0.006 C 
BRANCH  20  21
ATOM     21  C   UNL     1      23.369 -21.504  25.087  1.00  0.00     0.053 C 
BRANCH  21  22
ATOM     22  C   UNL     1      23.775 -21.115  23.701  1.00  0.00     0.041 C 
ATOM     23  O   UNL     1      23.800 -19.901  23.366  1.00  0.00    -0.550 OA
ATOM     24  O   UNL     1      24.176 -22.088  22.796  1.00  0.00    -0.550 OA
ENDBRANCH  21  22
ENDBRANCH  20  21
ENDBRANCH  19  20
ENDBRANCH  18  19
ENDBRANCH  17  18
ENDBRANCH  16  17
ENDBRANCH  15  16
ENDBRANCH  14  15
ENDBRANCH  13  14
ENDBRANCH   1  13
TORSDOF 20
ENDMDL
MODEL 7
REMARK VINA RESULT:    11.415     10.780     13.524
REMARK INTER + INTRA:          23.441
REMARK INTER:                  24.056
REMARK INTRA:                  -0.615
REMARK UNBOUND:                -1.320
REMARK SMILES CCCCCCCCCCCCCCCCCCCCCC(=O)[O-]
REMARK SMILES IDX 12 1 11 2 10 3 9 4 8 5 7 6 6 7 5 8 4 9 3 10 2 11 1 12 13 13
REMARK SMILES IDX 14 14 15 15 16 16 17 17 18 18 19 19 20 20 21 21 22 22 23 23
REMARK SMILES IDX 24 24
REMARK H PARENT
REMARK Flexibility Score: inf
ROOT
ATOM      1  C   UNL     1      26.133 -19.193  16.616  1.00  0.00     0.000 C 
ENDROOT
BRANCH   1   2
ATOM      2  C   UNL     1      25.109 -19.296  15.475  1.00  0.00     0.000 C 
BRANCH   2   3
ATOM      3  C   UNL     1      25.266 -20.617  14.713  1.00  0.00     0.000 C 
BRANCH   3   4
ATOM      4  C   UNL     1      25.593 -21.769  15.672  1.00  0.00    -0.000 C 
BRANCH   4   5
ATOM      5  C   UNL     1      25.074 -23.106  15.122  1.00  0.00    -0.000 C 
BRANCH   5   6
ATOM      6  C   UNL     1      25.968 -23.681  14.009  1.00  0.00    -0.000 C 
BRANCH   6   7
ATOM      7  C   UNL     1      26.899 -24.827  14.449  1.00  0.00    -0.000 C 
BRANCH   7   8
ATOM      8  C   UNL     1      28.073 -25.124  13.495  1.00  0.00    -0.000 C 
BRANCH   8   9
ATOM      9  C   UNL     1      29.473 -24.882  14.087  1.00  0.00    -0.000 C 
BRANCH   9  10
ATOM     10  C   UNL     1      30.412 -24.149  13.113  1.00  0.00    -0.000 C 
BRANCH  10  11
ATOM     11  C   UNL     1      31.806 -24.795  13.040  1.00  0.00    -0.003 C 
ATOM     12  C   UNL     1      32.761 -24.046  12.112  1.00  0.00     0.004 C 
ENDBRANCH  10  11
ENDBRANCH   9  10
ENDBRANCH   8   9
ENDBRANCH   7   8
ENDBRANCH   6   7
ENDBRANCH   5   6
ENDBRANCH   4   5
ENDBRANCH   3   4
ENDBRANCH   2   3
ENDBRANCH   1   2
BRANCH   1  13
ATOM     13  C   UNL     1      26.847 -17.832  16.649  1.00  0.00     0.000 C 
BRANCH  13  14
ATOM     14  C   UNL     1      28.074 -17.833  17.578  1.00  0.00     0.000 C 
BRANCH  14  15
ATOM     15  C   UNL     1      28.256 -16.488  18.303  1.00  0.00     0.000 C 
BRANCH  15  16
ATOM     16  C   UNL     1      29.399 -15.623  17.724  1.00  0.00     0.000 C 
BRANCH  16  17
ATOM     17  C   UNL     1      28.952 -14.210  17.305  1.00  0.00     0.000 C 
BRANCH  17  18
ATOM     18  C   UNL     1      28.054 -14.164  16.056  1.00  0.00     0.000 C 
BRANCH  18  19
ATOM     19  C   UNL     1      28.662 -14.810  14.796  1.00  0.00     0.000 C 
BRANCH  19  20
ATOM     20  C   UNL     1      28.026 -16.167  14.425  1.00  0.00     0.006 C 
BRANCH  20  21
ATOM     21  C   UNL     1      28.777 -16.872  13.287  1.00  0.00     0.053 C 
BRANCH  21  22
ATOM     22  C   UNL     1      30.163 -17.230  13.720  1.00  0.00     0.041 C 
ATOM     23  O   UNL     1      30.593 -16.854  14.842  1.00  0.00    -0.550 OA
ATOM     24  O   UNL     1      30.961 -18.025  12.908  1.00  0.00    -0.550 OA
ENDBRANCH  21  22
ENDBRANCH  20  21
ENDBRANCH  19  20
ENDBRANCH  18  19
ENDBRANCH  17  18
ENDBRANCH  16  17
ENDBRANCH  15  16
ENDBRANCH  14  15
ENDBRANCH  13  14
ENDBRANCH   1  13
TORSDOF 20
ENDMDL
MODEL 8
REMARK VINA RESULT:    11.500      2.948      8.073
REMARK INTER + INTRA:          23.627
REMARK INTER:                  24.808
REMARK INTRA:                  -1.181
REMARK UNBOUND:                -1.320
REMARK SMILES CCCCCCCCCCCCCCCCCCCCCC(=O)[O-]
REMARK SMILES IDX 12 1 11 2 10 3 9 4 8 5 7 6 6 7 5 8 4 9 3 10 2 11 1 12 13 13
REMARK SMILES IDX 14 14 15 15 16 16 17 17 18 18 19 19 20 20 21 21 22 22 23 23
REMARK SMILES IDX 24 24
REMARK H PARENT
REMARK Flexibility Score: inf
ROOT
ATOM      1  C   UNL     1      17.666 -20.351  22.300  1.00  0.00     0.000 C 
ENDROOT
BRANCH   1   2
ATOM      2  C   UNL     1      16.252 -20.946  22.234  1.00  0.00     0.000 C 
BRANCH   2   3
ATOM      3  C   UNL     1      16.268 -22.439  22.581  1.00  0.00     0.000 C 
BRANCH   3   4
ATOM      4  C   UNL     1      16.335 -23.298  21.312  1.00  0.00    -0.000 C 
BRANCH   4   5
ATOM      5  C   UNL     1      17.749 -23.860  21.103  1.00  0.00    -0.000 C 
BRANCH   5   6
ATOM      6  C   UNL     1      18.073 -24.127  19.622  1.00  0.00    -0.000 C 
BRANCH   6   7
ATOM      7  C   UNL     1      18.735 -22.951  18.879  1.00  0.00    -0.000 C 
BRANCH   7   8
ATOM      8  C   UNL     1      17.882 -22.316  17.761  1.00  0.00    -0.000 C 
BRANCH   8   9
ATOM      9  C   UNL     1      18.462 -21.028  17.150  1.00  0.00    -0.000 C 
BRANCH   9  10
ATOM     10  C   UNL     1      17.474 -20.319  16.208  1.00  0.00    -0.000 C 
BRANCH  10  11
ATOM     11  C   UNL     1      17.866 -20.459  14.728  1.00  0.00    -0.003 C 
ATOM     12  C   UNL     1      17.579 -19.196  13.915  1.00  0.00     0.004 C 
ENDBRANCH  10  11
ENDBRANCH   9  10
ENDBRANCH   8   9
ENDBRANCH   7   8
ENDBRANCH   6   7
ENDBRANCH   5   6
ENDBRANCH   4   5
ENDBRANCH   3   4
ENDBRANCH   2   3
ENDBRANCH   1   2
BRANCH   1  13
ATOM     13  C   UNL     1      17.745 -19.113  23.207  1.00  0.00     0.000 C 
BRANCH  13  14
ATOM     14  C   UNL     1      16.948 -19.286  24.513  1.00  0.00     0.000 C 
BRANCH  14  15
ATOM     15  C   UNL     1      17.494 -18.406  25.650  1.00  0.00     0.000 C 
BRANCH  15  16
ATOM     16  C   UNL     1      17.548 -19.125  27.017  1.00  0.00     0.000 C 
BRANCH  16  17
ATOM     17  C   UNL     1      18.862 -19.893  27.259  1.00  0.00     0.000 C 
BRANCH  17  18
ATOM     18  C   UNL     1      19.834 -19.893  26.066  1.00  0.00     0.000 C 
BRANCH  18  19
ATOM     19  C   UNL     1      21.327 -19.858  26.446  1.00  0.00     0.000 C 
BRANCH  19  20
ATOM     20  C   UNL     1      22.134 -21.057  25.901  1.00  0.00     0.006 C 
BRANCH  20  21
ATOM     21  C   UNL     1      22.117 -21.123  24.368  1.00  0.00     0.053 C 
BRANCH  21  22
ATOM     22  C   UNL     1      23.506 -21.008  23.825  1.00  0.00     0.041 C 
ATOM     23  O   UNL     1      23.965 -19.883  23.493  1.00  0.00    -0.550 OA
ATOM     24  O   UNL     1      24.313 -22.134  23.736  1.00  0.00    -0.550 OA
ENDBRANCH  21  22
ENDBRANCH  20  21
ENDBRANCH  19  20
ENDBRANCH  18  19
ENDBRANCH  17  18
ENDBRANCH  16  17
ENDBRANCH  15  16
ENDBRANCH  14  15
ENDBRANCH  13  14
ENDBRANCH   1  13
TORSDOF 20
ENDMDL
