MODEL 1
REMARK VINA RESULT:    -3.063      0.000      0.000
REMARK INTER + INTRA:          -3.430
REMARK INTER:                  -3.421
REMARK INTRA:                  -0.009
REMARK UNBOUND:                -0.009
REMARK SMILES CCCC(=O)[O-]
REMARK SMILES IDX 3 1 4 2 5 3 6 4 2 5 1 6
REMARK H PARENT
REMARK Flexibility Score: inf
ROOT
ATOM      1  C   UNL     1     -18.000  19.249 -43.176  1.00  0.00     0.052 C 
ENDROOT
BRANCH   1   2
ATOM      2  C   UNL     1     -18.520  20.636 -42.968  1.00  0.00     0.041 C 
ATOM      3  O   UNL     1     -17.874  21.457 -42.264  1.00  0.00    -0.550 OA
ATOM      4  O   UNL     1     -19.742  21.008 -43.513  1.00  0.00    -0.550 OA
ENDBRANCH   1   2
BRANCH   1   5
ATOM      5  C   UNL     1     -17.251  18.765 -41.931  1.00  0.00     0.003 C 
ATOM      6  C   UNL     1     -17.258  17.242 -41.840  1.00  0.00     0.004 C 
ENDBRANCH   1   5
TORSDOF 2
ENDMDL
MODEL 2
REMARK VINA RESULT:    -2.522     11.493     11.894
REMARK INTER + INTRA:          -2.826
REMARK INTER:                  -2.817
REMARK INTRA:                  -0.009
REMARK UNBOUND:                -0.009
REMARK SMILES CCCC(=O)[O-]
REMARK SMILES IDX 3 1 4 2 5 3 6 4 2 5 1 6
REMARK H PARENT
REMARK Flexibility Score: inf
ROOT
ATOM      1  C   UNL     1     -19.265  30.536 -42.562  1.00  0.00     0.052 C 
ENDROOT
BRANCH   1   2
ATOM      2  C   UNL     1     -18.453  31.765 -42.829  1.00  0.00     0.041 C 
ATOM      3  O   UNL     1     -18.290  32.172 -44.009  1.00  0.00    -0.550 OA
ATOM      4  O   UNL     1     -17.837  32.432 -41.778  1.00  0.00    -0.550 OA
ENDBRANCH   1   2
BRANCH   1   5
ATOM      5  C   UNL     1     -20.696  30.913 -42.170  1.00  0.00     0.003 C 
ATOM      6  C   UNL     1     -21.702  29.905 -42.717  1.00  0.00     0.004 C 
ENDBRANCH   1   5
TORSDOF 2
ENDMDL
MODEL 3
REMARK VINA RESULT:    -2.487      9.410      9.714
REMARK INTER + INTRA:          -2.787
REMARK INTER:                  -2.776
REMARK INTRA:                  -0.011
REMARK UNBOUND:                -0.009
REMARK SMILES CCCC(=O)[O-]
REMARK SMILES IDX 3 1 4 2 5 3 6 4 2 5 1 6
REMARK H PARENT
REMARK Flexibility Score: inf
ROOT
ATOM      1  C   UNL     1     -26.061  20.468 -38.310  1.00  0.00     0.052 C 
ENDROOT
BRANCH   1   2
ATOM      2  C   UNL     1     -27.137  21.234 -39.013  1.00  0.00     0.041 C 
ATOM      3  O   UNL     1     -27.666  22.234 -38.462  1.00  0.00    -0.550 OA
ATOM      4  O   UNL     1     -27.587  20.814 -40.258  1.00  0.00    -0.550 OA
ENDBRANCH   1   2
BRANCH   1   5
ATOM      5  C   UNL     1     -26.356  18.966 -38.354  1.00  0.00     0.003 C 
ATOM      6  C   UNL     1     -26.302  18.352 -36.958  1.00  0.00     0.004 C 
ENDBRANCH   1   5
TORSDOF 2
ENDMDL
MODEL 4
REMARK VINA RESULT:    -2.464     18.217     18.771
REMARK INTER + INTRA:          -2.762
REMARK INTER:                  -2.756
REMARK INTRA:                  -0.006
REMARK UNBOUND:                -0.009
REMARK SMILES CCCC(=O)[O-]
REMARK SMILES IDX 3 1 4 2 5 3 6 4 2 5 1 6
REMARK H PARENT
REMARK Flexibility Score: inf
ROOT
ATOM      1  C   UNL     1     -30.400  30.101 -33.995  1.00  0.00     0.052 C 
ENDROOT
BRANCH   1   2
ATOM      2  C   UNL     1     -29.531  31.318 -33.964  1.00  0.00     0.041 C 
ATOM      3  O   UNL     1     -29.241  31.862 -32.866  1.00  0.00    -0.550 OA
ATOM      4  O   UNL     1     -29.080  31.880 -35.151  1.00  0.00    -0.550 OA
ENDBRANCH   1   2
BRANCH   1   5
ATOM      5  C   UNL     1     -31.694  30.386 -34.762  1.00  0.00     0.003 C 
ATOM      6  C   UNL     1     -32.800  29.416 -34.358  1.00  0.00     0.004 C 
ENDBRANCH   1   5
TORSDOF 2
ENDMDL
MODEL 5
REMARK VINA RESULT:    -2.435     14.429     14.834
REMARK INTER + INTRA:          -2.729
REMARK INTER:                  -2.683
REMARK INTRA:                  -0.046
REMARK UNBOUND:                -0.009
REMARK SMILES CCCC(=O)[O-]
REMARK SMILES IDX 3 1 4 2 5 3 6 4 2 5 1 6
REMARK H PARENT
REMARK Flexibility Score: inf
ROOT
ATOM      1  C   UNL     1     -24.694  26.489 -30.162  1.00  0.00     0.052 C 
ENDROOT
BRANCH   1   2
ATOM      2  C   UNL     1     -23.896  26.842 -31.378  1.00  0.00     0.041 C 
ATOM      3  O   UNL     1     -24.476  27.226 -32.427  1.00  0.00    -0.550 OA
ATOM      4  O   UNL     1     -22.515  26.701 -31.366  1.00  0.00    -0.550 OA
ENDBRANCH   1   2
BRANCH   1   5
ATOM      5  C   UNL     1     -23.989  25.395 -29.357  1.00  0.00     0.003 C 
ATOM      6  C   UNL     1     -24.465  24.008 -29.777  1.00  0.00     0.004 C 
ENDBRANCH   1   5
TORSDOF 2
ENDMDL
MODEL 6
REMARK VINA RESULT:    -2.432     14.679     15.312
REMARK INTER + INTRA:          -2.725
REMARK INTER:                  -2.716
REMARK INTRA:                  -0.009
REMARK UNBOUND:                -0.009
REMARK SMILES CCCC(=O)[O-]
REMARK SMILES IDX 3 1 4 2 5 3 6 4 2 5 1 6
REMARK H PARENT
REMARK Flexibility Score: inf
ROOT
ATOM      1  C   UNL     1     -24.415  26.207 -30.165  1.00  0.00     0.052 C 
ENDROOT
BRANCH   1   2
ATOM      2  C   UNL     1     -23.756  25.195 -29.282  1.00  0.00     0.041 C 
ATOM      3  O   UNL     1     -22.502  25.161 -29.184  1.00  0.00    -0.550 OA
ATOM      4  O   UNL     1     -24.526  24.258 -28.606  1.00  0.00    -0.550 OA
ENDBRANCH   1   2
BRANCH   1   5
ATOM      5  C   UNL     1     -23.616  26.395 -31.457  1.00  0.00     0.003 C 
ATOM      6  C   UNL     1     -24.292  27.399 -32.384  1.00  0.00     0.004 C 
ENDBRANCH   1   5
TORSDOF 2
ENDMDL
MODEL 7
REMARK VINA RESULT:    -2.415     18.397     18.959
REMARK INTER + INTRA:          -2.706
REMARK INTER:                  -2.701
REMARK INTRA:                  -0.006
REMARK UNBOUND:                -0.009
REMARK SMILES CCCC(=O)[O-]
REMARK SMILES IDX 3 1 4 2 5 3 6 4 2 5 1 6
REMARK H PARENT
REMARK Flexibility Score: inf
ROOT
ATOM      1  C   UNL     1     -30.684  29.903 -34.027  1.00  0.00     0.052 C 
ENDROOT
BRANCH   1   2
ATOM      2  C   UNL     1     -32.033  29.642 -34.619  1.00  0.00     0.041 C 
ATOM      3  O   UNL     1     -33.043  29.540 -33.875  1.00  0.00    -0.550 OA
ATOM      4  O   UNL     1     -32.166  29.463 -35.991  1.00  0.00    -0.550 OA
ENDBRANCH   1   2
BRANCH   1   5
ATOM      5  C   UNL     1     -30.293  31.371 -34.210  1.00  0.00     0.003 C 
ATOM      6  C   UNL     1     -29.206  31.780 -33.220  1.00  0.00     0.004 C 
ENDBRANCH   1   5
TORSDOF 2
ENDMDL
MODEL 8
REMARK VINA RESULT:    -2.409     15.708     15.982
REMARK INTER + INTRA:          -2.700
REMARK INTER:                  -2.630
REMARK INTRA:                  -0.070
REMARK UNBOUND:                -0.009
REMARK SMILES CCCC(=O)[O-]
REMARK SMILES IDX 3 1 4 2 5 3 6 4 2 5 1 6
REMARK H PARENT
REMARK Flexibility Score: inf
ROOT
ATOM      1  C   UNL     1     -24.454  19.938 -27.360  1.00  0.00     0.052 C 
ENDROOT
BRANCH   1   2
ATOM      2  C   UNL     1     -23.641  19.665 -28.587  1.00  0.00     0.041 C 
ATOM      3  O   UNL     1     -22.527  20.228 -28.747  1.00  0.00    -0.550 OA
ATOM      4  O   UNL     1     -24.139  18.827 -29.576  1.00  0.00    -0.550 OA
ENDBRANCH   1   2
BRANCH   1   5
ATOM      5  C   UNL     1     -23.756  19.376 -26.119  1.00  0.00     0.003 C 
ATOM      6  C   UNL     1     -23.755  17.850 -26.131  1.00  0.00     0.004 C 
ENDBRANCH   1   5
TORSDOF 2
ENDMDL
MODEL 9
REMARK VINA RESULT:    -2.399     17.356     18.056
REMARK INTER + INTRA:          -2.689
REMARK INTER:                  -2.647
REMARK INTRA:                  -0.043
REMARK UNBOUND:                -0.009
REMARK SMILES CCCC(=O)[O-]
REMARK SMILES IDX 3 1 4 2 5 3 6 4 2 5 1 6
REMARK H PARENT
REMARK Flexibility Score: inf
ROOT
ATOM      1  C   UNL     1     -35.441  19.411 -41.888  1.00  0.00     0.052 C 
ENDROOT
BRANCH   1   2
ATOM      2  C   UNL     1     -35.705  19.475 -43.359  1.00  0.00     0.041 C 
ATOM      3  O   UNL     1     -36.319  18.538 -43.933  1.00  0.00    -0.550 OA
ATOM      4  O   UNL     1     -35.231  20.547 -44.104  1.00  0.00    -0.550 OA
ENDBRANCH   1   2
BRANCH   1   5
ATOM      5  C   UNL     1     -36.608  20.019 -41.106  1.00  0.00     0.003 C 
ATOM      6  C   UNL     1     -36.371  21.499 -40.823  1.00  0.00     0.004 C 
ENDBRANCH   1   5
TORSDOF 2
ENDMDL
