MODEL 1
REMARK VINA RESULT:    -3.513      0.000      0.000
REMARK INTER + INTRA:          -4.162
REMARK INTER:                  -4.129
REMARK INTRA:                  -0.033
REMARK UNBOUND:                -0.033
REMARK SMILES O=C([O-])CCC(=O)[O-]
REMARK SMILES IDX 4 1 2 2 1 3 3 4 5 5 6 6 7 7 8 8
REMARK H PARENT
REMARK Flexibility Score: inf
ROOT
ATOM      1  C   UNL     1      38.039 105.771 260.757  1.00  0.00     0.059 C 
ENDROOT
BRANCH   1   2
ATOM      2  C   UNL     1      37.835 106.278 262.153  1.00  0.00     0.042 C 
ATOM      3  O   UNL     1      38.777 106.843 262.766  1.00  0.00    -0.550 OA
ATOM      4  O   UNL     1      36.614 106.089 262.788  1.00  0.00    -0.550 OA
ENDBRANCH   1   2
BRANCH   1   5
ATOM      5  C   UNL     1      36.706 105.458 260.071  1.00  0.00     0.059 C 
BRANCH   5   6
ATOM      6  C   UNL     1      36.755 105.762 258.604  1.00  0.00     0.042 C 
ATOM      7  O   UNL     1      37.635 105.230 257.876  1.00  0.00    -0.550 OA
ATOM      8  O   UNL     1      35.855 106.663 258.051  1.00  0.00    -0.550 OA
ENDBRANCH   5   6
ENDBRANCH   1   5
TORSDOF 3
ENDMDL
MODEL 2
REMARK VINA RESULT:    -3.475      0.123      4.107
REMARK INTER + INTRA:          -4.118
REMARK INTER:                  -4.084
REMARK INTRA:                  -0.034
REMARK UNBOUND:                -0.033
REMARK SMILES O=C([O-])CCC(=O)[O-]
REMARK SMILES IDX 4 1 2 2 1 3 3 4 5 5 6 6 7 7 8 8
REMARK H PARENT
REMARK Flexibility Score: inf
ROOT
ATOM      1  C   UNL     1      36.697 105.389 260.038  1.00  0.00     0.059 C 
ENDROOT
BRANCH   1   2
ATOM      2  C   UNL     1      36.801 105.674 258.571  1.00  0.00     0.042 C 
ATOM      3  O   UNL     1      37.682 105.104 257.875  1.00  0.00    -0.550 OA
ATOM      4  O   UNL     1      35.950 106.599 257.981  1.00  0.00    -0.550 OA
ENDBRANCH   1   2
BRANCH   1   5
ATOM      5  C   UNL     1      37.992 105.742 260.774  1.00  0.00     0.059 C 
BRANCH   5   6
ATOM      6  C   UNL     1      37.717 106.286 262.144  1.00  0.00     0.042 C 
ATOM      7  O   UNL     1      38.629 106.867 262.790  1.00  0.00    -0.550 OA
ATOM      8  O   UNL     1      36.466 106.115 262.721  1.00  0.00    -0.550 OA
ENDBRANCH   5   6
ENDBRANCH   1   5
TORSDOF 3
ENDMDL
MODEL 3
REMARK VINA RESULT:    -3.364      1.845      2.337
REMARK INTER + INTRA:          -3.986
REMARK INTER:                  -3.959
REMARK INTRA:                  -0.027
REMARK UNBOUND:                -0.033
REMARK SMILES O=C([O-])CCC(=O)[O-]
REMARK SMILES IDX 4 1 2 2 1 3 3 4 5 5 6 6 7 7 8 8
REMARK H PARENT
REMARK Flexibility Score: inf
ROOT
ATOM      1  C   UNL     1      36.498 106.041 262.347  1.00  0.00     0.059 C 
ENDROOT
BRANCH   1   2
ATOM      2  C   UNL     1      35.456 105.746 263.382  1.00  0.00     0.042 C 
ATOM      3  O   UNL     1      34.875 106.687 263.984  1.00  0.00    -0.550 OA
ATOM      4  O   UNL     1      35.154 104.429 263.708  1.00  0.00    -0.550 OA
ENDBRANCH   1   2
BRANCH   1   5
ATOM      5  C   UNL     1      36.380 105.101 261.143  1.00  0.00     0.059 C 
BRANCH   5   6
ATOM      6  C   UNL     1      37.107 105.639 259.949  1.00  0.00     0.042 C 
ATOM      7  O   UNL     1      38.322 105.363 259.768  1.00  0.00    -0.550 OA
ATOM      8  O   UNL     1      36.452 106.480 259.058  1.00  0.00    -0.550 OA
ENDBRANCH   5   6
ENDBRANCH   1   5
TORSDOF 3
ENDMDL
MODEL 4
REMARK VINA RESULT:    -3.347      1.883      4.410
REMARK INTER + INTRA:          -3.967
REMARK INTER:                  -3.938
REMARK INTRA:                  -0.029
REMARK UNBOUND:                -0.033
REMARK SMILES O=C([O-])CCC(=O)[O-]
REMARK SMILES IDX 4 1 2 2 1 3 3 4 5 5 6 6 7 7 8 8
REMARK H PARENT
REMARK Flexibility Score: inf
ROOT
ATOM      1  C   UNL     1      36.379 105.078 261.150  1.00  0.00     0.059 C 
ENDROOT
BRANCH   1   2
ATOM      2  C   UNL     1      37.087 105.632 259.952  1.00  0.00     0.042 C 
ATOM      3  O   UNL     1      36.509 106.460 259.200  1.00  0.00    -0.550 OA
ATOM      4  O   UNL     1      38.373 105.204 259.646  1.00  0.00    -0.550 OA
ENDBRANCH   1   2
BRANCH   1   5
ATOM      5  C   UNL     1      36.505 106.010 262.360  1.00  0.00     0.059 C 
BRANCH   5   6
ATOM      6  C   UNL     1      35.453 105.724 263.389  1.00  0.00     0.042 C 
ATOM      7  O   UNL     1      34.932 106.666 264.042  1.00  0.00    -0.550 OA
ATOM      8  O   UNL     1      35.079 104.413 263.654  1.00  0.00    -0.550 OA
ENDBRANCH   5   6
ENDBRANCH   1   5
TORSDOF 3
ENDMDL
MODEL 5
REMARK VINA RESULT:    -3.315      1.845      4.343
REMARK INTER + INTRA:          -3.929
REMARK INTER:                  -3.902
REMARK INTRA:                  -0.027
REMARK UNBOUND:                -0.033
REMARK SMILES O=C([O-])CCC(=O)[O-]
REMARK SMILES IDX 4 1 2 2 1 3 3 4 5 5 6 6 7 7 8 8
REMARK H PARENT
REMARK Flexibility Score: inf
ROOT
ATOM      1  C   UNL     1      36.375 105.144 261.188  1.00  0.00     0.059 C 
ENDROOT
BRANCH   1   2
ATOM      2  C   UNL     1      37.071 105.663 259.967  1.00  0.00     0.042 C 
ATOM      3  O   UNL     1      38.285 105.398 259.769  1.00  0.00    -0.550 OA
ATOM      4  O   UNL     1      36.386 106.471 259.069  1.00  0.00    -0.550 OA
ENDBRANCH   1   2
BRANCH   1   5
ATOM      5  C   UNL     1      36.497 106.119 262.363  1.00  0.00     0.059 C 
BRANCH   5   6
ATOM      6  C   UNL     1      35.486 105.826 263.431  1.00  0.00     0.042 C 
ATOM      7  O   UNL     1      34.875 106.768 264.002  1.00  0.00    -0.550 OA
ATOM      8  O   UNL     1      35.250 104.514 263.822  1.00  0.00    -0.550 OA
ENDBRANCH   5   6
ENDBRANCH   1   5
TORSDOF 3
ENDMDL
MODEL 6
REMARK VINA RESULT:    -3.175      1.309      1.795
REMARK INTER + INTRA:          -3.765
REMARK INTER:                  -3.650
REMARK INTRA:                  -0.115
REMARK UNBOUND:                -0.033
REMARK SMILES O=C([O-])CCC(=O)[O-]
REMARK SMILES IDX 4 1 2 2 1 3 3 4 5 5 6 6 7 7 8 8
REMARK H PARENT
REMARK Flexibility Score: inf
ROOT
ATOM      1  C   UNL     1      36.309 105.336 261.234  1.00  0.00     0.059 C 
ENDROOT
BRANCH   1   2
ATOM      2  C   UNL     1      36.679 106.071 262.486  1.00  0.00     0.042 C 
ATOM      3  O   UNL     1      37.847 106.514 262.640  1.00  0.00    -0.550 OA
ATOM      4  O   UNL     1      35.742 106.233 263.499  1.00  0.00    -0.550 OA
ENDBRANCH   1   2
BRANCH   1   5
ATOM      5  C   UNL     1      36.835 106.050 259.985  1.00  0.00     0.059 C 
BRANCH   5   6
ATOM      6  C   UNL     1      37.764 105.175 259.199  1.00  0.00     0.042 C 
ATOM      7  O   UNL     1      37.739 105.194 257.940  1.00  0.00    -0.550 OA
ATOM      8  O   UNL     1      38.628 104.311 259.858  1.00  0.00    -0.550 OA
ENDBRANCH   5   6
ENDBRANCH   1   5
TORSDOF 3
ENDMDL
MODEL 7
REMARK VINA RESULT:    -3.126      4.275      6.823
REMARK INTER + INTRA:          -3.707
REMARK INTER:                  -3.669
REMARK INTRA:                  -0.038
REMARK UNBOUND:                -0.033
REMARK SMILES O=C([O-])CCC(=O)[O-]
REMARK SMILES IDX 4 1 2 2 1 3 3 4 5 5 6 6 7 7 8 8
REMARK H PARENT
REMARK Flexibility Score: inf
ROOT
ATOM      1  C   UNL     1      34.905 106.674 264.574  1.00  0.00     0.059 C 
ENDROOT
BRANCH   1   2
ATOM      2  C   UNL     1      35.247 105.515 263.689  1.00  0.00     0.042 C 
ATOM      3  O   UNL     1      34.877 104.351 263.997  1.00  0.00    -0.550 OA
ATOM      4  O   UNL     1      36.006 105.716 262.543  1.00  0.00    -0.550 OA
ENDBRANCH   1   2
BRANCH   1   5
ATOM      5  C   UNL     1      34.875 106.267 266.050  1.00  0.00     0.059 C 
BRANCH   5   6
ATOM      6  C   UNL     1      34.962 107.460 266.953  1.00  0.00     0.042 C 
ATOM      7  O   UNL     1      35.139 108.609 266.471  1.00  0.00    -0.550 OA
ATOM      8  O   UNL     1      34.887 107.294 268.330  1.00  0.00    -0.550 OA
ENDBRANCH   5   6
ENDBRANCH   1   5
TORSDOF 3
ENDMDL
MODEL 8
REMARK VINA RESULT:    -3.090      4.863      6.212
REMARK INTER + INTRA:          -3.665
REMARK INTER:                  -3.627
REMARK INTRA:                  -0.038
REMARK UNBOUND:                -0.033
REMARK SMILES O=C([O-])CCC(=O)[O-]
REMARK SMILES IDX 4 1 2 2 1 3 3 4 5 5 6 6 7 7 8 8
REMARK H PARENT
REMARK Flexibility Score: inf
ROOT
ATOM      1  C   UNL     1      34.876 104.644 266.529  1.00  0.00     0.059 C 
ENDROOT
BRANCH   1   2
ATOM      2  C   UNL     1      34.962 105.253 267.895  1.00  0.00     0.042 C 
ATOM      3  O   UNL     1      35.145 106.492 268.027  1.00  0.00    -0.550 OA
ATOM      4  O   UNL     1      34.878 104.445 269.022  1.00  0.00    -0.550 OA
ENDBRANCH   1   2
BRANCH   1   5
ATOM      5  C   UNL     1      34.880 105.714 265.434  1.00  0.00     0.059 C 
BRANCH   5   6
ATOM      6  C   UNL     1      35.139 105.120 264.082  1.00  0.00     0.042 C 
ATOM      7  O   UNL     1      34.878 103.908 263.862  1.00  0.00    -0.550 OA
ATOM      8  O   UNL     1      35.707 105.895 263.080  1.00  0.00    -0.550 OA
ENDBRANCH   5   6
ENDBRANCH   1   5
TORSDOF 3
ENDMDL
