MODEL 1
REMARK VINA RESULT:    -3.237      0.000      0.000
REMARK INTER + INTRA:          -5.011
REMARK INTER:                  -4.466
REMARK INTRA:                  -0.545
REMARK UNBOUND:                -0.545
REMARK SMILES CCCCCCCCO
REMARK SMILES IDX 5 1 4 2 3 3 2 4 1 5 6 6 7 7 8 8 9 9
REMARK H PARENT 9 10
REMARK Flexibility Score: inf
ROOT
ATOM      1  C   UNL     1     171.915 171.146 163.893  1.00  0.00     0.000 C 
ENDROOT
BRANCH   1   2
ATOM      2  C   UNL     1     170.762 170.449 164.633  1.00  0.00    -0.000 C 
BRANCH   2   3
ATOM      3  C   UNL     1     170.223 169.228 163.868  1.00  0.00    -0.000 C 
BRANCH   3   4
ATOM      4  C   UNL     1     169.165 169.610 162.822  1.00  0.00    -0.003 C 
ATOM      5  C   UNL     1     168.029 170.447 163.409  1.00  0.00     0.004 C 
ENDBRANCH   3   4
ENDBRANCH   2   3
ENDBRANCH   1   2
BRANCH   1   6
ATOM      6  C   UNL     1     171.726 172.671 163.811  1.00  0.00     0.002 C 
BRANCH   6   7
ATOM      7  C   UNL     1     170.578 173.073 162.873  1.00  0.00     0.028 C 
BRANCH   7   8
ATOM      8  C   UNL     1     169.547 173.982 163.555  1.00  0.00     0.156 C 
BRANCH   8   9
ATOM      9  O   UNL     1     169.503 173.714 164.930  1.00  0.00    -0.396 OA
ATOM     10  H   UNL     1     169.673 172.741 165.036  1.00  0.00     0.210 HD
ENDBRANCH   8   9
ENDBRANCH   7   8
ENDBRANCH   6   7
ENDBRANCH   1   6
TORSDOF 7
ENDMDL
MODEL 2
REMARK VINA RESULT:    -3.198      1.292      3.019
REMARK INTER + INTRA:          -4.958
REMARK INTER:                  -4.387
REMARK INTRA:                  -0.572
REMARK UNBOUND:                -0.545
REMARK SMILES CCCCCCCCO
REMARK SMILES IDX 5 1 4 2 3 3 2 4 1 5 6 6 7 7 8 8 9 9
REMARK H PARENT 9 10
REMARK Flexibility Score: inf
ROOT
ATOM      1  C   UNL     1     170.561 170.292 164.279  1.00  0.00     0.000 C 
ENDROOT
BRANCH   1   2
ATOM      2  C   UNL     1     171.897 171.006 164.536  1.00  0.00    -0.000 C 
BRANCH   2   3
ATOM      3  C   UNL     1     172.508 171.595 163.252  1.00  0.00    -0.000 C 
BRANCH   3   4
ATOM      4  C   UNL     1     172.432 173.128 163.214  1.00  0.00    -0.003 C 
ATOM      5  C   UNL     1     172.053 173.667 161.835  1.00  0.00     0.004 C 
ENDBRANCH   3   4
ENDBRANCH   2   3
ENDBRANCH   1   2
BRANCH   1   6
ATOM      6  C   UNL     1     169.347 171.150 164.677  1.00  0.00     0.002 C 
BRANCH   6   7
ATOM      7  C   UNL     1     168.808 171.989 163.507  1.00  0.00     0.028 C 
BRANCH   7   8
ATOM      8  C   UNL     1     168.826 173.494 163.801  1.00  0.00     0.156 C 
BRANCH   8   9
ATOM      9  O   UNL     1     169.457 173.738 165.029  1.00  0.00    -0.396 OA
ATOM     10  H   UNL     1     169.856 172.877 165.320  1.00  0.00     0.210 HD
ENDBRANCH   8   9
ENDBRANCH   7   8
ENDBRANCH   6   7
ENDBRANCH   1   6
TORSDOF 7
ENDMDL
MODEL 3
REMARK VINA RESULT:    -3.188      1.127      2.363
REMARK INTER + INTRA:          -4.944
REMARK INTER:                  -4.319
REMARK INTRA:                  -0.625
REMARK UNBOUND:                -0.545
REMARK SMILES CCCCCCCCO
REMARK SMILES IDX 5 1 4 2 3 3 2 4 1 5 6 6 7 7 8 8 9 9
REMARK H PARENT 9 10
REMARK Flexibility Score: inf
ROOT
ATOM      1  C   UNL     1     170.429 169.404 163.926  1.00  0.00     0.000 C 
ENDROOT
BRANCH   1   2
ATOM      2  C   UNL     1     169.149 169.650 163.113  1.00  0.00    -0.000 C 
BRANCH   2   3
ATOM      3  C   UNL     1     168.250 170.730 163.740  1.00  0.00    -0.000 C 
BRANCH   3   4
ATOM      4  C   UNL     1     167.885 171.841 162.745  1.00  0.00    -0.003 C 
ATOM      5  C   UNL     1     168.814 171.877 161.531  1.00  0.00     0.004 C 
ENDBRANCH   3   4
ENDBRANCH   2   3
ENDBRANCH   1   2
BRANCH   1   6
ATOM      6  C   UNL     1     170.915 170.667 164.659  1.00  0.00     0.002 C 
BRANCH   6   7
ATOM      7  C   UNL     1     172.101 171.340 163.950  1.00  0.00     0.028 C 
BRANCH   7   8
ATOM      8  C   UNL     1     171.832 172.812 163.616  1.00  0.00     0.156 C 
BRANCH   8   9
ATOM      9  O   UNL     1     170.722 173.275 164.336  1.00  0.00    -0.396 OA
ATOM     10  H   UNL     1     170.877 173.031 165.286  1.00  0.00     0.210 HD
ENDBRANCH   8   9
ENDBRANCH   7   8
ENDBRANCH   6   7
ENDBRANCH   1   6
TORSDOF 7
ENDMDL
MODEL 4
REMARK VINA RESULT:    -3.181      2.213      3.942
REMARK INTER + INTRA:          -4.935
REMARK INTER:                  -4.527
REMARK INTRA:                  -0.408
REMARK UNBOUND:                -0.545
REMARK SMILES CCCCCCCCO
REMARK SMILES IDX 5 1 4 2 3 3 2 4 1 5 6 6 7 7 8 8 9 9
REMARK H PARENT 9 10
REMARK Flexibility Score: inf
ROOT
ATOM      1  C   UNL     1     172.246 171.567 163.282  1.00  0.00     0.000 C 
ENDROOT
BRANCH   1   2
ATOM      2  C   UNL     1     172.040 173.089 163.248  1.00  0.00    -0.000 C 
BRANCH   2   3
ATOM      3  C   UNL     1     170.860 173.505 162.351  1.00  0.00    -0.000 C 
BRANCH   3   4
ATOM      4  C   UNL     1     169.924 174.510 163.039  1.00  0.00    -0.003 C 
ATOM      5  C   UNL     1     168.968 173.845 164.028  1.00  0.00     0.004 C 
ENDBRANCH   3   4
ENDBRANCH   2   3
ENDBRANCH   1   2
BRANCH   1   6
ATOM      6  C   UNL     1     171.748 170.933 164.593  1.00  0.00     0.002 C 
BRANCH   6   7
ATOM      7  C   UNL     1     170.286 170.468 164.504  1.00  0.00     0.028 C 
BRANCH   7   8
ATOM      8  C   UNL     1     170.131 169.145 163.744  1.00  0.00     0.156 C 
BRANCH   8   9
ATOM      9  O   UNL     1     170.867 168.135 164.380  1.00  0.00    -0.396 OA
ATOM     10  H   UNL     1     171.570 168.589 164.914  1.00  0.00     0.210 HD
ENDBRANCH   8   9
ENDBRANCH   7   8
ENDBRANCH   6   7
ENDBRANCH   1   6
TORSDOF 7
ENDMDL
MODEL 5
REMARK VINA RESULT:    -3.176      0.899      2.727
REMARK INTER + INTRA:          -4.928
REMARK INTER:                  -4.407
REMARK INTRA:                  -0.521
REMARK UNBOUND:                -0.545
REMARK SMILES CCCCCCCCO
REMARK SMILES IDX 5 1 4 2 3 3 2 4 1 5 6 6 7 7 8 8 9 9
REMARK H PARENT 9 10
REMARK Flexibility Score: inf
ROOT
ATOM      1  C   UNL     1     168.071 170.483 163.501  1.00  0.00     0.000 C 
ENDROOT
BRANCH   1   2
ATOM      2  C   UNL     1     169.132 169.582 162.851  1.00  0.00    -0.000 C 
BRANCH   2   3
ATOM      3  C   UNL     1     170.226 169.148 163.842  1.00  0.00    -0.000 C 
BRANCH   3   4
ATOM      4  C   UNL     1     170.768 170.322 164.671  1.00  0.00    -0.003 C 
ATOM      5  C   UNL     1     171.921 171.050 163.981  1.00  0.00     0.004 C 
ENDBRANCH   3   4
ENDBRANCH   2   3
ENDBRANCH   1   2
BRANCH   1   6
ATOM      6  C   UNL     1     167.745 171.721 162.647  1.00  0.00     0.002 C 
BRANCH   6   7
ATOM      7  C   UNL     1     168.799 172.830 162.790  1.00  0.00     0.028 C 
BRANCH   7   8
ATOM      8  C   UNL     1     168.500 173.786 163.952  1.00  0.00     0.156 C 
BRANCH   8   9
ATOM      9  O   UNL     1     169.511 173.700 164.919  1.00  0.00    -0.396 OA
ATOM     10  H   UNL     1     170.353 173.985 164.477  1.00  0.00     0.210 HD
ENDBRANCH   8   9
ENDBRANCH   7   8
ENDBRANCH   6   7
ENDBRANCH   1   6
TORSDOF 7
ENDMDL
MODEL 6
REMARK VINA RESULT:    -3.151      1.383      3.084
REMARK INTER + INTRA:          -4.893
REMARK INTER:                  -4.440
REMARK INTRA:                  -0.453
REMARK UNBOUND:                -0.545
REMARK SMILES CCCCCCCCO
REMARK SMILES IDX 5 1 4 2 3 3 2 4 1 5 6 6 7 7 8 8 9 9
REMARK H PARENT 9 10
REMARK Flexibility Score: inf
ROOT
ATOM      1  C   UNL     1     169.460 169.781 163.907  1.00  0.00     0.000 C 
ENDROOT
BRANCH   1   2
ATOM      2  C   UNL     1     168.181 170.417 163.339  1.00  0.00    -0.000 C 
BRANCH   2   3
ATOM      3  C   UNL     1     168.457 171.739 162.603  1.00  0.00    -0.000 C 
BRANCH   3   4
ATOM      4  C   UNL     1     167.633 172.908 163.164  1.00  0.00    -0.003 C 
ATOM      5  C   UNL     1     168.500 173.978 163.826  1.00  0.00     0.004 C 
ENDBRANCH   3   4
ENDBRANCH   2   3
ENDBRANCH   1   2
BRANCH   1   6
ATOM      6  C   UNL     1     170.258 170.751 164.794  1.00  0.00     0.002 C 
BRANCH   6   7
ATOM      7  C   UNL     1     171.745 170.813 164.412  1.00  0.00     0.028 C 
BRANCH   7   8
ATOM      8  C   UNL     1     172.097 172.068 163.605  1.00  0.00     0.156 C 
BRANCH   8   9
ATOM      9  O   UNL     1     171.906 173.215 164.389  1.00  0.00    -0.396 OA
ATOM     10  H   UNL     1     172.030 173.995 163.787  1.00  0.00     0.210 HD
ENDBRANCH   8   9
ENDBRANCH   7   8
ENDBRANCH   6   7
ENDBRANCH   1   6
TORSDOF 7
ENDMDL
MODEL 7
REMARK VINA RESULT:    -3.149      2.676      4.676
REMARK INTER + INTRA:          -4.890
REMARK INTER:                  -4.676
REMARK INTRA:                  -0.214
REMARK UNBOUND:                -0.545
REMARK SMILES CCCCCCCCO
REMARK SMILES IDX 5 1 4 2 3 3 2 4 1 5 6 6 7 7 8 8 9 9
REMARK H PARENT 9 10
REMARK Flexibility Score: inf
ROOT
ATOM      1  C   UNL     1     172.081 171.171 164.235  1.00  0.00     0.000 C 
ENDROOT
BRANCH   1   2
ATOM      2  C   UNL     1     172.026 172.576 163.616  1.00  0.00    -0.000 C 
BRANCH   2   3
ATOM      3  C   UNL     1     172.785 172.662 162.280  1.00  0.00    -0.000 C 
BRANCH   3   4
ATOM      4  C   UNL     1     174.120 171.902 162.312  1.00  0.00    -0.003 C 
ATOM      5  C   UNL     1     175.258 172.681 161.654  1.00  0.00     0.004 C 
ENDBRANCH   3   4
ENDBRANCH   2   3
ENDBRANCH   1   2
BRANCH   1   6
ATOM      6  C   UNL     1     170.702 170.680 164.709  1.00  0.00     0.002 C 
BRANCH   6   7
ATOM      7  C   UNL     1     169.844 170.131 163.559  1.00  0.00     0.028 C 
BRANCH   7   8
ATOM      8  C   UNL     1     169.699 168.605 163.604  1.00  0.00     0.156 C 
BRANCH   8   9
ATOM      9  O   UNL     1     170.701 168.050 164.412  1.00  0.00    -0.396 OA
ATOM     10  H   UNL     1     170.383 167.148 164.679  1.00  0.00     0.210 HD
ENDBRANCH   8   9
ENDBRANCH   7   8
ENDBRANCH   6   7
ENDBRANCH   1   6
TORSDOF 7
ENDMDL
MODEL 8
REMARK VINA RESULT:    -2.988      1.528      2.580
REMARK INTER + INTRA:          -4.668
REMARK INTER:                  -4.323
REMARK INTRA:                  -0.345
REMARK UNBOUND:                -0.545
REMARK SMILES CCCCCCCCO
REMARK SMILES IDX 5 1 4 2 3 3 2 4 1 5 6 6 7 7 8 8 9 9
REMARK H PARENT 9 10
REMARK Flexibility Score: inf
ROOT
ATOM      1  C   UNL     1     170.226 169.777 164.252  1.00  0.00     0.000 C 
ENDROOT
BRANCH   1   2
ATOM      2  C   UNL     1     169.538 170.235 162.956  1.00  0.00    -0.000 C 
BRANCH   2   3
ATOM      3  C   UNL     1     169.622 169.180 161.839  1.00  0.00    -0.000 C 
BRANCH   3   4
ATOM      4  C   UNL     1     169.809 167.757 162.387  1.00  0.00    -0.003 C 
ATOM      5  C   UNL     1     169.826 166.697 161.286  1.00  0.00     0.004 C 
ENDBRANCH   3   4
ENDBRANCH   2   3
ENDBRANCH   1   2
BRANCH   1   6
ATOM      6  C   UNL     1     171.265 170.792 164.759  1.00  0.00     0.002 C 
BRANCH   6   7
ATOM      7  C   UNL     1     172.122 171.375 163.624  1.00  0.00     0.028 C 
BRANCH   7   8
ATOM      8  C   UNL     1     172.030 172.903 163.537  1.00  0.00     0.156 C 
BRANCH   8   9
ATOM      9  O   UNL     1     170.905 173.359 164.238  1.00  0.00    -0.396 OA
ATOM     10  H   UNL     1     170.541 172.577 164.731  1.00  0.00     0.210 HD
ENDBRANCH   8   9
ENDBRANCH   7   8
ENDBRANCH   6   7
ENDBRANCH   1   6
TORSDOF 7
ENDMDL
MODEL 9
REMARK VINA RESULT:    -2.966      1.873      4.217
REMARK INTER + INTRA:          -4.638
REMARK INTER:                  -4.130
REMARK INTRA:                  -0.508
REMARK UNBOUND:                -0.545
REMARK SMILES CCCCCCCCO
REMARK SMILES IDX 5 1 4 2 3 3 2 4 1 5 6 6 7 7 8 8 9 9
REMARK H PARENT 9 10
REMARK Flexibility Score: inf
ROOT
ATOM      1  C   UNL     1     168.429 171.845 163.263  1.00  0.00     0.000 C 
ENDROOT
BRANCH   1   2
ATOM      2  C   UNL     1     169.478 172.462 164.201  1.00  0.00    -0.000 C 
BRANCH   2   3
ATOM      3  C   UNL     1     170.466 173.379 163.460  1.00  0.00    -0.000 C 
BRANCH   3   4
ATOM      4  C   UNL     1     171.922 172.915 163.605  1.00  0.00    -0.003 C 
ATOM      5  C   UNL     1     172.318 171.876 162.556  1.00  0.00     0.004 C 
ENDBRANCH   3   4
ENDBRANCH   2   3
ENDBRANCH   1   2
BRANCH   1   6
ATOM      6  C   UNL     1     168.262 170.331 163.480  1.00  0.00     0.002 C 
BRANCH   6   7
ATOM      7  C   UNL     1     169.368 169.511 162.796  1.00  0.00     0.028 C 
BRANCH   7   8
ATOM      8  C   UNL     1     170.089 168.566 163.765  1.00  0.00     0.156 C 
BRANCH   8   9
ATOM      9  O   UNL     1     170.991 169.287 164.559  1.00  0.00    -0.396 OA
ATOM     10  H   UNL     1     171.075 168.792 165.416  1.00  0.00     0.210 HD
ENDBRANCH   8   9
ENDBRANCH   7   8
ENDBRANCH   6   7
ENDBRANCH   1   6
TORSDOF 7
ENDMDL
