MODEL 1
REMARK VINA RESULT:    -5.352      0.000      0.000
REMARK INTER + INTRA:          -5.756
REMARK INTER:                  -5.665
REMARK INTRA:                  -0.092
REMARK UNBOUND:                -0.092
REMARK SMILES C=C(C)[C@@H]1CC=C(C)C(=O)C1
REMARK SMILES IDX 8 1 7 2 6 3 5 4 4 5 11 6 9 7 10 8 2 9 1 10 3 11
REMARK H PARENT
REMARK Flexibility Score: inf
ROOT
ATOM      1  C   UNL     1       4.425  -1.939  44.465  1.00  0.00     0.048 C 
ATOM      2  C   UNL     1       5.298  -1.994  45.687  1.00  0.00    -0.012 C 
ATOM      3  C   UNL     1       5.960  -0.894  46.088  1.00  0.00    -0.019 C 
ATOM      4  C   UNL     1       6.833  -0.890  47.315  1.00  0.00     0.036 C 
ATOM      5  C   UNL     1       7.495  -2.265  47.529  1.00  0.00     0.025 C 
ATOM      6  C   UNL     1       6.427  -3.372  47.577  1.00  0.00     0.089 C 
ATOM      7  C   UNL     1       5.525  -3.290  46.376  1.00  0.00     0.158 C 
ATOM      8  O   UNL     1       4.934  -4.330  45.979  1.00  0.00    -0.295 OA
ENDROOT
BRANCH   5   9
ATOM      9  C   UNL     1       8.376  -2.278  48.767  1.00  0.00    -0.077 C 
ATOM     10  C   UNL     1       9.716  -2.372  48.676  1.00  0.00     0.008 C 
ATOM     11  C   UNL     1       7.720  -2.189  50.120  1.00  0.00     0.039 C 
ENDBRANCH   5   9
TORSDOF 1
ENDMDL
MODEL 2
REMARK VINA RESULT:    -5.108      2.097      2.895
REMARK INTER + INTRA:          -5.498
REMARK INTER:                  -5.397
REMARK INTRA:                  -0.101
REMARK UNBOUND:                -0.092
REMARK SMILES C=C(C)[C@@H]1CC=C(C)C(=O)C1
REMARK SMILES IDX 8 1 7 2 6 3 5 4 4 5 11 6 9 7 10 8 2 9 1 10 3 11
REMARK H PARENT
REMARK Flexibility Score: inf
ROOT
ATOM      1  C   UNL     1       4.947  -2.092  44.824  1.00  0.00     0.048 C 
ATOM      2  C   UNL     1       5.366  -2.305  46.252  1.00  0.00    -0.012 C 
ATOM      3  C   UNL     1       5.120  -3.482  46.854  1.00  0.00    -0.019 C 
ATOM      4  C   UNL     1       5.535  -3.753  48.276  1.00  0.00     0.036 C 
ATOM      5  C   UNL     1       5.481  -2.468  49.124  1.00  0.00     0.025 C 
ATOM      6  C   UNL     1       6.327  -1.360  48.472  1.00  0.00     0.089 C 
ATOM      7  C   UNL     1       5.938  -1.177  47.030  1.00  0.00     0.158 C 
ATOM      8  O   UNL     1       6.136  -0.062  46.477  1.00  0.00    -0.295 OA
ENDROOT
BRANCH   5   9
ATOM      9  C   UNL     1       5.903  -2.725  50.562  1.00  0.00    -0.077 C 
ATOM     10  C   UNL     1       6.500  -1.772  51.300  1.00  0.00     0.008 C 
ATOM     11  C   UNL     1       5.641  -4.083  51.159  1.00  0.00     0.039 C 
ENDBRANCH   5   9
TORSDOF 1
ENDMDL
MODEL 3
REMARK VINA RESULT:    -5.063      2.199      3.023
REMARK INTER + INTRA:          -5.450
REMARK INTER:                  -5.356
REMARK INTRA:                  -0.094
REMARK UNBOUND:                -0.092
REMARK SMILES C=C(C)[C@@H]1CC=C(C)C(=O)C1
REMARK SMILES IDX 8 1 7 2 6 3 5 4 4 5 11 6 9 7 10 8 2 9 1 10 3 11
REMARK H PARENT
REMARK Flexibility Score: inf
ROOT
ATOM      1  C   UNL     1       6.934  -0.131  46.897  1.00  0.00     0.048 C 
ATOM      2  C   UNL     1       6.984  -1.347  47.780  1.00  0.00    -0.012 C 
ATOM      3  C   UNL     1       8.123  -1.663  48.422  1.00  0.00    -0.019 C 
ATOM      4  C   UNL     1       8.222  -2.859  49.331  1.00  0.00     0.036 C 
ATOM      5  C   UNL     1       7.313  -4.003  48.843  1.00  0.00     0.025 C 
ATOM      6  C   UNL     1       5.864  -3.507  48.689  1.00  0.00     0.089 C 
ATOM      7  C   UNL     1       5.818  -2.265  47.842  1.00  0.00     0.158 C 
ATOM      8  O   UNL     1       4.761  -1.990  47.212  1.00  0.00    -0.295 OA
ENDROOT
BRANCH   5   9
ATOM      9  C   UNL     1       7.399  -5.217  49.753  1.00  0.00    -0.077 C 
ATOM     10  C   UNL     1       8.490  -6.005  49.775  1.00  0.00     0.008 C 
ATOM     11  C   UNL     1       6.225  -5.535  50.643  1.00  0.00     0.039 C 
ENDBRANCH   5   9
TORSDOF 1
ENDMDL
MODEL 4
REMARK VINA RESULT:    -4.990      2.394      3.480
REMARK INTER + INTRA:          -5.373
REMARK INTER:                  -5.278
REMARK INTRA:                  -0.095
REMARK UNBOUND:                -0.092
REMARK SMILES C=C(C)[C@@H]1CC=C(C)C(=O)C1
REMARK SMILES IDX 8 1 7 2 6 3 5 4 4 5 11 6 9 7 10 8 2 9 1 10 3 11
REMARK H PARENT
REMARK Flexibility Score: inf
ROOT
ATOM      1  C   UNL     1       6.594  -0.318  46.789  1.00  0.00     0.048 C 
ATOM      2  C   UNL     1       6.024  -1.413  47.648  1.00  0.00    -0.012 C 
ATOM      3  C   UNL     1       6.184  -1.369  48.982  1.00  0.00    -0.019 C 
ATOM      4  C   UNL     1       5.619  -2.430  49.890  1.00  0.00     0.036 C 
ATOM      5  C   UNL     1       5.608  -3.805  49.196  1.00  0.00     0.025 C 
ATOM      6  C   UNL     1       4.856  -3.723  47.855  1.00  0.00     0.089 C 
ATOM      7  C   UNL     1       5.396  -2.599  47.014  1.00  0.00     0.158 C 
ATOM      8  O   UNL     1       5.278  -2.659  45.760  1.00  0.00    -0.295 OA
ENDROOT
BRANCH   5   9
ATOM      9  C   UNL     1       5.035  -4.887  50.097  1.00  0.00    -0.077 C 
ATOM     10  C   UNL     1       3.717  -5.159  50.118  1.00  0.00     0.008 C 
ATOM     11  C   UNL     1       5.976  -5.660  50.983  1.00  0.00     0.039 C 
ENDBRANCH   5   9
TORSDOF 1
ENDMDL
MODEL 5
REMARK VINA RESULT:    -4.965      2.399      4.556
REMARK INTER + INTRA:          -5.347
REMARK INTER:                  -5.248
REMARK INTRA:                  -0.099
REMARK UNBOUND:                -0.092
REMARK SMILES C=C(C)[C@@H]1CC=C(C)C(=O)C1
REMARK SMILES IDX 8 1 7 2 6 3 5 4 4 5 11 6 9 7 10 8 2 9 1 10 3 11
REMARK H PARENT
REMARK Flexibility Score: inf
ROOT
ATOM      1  C   UNL     1       8.874  -5.683  49.577  1.00  0.00     0.048 C 
ATOM      2  C   UNL     1       8.204  -4.483  48.969  1.00  0.00    -0.012 C 
ATOM      3  C   UNL     1       6.975  -4.599  48.436  1.00  0.00    -0.019 C 
ATOM      4  C   UNL     1       6.253  -3.424  47.830  1.00  0.00     0.036 C 
ATOM      5  C   UNL     1       7.244  -2.438  47.183  1.00  0.00     0.025 C 
ATOM      6  C   UNL     1       8.310  -2.002  48.205  1.00  0.00     0.089 C 
ATOM      7  C   UNL     1       8.949  -3.203  48.847  1.00  0.00     0.158 C 
ATOM      8  O   UNL     1      10.115  -3.103  49.314  1.00  0.00    -0.295 OA
ENDROOT
BRANCH   5   9
ATOM      9  C   UNL     1       6.530  -1.243  46.571  1.00  0.00    -0.077 C 
ATOM     10  C   UNL     1       6.906   0.019  46.849  1.00  0.00     0.008 C 
ATOM     11  C   UNL     1       5.375  -1.494  45.638  1.00  0.00     0.039 C 
ENDBRANCH   5   9
TORSDOF 1
ENDMDL
MODEL 6
REMARK VINA RESULT:    -4.942      2.770      3.735
REMARK INTER + INTRA:          -5.323
REMARK INTER:                  -5.221
REMARK INTRA:                  -0.101
REMARK UNBOUND:                -0.092
REMARK SMILES C=C(C)[C@@H]1CC=C(C)C(=O)C1
REMARK SMILES IDX 8 1 7 2 6 3 5 4 4 5 11 6 9 7 10 8 2 9 1 10 3 11
REMARK H PARENT
REMARK Flexibility Score: inf
ROOT
ATOM      1  C   UNL     1       6.762  -0.161  46.878  1.00  0.00     0.048 C 
ATOM      2  C   UNL     1       6.394  -1.430  47.596  1.00  0.00    -0.012 C 
ATOM      3  C   UNL     1       5.129  -1.881  47.553  1.00  0.00    -0.019 C 
ATOM      4  C   UNL     1       4.711  -3.155  48.240  1.00  0.00     0.036 C 
ATOM      5  C   UNL     1       5.529  -3.387  49.524  1.00  0.00     0.025 C 
ATOM      6  C   UNL     1       7.037  -3.361  49.210  1.00  0.00     0.089 C 
ATOM      7  C   UNL     1       7.397  -2.113  48.453  1.00  0.00     0.158 C 
ATOM      8  O   UNL     1       8.576  -1.670  48.524  1.00  0.00    -0.295 OA
ENDROOT
BRANCH   5   9
ATOM      9  C   UNL     1       5.123  -4.672  50.226  1.00  0.00    -0.077 C 
ATOM     10  C   UNL     1       6.004  -5.388  50.948  1.00  0.00     0.008 C 
ATOM     11  C   UNL     1       3.698  -5.143  50.100  1.00  0.00     0.039 C 
ENDBRANCH   5   9
TORSDOF 1
ENDMDL
MODEL 7
REMARK VINA RESULT:    -4.823      1.942      4.083
REMARK INTER + INTRA:          -5.197
REMARK INTER:                  -5.100
REMARK INTRA:                  -0.097
REMARK UNBOUND:                -0.092
REMARK SMILES C=C(C)[C@@H]1CC=C(C)C(=O)C1
REMARK SMILES IDX 8 1 7 2 6 3 5 4 4 5 11 6 9 7 10 8 2 9 1 10 3 11
REMARK H PARENT
REMARK Flexibility Score: inf
ROOT
ATOM      1  C   UNL     1       5.865  -4.972  51.095  1.00  0.00     0.048 C 
ATOM      2  C   UNL     1       6.045  -3.986  49.975  1.00  0.00    -0.012 C 
ATOM      3  C   UNL     1       5.901  -2.670  50.210  1.00  0.00    -0.019 C 
ATOM      4  C   UNL     1       6.089  -1.640  49.127  1.00  0.00     0.036 C 
ATOM      5  C   UNL     1       5.657  -2.192  47.756  1.00  0.00     0.025 C 
ATOM      6  C   UNL     1       6.403  -3.504  47.447  1.00  0.00     0.089 C 
ATOM      7  C   UNL     1       6.259  -4.474  48.588  1.00  0.00     0.158 C 
ATOM      8  O   UNL     1       6.358  -5.710  48.359  1.00  0.00    -0.295 OA
ENDROOT
BRANCH   5   9
ATOM      9  C   UNL     1       5.845  -1.165  46.651  1.00  0.00    -0.077 C 
ATOM     10  C   UNL     1       6.575  -0.051  46.843  1.00  0.00     0.008 C 
ATOM     11  C   UNL     1       5.190  -1.413  45.317  1.00  0.00     0.039 C 
ENDBRANCH   5   9
TORSDOF 1
ENDMDL
MODEL 8
REMARK VINA RESULT:    -4.819      1.900      4.126
REMARK INTER + INTRA:          -5.192
REMARK INTER:                  -5.093
REMARK INTRA:                  -0.099
REMARK UNBOUND:                -0.092
REMARK SMILES C=C(C)[C@@H]1CC=C(C)C(=O)C1
REMARK SMILES IDX 8 1 7 2 6 3 5 4 4 5 11 6 9 7 10 8 2 9 1 10 3 11
REMARK H PARENT
REMARK Flexibility Score: inf
ROOT
ATOM      1  C   UNL     1       8.842  -5.858  49.696  1.00  0.00     0.048 C 
ATOM      2  C   UNL     1       8.295  -4.796  48.783  1.00  0.00    -0.012 C 
ATOM      3  C   UNL     1       8.966  -3.642  48.621  1.00  0.00    -0.019 C 
ATOM      4  C   UNL     1       8.472  -2.553  47.705  1.00  0.00     0.036 C 
ATOM      5  C   UNL     1       6.933  -2.519  47.665  1.00  0.00     0.025 C 
ATOM      6  C   UNL     1       6.376  -3.902  47.278  1.00  0.00     0.089 C 
ATOM      7  C   UNL     1       6.957  -4.971  48.163  1.00  0.00     0.158 C 
ATOM      8  O   UNL     1       6.309  -6.037  48.344  1.00  0.00    -0.295 OA
ENDROOT
BRANCH   5   9
ATOM      9  C   UNL     1       6.418  -1.427  46.741  1.00  0.00    -0.077 C 
ATOM     10  C   UNL     1       5.507  -1.687  45.785  1.00  0.00     0.008 C 
ATOM     11  C   UNL     1       6.952  -0.029  46.909  1.00  0.00     0.039 C 
ENDBRANCH   5   9
TORSDOF 1
ENDMDL
MODEL 9
REMARK VINA RESULT:    -4.531      8.711      9.527
REMARK INTER + INTRA:          -4.887
REMARK INTER:                  -4.789
REMARK INTRA:                  -0.098
REMARK UNBOUND:                -0.092
REMARK SMILES C=C(C)[C@@H]1CC=C(C)C(=O)C1
REMARK SMILES IDX 8 1 7 2 6 3 5 4 4 5 11 6 9 7 10 8 2 9 1 10 3 11
REMARK H PARENT
REMARK Flexibility Score: inf
ROOT
ATOM      1  C   UNL     1       5.844   4.766  52.719  1.00  0.00     0.048 C 
ATOM      2  C   UNL     1       6.872   3.866  53.347  1.00  0.00    -0.012 C 
ATOM      3  C   UNL     1       6.560   2.591  53.636  1.00  0.00    -0.019 C 
ATOM      4  C   UNL     1       7.557   1.643  54.250  1.00  0.00     0.036 C 
ATOM      5  C   UNL     1       8.531   2.390  55.181  1.00  0.00     0.025 C 
ATOM      6  C   UNL     1       9.213   3.546  54.427  1.00  0.00     0.089 C 
ATOM      7  C   UNL     1       8.186   4.421  53.761  1.00  0.00     0.158 C 
ATOM      8  O   UNL     1       8.468   5.627  53.524  1.00  0.00    -0.295 OA
ENDROOT
BRANCH   5   9
ATOM      9  C   UNL     1       9.547   1.448  55.804  1.00  0.00    -0.077 C 
ATOM     10  C   UNL     1       9.244   0.165  56.074  1.00  0.00     0.008 C 
ATOM     11  C   UNL     1      10.920   1.978  56.125  1.00  0.00     0.039 C 
ENDBRANCH   5   9
TORSDOF 1
ENDMDL
