MODEL 1
REMARK VINA RESULT:    -3.578      0.000      0.000
REMARK INTER + INTRA:          -6.596
REMARK INTER:                  -5.461
REMARK INTRA:                  -1.135
REMARK UNBOUND:                -1.135
REMARK SMILES CCCCCCCCCCC(=O)[O-]
REMARK SMILES IDX 7 1 8 2 9 3 10 4 11 5 12 6 13 7 6 8 5 9 4 10 3 11 2 12 1 13
REMARK H PARENT
REMARK Flexibility Score: inf
ROOT
ATOM      1  C   UNL     1     161.286 177.938 185.630  1.00  0.00     0.000 C 
ENDROOT
BRANCH   1   2
ATOM      2  C   UNL     1     160.214 177.770 184.537  1.00  0.00     0.000 C 
BRANCH   2   3
ATOM      3  C   UNL     1     160.635 176.910 183.332  1.00  0.00     0.006 C 
BRANCH   3   4
ATOM      4  C   UNL     1     162.154 176.725 183.227  1.00  0.00     0.053 C 
BRANCH   4   5
ATOM      5  C   UNL     1     162.705 177.553 182.109  1.00  0.00     0.041 C 
ATOM      6  O   UNL     1     163.154 178.707 182.337  1.00  0.00    -0.550 OA
ATOM      7  O   UNL     1     162.678 177.069 180.807  1.00  0.00    -0.550 OA
ENDBRANCH   4   5
ENDBRANCH   3   4
ENDBRANCH   2   3
ENDBRANCH   1   2
BRANCH   1   8
ATOM      8  C   UNL     1     160.689 178.257 187.011  1.00  0.00     0.000 C 
BRANCH   8   9
ATOM      9  C   UNL     1     161.150 177.275 188.106  1.00  0.00    -0.000 C 
BRANCH   9  10
ATOM     10  C   UNL     1     161.439 175.840 187.628  1.00  0.00    -0.000 C 
BRANCH  10  11
ATOM     11  C   UNL     1     160.181 174.957 187.583  1.00  0.00    -0.000 C 
BRANCH  11  12
ATOM     12  C   UNL     1     160.192 173.978 186.398  1.00  0.00    -0.003 C 
ATOM     13  C   UNL     1     161.516 173.986 185.633  1.00  0.00     0.004 C 
ENDBRANCH  11  12
ENDBRANCH  10  11
ENDBRANCH   9  10
ENDBRANCH   8   9
ENDBRANCH   1   8
TORSDOF 9
ENDMDL
MODEL 2
REMARK VINA RESULT:    -3.547      2.613      4.075
REMARK INTER + INTRA:          -6.548
REMARK INTER:                  -5.442
REMARK INTRA:                  -1.106
REMARK UNBOUND:                -1.135
REMARK SMILES CCCCCCCCCCC(=O)[O-]
REMARK SMILES IDX 7 1 8 2 9 3 10 4 11 5 12 6 13 7 6 8 5 9 4 10 3 11 2 12 1 13
REMARK H PARENT
REMARK Flexibility Score: inf
ROOT
ATOM      1  C   UNL     1     161.150 176.036 187.611  1.00  0.00     0.000 C 
ENDROOT
BRANCH   1   2
ATOM      2  C   UNL     1     162.584 175.515 187.397  1.00  0.00     0.000 C 
BRANCH   2   3
ATOM      3  C   UNL     1     163.696 176.564 187.578  1.00  0.00     0.006 C 
BRANCH   3   4
ATOM      4  C   UNL     1     164.470 176.847 186.284  1.00  0.00     0.053 C 
BRANCH   4   5
ATOM      5  C   UNL     1     165.120 178.193 186.347  1.00  0.00     0.041 C 
ATOM      6  O   UNL     1     166.343 178.320 186.075  1.00  0.00    -0.550 OA
ATOM      7  O   UNL     1     164.387 179.301 186.754  1.00  0.00    -0.550 OA
ENDBRANCH   4   5
ENDBRANCH   3   4
ENDBRANCH   2   3
ENDBRANCH   1   2
BRANCH   1   8
ATOM      8  C   UNL     1     161.098 177.545 187.904  1.00  0.00     0.000 C 
BRANCH   8   9
ATOM      9  C   UNL     1     160.532 178.365 186.730  1.00  0.00    -0.000 C 
BRANCH   9  10
ATOM     10  C   UNL     1     161.108 178.020 185.343  1.00  0.00    -0.000 C 
BRANCH  10  11
ATOM     11  C   UNL     1     160.019 177.704 184.303  1.00  0.00    -0.000 C 
BRANCH  11  12
ATOM     12  C   UNL     1     160.398 176.521 183.397  1.00  0.00    -0.003 C 
ATOM     13  C   UNL     1     161.677 175.814 183.849  1.00  0.00     0.004 C 
ENDBRANCH  11  12
ENDBRANCH  10  11
ENDBRANCH   9  10
ENDBRANCH   8   9
ENDBRANCH   1   8
TORSDOF 9
ENDMDL
MODEL 3
REMARK VINA RESULT:    -3.544      1.971      3.005
REMARK INTER + INTRA:          -6.544
REMARK INTER:                  -5.155
REMARK INTRA:                  -1.389
REMARK UNBOUND:                -1.135
REMARK SMILES CCCCCCCCCCC(=O)[O-]
REMARK SMILES IDX 7 1 8 2 9 3 10 4 11 5 12 6 13 7 6 8 5 9 4 10 3 11 2 12 1 13
REMARK H PARENT
REMARK Flexibility Score: inf
ROOT
ATOM      1  C   UNL     1     163.156 177.829 187.523  1.00  0.00     0.000 C 
ENDROOT
BRANCH   1   2
ATOM      2  C   UNL     1     163.873 176.570 187.002  1.00  0.00     0.000 C 
BRANCH   2   3
ATOM      3  C   UNL     1     164.660 176.758 185.692  1.00  0.00     0.006 C 
BRANCH   3   4
ATOM      4  C   UNL     1     164.273 178.036 184.937  1.00  0.00     0.053 C 
BRANCH   4   5
ATOM      5  C   UNL     1     163.997 177.730 183.499  1.00  0.00     0.041 C 
ATOM      6  O   UNL     1     164.557 176.751 182.940  1.00  0.00    -0.550 OA
ATOM      7  O   UNL     1     163.157 178.556 182.761  1.00  0.00    -0.550 OA
ENDBRANCH   4   5
ENDBRANCH   3   4
ENDBRANCH   2   3
ENDBRANCH   1   2
BRANCH   1   8
ATOM      8  C   UNL     1     161.838 177.511 188.250  1.00  0.00     0.000 C 
BRANCH   8   9
ATOM      9  C   UNL     1     160.646 177.345 187.290  1.00  0.00    -0.000 C 
BRANCH   9  10
ATOM     10  C   UNL     1     160.685 178.228 186.028  1.00  0.00    -0.000 C 
BRANCH  10  11
ATOM     11  C   UNL     1     160.354 177.452 184.742  1.00  0.00    -0.000 C 
BRANCH  11  12
ATOM     12  C   UNL     1     160.918 176.022 184.757  1.00  0.00    -0.003 C 
ATOM     13  C   UNL     1     161.129 175.452 183.353  1.00  0.00     0.004 C 
ENDBRANCH  11  12
ENDBRANCH  10  11
ENDBRANCH   9  10
ENDBRANCH   8   9
ENDBRANCH   1   8
TORSDOF 9
ENDMDL
MODEL 4
REMARK VINA RESULT:    -3.537      1.701      2.739
REMARK INTER + INTRA:          -6.534
REMARK INTER:                  -5.474
REMARK INTRA:                  -1.060
REMARK UNBOUND:                -1.135
REMARK SMILES CCCCCCCCCCC(=O)[O-]
REMARK SMILES IDX 7 1 8 2 9 3 10 4 11 5 12 6 13 7 6 8 5 9 4 10 3 11 2 12 1 13
REMARK H PARENT
REMARK Flexibility Score: inf
ROOT
ATOM      1  C   UNL     1     160.620 178.270 185.736  1.00  0.00     0.000 C 
ENDROOT
BRANCH   1   2
ATOM      2  C   UNL     1     160.770 176.924 185.001  1.00  0.00     0.000 C 
BRANCH   2   3
ATOM      3  C   UNL     1     161.870 176.883 183.925  1.00  0.00     0.006 C 
BRANCH   3   4
ATOM      4  C   UNL     1     161.325 177.048 182.501  1.00  0.00     0.053 C 
BRANCH   4   5
ATOM      5  C   UNL     1     162.139 178.047 181.742  1.00  0.00     0.041 C 
ATOM      6  O   UNL     1     161.855 178.318 180.546  1.00  0.00    -0.550 OA
ATOM      7  O   UNL     1     163.243 178.643 182.340  1.00  0.00    -0.550 OA
ENDBRANCH   4   5
ENDBRANCH   3   4
ENDBRANCH   2   3
ENDBRANCH   1   2
BRANCH   1   8
ATOM      8  C   UNL     1     160.352 178.105 187.241  1.00  0.00     0.000 C 
BRANCH   8   9
ATOM      9  C   UNL     1     161.120 176.922 187.862  1.00  0.00    -0.000 C 
BRANCH   9  10
ATOM     10  C   UNL     1     162.582 177.213 188.249  1.00  0.00    -0.000 C 
BRANCH  10  11
ATOM     11  C   UNL     1     163.596 176.455 187.374  1.00  0.00    -0.000 C 
BRANCH  11  12
ATOM     12  C   UNL     1     164.651 177.386 186.757  1.00  0.00    -0.003 C 
ATOM     13  C   UNL     1     164.209 178.850 186.730  1.00  0.00     0.004 C 
ENDBRANCH  11  12
ENDBRANCH  10  11
ENDBRANCH   9  10
ENDBRANCH   8   9
ENDBRANCH   1   8
TORSDOF 9
ENDMDL
MODEL 5
REMARK VINA RESULT:    -3.515      1.909      2.372
REMARK INTER + INTRA:          -6.499
REMARK INTER:                  -5.115
REMARK INTRA:                  -1.384
REMARK UNBOUND:                -1.135
REMARK SMILES CCCCCCCCCCC(=O)[O-]
REMARK SMILES IDX 7 1 8 2 9 3 10 4 11 5 12 6 13 7 6 8 5 9 4 10 3 11 2 12 1 13
REMARK H PARENT
REMARK Flexibility Score: inf
ROOT
ATOM      1  C   UNL     1     162.985 177.904 187.458  1.00  0.00     0.000 C 
ENDROOT
BRANCH   1   2
ATOM      2  C   UNL     1     162.557 178.224 186.013  1.00  0.00     0.000 C 
BRANCH   2   3
ATOM      3  C   UNL     1     163.292 177.426 184.920  1.00  0.00     0.006 C 
BRANCH   3   4
ATOM      4  C   UNL     1     162.365 176.488 184.136  1.00  0.00     0.053 C 
BRANCH   4   5
ATOM      5  C   UNL     1     161.184 177.241 183.608  1.00  0.00     0.041 C 
ATOM      6  O   UNL     1     161.342 178.152 182.754  1.00  0.00    -0.550 OA
ATOM      7  O   UNL     1     159.912 176.969 184.097  1.00  0.00    -0.550 OA
ENDBRANCH   4   5
ENDBRANCH   3   4
ENDBRANCH   2   3
ENDBRANCH   1   2
BRANCH   1   8
ATOM      8  C   UNL     1     161.820 177.409 188.332  1.00  0.00     0.000 C 
BRANCH   8   9
ATOM      9  C   UNL     1     160.640 176.860 187.508  1.00  0.00    -0.000 C 
BRANCH   9  10
ATOM     10  C   UNL     1     160.327 175.367 187.714  1.00  0.00    -0.000 C 
BRANCH  10  11
ATOM     11  C   UNL     1     161.202 174.444 186.847  1.00  0.00    -0.000 C 
BRANCH  11  12
ATOM     12  C   UNL     1     162.378 173.842 187.632  1.00  0.00    -0.003 C 
ATOM     13  C   UNL     1     163.740 174.294 187.101  1.00  0.00     0.004 C 
ENDBRANCH  11  12
ENDBRANCH  10  11
ENDBRANCH   9  10
ENDBRANCH   8   9
ENDBRANCH   1   8
TORSDOF 9
ENDMDL
MODEL 6
REMARK VINA RESULT:    -3.513      3.671      5.298
REMARK INTER + INTRA:          -6.496
REMARK INTER:                  -5.470
REMARK INTRA:                  -1.026
REMARK UNBOUND:                -1.135
REMARK SMILES CCCCCCCCCCC(=O)[O-]
REMARK SMILES IDX 7 1 8 2 9 3 10 4 11 5 12 6 13 7 6 8 5 9 4 10 3 11 2 12 1 13
REMARK H PARENT
REMARK Flexibility Score: inf
ROOT
ATOM      1  C   UNL     1     161.373 175.751 187.540  1.00  0.00     0.000 C 
ENDROOT
BRANCH   1   2
ATOM      2  C   UNL     1     159.989 175.074 187.549  1.00  0.00     0.000 C 
BRANCH   2   3
ATOM      3  C   UNL     1     159.906 173.741 186.783  1.00  0.00     0.006 C 
BRANCH   3   4
ATOM      4  C   UNL     1     161.122 172.836 187.018  1.00  0.00     0.053 C 
BRANCH   4   5
ATOM      5  C   UNL     1     160.753 171.401 186.810  1.00  0.00     0.041 C 
ATOM      6  O   UNL     1     160.290 171.019 185.704  1.00  0.00    -0.550 OA
ATOM      7  O   UNL     1     160.875 170.494 187.856  1.00  0.00    -0.550 OA
ENDBRANCH   4   5
ENDBRANCH   3   4
ENDBRANCH   2   3
ENDBRANCH   1   2
BRANCH   1   8
ATOM      8  C   UNL     1     161.320 177.229 187.966  1.00  0.00     0.000 C 
BRANCH   8   9
ATOM      9  C   UNL     1     160.807 178.158 186.850  1.00  0.00    -0.000 C 
BRANCH   9  10
ATOM     10  C   UNL     1     161.326 177.841 185.434  1.00  0.00    -0.000 C 
BRANCH  10  11
ATOM     11  C   UNL     1     160.199 177.496 184.445  1.00  0.00    -0.000 C 
BRANCH  11  12
ATOM     12  C   UNL     1     160.501 176.228 183.630  1.00  0.00    -0.003 C 
ATOM     13  C   UNL     1     161.866 175.622 183.959  1.00  0.00     0.004 C 
ENDBRANCH  11  12
ENDBRANCH  10  11
ENDBRANCH   9  10
ENDBRANCH   8   9
ENDBRANCH   1   8
TORSDOF 9
ENDMDL
MODEL 7
REMARK VINA RESULT:    -3.428      2.269      3.356
REMARK INTER + INTRA:          -6.367
REMARK INTER:                  -5.077
REMARK INTRA:                  -1.290
REMARK UNBOUND:                -1.135
REMARK SMILES CCCCCCCCCCC(=O)[O-]
REMARK SMILES IDX 7 1 8 2 9 3 10 4 11 5 12 6 13 7 6 8 5 9 4 10 3 11 2 12 1 13
REMARK H PARENT
REMARK Flexibility Score: inf
ROOT
ATOM      1  C   UNL     1     160.982 177.247 187.890  1.00  0.00     0.000 C 
ENDROOT
BRANCH   1   2
ATOM      2  C   UNL     1     160.722 178.295 186.792  1.00  0.00     0.000 C 
BRANCH   2   3
ATOM      3  C   UNL     1     160.324 177.722 185.419  1.00  0.00     0.006 C 
BRANCH   3   4
ATOM      4  C   UNL     1     161.524 177.500 184.490  1.00  0.00     0.053 C 
BRANCH   4   5
ATOM      5  C   UNL     1     161.418 176.173 183.807  1.00  0.00     0.041 C 
ATOM      6  O   UNL     1     162.381 175.731 183.128  1.00  0.00    -0.550 OA
ATOM      7  O   UNL     1     160.236 175.446 183.882  1.00  0.00    -0.550 OA
ENDBRANCH   4   5
ENDBRANCH   3   4
ENDBRANCH   2   3
ENDBRANCH   1   2
BRANCH   1   8
ATOM      8  C   UNL     1     160.568 175.826 187.472  1.00  0.00     0.000 C 
BRANCH   8   9
ATOM      9  C   UNL     1     161.762 174.858 187.369  1.00  0.00    -0.000 C 
BRANCH   9  10
ATOM     10  C   UNL     1     163.125 175.443 187.783  1.00  0.00    -0.000 C 
BRANCH  10  11
ATOM     11  C   UNL     1     164.010 175.815 186.581  1.00  0.00    -0.000 C 
BRANCH  11  12
ATOM     12  C   UNL     1     164.994 176.950 186.905  1.00  0.00    -0.003 C 
ATOM     13  C   UNL     1     164.391 178.339 186.692  1.00  0.00     0.004 C 
ENDBRANCH  11  12
ENDBRANCH  10  11
ENDBRANCH   9  10
ENDBRANCH   8   9
ENDBRANCH   1   8
TORSDOF 9
ENDMDL
MODEL 8
REMARK VINA RESULT:    -3.417     11.814     12.551
REMARK INTER + INTRA:          -6.351
REMARK INTER:                  -5.800
REMARK INTRA:                  -0.550
REMARK UNBOUND:                -1.135
REMARK SMILES CCCCCCCCCCC(=O)[O-]
REMARK SMILES IDX 7 1 8 2 9 3 10 4 11 5 12 6 13 7 6 8 5 9 4 10 3 11 2 12 1 13
REMARK H PARENT
REMARK Flexibility Score: inf
ROOT
ATOM      1  C   UNL     1     174.242 180.118 187.532  1.00  0.00     0.000 C 
ENDROOT
BRANCH   1   2
ATOM      2  C   UNL     1     175.065 179.014 188.223  1.00  0.00     0.000 C 
BRANCH   2   3
ATOM      3  C   UNL     1     175.168 177.689 187.446  1.00  0.00     0.006 C 
BRANCH   3   4
ATOM      4  C   UNL     1     176.454 177.578 186.617  1.00  0.00     0.053 C 
BRANCH   4   5
ATOM      5  C   UNL     1     176.129 177.478 185.160  1.00  0.00     0.041 C 
ATOM      6  O   UNL     1     176.038 176.352 184.606  1.00  0.00    -0.550 OA
ATOM      7  O   UNL     1     175.975 178.633 184.401  1.00  0.00    -0.550 OA
ENDBRANCH   4   5
ENDBRANCH   3   4
ENDBRANCH   2   3
ENDBRANCH   1   2
BRANCH   1   8
ATOM      8  C   UNL     1     173.083 179.562 186.688  1.00  0.00     0.000 C 
BRANCH   8   9
ATOM      9  C   UNL     1     171.718 179.678 187.392  1.00  0.00    -0.000 C 
BRANCH   9  10
ATOM     10  C   UNL     1     170.905 178.373 187.477  1.00  0.00    -0.000 C 
BRANCH  10  11
ATOM     11  C   UNL     1     169.402 178.583 187.221  1.00  0.00    -0.000 C 
BRANCH  11  12
ATOM     12  C   UNL     1     168.536 178.134 188.409  1.00  0.00    -0.003 C 
ATOM     13  C   UNL     1     168.922 176.751 188.936  1.00  0.00     0.004 C 
ENDBRANCH  11  12
ENDBRANCH  10  11
ENDBRANCH   9  10
ENDBRANCH   8   9
ENDBRANCH   1   8
TORSDOF 9
ENDMDL
