MODEL 1
REMARK VINA RESULT:    -4.339      0.000      0.000
REMARK INTER + INTRA:         -11.442
REMARK INTER:                  -9.413
REMARK INTRA:                  -2.029
REMARK UNBOUND:                -2.029
REMARK SMILES CCCCCCCCCCCCCCCCCCCCCC(=O)[O-]
REMARK SMILES IDX 12 1 11 2 10 3 9 4 8 5 7 6 6 7 5 8 4 9 3 10 2 11 1 12 13 13
REMARK SMILES IDX 14 14 15 15 16 16 17 17 18 18 19 19 20 20 21 21 22 22 23 23
REMARK SMILES IDX 24 24
REMARK H PARENT
REMARK Flexibility Score: inf
ROOT
ATOM      1  C   UNL     1       3.036  -3.701   6.154  1.00  0.00     0.000 C 
ENDROOT
BRANCH   1   2
ATOM      2  C   UNL     1       1.910  -4.703   5.850  1.00  0.00     0.000 C 
BRANCH   2   3
ATOM      3  C   UNL     1       2.447  -6.094   5.475  1.00  0.00     0.000 C 
BRANCH   3   4
ATOM      4  C   UNL     1       1.330  -7.072   5.068  1.00  0.00    -0.000 C 
BRANCH   4   5
ATOM      5  C   UNL     1       1.863  -8.293   4.299  1.00  0.00    -0.000 C 
BRANCH   5   6
ATOM      6  C   UNL     1       3.253  -8.737   4.788  1.00  0.00    -0.000 C 
BRANCH   6   7
ATOM      7  C   UNL     1       4.179  -9.153   3.633  1.00  0.00    -0.000 C 
BRANCH   7   8
ATOM      8  C   UNL     1       5.635  -8.702   3.852  1.00  0.00    -0.000 C 
BRANCH   8   9
ATOM      9  C   UNL     1       5.780  -7.172   3.880  1.00  0.00    -0.000 C 
BRANCH   9  10
ATOM     10  C   UNL     1       7.238  -6.718   4.074  1.00  0.00    -0.000 C 
BRANCH  10  11
ATOM     11  C   UNL     1       7.722  -5.796   2.943  1.00  0.00    -0.003 C 
ATOM     12  C   UNL     1       8.619  -4.665   3.448  1.00  0.00     0.004 C 
ENDBRANCH  10  11
ENDBRANCH   9  10
ENDBRANCH   8   9
ENDBRANCH   7   8
ENDBRANCH   6   7
ENDBRANCH   5   6
ENDBRANCH   4   5
ENDBRANCH   3   4
ENDBRANCH   2   3
ENDBRANCH   1   2
BRANCH   1  13
ATOM     13  C   UNL     1       4.438  -4.328   6.057  1.00  0.00     0.000 C 
BRANCH  13  14
ATOM     14  C   UNL     1       5.402  -3.636   5.072  1.00  0.00     0.000 C 
BRANCH  14  15
ATOM     15  C   UNL     1       4.982  -2.218   4.636  1.00  0.00     0.000 C 
BRANCH  15  16
ATOM     16  C   UNL     1       5.740  -1.072   5.334  1.00  0.00     0.000 C 
BRANCH  16  17
ATOM     17  C   UNL     1       4.867  -0.148   6.208  1.00  0.00     0.000 C 
BRANCH  17  18
ATOM     18  C   UNL     1       5.520   1.192   6.593  1.00  0.00     0.000 C 
BRANCH  18  19
ATOM     19  C   UNL     1       6.391   1.828   5.493  1.00  0.00     0.000 C 
BRANCH  19  20
ATOM     20  C   UNL     1       6.269   3.366   5.416  1.00  0.00     0.006 C 
BRANCH  20  21
ATOM     21  C   UNL     1       4.934   3.877   5.972  1.00  0.00     0.053 C 
BRANCH  21  22
ATOM     22  C   UNL     1       3.967   4.133   4.860  1.00  0.00     0.041 C 
ATOM     23  O   UNL     1       3.269   3.192   4.398  1.00  0.00    -0.550 OA
ATOM     24  O   UNL     1       3.800   5.420   4.365  1.00  0.00    -0.550 OA
ENDBRANCH  21  22
ENDBRANCH  20  21
ENDBRANCH  19  20
ENDBRANCH  18  19
ENDBRANCH  17  18
ENDBRANCH  16  17
ENDBRANCH  15  16
ENDBRANCH  14  15
ENDBRANCH  13  14
ENDBRANCH   1  13
TORSDOF 20
ENDMDL
MODEL 2
REMARK VINA RESULT:    -4.274      2.985      6.382
REMARK INTER + INTRA:         -11.299
REMARK INTER:                  -8.490
REMARK INTRA:                  -2.808
REMARK UNBOUND:                -2.029
REMARK SMILES CCCCCCCCCCCCCCCCCCCCCC(=O)[O-]
REMARK SMILES IDX 12 1 11 2 10 3 9 4 8 5 7 6 6 7 5 8 4 9 3 10 2 11 1 12 13 13
REMARK SMILES IDX 14 14 15 15 16 16 17 17 18 18 19 19 20 20 21 21 22 22 23 23
REMARK SMILES IDX 24 24
REMARK H PARENT
REMARK Flexibility Score: inf
ROOT
ATOM      1  C   UNL     1       3.158  -9.813   3.339  1.00  0.00     0.000 C 
ENDROOT
BRANCH   1   2
ATOM      2  C   UNL     1       2.436  -9.343   4.613  1.00  0.00     0.000 C 
BRANCH   2   3
ATOM      3  C   UNL     1       1.346  -8.300   4.320  1.00  0.00     0.000 C 
BRANCH   3   4
ATOM      4  C   UNL     1       1.534  -7.001   5.124  1.00  0.00    -0.000 C 
BRANCH   4   5
ATOM      5  C   UNL     1       2.333  -7.217   6.420  1.00  0.00    -0.000 C 
BRANCH   5   6
ATOM      6  C   UNL     1       3.060  -5.943   6.883  1.00  0.00    -0.000 C 
BRANCH   6   7
ATOM      7  C   UNL     1       2.963  -4.802   5.857  1.00  0.00    -0.000 C 
BRANCH   7   8
ATOM      8  C   UNL     1       2.534  -3.469   6.495  1.00  0.00    -0.000 C 
BRANCH   8   9
ATOM      9  C   UNL     1       1.161  -3.558   7.179  1.00  0.00    -0.000 C 
BRANCH   9  10
ATOM     10  C   UNL     1       0.001  -3.662   6.171  1.00  0.00    -0.000 C 
BRANCH  10  11
ATOM     11  C   UNL     1      -1.332  -4.026   6.844  1.00  0.00    -0.003 C 
ATOM     12  C   UNL     1      -2.475  -3.101   6.424  1.00  0.00     0.004 C 
ENDBRANCH  10  11
ENDBRANCH   9  10
ENDBRANCH   8   9
ENDBRANCH   7   8
ENDBRANCH   6   7
ENDBRANCH   5   6
ENDBRANCH   4   5
ENDBRANCH   3   4
ENDBRANCH   2   3
ENDBRANCH   1   2
BRANCH   1  13
ATOM     13  C   UNL     1       4.595  -9.269   3.230  1.00  0.00     0.000 C 
BRANCH  13  14
ATOM     14  C   UNL     1       5.155  -8.631   4.517  1.00  0.00     0.000 C 
BRANCH  14  15
ATOM     15  C   UNL     1       5.599  -7.161   4.379  1.00  0.00     0.000 C 
BRANCH  15  16
ATOM     16  C   UNL     1       7.124  -6.943   4.335  1.00  0.00     0.000 C 
BRANCH  16  17
ATOM     17  C   UNL     1       7.624  -6.047   3.183  1.00  0.00     0.000 C 
BRANCH  17  18
ATOM     18  C   UNL     1       8.078  -4.638   3.605  1.00  0.00     0.000 C 
BRANCH  18  19
ATOM     19  C   UNL     1       7.995  -4.356   5.117  1.00  0.00     0.000 C 
BRANCH  19  20
ATOM     20  C   UNL     1       7.028  -3.209   5.483  1.00  0.00     0.006 C 
BRANCH  20  21
ATOM     21  C   UNL     1       5.777  -3.191   4.596  1.00  0.00     0.053 C 
BRANCH  21  22
ATOM     22  C   UNL     1       5.265  -1.793   4.442  1.00  0.00     0.041 C 
ATOM     23  O   UNL     1       6.018  -0.813   4.682  1.00  0.00    -0.550 OA
ATOM     24  O   UNL     1       3.971  -1.572   3.987  1.00  0.00    -0.550 OA
ENDBRANCH  21  22
ENDBRANCH  20  21
ENDBRANCH  19  20
ENDBRANCH  18  19
ENDBRANCH  17  18
ENDBRANCH  16  17
ENDBRANCH  15  16
ENDBRANCH  14  15
ENDBRANCH  13  14
ENDBRANCH   1  13
TORSDOF 20
ENDMDL
MODEL 3
REMARK VINA RESULT:    -4.167      1.293      4.116
REMARK INTER + INTRA:         -11.068
REMARK INTER:                  -9.033
REMARK INTRA:                  -2.035
REMARK UNBOUND:                -2.029
REMARK SMILES CCCCCCCCCCCCCCCCCCCCCC(=O)[O-]
REMARK SMILES IDX 12 1 11 2 10 3 9 4 8 5 7 6 6 7 5 8 4 9 3 10 2 11 1 12 13 13
REMARK SMILES IDX 14 14 15 15 16 16 17 17 18 18 19 19 20 20 21 21 22 22 23 23
REMARK SMILES IDX 24 24
REMARK H PARENT
REMARK Flexibility Score: inf
ROOT
ATOM      1  C   UNL     1       5.640  -3.262   4.915  1.00  0.00     0.000 C 
ENDROOT
BRANCH   1   2
ATOM      2  C   UNL     1       7.163  -3.134   5.087  1.00  0.00     0.000 C 
BRANCH   2   3
ATOM      3  C   UNL     1       7.880  -4.491   4.998  1.00  0.00     0.000 C 
BRANCH   3   4
ATOM      4  C   UNL     1       8.332  -4.832   3.566  1.00  0.00    -0.000 C 
BRANCH   4   5
ATOM      5  C   UNL     1       7.516  -5.976   2.944  1.00  0.00    -0.000 C 
BRANCH   5   6
ATOM      6  C   UNL     1       6.898  -6.905   4.004  1.00  0.00    -0.000 C 
BRANCH   6   7
ATOM      7  C   UNL     1       5.819  -7.831   3.421  1.00  0.00    -0.000 C 
BRANCH   7   8
ATOM      8  C   UNL     1       4.948  -8.483   4.511  1.00  0.00    -0.000 C 
BRANCH   8   9
ATOM      9  C   UNL     1       3.534  -7.883   4.572  1.00  0.00    -0.000 C 
BRANCH   9  10
ATOM     10  C   UNL     1       2.461  -8.836   4.015  1.00  0.00    -0.000 C 
BRANCH  10  11
ATOM     11  C   UNL     1       1.046  -8.468   4.487  1.00  0.00    -0.003 C 
ATOM     12  C   UNL     1       0.922  -6.999   4.891  1.00  0.00     0.004 C 
ENDBRANCH  10  11
ENDBRANCH   9  10
ENDBRANCH   8   9
ENDBRANCH   7   8
ENDBRANCH   6   7
ENDBRANCH   5   6
ENDBRANCH   4   5
ENDBRANCH   3   4
ENDBRANCH   2   3
ENDBRANCH   1   2
BRANCH   1  13
ATOM     13  C   UNL     1       5.059  -4.498   5.626  1.00  0.00     0.000 C 
BRANCH  13  14
ATOM     14  C   UNL     1       3.535  -4.464   5.862  1.00  0.00     0.000 C 
BRANCH  14  15
ATOM     15  C   UNL     1       2.914  -3.054   5.917  1.00  0.00     0.000 C 
BRANCH  15  16
ATOM     16  C   UNL     1       2.731  -2.478   7.335  1.00  0.00     0.000 C 
BRANCH  16  17
ATOM     17  C   UNL     1       2.928  -0.953   7.452  1.00  0.00     0.000 C 
BRANCH  17  18
ATOM     18  C   UNL     1       4.095  -0.383   6.625  1.00  0.00     0.000 C 
BRANCH  18  19
ATOM     19  C   UNL     1       4.483   1.069   6.967  1.00  0.00     0.000 C 
BRANCH  19  20
ATOM     20  C   UNL     1       3.281   2.036   7.021  1.00  0.00     0.006 C 
BRANCH  20  21
ATOM     21  C   UNL     1       3.649   3.457   6.576  1.00  0.00     0.053 C 
BRANCH  21  22
ATOM     22  C   UNL     1       3.729   3.533   5.084  1.00  0.00     0.041 C 
ATOM     23  O   UNL     1       2.790   3.085   4.375  1.00  0.00    -0.550 OA
ATOM     24  O   UNL     1       4.818   4.145   4.476  1.00  0.00    -0.550 OA
ENDBRANCH  21  22
ENDBRANCH  20  21
ENDBRANCH  19  20
ENDBRANCH  18  19
ENDBRANCH  17  18
ENDBRANCH  16  17
ENDBRANCH  15  16
ENDBRANCH  14  15
ENDBRANCH  13  14
ENDBRANCH   1  13
TORSDOF 20
ENDMDL
MODEL 4
REMARK VINA RESULT:    -4.077      2.799      5.624
REMARK INTER + INTRA:         -10.871
REMARK INTER:                  -7.899
REMARK INTRA:                  -2.972
REMARK UNBOUND:                -2.029
REMARK SMILES CCCCCCCCCCCCCCCCCCCCCC(=O)[O-]
REMARK SMILES IDX 12 1 11 2 10 3 9 4 8 5 7 6 6 7 5 8 4 9 3 10 2 11 1 12 13 13
REMARK SMILES IDX 14 14 15 15 16 16 17 17 18 18 19 19 20 20 21 21 22 22 23 23
REMARK SMILES IDX 24 24
REMARK H PARENT
REMARK Flexibility Score: inf
ROOT
ATOM      1  C   UNL     1       2.791  -8.692   4.145  1.00  0.00     0.000 C 
ENDROOT
BRANCH   1   2
ATOM      2  C   UNL     1       1.314  -9.065   3.935  1.00  0.00     0.000 C 
BRANCH   2   3
ATOM      3  C   UNL     1       0.354  -8.044   4.566  1.00  0.00     0.000 C 
BRANCH   3   4
ATOM      4  C   UNL     1      -0.069  -8.430   5.994  1.00  0.00    -0.000 C 
BRANCH   4   5
ATOM      5  C   UNL     1      -0.276  -7.206   6.902  1.00  0.00    -0.000 C 
BRANCH   5   6
ATOM      6  C   UNL     1       0.747  -7.144   8.050  1.00  0.00    -0.000 C 
BRANCH   6   7
ATOM      7  C   UNL     1       1.938  -8.090   7.831  1.00  0.00    -0.000 C 
BRANCH   7   8
ATOM      8  C   UNL     1       3.214  -7.343   7.400  1.00  0.00    -0.000 C 
BRANCH   8   9
ATOM      9  C   UNL     1       3.007  -5.822   7.320  1.00  0.00    -0.000 C 
BRANCH   9  10
ATOM     10  C   UNL     1       2.903  -5.313   5.871  1.00  0.00    -0.000 C 
BRANCH  10  11
ATOM     11  C   UNL     1       2.333  -3.889   5.787  1.00  0.00    -0.003 C 
ATOM     12  C   UNL     1       0.804  -3.863   5.810  1.00  0.00     0.004 C 
ENDBRANCH  10  11
ENDBRANCH   9  10
ENDBRANCH   8   9
ENDBRANCH   7   8
ENDBRANCH   6   7
ENDBRANCH   5   6
ENDBRANCH   4   5
ENDBRANCH   3   4
ENDBRANCH   2   3
ENDBRANCH   1   2
BRANCH   1  13
ATOM     13  C   UNL     1       3.748  -9.515   3.263  1.00  0.00     0.000 C 
BRANCH  13  14
ATOM     14  C   UNL     1       5.187  -8.969   3.168  1.00  0.00     0.000 C 
BRANCH  14  15
ATOM     15  C   UNL     1       5.792  -8.486   4.502  1.00  0.00     0.000 C 
BRANCH  15  16
ATOM     16  C   UNL     1       5.878  -6.956   4.661  1.00  0.00     0.000 C 
BRANCH  16  17
ATOM     17  C   UNL     1       7.077  -6.292   3.953  1.00  0.00     0.000 C 
BRANCH  17  18
ATOM     18  C   UNL     1       7.025  -4.754   3.888  1.00  0.00     0.000 C 
BRANCH  18  19
ATOM     19  C   UNL     1       7.311  -4.039   5.222  1.00  0.00     0.000 C 
BRANCH  19  20
ATOM     20  C   UNL     1       6.039  -3.565   5.958  1.00  0.00     0.006 C 
BRANCH  20  21
ATOM     21  C   UNL     1       6.047  -2.056   6.233  1.00  0.00     0.053 C 
BRANCH  21  22
ATOM     22  C   UNL     1       5.865  -1.292   4.959  1.00  0.00     0.041 C 
ATOM     23  O   UNL     1       6.536  -0.248   4.746  1.00  0.00    -0.550 OA
ATOM     24  O   UNL     1       4.992  -1.760   3.986  1.00  0.00    -0.550 OA
ENDBRANCH  21  22
ENDBRANCH  20  21
ENDBRANCH  19  20
ENDBRANCH  18  19
ENDBRANCH  17  18
ENDBRANCH  16  17
ENDBRANCH  15  16
ENDBRANCH  14  15
ENDBRANCH  13  14
ENDBRANCH   1  13
TORSDOF 20
ENDMDL
MODEL 5
REMARK VINA RESULT:    -4.039      4.822      7.044
REMARK INTER + INTRA:         -10.790
REMARK INTER:                  -8.036
REMARK INTRA:                  -2.754
REMARK UNBOUND:                -2.029
REMARK SMILES CCCCCCCCCCCCCCCCCCCCCC(=O)[O-]
REMARK SMILES IDX 12 1 11 2 10 3 9 4 8 5 7 6 6 7 5 8 4 9 3 10 2 11 1 12 13 13
REMARK SMILES IDX 14 14 15 15 16 16 17 17 18 18 19 19 20 20 21 21 22 22 23 23
REMARK SMILES IDX 24 24
REMARK H PARENT
REMARK Flexibility Score: inf
ROOT
ATOM      1  C   UNL     1       7.131  -6.190   3.690  1.00  0.00     0.000 C 
ENDROOT
BRANCH   1   2
ATOM      2  C   UNL     1       7.220  -7.145   4.893  1.00  0.00     0.000 C 
BRANCH   2   3
ATOM      3  C   UNL     1       6.079  -8.175   4.911  1.00  0.00     0.000 C 
BRANCH   3   4
ATOM      4  C   UNL     1       5.316  -8.240   3.576  1.00  0.00    -0.000 C 
BRANCH   4   5
ATOM      5  C   UNL     1       4.190  -9.288   3.587  1.00  0.00    -0.000 C 
BRANCH   5   6
ATOM      6  C   UNL     1       3.760  -9.675   5.013  1.00  0.00    -0.000 C 
BRANCH   6   7
ATOM      7  C   UNL     1       2.232  -9.707   5.181  1.00  0.00    -0.000 C 
BRANCH   7   8
ATOM      8  C   UNL     1       1.495  -9.038   4.006  1.00  0.00    -0.000 C 
BRANCH   8   9
ATOM      9  C   UNL     1       0.455  -8.007   4.472  1.00  0.00    -0.000 C 
BRANCH   9  10
ATOM     10  C   UNL     1      -0.549  -8.592   5.482  1.00  0.00    -0.000 C 
BRANCH  10  11
ATOM     11  C   UNL     1      -0.865  -7.620   6.629  1.00  0.00    -0.003 C 
ATOM     12  C   UNL     1       0.168  -7.681   7.755  1.00  0.00     0.004 C 
ENDBRANCH  10  11
ENDBRANCH   9  10
ENDBRANCH   8   9
ENDBRANCH   7   8
ENDBRANCH   6   7
ENDBRANCH   5   6
ENDBRANCH   4   5
ENDBRANCH   3   4
ENDBRANCH   2   3
ENDBRANCH   1   2
BRANCH   1  13
ATOM     13  C   UNL     1       7.022  -4.712   4.106  1.00  0.00     0.000 C 
BRANCH  13  14
ATOM     14  C   UNL     1       6.358  -4.462   5.476  1.00  0.00     0.000 C 
BRANCH  14  15
ATOM     15  C   UNL     1       4.832  -4.243   5.432  1.00  0.00     0.000 C 
BRANCH  15  16
ATOM     16  C   UNL     1       3.992  -5.401   6.005  1.00  0.00     0.000 C 
BRANCH  16  17
ATOM     17  C   UNL     1       2.466  -5.248   5.836  1.00  0.00     0.000 C 
BRANCH  17  18
ATOM     18  C   UNL     1       1.929  -3.820   6.042  1.00  0.00     0.000 C 
BRANCH  18  19
ATOM     19  C   UNL     1       0.668  -3.723   6.921  1.00  0.00     0.000 C 
BRANCH  19  20
ATOM     20  C   UNL     1      -0.612  -4.243   6.231  1.00  0.00     0.006 C 
BRANCH  20  21
ATOM     21  C   UNL     1      -1.871  -3.497   6.691  1.00  0.00     0.053 C 
BRANCH  21  22
ATOM     22  C   UNL     1      -3.101  -4.246   6.282  1.00  0.00     0.041 C 
ATOM     23  O   UNL     1      -3.544  -5.178   7.004  1.00  0.00    -0.550 OA
ATOM     24  O   UNL     1      -3.786  -3.881   5.131  1.00  0.00    -0.550 OA
ENDBRANCH  21  22
ENDBRANCH  20  21
ENDBRANCH  19  20
ENDBRANCH  18  19
ENDBRANCH  17  18
ENDBRANCH  16  17
ENDBRANCH  15  16
ENDBRANCH  14  15
ENDBRANCH  13  14
ENDBRANCH   1  13
TORSDOF 20
ENDMDL
MODEL 6
REMARK VINA RESULT:    -3.973      3.991      6.469
REMARK INTER + INTRA:         -10.646
REMARK INTER:                  -8.010
REMARK INTRA:                  -2.636
REMARK UNBOUND:                -2.029
REMARK SMILES CCCCCCCCCCCCCCCCCCCCCC(=O)[O-]
REMARK SMILES IDX 12 1 11 2 10 3 9 4 8 5 7 6 6 7 5 8 4 9 3 10 2 11 1 12 13 13
REMARK SMILES IDX 14 14 15 15 16 16 17 17 18 18 19 19 20 20 21 21 22 22 23 23
REMARK SMILES IDX 24 24
REMARK H PARENT
REMARK Flexibility Score: inf
ROOT
ATOM      1  C   UNL     1       2.733  -6.778   5.116  1.00  0.00     0.000 C 
ENDROOT
BRANCH   1   2
ATOM      2  C   UNL     1       2.058  -8.004   4.477  1.00  0.00     0.000 C 
BRANCH   2   3
ATOM      3  C   UNL     1       2.944  -9.259   4.534  1.00  0.00     0.000 C 
BRANCH   3   4
ATOM      4  C   UNL     1       3.801  -9.439   3.268  1.00  0.00    -0.000 C 
BRANCH   4   5
ATOM      5  C   UNL     1       5.309  -9.369   3.558  1.00  0.00    -0.000 C 
BRANCH   5   6
ATOM      6  C   UNL     1       5.613  -8.844   4.973  1.00  0.00    -0.000 C 
BRANCH   6   7
ATOM      7  C   UNL     1       6.856  -7.940   5.013  1.00  0.00    -0.000 C 
BRANCH   7   8
ATOM      8  C   UNL     1       6.631  -6.596   4.298  1.00  0.00    -0.000 C 
BRANCH   8   9
ATOM      9  C   UNL     1       6.600  -5.408   5.272  1.00  0.00    -0.000 C 
BRANCH   9  10
ATOM     10  C   UNL     1       5.579  -4.331   4.863  1.00  0.00    -0.000 C 
BRANCH  10  11
ATOM     11  C   UNL     1       5.817  -2.992   5.579  1.00  0.00    -0.003 C 
ATOM     12  C   UNL     1       5.223  -1.804   4.821  1.00  0.00     0.004 C 
ENDBRANCH  10  11
ENDBRANCH   9  10
ENDBRANCH   8   9
ENDBRANCH   7   8
ENDBRANCH   6   7
ENDBRANCH   5   6
ENDBRANCH   4   5
ENDBRANCH   3   4
ENDBRANCH   2   3
ENDBRANCH   1   2
BRANCH   1  13
ATOM     13  C   UNL     1       2.840  -6.885   6.649  1.00  0.00     0.000 C 
BRANCH  13  14
ATOM     14  C   UNL     1       3.454  -5.657   7.351  1.00  0.00     0.000 C 
BRANCH  14  15
ATOM     15  C   UNL     1       2.458  -4.528   7.683  1.00  0.00     0.000 C 
BRANCH  15  16
ATOM     16  C   UNL     1       2.250  -3.493   6.560  1.00  0.00     0.000 C 
BRANCH  16  17
ATOM     17  C   UNL     1       0.998  -3.717   5.689  1.00  0.00     0.000 C 
BRANCH  17  18
ATOM     18  C   UNL     1      -0.345  -3.525   6.417  1.00  0.00     0.000 C 
BRANCH  18  19
ATOM     19  C   UNL     1      -1.145  -4.821   6.654  1.00  0.00     0.000 C 
BRANCH  19  20
ATOM     20  C   UNL     1      -2.673  -4.638   6.531  1.00  0.00     0.006 C 
BRANCH  20  21
ATOM     21  C   UNL     1      -3.124  -3.213   6.876  1.00  0.00     0.053 C 
BRANCH  21  22
ATOM     22  C   UNL     1      -4.182  -2.754   5.923  1.00  0.00     0.041 C 
ATOM     23  O   UNL     1      -4.929  -1.786   6.225  1.00  0.00    -0.550 OA
ATOM     24  O   UNL     1      -4.310  -3.362   4.681  1.00  0.00    -0.550 OA
ENDBRANCH  21  22
ENDBRANCH  20  21
ENDBRANCH  19  20
ENDBRANCH  18  19
ENDBRANCH  17  18
ENDBRANCH  16  17
ENDBRANCH  15  16
ENDBRANCH  14  15
ENDBRANCH  13  14
ENDBRANCH   1  13
TORSDOF 20
ENDMDL
MODEL 7
REMARK VINA RESULT:    -3.939      2.695      5.638
REMARK INTER + INTRA:         -10.574
REMARK INTER:                  -6.831
REMARK INTRA:                  -3.743
REMARK UNBOUND:                -2.029
REMARK SMILES CCCCCCCCCCCCCCCCCCCCCC(=O)[O-]
REMARK SMILES IDX 12 1 11 2 10 3 9 4 8 5 7 6 6 7 5 8 4 9 3 10 2 11 1 12 13 13
REMARK SMILES IDX 14 14 15 15 16 16 17 17 18 18 19 19 20 20 21 21 22 22 23 23
REMARK SMILES IDX 24 24
REMARK H PARENT
REMARK Flexibility Score: inf
ROOT
ATOM      1  C   UNL     1       5.758  -7.298   4.107  1.00  0.00     0.000 C 
ENDROOT
BRANCH   1   2
ATOM      2  C   UNL     1       5.641  -8.722   4.678  1.00  0.00     0.000 C 
BRANCH   2   3
ATOM      3  C   UNL     1       5.128  -8.734   6.127  1.00  0.00     0.000 C 
BRANCH   3   4
ATOM      4  C   UNL     1       4.933  -7.319   6.700  1.00  0.00    -0.000 C 
BRANCH   4   5
ATOM      5  C   UNL     1       3.700  -7.214   7.613  1.00  0.00    -0.000 C 
BRANCH   5   6
ATOM      6  C   UNL     1       2.711  -6.132   7.145  1.00  0.00    -0.000 C 
BRANCH   6   7
ATOM      7  C   UNL     1       2.602  -6.053   5.614  1.00  0.00    -0.000 C 
BRANCH   7   8
ATOM      8  C   UNL     1       1.479  -6.944   5.055  1.00  0.00    -0.000 C 
BRANCH   8   9
ATOM      9  C   UNL     1       2.019  -8.179   4.315  1.00  0.00    -0.000 C 
BRANCH   9  10
ATOM     10  C   UNL     1       1.576  -9.502   4.968  1.00  0.00    -0.000 C 
BRANCH  10  11
ATOM     11  C   UNL     1       0.885  -9.287   6.323  1.00  0.00    -0.003 C 
ATOM     12  C   UNL     1      -0.580  -9.723   6.314  1.00  0.00     0.004 C 
ENDBRANCH  10  11
ENDBRANCH   9  10
ENDBRANCH   8   9
ENDBRANCH   7   8
ENDBRANCH   6   7
ENDBRANCH   5   6
ENDBRANCH   4   5
ENDBRANCH   3   4
ENDBRANCH   2   3
ENDBRANCH   1   2
BRANCH   1  13
ATOM     13  C   UNL     1       7.218  -6.835   3.951  1.00  0.00     0.000 C 
BRANCH  13  14
ATOM     14  C   UNL     1       7.507  -5.984   2.698  1.00  0.00     0.000 C 
BRANCH  14  15
ATOM     15  C   UNL     1       8.523  -4.842   2.903  1.00  0.00     0.000 C 
BRANCH  15  16
ATOM     16  C   UNL     1       9.129  -4.757   4.317  1.00  0.00     0.000 C 
BRANCH  16  17
ATOM     17  C   UNL     1       8.484  -3.706   5.243  1.00  0.00     0.000 C 
BRANCH  17  18
ATOM     18  C   UNL     1       7.771  -4.278   6.481  1.00  0.00     0.000 C 
BRANCH  18  19
ATOM     19  C   UNL     1       6.260  -3.984   6.553  1.00  0.00     0.000 C 
BRANCH  19  20
ATOM     20  C   UNL     1       5.610  -3.734   5.175  1.00  0.00     0.006 C 
BRANCH  20  21
ATOM     21  C   UNL     1       4.417  -2.773   5.254  1.00  0.00     0.053 C 
BRANCH  21  22
ATOM     22  C   UNL     1       4.869  -1.362   5.051  1.00  0.00     0.041 C 
ATOM     23  O   UNL     1       5.923  -1.120   4.406  1.00  0.00    -0.550 OA
ATOM     24  O   UNL     1       4.099  -0.310   5.531  1.00  0.00    -0.550 OA
ENDBRANCH  21  22
ENDBRANCH  20  21
ENDBRANCH  19  20
ENDBRANCH  18  19
ENDBRANCH  17  18
ENDBRANCH  16  17
ENDBRANCH  15  16
ENDBRANCH  14  15
ENDBRANCH  13  14
ENDBRANCH   1  13
TORSDOF 20
ENDMDL
MODEL 8
REMARK VINA RESULT:    -3.927      1.764      2.807
REMARK INTER + INTRA:         -10.546
REMARK INTER:                  -7.590
REMARK INTRA:                  -2.957
REMARK UNBOUND:                -2.029
REMARK SMILES CCCCCCCCCCCCCCCCCCCCCC(=O)[O-]
REMARK SMILES IDX 12 1 11 2 10 3 9 4 8 5 7 6 6 7 5 8 4 9 3 10 2 11 1 12 13 13
REMARK SMILES IDX 14 14 15 15 16 16 17 17 18 18 19 19 20 20 21 21 22 22 23 23
REMARK SMILES IDX 24 24
REMARK H PARENT
REMARK Flexibility Score: inf
ROOT
ATOM      1  C   UNL     1       1.349  -3.699   6.083  1.00  0.00     0.000 C 
ENDROOT
BRANCH   1   2
ATOM      2  C   UNL     1      -0.025  -4.352   6.313  1.00  0.00     0.000 C 
BRANCH   2   3
ATOM      3  C   UNL     1       0.023  -5.883   6.180  1.00  0.00     0.000 C 
BRANCH   3   4
ATOM      4  C   UNL     1       0.995  -6.354   5.085  1.00  0.00    -0.000 C 
BRANCH   4   5
ATOM      5  C   UNL     1       1.615  -7.728   5.394  1.00  0.00    -0.000 C 
BRANCH   5   6
ATOM      6  C   UNL     1       3.111  -7.793   5.036  1.00  0.00    -0.000 C 
BRANCH   6   7
ATOM      7  C   UNL     1       3.411  -8.825   3.937  1.00  0.00    -0.000 C 
BRANCH   7   8
ATOM      8  C   UNL     1       4.882  -9.278   3.938  1.00  0.00    -0.000 C 
BRANCH   8   9
ATOM      9  C   UNL     1       5.837  -8.177   4.427  1.00  0.00    -0.000 C 
BRANCH   9  10
ATOM     10  C   UNL     1       6.271  -7.224   3.298  1.00  0.00    -0.000 C 
BRANCH  10  11
ATOM     11  C   UNL     1       7.165  -6.081   3.804  1.00  0.00    -0.003 C 
ATOM     12  C   UNL     1       8.147  -5.587   2.742  1.00  0.00     0.004 C 
ENDBRANCH  10  11
ENDBRANCH   9  10
ENDBRANCH   8   9
ENDBRANCH   7   8
ENDBRANCH   6   7
ENDBRANCH   5   6
ENDBRANCH   4   5
ENDBRANCH   3   4
ENDBRANCH   2   3
ENDBRANCH   1   2
BRANCH   1  13
ATOM     13  C   UNL     1       1.979  -3.159   7.380  1.00  0.00     0.000 C 
BRANCH  13  14
ATOM     14  C   UNL     1       3.297  -3.839   7.802  1.00  0.00     0.000 C 
BRANCH  14  15
ATOM     15  C   UNL     1       3.934  -4.751   6.734  1.00  0.00     0.000 C 
BRANCH  15  16
ATOM     16  C   UNL     1       5.473  -4.696   6.665  1.00  0.00     0.000 C 
BRANCH  16  17
ATOM     17  C   UNL     1       6.054  -3.409   6.045  1.00  0.00     0.000 C 
BRANCH  17  18
ATOM     18  C   UNL     1       5.381  -2.955   4.737  1.00  0.00     0.000 C 
BRANCH  18  19
ATOM     19  C   UNL     1       4.445  -1.738   4.877  1.00  0.00     0.000 C 
BRANCH  19  20
ATOM     20  C   UNL     1       4.874  -0.750   5.984  1.00  0.00     0.006 C 
BRANCH  20  21
ATOM     21  C   UNL     1       3.681  -0.017   6.610  1.00  0.00     0.053 C 
BRANCH  21  22
ATOM     22  C   UNL     1       3.779   1.454   6.355  1.00  0.00     0.041 C 
ATOM     23  O   UNL     1       2.977   2.249   6.913  1.00  0.00    -0.550 OA
ATOM     24  O   UNL     1       4.786   1.953   5.539  1.00  0.00    -0.550 OA
ENDBRANCH  21  22
ENDBRANCH  20  21
ENDBRANCH  19  20
ENDBRANCH  18  19
ENDBRANCH  17  18
ENDBRANCH  16  17
ENDBRANCH  15  16
ENDBRANCH  14  15
ENDBRANCH  13  14
ENDBRANCH   1  13
TORSDOF 20
ENDMDL
MODEL 9
REMARK VINA RESULT:    -3.875      1.526      4.071
REMARK INTER + INTRA:         -10.435
REMARK INTER:                  -6.961
REMARK INTRA:                  -3.474
REMARK UNBOUND:                -2.029
REMARK SMILES CCCCCCCCCCCCCCCCCCCCCC(=O)[O-]
REMARK SMILES IDX 12 1 11 2 10 3 9 4 8 5 7 6 6 7 5 8 4 9 3 10 2 11 1 12 13 13
REMARK SMILES IDX 14 14 15 15 16 16 17 17 18 18 19 19 20 20 21 21 22 22 23 23
REMARK SMILES IDX 24 24
REMARK H PARENT
REMARK Flexibility Score: inf
ROOT
ATOM      1  C   UNL     1       3.970   0.004   6.950  1.00  0.00     0.000 C 
ENDROOT
BRANCH   1   2
ATOM      2  C   UNL     1       4.136  -1.435   6.435  1.00  0.00     0.000 C 
BRANCH   2   3
ATOM      3  C   UNL     1       4.244  -1.503   4.903  1.00  0.00     0.000 C 
BRANCH   3   4
ATOM      4  C   UNL     1       5.135  -2.661   4.420  1.00  0.00    -0.000 C 
BRANCH   4   5
ATOM      5  C   UNL     1       5.838  -3.390   5.578  1.00  0.00    -0.000 C 
BRANCH   5   6
ATOM      6  C   UNL     1       6.951  -4.335   5.090  1.00  0.00    -0.000 C 
BRANCH   6   7
ATOM      7  C   UNL     1       6.397  -5.641   4.496  1.00  0.00    -0.000 C 
BRANCH   7   8
ATOM      8  C   UNL     1       5.460  -6.380   5.468  1.00  0.00    -0.000 C 
BRANCH   8   9
ATOM      9  C   UNL     1       4.387  -7.204   4.738  1.00  0.00    -0.000 C 
BRANCH   9  10
ATOM     10  C   UNL     1       2.956  -6.811   5.149  1.00  0.00    -0.000 C 
BRANCH  10  11
ATOM     11  C   UNL     1       2.933  -5.722   6.233  1.00  0.00    -0.003 C 
ATOM     12  C   UNL     1       2.143  -4.484   5.809  1.00  0.00     0.004 C 
ENDBRANCH  10  11
ENDBRANCH   9  10
ENDBRANCH   8   9
ENDBRANCH   7   8
ENDBRANCH   6   7
ENDBRANCH   5   6
ENDBRANCH   4   5
ENDBRANCH   3   4
ENDBRANCH   2   3
ENDBRANCH   1   2
BRANCH   1  13
ATOM     13  C   UNL     1       5.178   0.488   7.774  1.00  0.00     0.000 C 
BRANCH  13  14
ATOM     14  C   UNL     1       6.359  -0.501   7.851  1.00  0.00     0.000 C 
BRANCH  14  15
ATOM     15  C   UNL     1       7.643  -0.042   7.130  1.00  0.00     0.000 C 
BRANCH  15  16
ATOM     16  C   UNL     1       7.581  -0.103   5.591  1.00  0.00     0.000 C 
BRANCH  16  17
ATOM     17  C   UNL     1       7.384   1.257   4.891  1.00  0.00     0.000 C 
BRANCH  17  18
ATOM     18  C   UNL     1       7.949   2.469   5.652  1.00  0.00     0.000 C 
BRANCH  18  19
ATOM     19  C   UNL     1       6.948   3.620   5.873  1.00  0.00     0.000 C 
BRANCH  19  20
ATOM     20  C   UNL     1       5.527   3.315   5.352  1.00  0.00     0.006 C 
BRANCH  20  21
ATOM     21  C   UNL     1       4.433   3.838   6.292  1.00  0.00     0.053 C 
BRANCH  21  22
ATOM     22  C   UNL     1       3.763   5.037   5.699  1.00  0.00     0.041 C 
ATOM     23  O   UNL     1       3.153   5.853   6.439  1.00  0.00    -0.550 OA
ATOM     24  O   UNL     1       3.854   5.281   4.335  1.00  0.00    -0.550 OA
ENDBRANCH  21  22
ENDBRANCH  20  21
ENDBRANCH  19  20
ENDBRANCH  18  19
ENDBRANCH  17  18
ENDBRANCH  16  17
ENDBRANCH  15  16
ENDBRANCH  14  15
ENDBRANCH  13  14
ENDBRANCH   1  13
TORSDOF 20
ENDMDL
