MODEL 1
REMARK VINA RESULT:    -4.016      0.000      0.000
REMARK INTER + INTRA:          -6.092
REMARK INTER:                  -5.659
REMARK INTRA:                  -0.432
REMARK UNBOUND:                -0.432
REMARK SMILES CCCCCCCCC(=O)[O-]
REMARK SMILES IDX 6 1 7 2 8 3 9 4 10 5 11 6 5 7 4 8 3 9 2 10 1 11
REMARK H PARENT
REMARK Flexibility Score: inf
ROOT
ATOM      1  C   UNL     1       6.967   4.767  19.922  1.00  0.00     0.000 C 
ENDROOT
BRANCH   1   2
ATOM      2  C   UNL     1       5.775   3.874  19.547  1.00  0.00     0.006 C 
BRANCH   2   3
ATOM      3  C   UNL     1       5.707   2.595  20.394  1.00  0.00     0.053 C 
BRANCH   3   4
ATOM      4  C   UNL     1       4.998   2.860  21.683  1.00  0.00     0.041 C 
ATOM      5  O   UNL     1       5.025   2.006  22.608  1.00  0.00    -0.550 OA
ATOM      6  O   UNL     1       4.264   4.028  21.847  1.00  0.00    -0.550 OA
ENDBRANCH   3   4
ENDBRANCH   2   3
ENDBRANCH   1   2
BRANCH   1   7
ATOM      7  C   UNL     1       7.465   5.617  18.741  1.00  0.00     0.000 C 
BRANCH   7   8
ATOM      8  C   UNL     1       6.457   6.701  18.321  1.00  0.00    -0.000 C 
BRANCH   8   9
ATOM      9  C   UNL     1       6.447   7.035  16.816  1.00  0.00    -0.000 C 
BRANCH   9  10
ATOM     10  C   UNL     1       6.601   5.822  15.881  1.00  0.00    -0.003 C 
ATOM     11  C   UNL     1       5.336   4.969  15.798  1.00  0.00     0.004 C 
ENDBRANCH   9  10
ENDBRANCH   8   9
ENDBRANCH   7   8
ENDBRANCH   1   7
TORSDOF 7
ENDMDL
MODEL 2
REMARK VINA RESULT:    -3.997      1.544      1.989
REMARK INTER + INTRA:          -6.065
REMARK INTER:                  -5.446
REMARK INTRA:                  -0.619
REMARK UNBOUND:                -0.432
REMARK SMILES CCCCCCCCC(=O)[O-]
REMARK SMILES IDX 6 1 7 2 8 3 9 4 10 5 11 6 5 7 4 8 3 9 2 10 1 11
REMARK H PARENT
REMARK Flexibility Score: inf
ROOT
ATOM      1  C   UNL     1       5.646   6.227  20.417  1.00  0.00     0.000 C 
ENDROOT
BRANCH   1   2
ATOM      2  C   UNL     1       5.333   5.384  21.664  1.00  0.00     0.006 C 
BRANCH   2   3
ATOM      3  C   UNL     1       4.382   4.219  21.362  1.00  0.00     0.053 C 
BRANCH   3   4
ATOM      4  C   UNL     1       5.153   2.950  21.178  1.00  0.00     0.041 C 
ATOM      5  O   UNL     1       5.382   2.201  22.164  1.00  0.00    -0.550 OA
ATOM      6  O   UNL     1       5.662   2.620  19.929  1.00  0.00    -0.550 OA
ENDBRANCH   3   4
ENDBRANCH   2   3
ENDBRANCH   1   2
BRANCH   1   7
ATOM      7  C   UNL     1       7.137   6.191  20.037  1.00  0.00     0.000 C 
BRANCH   7   8
ATOM      8  C   UNL     1       7.392   5.478  18.698  1.00  0.00    -0.000 C 
BRANCH   8   9
ATOM      9  C   UNL     1       6.172   5.397  17.759  1.00  0.00    -0.000 C 
BRANCH   9  10
ATOM     10  C   UNL     1       6.263   6.274  16.498  1.00  0.00    -0.003 C 
ATOM     11  C   UNL     1       6.337   7.767  16.814  1.00  0.00     0.004 C 
ENDBRANCH   9  10
ENDBRANCH   8   9
ENDBRANCH   7   8
ENDBRANCH   1   7
TORSDOF 7
ENDMDL
MODEL 3
REMARK VINA RESULT:    -3.954      1.773      2.723
REMARK INTER + INTRA:          -6.004
REMARK INTER:                  -5.582
REMARK INTRA:                  -0.422
REMARK UNBOUND:                -0.432
REMARK SMILES CCCCCCCCC(=O)[O-]
REMARK SMILES IDX 6 1 7 2 8 3 9 4 10 5 11 6 5 7 4 8 3 9 2 10 1 11
REMARK H PARENT
REMARK Flexibility Score: inf
ROOT
ATOM      1  C   UNL     1       6.382   6.640  18.238  1.00  0.00     0.000 C 
ENDROOT
BRANCH   1   2
ATOM      2  C   UNL     1       6.366   5.139  18.567  1.00  0.00     0.006 C 
BRANCH   2   3
ATOM      3  C   UNL     1       6.252   4.868  20.072  1.00  0.00     0.053 C 
BRANCH   3   4
ATOM      4  C   UNL     1       5.434   3.641  20.321  1.00  0.00     0.041 C 
ATOM      5  O   UNL     1       5.656   2.589  19.666  1.00  0.00    -0.550 OA
ATOM      6  O   UNL     1       4.393   3.673  21.239  1.00  0.00    -0.550 OA
ENDBRANCH   3   4
ENDBRANCH   2   3
ENDBRANCH   1   2
BRANCH   1   7
ATOM      7  C   UNL     1       6.561   6.915  16.734  1.00  0.00     0.000 C 
BRANCH   7   8
ATOM      8  C   UNL     1       6.607   5.627  15.895  1.00  0.00    -0.000 C 
BRANCH   8   9
ATOM      9  C   UNL     1       7.966   5.330  15.230  1.00  0.00    -0.000 C 
BRANCH   9  10
ATOM     10  C   UNL     1       9.190   5.885  15.979  1.00  0.00    -0.003 C 
ATOM     11  C   UNL     1       9.999   6.877  15.145  1.00  0.00     0.004 C 
ENDBRANCH   9  10
ENDBRANCH   8   9
ENDBRANCH   7   8
ENDBRANCH   1   7
TORSDOF 7
ENDMDL
MODEL 4
REMARK VINA RESULT:    -3.937      0.958      1.342
REMARK INTER + INTRA:          -5.980
REMARK INTER:                  -5.459
REMARK INTRA:                  -0.521
REMARK UNBOUND:                -0.432
REMARK SMILES CCCCCCCCC(=O)[O-]
REMARK SMILES IDX 6 1 7 2 8 3 9 4 10 5 11 6 5 7 4 8 3 9 2 10 1 11
REMARK H PARENT
REMARK Flexibility Score: inf
ROOT
ATOM      1  C   UNL     1       7.152   3.364  19.549  1.00  0.00     0.000 C 
ENDROOT
BRANCH   1   2
ATOM      2  C   UNL     1       5.641   3.249  19.800  1.00  0.00     0.006 C 
BRANCH   2   3
ATOM      3  C   UNL     1       5.315   2.725  21.206  1.00  0.00     0.053 C 
BRANCH   3   4
ATOM      4  C   UNL     1       4.505   3.729  21.962  1.00  0.00     0.041 C 
ATOM      5  O   UNL     1       4.227   4.841  21.440  1.00  0.00    -0.550 OA
ATOM      6  O   UNL     1       4.100   3.459  23.262  1.00  0.00    -0.550 OA
ENDBRANCH   3   4
ENDBRANCH   2   3
ENDBRANCH   1   2
BRANCH   1   7
ATOM      7  C   UNL     1       7.547   4.712  18.921  1.00  0.00     0.000 C 
BRANCH   7   8
ATOM      8  C   UNL     1       6.346   5.653  18.726  1.00  0.00    -0.000 C 
BRANCH   8   9
ATOM      9  C   UNL     1       6.386   6.502  17.440  1.00  0.00    -0.000 C 
BRANCH   9  10
ATOM     10  C   UNL     1       6.540   5.700  16.136  1.00  0.00    -0.003 C 
ATOM     11  C   UNL     1       5.260   4.972  15.729  1.00  0.00     0.004 C 
ENDBRANCH   9  10
ENDBRANCH   8   9
ENDBRANCH   7   8
ENDBRANCH   1   7
TORSDOF 7
ENDMDL
MODEL 5
REMARK VINA RESULT:    -3.890      2.792      4.426
REMARK INTER + INTRA:          -5.914
REMARK INTER:                  -5.417
REMARK INTRA:                  -0.497
REMARK UNBOUND:                -0.432
REMARK SMILES CCCCCCCCC(=O)[O-]
REMARK SMILES IDX 6 1 7 2 8 3 9 4 10 5 11 6 5 7 4 8 3 9 2 10 1 11
REMARK H PARENT
REMARK Flexibility Score: inf
ROOT
ATOM      1  C   UNL     1       5.907   5.843  16.239  1.00  0.00     0.000 C 
ENDROOT
BRANCH   1   2
ATOM      2  C   UNL     1       6.529   7.093  16.882  1.00  0.00     0.006 C 
BRANCH   2   3
ATOM      3  C   UNL     1       6.321   7.139  18.401  1.00  0.00     0.053 C 
BRANCH   3   4
ATOM      4  C   UNL     1       6.858   5.898  19.040  1.00  0.00     0.041 C 
ATOM      5  O   UNL     1       8.090   5.643  18.991  1.00  0.00    -0.550 OA
ATOM      6  O   UNL     1       5.992   4.996  19.644  1.00  0.00    -0.550 OA
ENDBRANCH   3   4
ENDBRANCH   2   3
ENDBRANCH   1   2
BRANCH   1   7
ATOM      7  C   UNL     1       6.936   4.997  15.470  1.00  0.00     0.000 C 
BRANCH   7   8
ATOM      8  C   UNL     1       8.335   5.638  15.447  1.00  0.00    -0.000 C 
BRANCH   8   9
ATOM      9  C   UNL     1       9.121   5.439  14.136  1.00  0.00    -0.000 C 
BRANCH   9  10
ATOM     10  C   UNL     1      10.307   6.399  13.937  1.00  0.00    -0.003 C 
ATOM     11  C   UNL     1      10.623   7.222  15.185  1.00  0.00     0.004 C 
ENDBRANCH   9  10
ENDBRANCH   8   9
ENDBRANCH   7   8
ENDBRANCH   1   7
TORSDOF 7
ENDMDL
MODEL 6
REMARK VINA RESULT:    -3.876      4.852      6.668
REMARK INTER + INTRA:          -5.894
REMARK INTER:                  -5.460
REMARK INTRA:                  -0.434
REMARK UNBOUND:                -0.432
REMARK SMILES CCCCCCCCC(=O)[O-]
REMARK SMILES IDX 6 1 7 2 8 3 9 4 10 5 11 6 5 7 4 8 3 9 2 10 1 11
REMARK H PARENT
REMARK Flexibility Score: inf
ROOT
ATOM      1  C   UNL     1       7.116   5.123  15.594  1.00  0.00     0.000 C 
ENDROOT
BRANCH   1   2
ATOM      2  C   UNL     1       8.451   5.884  15.600  1.00  0.00     0.006 C 
BRANCH   2   3
ATOM      3  C   UNL     1       9.285   5.619  14.340  1.00  0.00     0.053 C 
BRANCH   3   4
ATOM      4  C   UNL     1      10.326   6.680  14.171  1.00  0.00     0.041 C 
ATOM      5  O   UNL     1      10.903   6.829  13.062  1.00  0.00    -0.550 OA
ATOM      6  O   UNL     1      10.695   7.471  15.250  1.00  0.00    -0.550 OA
ENDBRANCH   3   4
ENDBRANCH   2   3
ENDBRANCH   1   2
BRANCH   1   7
ATOM      7  C   UNL     1       5.971   5.931  16.230  1.00  0.00     0.000 C 
BRANCH   7   8
ATOM      8  C   UNL     1       6.474   7.099  17.095  1.00  0.00    -0.000 C 
BRANCH   8   9
ATOM      9  C   UNL     1       6.341   6.888  18.616  1.00  0.00    -0.000 C 
BRANCH   9  10
ATOM     10  C   UNL     1       7.080   5.656  19.169  1.00  0.00    -0.003 C 
ATOM     11  C   UNL     1       6.135   4.529  19.581  1.00  0.00     0.004 C 
ENDBRANCH   9  10
ENDBRANCH   8   9
ENDBRANCH   7   8
ENDBRANCH   1   7
TORSDOF 7
ENDMDL
MODEL 7
REMARK VINA RESULT:    -3.864      5.613      7.348
REMARK INTER + INTRA:          -5.878
REMARK INTER:                  -5.241
REMARK INTRA:                  -0.636
REMARK UNBOUND:                -0.432
REMARK SMILES CCCCCCCCC(=O)[O-]
REMARK SMILES IDX 6 1 7 2 8 3 9 4 10 5 11 6 5 7 4 8 3 9 2 10 1 11
REMARK H PARENT
REMARK Flexibility Score: inf
ROOT
ATOM      1  C   UNL     1       9.729   6.823  15.358  1.00  0.00     0.000 C 
ENDROOT
BRANCH   1   2
ATOM      2  C   UNL     1      10.885   6.777  14.346  1.00  0.00     0.006 C 
BRANCH   2   3
ATOM      3  C   UNL     1      10.395   6.779  12.892  1.00  0.00     0.053 C 
BRANCH   3   4
ATOM      4  C   UNL     1       9.789   5.457  12.543  1.00  0.00     0.041 C 
ATOM      5  O   UNL     1       8.768   5.403  11.808  1.00  0.00    -0.550 OA
ATOM      6  O   UNL     1      10.320   4.287  13.071  1.00  0.00    -0.550 OA
ENDBRANCH   3   4
ENDBRANCH   2   3
ENDBRANCH   1   2
BRANCH   1   7
ATOM      7  C   UNL     1       9.813   5.697  16.404  1.00  0.00     0.000 C 
BRANCH   7   8
ATOM      8  C   UNL     1       8.499   4.907  16.535  1.00  0.00    -0.000 C 
BRANCH   8   9
ATOM      9  C   UNL     1       7.386   5.328  15.555  1.00  0.00    -0.000 C 
BRANCH   9  10
ATOM     10  C   UNL     1       6.119   5.897  16.218  1.00  0.00    -0.003 C 
ATOM     11  C   UNL     1       6.338   7.276  16.837  1.00  0.00     0.004 C 
ENDBRANCH   9  10
ENDBRANCH   8   9
ENDBRANCH   7   8
ENDBRANCH   1   7
TORSDOF 7
ENDMDL
MODEL 8
REMARK VINA RESULT:    -3.796      3.502      4.778
REMARK INTER + INTRA:          -5.781
REMARK INTER:                  -5.326
REMARK INTRA:                  -0.455
REMARK UNBOUND:                -0.432
REMARK SMILES CCCCCCCCC(=O)[O-]
REMARK SMILES IDX 6 1 7 2 8 3 9 4 10 5 11 6 5 7 4 8 3 9 2 10 1 11
REMARK H PARENT
REMARK Flexibility Score: inf
ROOT
ATOM      1  C   UNL     1       8.187   5.498  15.664  1.00  0.00     0.000 C 
ENDROOT
BRANCH   1   2
ATOM      2  C   UNL     1       7.102   6.451  16.191  1.00  0.00     0.006 C 
BRANCH   2   3
ATOM      3  C   UNL     1       5.934   5.706  16.851  1.00  0.00     0.053 C 
BRANCH   3   4
ATOM      4  C   UNL     1       6.261   5.380  18.274  1.00  0.00     0.041 C 
ATOM      5  O   UNL     1       6.844   6.228  18.999  1.00  0.00    -0.550 OA
ATOM      6  O   UNL     1       5.968   4.122  18.784  1.00  0.00    -0.550 OA
ENDBRANCH   3   4
ENDBRANCH   2   3
ENDBRANCH   1   2
BRANCH   1   7
ATOM      7  C   UNL     1       9.606   5.939  16.062  1.00  0.00     0.000 C 
BRANCH   7   8
ATOM      8  C   UNL     1      10.176   7.022  15.130  1.00  0.00    -0.000 C 
BRANCH   8   9
ATOM      9  C   UNL     1      11.038   6.493  13.966  1.00  0.00    -0.000 C 
BRANCH   9  10
ATOM     10  C   UNL     1      10.454   6.734  12.563  1.00  0.00    -0.003 C 
ATOM     11  C   UNL     1       9.455   5.658  12.141  1.00  0.00     0.004 C 
ENDBRANCH   9  10
ENDBRANCH   8   9
ENDBRANCH   7   8
ENDBRANCH   1   7
TORSDOF 7
ENDMDL
MODEL 9
REMARK VINA RESULT:    -3.792      2.118      3.399
REMARK INTER + INTRA:          -5.776
REMARK INTER:                  -5.368
REMARK INTRA:                  -0.408
REMARK UNBOUND:                -0.432
REMARK SMILES CCCCCCCCC(=O)[O-]
REMARK SMILES IDX 6 1 7 2 8 3 9 4 10 5 11 6 5 7 4 8 3 9 2 10 1 11
REMARK H PARENT
REMARK Flexibility Score: inf
ROOT
ATOM      1  C   UNL     1       6.422   6.580  16.777  1.00  0.00     0.000 C 
ENDROOT
BRANCH   1   2
ATOM      2  C   UNL     1       6.386   6.330  18.292  1.00  0.00     0.006 C 
BRANCH   2   3
ATOM      3  C   UNL     1       6.413   4.837  18.644  1.00  0.00     0.053 C 
BRANCH   3   4
ATOM      4  C   UNL     1       5.675   4.588  19.920  1.00  0.00     0.041 C 
ATOM      5  O   UNL     1       5.292   3.424  20.213  1.00  0.00    -0.550 OA
ATOM      6  O   UNL     1       5.364   5.647  20.763  1.00  0.00    -0.550 OA
ENDBRANCH   3   4
ENDBRANCH   2   3
ENDBRANCH   1   2
BRANCH   1   7
ATOM      7  C   UNL     1       6.196   5.296  15.959  1.00  0.00     0.000 C 
BRANCH   7   8
ATOM      8  C   UNL     1       7.415   4.915  15.100  1.00  0.00    -0.000 C 
BRANCH   8   9
ATOM      9  C   UNL     1       8.769   5.433  15.624  1.00  0.00    -0.000 C 
BRANCH   9  10
ATOM     10  C   UNL     1       9.778   5.831  14.533  1.00  0.00    -0.003 C 
ATOM     11  C   UNL     1      10.520   7.129  14.852  1.00  0.00     0.004 C 
ENDBRANCH   9  10
ENDBRANCH   8   9
ENDBRANCH   7   8
ENDBRANCH   1   7
TORSDOF 7
ENDMDL
