MODEL 1
REMARK VINA RESULT:    -3.547      0.000      0.000
REMARK INTER + INTRA:          -4.720
REMARK INTER:                  -4.583
REMARK INTRA:                  -0.137
REMARK UNBOUND:                -0.137
REMARK SMILES CCCCCCC(=O)[O-]
REMARK SMILES IDX 5 1 6 2 7 3 8 4 9 5 4 6 3 7 2 8 1 9
REMARK H PARENT
REMARK Flexibility Score: inf
ROOT
ATOM      1  C   UNL     1      46.562  26.578   5.790  1.00  0.00     0.006 C 
ENDROOT
BRANCH   1   2
ATOM      2  C   UNL     1      45.970  27.258   4.544  1.00  0.00     0.053 C 
BRANCH   2   3
ATOM      3  C   UNL     1      45.275  26.282   3.646  1.00  0.00     0.041 C 
ATOM      4  O   UNL     1      45.440  25.044   3.808  1.00  0.00    -0.550 OA
ATOM      5  O   UNL     1      44.420  26.738   2.651  1.00  0.00    -0.550 OA
ENDBRANCH   2   3
ENDBRANCH   1   2
BRANCH   1   6
ATOM      6  C   UNL     1      46.294  27.325   7.110  1.00  0.00     0.000 C 
BRANCH   6   7
ATOM      7  C   UNL     1      46.040  26.372   8.292  1.00  0.00    -0.000 C 
BRANCH   7   8
ATOM      8  C   UNL     1      45.289  27.054   9.445  1.00  0.00    -0.003 C 
ATOM      9  C   UNL     1      45.157  28.566   9.256  1.00  0.00     0.004 C 
ENDBRANCH   7   8
ENDBRANCH   6   7
ENDBRANCH   1   6
TORSDOF 5
ENDMDL
MODEL 2
REMARK VINA RESULT:    -3.407      3.101      5.037
REMARK INTER + INTRA:          -4.540
REMARK INTER:                  -4.286
REMARK INTRA:                  -0.254
REMARK UNBOUND:                -0.137
REMARK SMILES CCCCCCC(=O)[O-]
REMARK SMILES IDX 5 1 6 2 7 3 8 4 9 5 4 6 3 7 2 8 1 9
REMARK H PARENT
REMARK Flexibility Score: inf
ROOT
ATOM      1  C   UNL     1      46.399  27.586   2.235  1.00  0.00     0.006 C 
ENDROOT
BRANCH   1   2
ATOM      2  C   UNL     1      46.019  27.739   3.717  1.00  0.00     0.053 C 
BRANCH   2   3
ATOM      3  C   UNL     1      45.891  26.414   4.404  1.00  0.00     0.041 C 
ATOM      4  O   UNL     1      46.258  26.283   5.601  1.00  0.00    -0.550 OA
ATOM      5  O   UNL     1      45.337  25.332   3.731  1.00  0.00    -0.550 OA
ENDBRANCH   2   3
ENDBRANCH   1   2
BRANCH   1   6
ATOM      6  C   UNL     1      45.246  27.859   1.251  1.00  0.00     0.000 C 
BRANCH   6   7
ATOM      7  C   UNL     1      44.017  28.485   1.934  1.00  0.00    -0.000 C 
BRANCH   7   8
ATOM      8  C   UNL     1      42.837  27.506   2.032  1.00  0.00    -0.003 C 
ATOM      9  C   UNL     1      41.570  28.157   2.587  1.00  0.00     0.004 C 
ENDBRANCH   7   8
ENDBRANCH   6   7
ENDBRANCH   1   6
TORSDOF 5
ENDMDL
MODEL 3
REMARK VINA RESULT:    -3.364      1.113      1.657
REMARK INTER + INTRA:          -4.484
REMARK INTER:                  -4.326
REMARK INTRA:                  -0.158
REMARK UNBOUND:                -0.137
REMARK SMILES CCCCCCC(=O)[O-]
REMARK SMILES IDX 5 1 6 2 7 3 8 4 9 5 4 6 3 7 2 8 1 9
REMARK H PARENT
REMARK Flexibility Score: inf
ROOT
ATOM      1  C   UNL     1      46.279  27.412   5.664  1.00  0.00     0.006 C 
ENDROOT
BRANCH   1   2
ATOM      2  C   UNL     1      47.025  26.202   5.079  1.00  0.00     0.053 C 
BRANCH   2   3
ATOM      3  C   UNL     1      46.446  25.763   3.769  1.00  0.00     0.041 C 
ATOM      4  O   UNL     1      47.122  25.862   2.712  1.00  0.00    -0.550 OA
ATOM      5  O   UNL     1      45.171  25.214   3.722  1.00  0.00    -0.550 OA
ENDBRANCH   2   3
ENDBRANCH   1   2
BRANCH   1   6
ATOM      6  C   UNL     1      46.681  27.770   7.107  1.00  0.00     0.000 C 
BRANCH   6   7
ATOM      7  C   UNL     1      45.640  28.659   7.812  1.00  0.00    -0.000 C 
BRANCH   7   8
ATOM      8  C   UNL     1      45.332  28.183   9.240  1.00  0.00    -0.003 C 
ATOM      9  C   UNL     1      45.434  26.665   9.395  1.00  0.00     0.004 C 
ENDBRANCH   7   8
ENDBRANCH   6   7
ENDBRANCH   1   6
TORSDOF 5
ENDMDL
MODEL 4
REMARK VINA RESULT:    -3.347      2.770      4.994
REMARK INTER + INTRA:          -4.462
REMARK INTER:                  -4.343
REMARK INTRA:                  -0.119
REMARK UNBOUND:                -0.137
REMARK SMILES CCCCCCC(=O)[O-]
REMARK SMILES IDX 5 1 6 2 7 3 8 4 9 5 4 6 3 7 2 8 1 9
REMARK H PARENT
REMARK Flexibility Score: inf
ROOT
ATOM      1  C   UNL     1      45.293  26.115   4.009  1.00  0.00     0.006 C 
ENDROOT
BRANCH   1   2
ATOM      2  C   UNL     1      46.634  26.196   4.758  1.00  0.00     0.053 C 
BRANCH   2   3
ATOM      3  C   UNL     1      46.496  26.875   6.085  1.00  0.00     0.041 C 
ATOM      4  O   UNL     1      46.762  26.253   7.146  1.00  0.00    -0.550 OA
ATOM      5  O   UNL     1      46.104  28.206   6.148  1.00  0.00    -0.550 OA
ENDBRANCH   2   3
ENDBRANCH   1   2
BRANCH   1   6
ATOM      6  C   UNL     1      45.112  27.183   2.913  1.00  0.00     0.000 C 
BRANCH   6   7
ATOM      7  C   UNL     1      43.751  27.080   2.202  1.00  0.00    -0.000 C 
BRANCH   7   8
ATOM      8  C   UNL     1      42.932  28.375   2.310  1.00  0.00    -0.003 C 
ATOM      9  C   UNL     1      41.450  28.120   2.587  1.00  0.00     0.004 C 
ENDBRANCH   7   8
ENDBRANCH   6   7
ENDBRANCH   1   6
TORSDOF 5
ENDMDL
MODEL 5
REMARK VINA RESULT:    -3.344      2.984      4.964
REMARK INTER + INTRA:          -4.458
REMARK INTER:                  -4.352
REMARK INTRA:                  -0.106
REMARK UNBOUND:                -0.137
REMARK SMILES CCCCCCC(=O)[O-]
REMARK SMILES IDX 5 1 6 2 7 3 8 4 9 5 4 6 3 7 2 8 1 9
REMARK H PARENT
REMARK Flexibility Score: inf
ROOT
ATOM      1  C   UNL     1      46.338  27.110   6.181  1.00  0.00     0.006 C 
ENDROOT
BRANCH   1   2
ATOM      2  C   UNL     1      46.593  26.394   7.517  1.00  0.00     0.053 C 
BRANCH   2   3
ATOM      3  C   UNL     1      45.669  26.869   8.595  1.00  0.00     0.041 C 
ATOM      4  O   UNL     1      45.273  26.073   9.487  1.00  0.00    -0.550 OA
ATOM      5  O   UNL     1      45.270  28.199   8.634  1.00  0.00    -0.550 OA
ENDBRANCH   2   3
ENDBRANCH   1   2
BRANCH   1   6
ATOM      6  C   UNL     1      46.663  26.266   4.934  1.00  0.00     0.000 C 
BRANCH   6   7
ATOM      7  C   UNL     1      45.434  26.032   4.038  1.00  0.00    -0.000 C 
BRANCH   7   8
ATOM      8  C   UNL     1      45.126  27.238   3.137  1.00  0.00    -0.003 C 
ATOM      9  C   UNL     1      43.748  27.150   2.478  1.00  0.00     0.004 C 
ENDBRANCH   7   8
ENDBRANCH   6   7
ENDBRANCH   1   6
TORSDOF 5
ENDMDL
MODEL 6
REMARK VINA RESULT:    -3.229      0.857      1.352
REMARK INTER + INTRA:          -4.310
REMARK INTER:                  -4.117
REMARK INTRA:                  -0.193
REMARK UNBOUND:                -0.137
REMARK SMILES CCCCCCC(=O)[O-]
REMARK SMILES IDX 5 1 6 2 7 3 8 4 9 5 4 6 3 7 2 8 1 9
REMARK H PARENT
REMARK Flexibility Score: inf
ROOT
ATOM      1  C   UNL     1      46.275  28.177   5.643  1.00  0.00     0.006 C 
ENDROOT
BRANCH   1   2
ATOM      2  C   UNL     1      46.268  26.681   5.285  1.00  0.00     0.053 C 
BRANCH   2   3
ATOM      3  C   UNL     1      45.516  26.409   4.019  1.00  0.00     0.041 C 
ATOM      4  O   UNL     1      45.131  27.364   3.294  1.00  0.00    -0.550 OA
ATOM      5  O   UNL     1      45.268  25.101   3.624  1.00  0.00    -0.550 OA
ENDBRANCH   2   3
ENDBRANCH   1   2
BRANCH   1   6
ATOM      6  C   UNL     1      46.104  28.472   7.145  1.00  0.00     0.000 C 
BRANCH   6   7
ATOM      7  C   UNL     1      46.058  27.194   8.001  1.00  0.00    -0.000 C 
BRANCH   7   8
ATOM      8  C   UNL     1      45.432  27.435   9.384  1.00  0.00    -0.003 C 
ATOM      9  C   UNL     1      44.981  28.882   9.586  1.00  0.00     0.004 C 
ENDBRANCH   7   8
ENDBRANCH   6   7
ENDBRANCH   1   6
TORSDOF 5
ENDMDL
MODEL 7
REMARK VINA RESULT:    -3.169      1.995      3.128
REMARK INTER + INTRA:          -4.232
REMARK INTER:                  -4.057
REMARK INTRA:                  -0.175
REMARK UNBOUND:                -0.137
REMARK SMILES CCCCCCC(=O)[O-]
REMARK SMILES IDX 5 1 6 2 7 3 8 4 9 5 4 6 3 7 2 8 1 9
REMARK H PARENT
REMARK Flexibility Score: inf
ROOT
ATOM      1  C   UNL     1      44.797  26.272   3.510  1.00  0.00     0.006 C 
ENDROOT
BRANCH   1   2
ATOM      2  C   UNL     1      43.982  27.301   2.709  1.00  0.00     0.053 C 
BRANCH   2   3
ATOM      3  C   UNL     1      44.771  27.886   1.579  1.00  0.00     0.041 C 
ATOM      4  O   UNL     1      44.990  27.207   0.542  1.00  0.00    -0.550 OA
ATOM      5  O   UNL     1      45.235  29.193   1.658  1.00  0.00    -0.550 OA
ENDBRANCH   2   3
ENDBRANCH   1   2
BRANCH   1   6
ATOM      6  C   UNL     1      46.277  26.649   3.710  1.00  0.00     0.000 C 
BRANCH   6   7
ATOM      7  C   UNL     1      46.798  26.291   5.113  1.00  0.00    -0.000 C 
BRANCH   7   8
ATOM      8  C   UNL     1      46.348  27.299   6.182  1.00  0.00    -0.003 C 
ATOM      9  C   UNL     1      46.115  26.652   7.548  1.00  0.00     0.004 C 
ENDBRANCH   7   8
ENDBRANCH   6   7
ENDBRANCH   1   6
TORSDOF 5
ENDMDL
MODEL 8
REMARK VINA RESULT:    -2.912      1.431      2.339
REMARK INTER + INTRA:          -3.900
REMARK INTER:                  -3.677
REMARK INTRA:                  -0.223
REMARK UNBOUND:                -0.137
REMARK SMILES CCCCCCC(=O)[O-]
REMARK SMILES IDX 5 1 6 2 7 3 8 4 9 5 4 6 3 7 2 8 1 9
REMARK H PARENT
REMARK Flexibility Score: inf
ROOT
ATOM      1  C   UNL     1      46.090  28.272   4.001  1.00  0.00     0.006 C 
ENDROOT
BRANCH   1   2
ATOM      2  C   UNL     1      44.858  28.336   3.082  1.00  0.00     0.053 C 
BRANCH   2   3
ATOM      3  C   UNL     1      44.414  26.976   2.641  1.00  0.00     0.041 C 
ATOM      4  O   UNL     1      44.668  25.966   3.349  1.00  0.00    -0.550 OA
ATOM      5  O   UNL     1      43.692  26.827   1.464  1.00  0.00    -0.550 OA
ENDBRANCH   2   3
ENDBRANCH   1   2
BRANCH   1   6
ATOM      6  C   UNL     1      46.070  29.285   5.161  1.00  0.00     0.000 C 
BRANCH   6   7
ATOM      7  C   UNL     1      46.413  28.642   6.517  1.00  0.00    -0.000 C 
BRANCH   7   8
ATOM      8  C   UNL     1      46.273  27.113   6.494  1.00  0.00    -0.003 C 
ATOM      9  C   UNL     1      45.991  26.521   7.876  1.00  0.00     0.004 C 
ENDBRANCH   7   8
ENDBRANCH   6   7
ENDBRANCH   1   6
TORSDOF 5
ENDMDL
MODEL 9
REMARK VINA RESULT:    -2.875      8.661     11.234
REMARK INTER + INTRA:          -3.852
REMARK INTER:                  -3.655
REMARK INTRA:                  -0.197
REMARK UNBOUND:                -0.137
REMARK SMILES CCCCCCC(=O)[O-]
REMARK SMILES IDX 5 1 6 2 7 3 8 4 9 5 4 6 3 7 2 8 1 9
REMARK H PARENT
REMARK Flexibility Score: inf
ROOT
ATOM      1  C   UNL     1      45.306  27.030  -4.304  1.00  0.00     0.006 C 
ENDROOT
BRANCH   1   2
ATOM      2  C   UNL     1      46.503  27.201  -3.353  1.00  0.00     0.053 C 
BRANCH   2   3
ATOM      3  C   UNL     1      46.209  28.169  -2.249  1.00  0.00     0.041 C 
ATOM      4  O   UNL     1      46.124  29.401  -2.493  1.00  0.00    -0.550 OA
ATOM      5  O   UNL     1      45.997  27.707  -0.956  1.00  0.00    -0.550 OA
ENDBRANCH   2   3
ENDBRANCH   1   2
BRANCH   1   6
ATOM      6  C   UNL     1      45.587  27.445  -5.760  1.00  0.00     0.000 C 
BRANCH   6   7
ATOM      7  C   UNL     1      44.301  27.739  -6.554  1.00  0.00    -0.000 C 
BRANCH   7   8
ATOM      8  C   UNL     1      43.052  27.761  -5.660  1.00  0.00    -0.003 C 
ATOM      9  C   UNL     1      42.367  29.128  -5.629  1.00  0.00     0.004 C 
ENDBRANCH   7   8
ENDBRANCH   6   7
ENDBRANCH   1   6
TORSDOF 5
ENDMDL
