MODEL 1
REMARK VINA RESULT:    -2.944      0.000      0.000
REMARK INTER + INTRA:          -3.437
REMARK INTER:                  -4.149
REMARK INTRA:                   0.712
REMARK UNBOUND:                 0.712
REMARK SMILES CC1=CCC(=C(C)C)C(=O)CC(C)=CCC1
REMARK SMILES IDX 12 1 14 2 13 3 15 4 16 5 2 6 1 7 3 8 11 10 9 11 10 12 5 13
REMARK SMILES IDX 6 14 7 15 8 16 4 17
REMARK H PARENT
REMARK Flexibility Score: 60.00
ROOT
ATOM      1  C   UNL     1      23.533 -12.076   6.135  1.00  0.00    -0.070 C 
ATOM      2  C   UNL     1      23.009 -12.119   4.890  1.00  0.00    -0.027 C 
ATOM      3  C   UNL     1      23.055 -10.988   7.064  1.00  0.00     0.039 C 
ENDROOT
BRANCH   2   4
ATOM      4  C   UNL     1      23.428 -13.068   3.788  1.00  0.00     0.032 C 
BRANCH   4   5
ATOM      5  C   UNL     1      24.844 -12.824   3.227  1.00  0.00     0.034 C 
BRANCH   5   6
ATOM      6  C   UNL     1      25.223 -11.355   3.180  1.00  0.00    -0.077 C 
ATOM      7  C   UNL     1      24.528 -10.483   2.166  1.00  0.00     0.039 C 
ATOM      8  C   UNL     1      26.193 -10.792   3.942  1.00  0.00    -0.023 CG0
ATOM      9  G   UNL     1      27.005 -11.463   5.032  1.00  0.00     0.000 G0
ENDBRANCH   5   6
ENDBRANCH   4   5
ENDBRANCH   2   4
BRANCH   1  10
ATOM     10  C   UNL     1      24.634 -13.003   6.607  1.00  0.00     0.111 C 
BRANCH  10  11
ATOM     11  C   UNL     1      25.802 -12.238   7.170  1.00  0.00     0.163 C 
ATOM     12  O   UNL     1      26.185 -12.516   8.339  1.00  0.00    -0.294 OA
BRANCH  11  13
ATOM     13  C   UNL     1      26.472 -11.135   6.422  1.00  0.00    -0.002 C 
ATOM     14  C   UNL     1      26.524  -9.869   6.938  1.00  0.00    -0.069 C 
ATOM     15  C   UNL     1      26.049  -9.577   8.344  1.00  0.00     0.039 C 
ATOM     16  C   UNL     1      27.052  -8.699   6.139  1.00  0.00     0.039 C 
BRANCH  13  17
ATOM     17  C   UNL     1      27.002 -11.457   5.033  1.00  0.00     0.066 CG0
ATOM     18  G   UNL     1      26.194 -10.789   3.939  1.00  0.00     0.000 G0
ENDBRANCH  13  17
ENDBRANCH  11  13
ENDBRANCH  10  11
ENDBRANCH   1  10
TORSDOF 0
ENDMDL
MODEL 2
REMARK VINA RESULT:    -0.352      1.551      3.578
REMARK INTER + INTRA:           0.216
REMARK INTER:                  -3.346
REMARK INTRA:                   3.562
REMARK UNBOUND:                 0.712
REMARK SMILES CC1=CCC(=C(C)C)C(=O)CC(C)=CCC1
REMARK SMILES IDX 12 1 14 2 13 3 15 4 16 5 2 6 1 7 3 8 11 10 9 11 10 12 5 13
REMARK SMILES IDX 6 14 7 15 8 16 4 17
REMARK H PARENT
REMARK Flexibility Score: 60.00
ROOT
ATOM      1  C   UNL     1      26.120  -9.706   7.690  1.00  0.00    -0.070 C 
ATOM      2  C   UNL     1      26.411  -8.929   6.623  1.00  0.00    -0.027 C 
ATOM      3  C   UNL     1      25.609  -9.029   8.937  1.00  0.00     0.039 C 
ENDROOT
BRANCH   2   4
ATOM      4  C   UNL     1      27.021  -9.406   5.323  1.00  0.00     0.032 C 
BRANCH   4   5
ATOM      5  C   UNL     1      26.633 -10.842   4.914  1.00  0.00     0.034 C 
BRANCH   5   6
ATOM      6  C   UNL     1      25.371 -10.903   4.073  1.00  0.00    -0.077 C 
ATOM      7  C   UNL     1      25.514 -11.272   2.618  1.00  0.00     0.039 C 
ATOM      8  C   UNL     1      24.135 -10.580   4.527  1.00  0.00    -0.023 CG0
ATOM      9  G   UNL     1      23.751 -10.202   5.943  1.00  0.00     0.000 G0
ENDBRANCH   5   6
ENDBRANCH   4   5
ENDBRANCH   2   4
BRANCH   1  10
ATOM     10  C   UNL     1      26.367 -11.200   7.723  1.00  0.00     0.111 C 
BRANCH  10  11
ATOM     11  C   UNL     1      25.236 -11.965   7.089  1.00  0.00     0.163 C 
ATOM     12  O   UNL     1      25.475 -13.125   6.655  1.00  0.00    -0.294 OA
BRANCH  11  13
ATOM     13  C   UNL     1      23.876 -11.379   6.905  1.00  0.00    -0.002 C 
ATOM     14  C   UNL     1      22.785 -11.940   7.509  1.00  0.00    -0.069 C 
ATOM     15  C   UNL     1      22.934 -13.070   8.503  1.00  0.00     0.039 C 
ATOM     16  C   UNL     1      21.378 -11.468   7.217  1.00  0.00     0.039 C 
BRANCH  13  17
ATOM     17  C   UNL     1      23.749 -10.202   5.950  1.00  0.00     0.066 CG0
ATOM     18  G   UNL     1      24.110 -10.575   4.526  1.00  0.00     0.000 G0
ENDBRANCH  13  17
ENDBRANCH  11  13
ENDBRANCH  10  11
ENDBRANCH   1  10
TORSDOF 0
ENDMDL
