MODEL 1
REMARK VINA RESULT:    -8.118      0.000      0.000
REMARK INTER + INTRA:          -8.932
REMARK INTER:                  -8.830
REMARK INTRA:                  -0.101
REMARK UNBOUND:                -0.101
REMARK SMILES CC(=O)[C@H]1CC[C@@H]2[C@@H]3CC=C4C[C@@H](O)CC[C@@]4(C)[C@@H]3CC[C@]12C
REMARK SMILES IDX 4 1 5 2 6 3 7 4 22 5 21 6 20 7 19 8 8 9 9 10 10 11 11 12
REMARK SMILES IDX 17 13 16 14 15 15 13 16 12 17 18 18 23 19 2 20 1 21 3 22
REMARK SMILES IDX 14 23
REMARK H PARENT 14 24
REMARK Flexibility Score: inf
ROOT
ATOM      1  C   UNL     1      19.247 -11.069  67.415  1.00  0.00     0.062 C 
ATOM      2  C   UNL     1      20.256 -11.498  66.355  1.00  0.00     0.012 C 
ATOM      3  C   UNL     1      19.419 -11.731  65.115  1.00  0.00     0.005 C 
ATOM      4  C   UNL     1      18.133 -12.382  65.630  1.00  0.00    -0.001 C 
ATOM      5  C   UNL     1      17.909 -11.814  67.072  1.00  0.00    -0.020 C 
ATOM      6  C   UNL     1      16.718 -10.810  67.141  1.00  0.00     0.008 C 
ATOM      7  C   UNL     1      16.574  -9.992  65.853  1.00  0.00     0.005 C 
ATOM      8  C   UNL     1      16.123 -10.911  64.696  1.00  0.00     0.003 C 
ATOM      9  C   UNL     1      16.898 -12.283  64.677  1.00  0.00     0.000 C 
ATOM     10  C   UNL     1      17.212 -12.811  63.257  1.00  0.00     0.031 C 
ATOM     11  C   UNL     1      16.113 -12.480  62.292  1.00  0.00    -0.027 C 
ATOM     12  C   UNL     1      15.557 -11.254  62.267  1.00  0.00    -0.065 C 
ATOM     13  C   UNL     1      15.970 -10.196  63.295  1.00  0.00    -0.008 C 
ATOM     14  C   UNL     1      14.844  -9.118  63.383  1.00  0.00     0.014 C 
ATOM     15  C   UNL     1      14.425  -8.523  62.021  1.00  0.00     0.033 C 
ATOM     16  C   UNL     1      14.429  -9.534  60.849  1.00  0.00     0.118 C 
ATOM     17  C   UNL     1      14.400 -10.988  61.330  1.00  0.00     0.063 C 
ATOM     18  C   UNL     1      17.275  -9.505  62.830  1.00  0.00     0.016 C 
ATOM     19  C   UNL     1      17.609 -12.987  68.039  1.00  0.00     0.012 C 
ENDROOT
BRANCH   1  20
ATOM     20  C   UNL     1      19.771 -11.251  68.831  1.00  0.00     0.133 C 
ATOM     21  C   UNL     1      20.674 -12.398  69.177  1.00  0.00     0.088 C 
ATOM     22  O   UNL     1      19.465 -10.458  69.709  1.00  0.00    -0.300 OA
ENDBRANCH   1  20
BRANCH  16  23
ATOM     23  O   UNL     1      13.326  -9.308  60.010  1.00  0.00    -0.393 OA
ATOM     24  H   UNL     1      12.515  -9.398  60.574  1.00  0.00     0.210 HD
ENDBRANCH  16  23
TORSDOF 2
ENDMDL
MODEL 2
REMARK VINA RESULT:    -8.060      1.390      7.089
REMARK INTER + INTRA:          -8.869
REMARK INTER:                  -8.698
REMARK INTRA:                  -0.170
REMARK UNBOUND:                -0.101
REMARK SMILES CC(=O)[C@H]1CC[C@@H]2[C@@H]3CC=C4C[C@@H](O)CC[C@@]4(C)[C@@H]3CC[C@]12C
REMARK SMILES IDX 4 1 5 2 6 3 7 4 22 5 21 6 20 7 19 8 8 9 9 10 10 11 11 12
REMARK SMILES IDX 17 13 16 14 15 15 13 16 12 17 18 18 23 19 2 20 1 21 3 22
REMARK SMILES IDX 14 23
REMARK H PARENT 14 24
REMARK Flexibility Score: inf
ROOT
ATOM      1  C   UNL     1      15.832 -10.966  62.518  1.00  0.00     0.062 C 
ATOM      2  C   UNL     1      16.493  -9.592  62.526  1.00  0.00     0.012 C 
ATOM      3  C   UNL     1      17.153  -9.502  63.886  1.00  0.00     0.005 C 
ATOM      4  C   UNL     1      16.163 -10.172  64.844  1.00  0.00    -0.001 C 
ATOM      5  C   UNL     1      15.418 -11.262  64.002  1.00  0.00    -0.020 C 
ATOM      6  C   UNL     1      15.847 -12.711  64.386  1.00  0.00     0.008 C 
ATOM      7  C   UNL     1      17.320 -12.788  64.800  1.00  0.00     0.005 C 
ATOM      8  C   UNL     1      17.528 -12.050  66.140  1.00  0.00     0.003 C 
ATOM      9  C   UNL     1      16.766 -10.672  66.196  1.00  0.00     0.000 C 
ATOM     10  C   UNL     1      17.532  -9.555  66.943  1.00  0.00     0.031 C 
ATOM     11  C   UNL     1      18.313 -10.103  68.099  1.00  0.00    -0.027 C 
ATOM     12  C   UNL     1      19.047 -11.226  67.972  1.00  0.00    -0.065 C 
ATOM     13  C   UNL     1      19.019 -12.024  66.665  1.00  0.00    -0.008 C 
ATOM     14  C   UNL     1      19.490 -13.483  66.960  1.00  0.00     0.014 C 
ATOM     15  C   UNL     1      20.836 -13.577  67.711  1.00  0.00     0.033 C 
ATOM     16  C   UNL     1      21.061 -12.470  68.769  1.00  0.00     0.118 C 
ATOM     17  C   UNL     1      19.756 -11.785  69.186  1.00  0.00     0.063 C 
ATOM     18  C   UNL     1      19.999 -11.387  65.650  1.00  0.00     0.016 C 
ATOM     19  C   UNL     1      13.892 -11.131  64.237  1.00  0.00     0.012 C 
ENDROOT
BRANCH   1  20
ATOM     20  C   UNL     1      14.728 -11.080  61.478  1.00  0.00     0.133 C 
ATOM     21  C   UNL     1      14.255 -12.421  61.000  1.00  0.00     0.088 C 
ATOM     22  O   UNL     1      14.207 -10.074  61.018  1.00  0.00    -0.300 OA
ENDBRANCH   1  20
BRANCH  16  23
ATOM     23  O   UNL     1      21.679 -13.007  69.909  1.00  0.00    -0.393 OA
ATOM     24  H   UNL     1      22.657 -12.990  69.739  1.00  0.00     0.210 HD
ENDBRANCH  16  23
TORSDOF 2
ENDMDL
MODEL 3
REMARK VINA RESULT:    -7.932      1.667      6.968
REMARK INTER + INTRA:          -8.729
REMARK INTER:                  -8.555
REMARK INTRA:                  -0.174
REMARK UNBOUND:                -0.101
REMARK SMILES CC(=O)[C@H]1CC[C@@H]2[C@@H]3CC=C4C[C@@H](O)CC[C@@]4(C)[C@@H]3CC[C@]12C
REMARK SMILES IDX 4 1 5 2 6 3 7 4 22 5 21 6 20 7 19 8 8 9 9 10 10 11 11 12
REMARK SMILES IDX 17 13 16 14 15 15 13 16 12 17 18 18 23 19 2 20 1 21 3 22
REMARK SMILES IDX 14 23
REMARK H PARENT 14 24
REMARK Flexibility Score: inf
ROOT
ATOM      1  C   UNL     1      14.140 -12.484  62.045  1.00  0.00     0.062 C 
ATOM      2  C   UNL     1      15.429 -12.670  61.252  1.00  0.00     0.012 C 
ATOM      3  C   UNL     1      16.496 -12.036  62.119  1.00  0.00     0.005 C 
ATOM      4  C   UNL     1      15.827 -10.793  62.713  1.00  0.00    -0.001 C 
ATOM      5  C   UNL     1      14.305 -11.141  62.841  1.00  0.00    -0.020 C 
ATOM      6  C   UNL     1      13.862 -11.352  64.320  1.00  0.00     0.008 C 
ATOM      7  C   UNL     1      14.972 -11.975  65.174  1.00  0.00     0.005 C 
ATOM      8  C   UNL     1      16.128 -10.967  65.349  1.00  0.00     0.003 C 
ATOM      9  C   UNL     1      16.489 -10.223  64.008  1.00  0.00     0.000 C 
ATOM     10  C   UNL     1      18.002  -9.956  63.821  1.00  0.00     0.031 C 
ATOM     11  C   UNL     1      18.672  -9.655  65.128  1.00  0.00    -0.027 C 
ATOM     12  C   UNL     1      18.418 -10.394  66.226  1.00  0.00    -0.065 C 
ATOM     13  C   UNL     1      17.359 -11.500  66.185  1.00  0.00    -0.008 C 
ATOM     14  C   UNL     1      16.901 -11.807  67.646  1.00  0.00     0.014 C 
ATOM     15  C   UNL     1      18.057 -12.097  68.627  1.00  0.00     0.033 C 
ATOM     16  C   UNL     1      19.332 -11.254  68.385  1.00  0.00     0.118 C 
ATOM     17  C   UNL     1      19.058 -10.006  67.540  1.00  0.00     0.063 C 
ATOM     18  C   UNL     1      17.978 -12.786  65.584  1.00  0.00     0.016 C 
ATOM     19  C   UNL     1      13.466  -9.983  62.245  1.00  0.00     0.012 C 
ENDROOT
BRANCH   1  20
ATOM     20  C   UNL     1      12.896 -12.600  61.177  1.00  0.00     0.133 C 
ATOM     21  C   UNL     1      12.943 -12.264  59.716  1.00  0.00     0.088 C 
ATOM     22  O   UNL     1      11.838 -12.974  61.661  1.00  0.00    -0.300 OA
ENDBRANCH   1  20
BRANCH  16  23
ATOM     23  O   UNL     1      19.894 -10.861  69.611  1.00  0.00    -0.393 OA
ATOM     24  H   UNL     1      20.359 -11.656  69.980  1.00  0.00     0.210 HD
ENDBRANCH  16  23
TORSDOF 2
ENDMDL
MODEL 4
REMARK VINA RESULT:    -7.818      1.483      2.938
REMARK INTER + INTRA:          -8.605
REMARK INTER:                  -8.481
REMARK INTRA:                  -0.124
REMARK UNBOUND:                -0.101
REMARK SMILES CC(=O)[C@H]1CC[C@@H]2[C@@H]3CC=C4C[C@@H](O)CC[C@@]4(C)[C@@H]3CC[C@]12C
REMARK SMILES IDX 4 1 5 2 6 3 7 4 22 5 21 6 20 7 19 8 8 9 9 10 10 11 11 12
REMARK SMILES IDX 17 13 16 14 15 15 13 16 12 17 18 18 23 19 2 20 1 21 3 22
REMARK SMILES IDX 14 23
REMARK H PARENT 14 24
REMARK Flexibility Score: inf
ROOT
ATOM      1  C   UNL     1      18.554 -11.333  67.837  1.00  0.00     0.062 C 
ATOM      2  C   UNL     1      17.587 -10.173  68.043  1.00  0.00     0.012 C 
ATOM      3  C   UNL     1      16.905 -10.011  66.702  1.00  0.00     0.005 C 
ATOM      4  C   UNL     1      18.011 -10.254  65.671  1.00  0.00    -0.001 C 
ATOM      5  C   UNL     1      19.006 -11.265  66.335  1.00  0.00    -0.020 C 
ATOM      6  C   UNL     1      18.927 -12.686  65.700  1.00  0.00     0.008 C 
ATOM      7  C   UNL     1      17.509 -13.037  65.240  1.00  0.00     0.005 C 
ATOM      8  C   UNL     1      17.112 -12.151  64.039  1.00  0.00     0.003 C 
ATOM      9  C   UNL     1      17.525 -10.644  64.238  1.00  0.00     0.000 C 
ATOM     10  C   UNL     1      16.505  -9.628  63.671  1.00  0.00     0.031 C 
ATOM     11  C   UNL     1      15.859 -10.140  62.418  1.00  0.00    -0.027 C 
ATOM     12  C   UNL     1      15.415 -11.408  62.333  1.00  0.00    -0.065 C 
ATOM     13  C   UNL     1      15.650 -12.389  63.487  1.00  0.00    -0.008 C 
ATOM     14  C   UNL     1      15.534 -13.845  62.936  1.00  0.00     0.014 C 
ATOM     15  C   UNL     1      14.238 -14.125  62.145  1.00  0.00     0.033 C 
ATOM     16  C   UNL     1      13.742 -12.938  61.284  1.00  0.00     0.118 C 
ATOM     17  C   UNL     1      14.840 -11.903  61.024  1.00  0.00     0.063 C 
ATOM     18  C   UNL     1      14.561 -12.185  64.569  1.00  0.00     0.016 C 
ATOM     19  C   UNL     1      20.454 -10.739  66.167  1.00  0.00     0.012 C 
ENDROOT
BRANCH   1  20
ATOM     20  C   UNL     1      19.669 -11.359  68.872  1.00  0.00     0.133 C 
ATOM     21  C   UNL     1      20.549 -12.563  69.026  1.00  0.00     0.088 C 
ATOM     22  O   UNL     1      19.865 -10.391  69.592  1.00  0.00    -0.300 OA
ENDBRANCH   1  20
BRANCH  16  23
ATOM     23  O   UNL     1      13.252 -13.403  60.053  1.00  0.00    -0.393 OA
ATOM     24  H   UNL     1      13.883 -13.087  59.356  1.00  0.00     0.210 HD
ENDBRANCH  16  23
TORSDOF 2
ENDMDL
MODEL 5
REMARK VINA RESULT:    -7.639      1.496      6.902
REMARK INTER + INTRA:          -8.411
REMARK INTER:                  -8.234
REMARK INTRA:                  -0.176
REMARK UNBOUND:                -0.101
REMARK SMILES CC(=O)[C@H]1CC[C@@H]2[C@@H]3CC=C4C[C@@H](O)CC[C@@]4(C)[C@@H]3CC[C@]12C
REMARK SMILES IDX 4 1 5 2 6 3 7 4 22 5 21 6 20 7 19 8 8 9 9 10 10 11 11 12
REMARK SMILES IDX 17 13 16 14 15 15 13 16 12 17 18 18 23 19 2 20 1 21 3 22
REMARK SMILES IDX 14 23
REMARK H PARENT 14 24
REMARK Flexibility Score: inf
ROOT
ATOM      1  C   UNL     1      13.993 -10.138  63.695  1.00  0.00     0.062 C 
ATOM      2  C   UNL     1      13.409 -11.510  64.016  1.00  0.00     0.012 C 
ATOM      3  C   UNL     1      14.576 -12.289  64.584  1.00  0.00     0.005 C 
ATOM      4  C   UNL     1      15.780 -11.857  63.742  1.00  0.00    -0.001 C 
ATOM      5  C   UNL     1      15.493 -10.381  63.305  1.00  0.00    -0.020 C 
ATOM      6  C   UNL     1      16.400  -9.351  64.045  1.00  0.00     0.008 C 
ATOM      7  C   UNL     1      16.720  -9.787  65.479  1.00  0.00     0.005 C 
ATOM      8  C   UNL     1      17.636 -11.030  65.458  1.00  0.00     0.003 C 
ATOM      9  C   UNL     1      17.180 -12.098  64.393  1.00  0.00     0.000 C 
ATOM     10  C   UNL     1      17.368 -13.565  64.848  1.00  0.00     0.031 C 
ATOM     11  C   UNL     1      18.598 -13.726  65.691  1.00  0.00    -0.027 C 
ATOM     12  C   UNL     1      18.888 -12.848  66.670  1.00  0.00    -0.065 C 
ATOM     13  C   UNL     1      18.015 -11.606  66.880  1.00  0.00    -0.008 C 
ATOM     14  C   UNL     1      18.842 -10.542  67.668  1.00  0.00     0.014 C 
ATOM     15  C   UNL     1      19.484 -11.069  68.968  1.00  0.00     0.033 C 
ATOM     16  C   UNL     1      19.993 -12.529  68.887  1.00  0.00     0.118 C 
ATOM     17  C   UNL     1      20.178 -13.006  67.444  1.00  0.00     0.063 C 
ATOM     18  C   UNL     1      16.772 -11.984  67.722  1.00  0.00     0.016 C 
ATOM     19  C   UNL     1      15.748 -10.243  61.782  1.00  0.00     0.012 C 
ENDROOT
BRANCH   1  20
ATOM     20  C   UNL     1      13.155  -9.365  62.689  1.00  0.00     0.133 C 
ATOM     21  C   UNL     1      13.261  -7.872  62.584  1.00  0.00     0.088 C 
ATOM     22  O   UNL     1      12.383  -9.954  61.946  1.00  0.00    -0.300 OA
ENDBRANCH   1  20
BRANCH  16  23
ATOM     23  O   UNL     1      21.213 -12.655  69.571  1.00  0.00    -0.393 OA
ATOM     24  H   UNL     1      21.293 -11.863  70.162  1.00  0.00     0.210 HD
ENDBRANCH  16  23
TORSDOF 2
ENDMDL
MODEL 6
REMARK VINA RESULT:    -7.599      1.637      2.341
REMARK INTER + INTRA:          -8.367
REMARK INTER:                  -8.170
REMARK INTRA:                  -0.197
REMARK UNBOUND:                -0.101
REMARK SMILES CC(=O)[C@H]1CC[C@@H]2[C@@H]3CC=C4C[C@@H](O)CC[C@@]4(C)[C@@H]3CC[C@]12C
REMARK SMILES IDX 4 1 5 2 6 3 7 4 22 5 21 6 20 7 19 8 8 9 9 10 10 11 11 12
REMARK SMILES IDX 17 13 16 14 15 15 13 16 12 17 18 18 23 19 2 20 1 21 3 22
REMARK SMILES IDX 14 23
REMARK H PARENT 14 24
REMARK Flexibility Score: inf
ROOT
ATOM      1  C   UNL     1      19.649 -11.509  65.654  1.00  0.00     0.062 C 
ATOM      2  C   UNL     1      19.115 -12.936  65.723  1.00  0.00     0.012 C 
ATOM      3  C   UNL     1      17.660 -12.810  65.324  1.00  0.00     0.005 C 
ATOM      4  C   UNL     1      17.190 -11.505  65.973  1.00  0.00    -0.001 C 
ATOM      5  C   UNL     1      18.447 -10.573  66.028  1.00  0.00    -0.020 C 
ATOM      6  C   UNL     1      18.363  -9.396  65.008  1.00  0.00     0.008 C 
ATOM      7  C   UNL     1      17.631  -9.794  63.722  1.00  0.00     0.005 C 
ATOM      8  C   UNL     1      16.136 -10.036  64.023  1.00  0.00     0.003 C 
ATOM      9  C   UNL     1      15.911 -10.862  65.346  1.00  0.00     0.000 C 
ATOM     10  C   UNL     1      14.730 -11.859  65.276  1.00  0.00     0.031 C 
ATOM     11  C   UNL     1      13.602 -11.317  64.450  1.00  0.00    -0.027 C 
ATOM     12  C   UNL     1      13.833 -10.718  63.266  1.00  0.00    -0.065 C 
ATOM     13  C   UNL     1      15.269 -10.489  62.782  1.00  0.00    -0.008 C 
ATOM     14  C   UNL     1      15.260  -9.353  61.711  1.00  0.00     0.014 C 
ATOM     15  C   UNL     1      14.251  -9.568  60.564  1.00  0.00     0.033 C 
ATOM     16  C   UNL     1      12.917 -10.224  60.995  1.00  0.00     0.118 C 
ATOM     17  C   UNL     1      12.673 -10.118  62.503  1.00  0.00     0.063 C 
ATOM     18  C   UNL     1      15.803 -11.783  62.120  1.00  0.00     0.016 C 
ATOM     19  C   UNL     1      18.573  -9.972  67.450  1.00  0.00     0.012 C 
ENDROOT
BRANCH   1  20
ATOM     20  C   UNL     1      20.923 -11.321  66.463  1.00  0.00     0.133 C 
ATOM     21  C   UNL     1      21.302 -12.292  67.541  1.00  0.00     0.088 C 
ATOM     22  O   UNL     1      21.661 -10.371  66.240  1.00  0.00    -0.300 OA
ENDBRANCH   1  20
BRANCH  16  23
ATOM     23  O   UNL     1      11.841  -9.630  60.315  1.00  0.00    -0.393 OA
ATOM     24  H   UNL     1      11.578  -8.831  60.840  1.00  0.00     0.210 HD
ENDBRANCH  16  23
TORSDOF 2
ENDMDL
MODEL 7
REMARK VINA RESULT:    -7.479      1.799      7.113
REMARK INTER + INTRA:          -8.237
REMARK INTER:                  -8.058
REMARK INTRA:                  -0.179
REMARK UNBOUND:                -0.101
REMARK SMILES CC(=O)[C@H]1CC[C@@H]2[C@@H]3CC=C4C[C@@H](O)CC[C@@]4(C)[C@@H]3CC[C@]12C
REMARK SMILES IDX 4 1 5 2 6 3 7 4 22 5 21 6 20 7 19 8 8 9 9 10 10 11 11 12
REMARK SMILES IDX 17 13 16 14 15 15 13 16 12 17 18 18 23 19 2 20 1 21 3 22
REMARK SMILES IDX 14 23
REMARK H PARENT 14 24
REMARK Flexibility Score: inf
ROOT
ATOM      1  C   UNL     1      13.851 -11.435  60.949  1.00  0.00     0.062 C 
ATOM      2  C   UNL     1      12.885 -10.586  61.769  1.00  0.00     0.012 C 
ATOM      3  C   UNL     1      13.471 -10.595  63.165  1.00  0.00     0.005 C 
ATOM      4  C   UNL     1      14.001 -12.019  63.355  1.00  0.00    -0.001 C 
ATOM      5  C   UNL     1      14.426 -12.515  61.932  1.00  0.00    -0.020 C 
ATOM      6  C   UNL     1      15.974 -12.602  61.766  1.00  0.00     0.008 C 
ATOM      7  C   UNL     1      16.704 -11.514  62.562  1.00  0.00     0.005 C 
ATOM      8  C   UNL     1      16.550 -11.779  64.075  1.00  0.00     0.003 C 
ATOM      9  C   UNL     1      15.082 -12.194  64.470  1.00  0.00     0.000 C 
ATOM     10  C   UNL     1      14.611 -11.632  65.833  1.00  0.00     0.031 C 
ATOM     11  C   UNL     1      15.737 -11.573  66.821  1.00  0.00    -0.027 C 
ATOM     12  C   UNL     1      16.948 -11.101  66.468  1.00  0.00    -0.065 C 
ATOM     13  C   UNL     1      17.230 -10.705  65.014  1.00  0.00    -0.008 C 
ATOM     14  C   UNL     1      18.774 -10.717  64.784  1.00  0.00     0.014 C 
ATOM     15  C   UNL     1      19.578  -9.894  65.813  1.00  0.00     0.033 C 
ATOM     16  C   UNL     1      19.017  -9.945  67.255  1.00  0.00     0.118 C 
ATOM     17  C   UNL     1      18.075 -11.132  67.476  1.00  0.00     0.063 C 
ATOM     18  C   UNL     1      16.706  -9.271  64.759  1.00  0.00     0.016 C 
ATOM     19  C   UNL     1      13.834 -13.926  61.687  1.00  0.00     0.012 C 
ENDROOT
BRANCH   1  20
ATOM     20  C   UNL     1      13.227 -11.960  59.666  1.00  0.00     0.133 C 
ATOM     21  C   UNL     1      11.745 -12.167  59.559  1.00  0.00     0.088 C 
ATOM     22  O   UNL     1      13.928 -12.218  58.698  1.00  0.00    -0.300 OA
ENDBRANCH   1  20
BRANCH  16  23
ATOM     23  O   UNL     1      20.070 -10.019  68.182  1.00  0.00    -0.393 OA
ATOM     24  H   UNL     1      19.801 -10.684  68.868  1.00  0.00     0.210 HD
ENDBRANCH  16  23
TORSDOF 2
ENDMDL
MODEL 8
REMARK VINA RESULT:    -7.132      2.478      4.736
REMARK INTER + INTRA:          -7.858
REMARK INTER:                  -7.663
REMARK INTRA:                  -0.196
REMARK UNBOUND:                -0.101
REMARK SMILES CC(=O)[C@H]1CC[C@@H]2[C@@H]3CC=C4C[C@@H](O)CC[C@@]4(C)[C@@H]3CC[C@]12C
REMARK SMILES IDX 4 1 5 2 6 3 7 4 22 5 21 6 20 7 19 8 8 9 9 10 10 11 11 12
REMARK SMILES IDX 17 13 16 14 15 15 13 16 12 17 18 18 23 19 2 20 1 21 3 22
REMARK SMILES IDX 14 23
REMARK H PARENT 14 24
REMARK Flexibility Score: inf
ROOT
ATOM      1  C   UNL     1      16.138 -11.974  64.968  1.00  0.00     0.062 C 
ATOM      2  C   UNL     1      14.792 -11.803  65.663  1.00  0.00     0.012 C 
ATOM      3  C   UNL     1      13.872 -11.291  64.576  1.00  0.00     0.005 C 
ATOM      4  C   UNL     1      14.735 -10.326  63.758  1.00  0.00    -0.001 C 
ATOM      5  C   UNL     1      16.201 -10.868  63.856  1.00  0.00    -0.020 C 
ATOM      6  C   UNL     1      16.696 -11.499  62.519  1.00  0.00     0.008 C 
ATOM      7  C   UNL     1      15.564 -12.186  61.748  1.00  0.00     0.005 C 
ATOM      8  C   UNL     1      14.566 -11.129  61.228  1.00  0.00     0.003 C 
ATOM      9  C   UNL     1      14.231 -10.032  62.308  1.00  0.00     0.000 C 
ATOM     10  C   UNL     1      12.760  -9.553  62.288  1.00  0.00     0.031 C 
ATOM     11  C   UNL     1      12.212  -9.519  60.892  1.00  0.00    -0.027 C 
ATOM     12  C   UNL     1      12.428 -10.537  60.037  1.00  0.00    -0.065 C 
ATOM     13  C   UNL     1      13.325 -11.711  60.442  1.00  0.00    -0.008 C 
ATOM     14  C   UNL     1      13.820 -12.430  59.148  1.00  0.00     0.014 C 
ATOM     15  C   UNL     1      12.695 -12.825  58.168  1.00  0.00     0.033 C 
ATOM     16  C   UNL     1      11.533 -11.806  58.081  1.00  0.00     0.118 C 
ATOM     17  C   UNL     1      11.922 -10.425  58.615  1.00  0.00     0.063 C 
ATOM     18  C   UNL     1      12.505 -12.721  61.282  1.00  0.00     0.016 C 
ATOM     19  C   UNL     1      17.152  -9.701  64.223  1.00  0.00     0.012 C 
ENDROOT
BRANCH   1  20
ATOM     20  C   UNL     1      17.303 -12.009  65.946  1.00  0.00     0.133 C 
ATOM     21  C   UNL     1      17.173 -11.419  67.319  1.00  0.00     0.088 C 
ATOM     22  O   UNL     1      18.364 -12.523  65.624  1.00  0.00    -0.300 OA
ENDBRANCH   1  20
BRANCH  16  23
ATOM     23  O   UNL     1      11.100 -11.676  56.751  1.00  0.00    -0.393 OA
ATOM     24  H   UNL     1      11.022 -10.704  56.570  1.00  0.00     0.210 HD
ENDBRANCH  16  23
TORSDOF 2
ENDMDL
MODEL 9
REMARK VINA RESULT:    -6.992      1.813      7.346
REMARK INTER + INTRA:          -7.706
REMARK INTER:                  -7.508
REMARK INTRA:                  -0.198
REMARK UNBOUND:                -0.101
REMARK SMILES CC(=O)[C@H]1CC[C@@H]2[C@@H]3CC=C4C[C@@H](O)CC[C@@]4(C)[C@@H]3CC[C@]12C
REMARK SMILES IDX 4 1 5 2 6 3 7 4 22 5 21 6 20 7 19 8 8 9 9 10 10 11 11 12
REMARK SMILES IDX 17 13 16 14 15 15 13 16 12 17 18 18 23 19 2 20 1 21 3 22
REMARK SMILES IDX 14 23
REMARK H PARENT 14 24
REMARK Flexibility Score: inf
ROOT
ATOM      1  C   UNL     1      12.733  -8.298  61.521  1.00  0.00     0.062 C 
ATOM      2  C   UNL     1      12.004  -9.632  61.396  1.00  0.00     0.012 C 
ATOM      3  C   UNL     1      13.022 -10.659  61.842  1.00  0.00     0.005 C 
ATOM      4  C   UNL     1      14.354 -10.160  61.273  1.00  0.00    -0.001 C 
ATOM      5  C   UNL     1      14.246  -8.598  61.229  1.00  0.00    -0.020 C 
ATOM      6  C   UNL     1      15.134  -7.907  62.309  1.00  0.00     0.008 C 
ATOM      7  C   UNL     1      15.235  -8.735  63.594  1.00  0.00     0.005 C 
ATOM      8  C   UNL     1      16.041 -10.024  63.325  1.00  0.00     0.003 C 
ATOM      9  C   UNL     1      15.637 -10.718  61.969  1.00  0.00     0.000 C 
ATOM     10  C   UNL     1      15.646 -12.265  62.023  1.00  0.00     0.031 C 
ATOM     11  C   UNL     1      16.742 -12.777  62.908  1.00  0.00    -0.027 C 
ATOM     12  C   UNL     1      16.978 -12.225  64.114  1.00  0.00    -0.065 C 
ATOM     13  C   UNL     1      16.190 -10.991  64.566  1.00  0.00    -0.008 C 
ATOM     14  C   UNL     1      16.996 -10.269  65.692  1.00  0.00     0.014 C 
ATOM     15  C   UNL     1      17.424 -11.188  66.857  1.00  0.00     0.033 C 
ATOM     16  C   UNL     1      17.818 -12.623  66.432  1.00  0.00     0.118 C 
ATOM     17  C   UNL     1      18.143 -12.723  64.939  1.00  0.00     0.063 C 
ATOM     18  C   UNL     1      14.825 -11.434  65.146  1.00  0.00     0.016 C 
ATOM     19  C   UNL     1      14.700  -8.096  59.835  1.00  0.00     0.012 C 
ENDROOT
BRANCH   1  20
ATOM     20  C   UNL     1      12.094  -7.200  60.685  1.00  0.00     0.133 C 
ATOM     21  C   UNL     1      11.181  -7.533  59.543  1.00  0.00     0.088 C 
ATOM     22  O   UNL     1      12.315  -6.024  60.938  1.00  0.00    -0.300 OA
ENDBRANCH   1  20
BRANCH  16  23
ATOM     23  O   UNL     1      18.929 -13.060  67.172  1.00  0.00    -0.393 OA
ATOM     24  H   UNL     1      18.884 -12.603  68.051  1.00  0.00     0.210 HD
ENDBRANCH  16  23
TORSDOF 2
ENDMDL
