MODEL 1
REMARK VINA RESULT:    -3.803      0.000      0.000
REMARK INTER + INTRA:          -4.583
REMARK INTER:                  -4.470
REMARK INTRA:                  -0.113
REMARK UNBOUND:                -0.113
REMARK SMILES CCCCC(=O)[O-]
REMARK SMILES IDX 4 1 5 2 6 3 7 4 3 5 2 6 1 7
REMARK H PARENT
REMARK Flexibility Score: inf
ROOT
ATOM      1  C   UNL     1      48.094 -11.396  15.631  1.00  0.00     0.053 C 
ENDROOT
BRANCH   1   2
ATOM      2  C   UNL     1      48.210 -11.199  14.150  1.00  0.00     0.041 C 
ATOM      3  O   UNL     1      48.636 -12.129  13.418  1.00  0.00    -0.550 OA
ATOM      4  O   UNL     1      47.876  -9.975  13.584  1.00  0.00    -0.550 OA
ENDBRANCH   1   2
BRANCH   1   5
ATOM      5  C   UNL     1      49.344 -12.070  16.220  1.00  0.00     0.006 C 
BRANCH   5   6
ATOM      6  C   UNL     1      50.505 -11.102  16.507  1.00  0.00    -0.003 C 
ATOM      7  C   UNL     1      51.728 -11.366  15.631  1.00  0.00     0.004 C 
ENDBRANCH   5   6
ENDBRANCH   1   5
TORSDOF 3
ENDMDL
MODEL 2
REMARK VINA RESULT:    -3.393      1.272      2.091
REMARK INTER + INTRA:          -4.101
REMARK INTER:                  -4.080
REMARK INTRA:                  -0.022
REMARK UNBOUND:                -0.113
REMARK SMILES CCCCC(=O)[O-]
REMARK SMILES IDX 4 1 5 2 6 3 7 4 3 5 2 6 1 7
REMARK H PARENT
REMARK Flexibility Score: inf
ROOT
ATOM      1  C   UNL     1      49.194 -12.231  14.908  1.00  0.00     0.053 C 
ENDROOT
BRANCH   1   2
ATOM      2  C   UNL     1      48.586 -11.567  13.711  1.00  0.00     0.041 C 
ATOM      3  O   UNL     1      47.875 -10.537  13.850  1.00  0.00    -0.550 OA
ATOM      4  O   UNL     1      48.779 -12.104  12.445  1.00  0.00    -0.550 OA
ENDBRANCH   1   2
BRANCH   1   5
ATOM      5  C   UNL     1      48.962 -11.422  16.194  1.00  0.00     0.006 C 
BRANCH   5   6
ATOM      6  C   UNL     1      49.921 -11.777  17.344  1.00  0.00    -0.003 C 
ATOM      7  C   UNL     1      49.234 -12.539  18.476  1.00  0.00     0.004 C 
ENDBRANCH   5   6
ENDBRANCH   1   5
TORSDOF 3
ENDMDL
MODEL 3
REMARK VINA RESULT:    -3.329      9.223     10.001
REMARK INTER + INTRA:          -4.026
REMARK INTER:                  -4.002
REMARK INTRA:                  -0.025
REMARK UNBOUND:                -0.113
REMARK SMILES CCCCC(=O)[O-]
REMARK SMILES IDX 4 1 5 2 6 3 7 4 3 5 2 6 1 7
REMARK H PARENT
REMARK Flexibility Score: inf
ROOT
ATOM      1  C   UNL     1      54.428  -2.815  13.386  1.00  0.00     0.053 C 
ENDROOT
BRANCH   1   2
ATOM      2  C   UNL     1      53.337  -3.328  12.496  1.00  0.00     0.041 C 
ATOM      3  O   UNL     1      53.514  -3.399  11.252  1.00  0.00    -0.550 OA
ATOM      4  O   UNL     1      52.113  -3.699  13.040  1.00  0.00    -0.550 OA
ENDBRANCH   1   2
BRANCH   1   5
ATOM      5  C   UNL     1      55.403  -3.929  13.800  1.00  0.00     0.006 C 
BRANCH   5   6
ATOM      6  C   UNL     1      56.883  -3.507  13.785  1.00  0.00    -0.003 C 
ATOM      7  C   UNL     1      57.152  -2.258  14.623  1.00  0.00     0.004 C 
ENDBRANCH   5   6
ENDBRANCH   1   5
TORSDOF 3
ENDMDL
MODEL 4
REMARK VINA RESULT:    -3.317      8.771      9.572
REMARK INTER + INTRA:          -4.012
REMARK INTER:                  -3.982
REMARK INTRA:                  -0.031
REMARK UNBOUND:                -0.113
REMARK SMILES CCCCC(=O)[O-]
REMARK SMILES IDX 4 1 5 2 6 3 7 4 3 5 2 6 1 7
REMARK H PARENT
REMARK Flexibility Score: inf
ROOT
ATOM      1  C   UNL     1      53.316  -3.889  13.112  1.00  0.00     0.053 C 
ENDROOT
BRANCH   1   2
ATOM      2  C   UNL     1      52.086  -3.191  12.618  1.00  0.00     0.041 C 
ATOM      3  O   UNL     1      50.981  -3.794  12.593  1.00  0.00    -0.550 OA
ATOM      4  O   UNL     1      52.167  -1.883  12.156  1.00  0.00    -0.550 OA
ENDBRANCH   1   2
BRANCH   1   5
ATOM      5  C   UNL     1      54.590  -3.082  12.820  1.00  0.00     0.006 C 
BRANCH   5   6
ATOM      6  C   UNL     1      55.577  -3.015  13.999  1.00  0.00    -0.003 C 
ATOM      7  C   UNL     1      56.940  -3.620  13.668  1.00  0.00     0.004 C 
ENDBRANCH   5   6
ENDBRANCH   1   5
TORSDOF 3
ENDMDL
MODEL 5
REMARK VINA RESULT:    -3.157     10.051     11.010
REMARK INTER + INTRA:          -3.824
REMARK INTER:                  -3.797
REMARK INTRA:                  -0.027
REMARK UNBOUND:                -0.113
REMARK SMILES CCCCC(=O)[O-]
REMARK SMILES IDX 4 1 5 2 6 3 7 4 3 5 2 6 1 7
REMARK H PARENT
REMARK Flexibility Score: inf
ROOT
ATOM      1  C   UNL     1      55.329  -2.474  14.127  1.00  0.00     0.053 C 
ENDROOT
BRANCH   1   2
ATOM      2  C   UNL     1      56.801  -2.754  14.118  1.00  0.00     0.041 C 
ATOM      3  O   UNL     1      57.242  -3.814  13.602  1.00  0.00    -0.550 OA
ATOM      4  O   UNL     1      57.683  -1.858  14.710  1.00  0.00    -0.550 OA
ENDBRANCH   1   2
BRANCH   1   5
ATOM      5  C   UNL     1      54.536  -3.546  13.364  1.00  0.00     0.006 C 
BRANCH   5   6
ATOM      6  C   UNL     1      53.356  -2.994  12.545  1.00  0.00    -0.003 C 
ATOM      7  C   UNL     1      52.108  -3.870  12.635  1.00  0.00     0.004 C 
ENDBRANCH   5   6
ENDBRANCH   1   5
TORSDOF 3
ENDMDL
MODEL 6
REMARK VINA RESULT:    -3.145     10.772     11.783
REMARK INTER + INTRA:          -3.810
REMARK INTER:                  -3.760
REMARK INTRA:                  -0.050
REMARK UNBOUND:                -0.113
REMARK SMILES CCCCC(=O)[O-]
REMARK SMILES IDX 4 1 5 2 6 3 7 4 3 5 2 6 1 7
REMARK H PARENT
REMARK Flexibility Score: inf
ROOT
ATOM      1  C   UNL     1      56.098  -2.021  14.537  1.00  0.00     0.053 C 
ENDROOT
BRANCH   1   2
ATOM      2  C   UNL     1      56.215  -3.384  13.925  1.00  0.00     0.041 C 
ATOM      3  O   UNL     1      57.316  -3.778  13.461  1.00  0.00    -0.550 OA
ATOM      4  O   UNL     1      55.098  -4.205  13.841  1.00  0.00    -0.550 OA
ENDBRANCH   1   2
BRANCH   1   5
ATOM      5  C   UNL     1      57.461  -1.480  14.998  1.00  0.00     0.006 C 
BRANCH   5   6
ATOM      6  C   UNL     1      57.522  -1.120  16.493  1.00  0.00    -0.003 C 
ATOM      7  C   UNL     1      56.157  -0.744  17.069  1.00  0.00     0.004 C 
ENDBRANCH   5   6
ENDBRANCH   1   5
TORSDOF 3
ENDMDL
MODEL 7
REMARK VINA RESULT:    -3.066     14.966     16.234
REMARK INTER + INTRA:          -3.717
REMARK INTER:                  -3.700
REMARK INTRA:                  -0.017
REMARK UNBOUND:                -0.113
REMARK SMILES CCCCC(=O)[O-]
REMARK SMILES IDX 4 1 5 2 6 3 7 4 3 5 2 6 1 7
REMARK H PARENT
REMARK Flexibility Score: inf
ROOT
ATOM      1  C   UNL     1      62.295  -4.280  20.485  1.00  0.00     0.053 C 
ENDROOT
BRANCH   1   2
ATOM      2  C   UNL     1      63.423  -3.980  21.426  1.00  0.00     0.041 C 
ATOM      3  O   UNL     1      64.510  -3.523  20.987  1.00  0.00    -0.550 OA
ATOM      4  O   UNL     1      63.281  -4.235  22.784  1.00  0.00    -0.550 OA
ENDBRANCH   1   2
BRANCH   1   5
ATOM      5  C   UNL     1      60.933  -3.888  21.079  1.00  0.00     0.006 C 
BRANCH   5   6
ATOM      6  C   UNL     1      59.741  -4.135  20.137  1.00  0.00    -0.003 C 
ATOM      7  C   UNL     1      58.417  -4.291  20.883  1.00  0.00     0.004 C 
ENDBRANCH   5   6
ENDBRANCH   1   5
TORSDOF 3
ENDMDL
MODEL 8
REMARK VINA RESULT:    -3.054     16.972     17.537
REMARK INTER + INTRA:          -3.703
REMARK INTER:                  -3.600
REMARK INTRA:                  -0.104
REMARK UNBOUND:                -0.113
REMARK SMILES CCCCC(=O)[O-]
REMARK SMILES IDX 4 1 5 2 6 3 7 4 3 5 2 6 1 7
REMARK H PARENT
REMARK Flexibility Score: inf
ROOT
ATOM      1  C   UNL     1      63.081  -3.701  22.560  1.00  0.00     0.053 C 
ENDROOT
BRANCH   1   2
ATOM      2  C   UNL     1      63.578  -3.969  21.173  1.00  0.00     0.041 C 
ATOM      3  O   UNL     1      64.717  -3.568  20.818  1.00  0.00    -0.550 OA
ATOM      4  O   UNL     1      62.769  -4.637  20.261  1.00  0.00    -0.550 OA
ENDBRANCH   1   2
BRANCH   1   5
ATOM      5  C   UNL     1      63.022  -4.982  23.407  1.00  0.00     0.006 C 
BRANCH   5   6
ATOM      6  C   UNL     1      64.394  -5.629  23.667  1.00  0.00    -0.003 C 
ATOM      7  C   UNL     1      64.422  -7.119  23.330  1.00  0.00     0.004 C 
ENDBRANCH   5   6
ENDBRANCH   1   5
TORSDOF 3
ENDMDL
MODEL 9
REMARK VINA RESULT:    -3.044     13.819     14.558
REMARK INTER + INTRA:          -3.691
REMARK INTER:                  -3.588
REMARK INTRA:                  -0.104
REMARK UNBOUND:                -0.113
REMARK SMILES CCCCC(=O)[O-]
REMARK SMILES IDX 4 1 5 2 6 3 7 4 3 5 2 6 1 7
REMARK H PARENT
REMARK Flexibility Score: inf
ROOT
ATOM      1  C   UNL     1      59.553  -4.041  20.012  1.00  0.00     0.053 C 
ENDROOT
BRANCH   1   2
ATOM      2  C   UNL     1      60.817  -3.895  20.802  1.00  0.00     0.041 C 
ATOM      3  O   UNL     1      60.833  -3.201  21.852  1.00  0.00    -0.550 OA
ATOM      4  O   UNL     1      61.987  -4.499  20.359  1.00  0.00    -0.550 OA
ENDBRANCH   1   2
BRANCH   1   5
ATOM      5  C   UNL     1      58.336  -4.292  20.918  1.00  0.00     0.006 C 
BRANCH   5   6
ATOM      6  C   UNL     1      57.243  -3.215  20.816  1.00  0.00    -0.003 C 
ATOM      7  C   UNL     1      57.537  -1.987  21.678  1.00  0.00     0.004 C 
ENDBRANCH   5   6
ENDBRANCH   1   5
TORSDOF 3
ENDMDL
