MODEL 1
REMARK VINA RESULT:    -4.248      0.000      0.000
REMARK INTER + INTRA:          -9.614
REMARK INTER:                  -7.725
REMARK INTRA:                  -1.890
REMARK UNBOUND:                -1.890
REMARK SMILES CCCCCC=CCC=CCCCCCCCC(=O)[O-]
REMARK SMILES IDX 11 1 12 2 13 3 14 4 15 5 16 6 17 7 18 8 19 9 20 10 10 11
REMARK SMILES IDX 9 12 8 13 7 14 6 15 5 16 4 17 3 18 2 19 1 20
REMARK H PARENT
REMARK Flexibility Score: inf
ROOT
ATOM      1  C   UNL     1       8.816   0.001  -7.608  1.00  0.00     0.027 C 
ENDROOT
BRANCH   1   2
ATOM      2  C   UNL     1       7.287   0.135  -7.573  1.00  0.00     0.004 C 
BRANCH   2   3
ATOM      3  C   UNL     1       6.573  -1.181  -7.912  1.00  0.00     0.000 C 
BRANCH   3   4
ATOM      4  C   UNL     1       5.581  -1.023  -9.078  1.00  0.00     0.000 C 
BRANCH   4   5
ATOM      5  C   UNL     1       4.656   0.191  -8.906  1.00  0.00     0.000 C 
BRANCH   5   6
ATOM      6  C   UNL     1       3.189  -0.213  -8.681  1.00  0.00     0.006 C 
BRANCH   6   7
ATOM      7  C   UNL     1       2.216   0.919  -9.042  1.00  0.00     0.053 C 
BRANCH   7   8
ATOM      8  C   UNL     1       1.282   1.226  -7.911  1.00  0.00     0.041 C 
ATOM      9  O   UNL     1       0.934   2.415  -7.683  1.00  0.00    -0.550 OA
ATOM     10  O   UNL     1       0.755   0.196  -7.142  1.00  0.00    -0.550 OA
ENDBRANCH   7   8
ENDBRANCH   6   7
ENDBRANCH   5   6
ENDBRANCH   4   5
ENDBRANCH   3   4
ENDBRANCH   2   3
ENDBRANCH   1   2
BRANCH   1  11
ATOM     11  C   UNL     1       9.450   0.637  -6.397  1.00  0.00    -0.031 C 
ATOM     12  C   UNL     1       9.988   1.872  -6.362  1.00  0.00    -0.027 C 
BRANCH  12  13
ATOM     13  C   UNL     1      10.027   2.844  -7.518  1.00  0.00     0.054 C 
BRANCH  13  14
ATOM     14  C   UNL     1      11.409   2.942  -8.113  1.00  0.00    -0.027 C 
ATOM     15  C   UNL     1      11.790   2.414  -9.292  1.00  0.00    -0.031 C 
BRANCH  15  16
ATOM     16  C   UNL     1      10.915   1.583 -10.200  1.00  0.00     0.027 C 
BRANCH  16  17
ATOM     17  C   UNL     1      10.618   2.302 -11.528  1.00  0.00     0.004 C 
BRANCH  17  18
ATOM     18  C   UNL     1       9.120   2.502 -11.829  1.00  0.00     0.000 C 
BRANCH  18  19
ATOM     19  C   UNL     1       8.208   1.840 -10.786  1.00  0.00    -0.003 C 
ATOM     20  C   UNL     1       6.793   2.409 -10.853  1.00  0.00     0.004 C 
ENDBRANCH  18  19
ENDBRANCH  17  18
ENDBRANCH  16  17
ENDBRANCH  15  16
ENDBRANCH  13  14
ENDBRANCH  12  13
ENDBRANCH   1  11
TORSDOF 14
ENDMDL
MODEL 2
REMARK VINA RESULT:    -4.222      1.555      2.385
REMARK INTER + INTRA:          -9.566
REMARK INTER:                  -6.907
REMARK INTRA:                  -2.659
REMARK UNBOUND:                -1.890
REMARK SMILES CCCCCC=CCC=CCCCCCCCC(=O)[O-]
REMARK SMILES IDX 11 1 12 2 13 3 14 4 15 5 16 6 17 7 18 8 19 9 20 10 10 11
REMARK SMILES IDX 9 12 8 13 7 14 6 15 5 16 4 17 3 18 2 19 1 20
REMARK H PARENT
REMARK Flexibility Score: inf
ROOT
ATOM      1  C   UNL     1       8.087   0.587  -6.942  1.00  0.00     0.027 C 
ENDROOT
BRANCH   1   2
ATOM      2  C   UNL     1       7.758  -0.835  -7.418  1.00  0.00     0.004 C 
BRANCH   2   3
ATOM      3  C   UNL     1       6.507  -0.883  -8.308  1.00  0.00     0.000 C 
BRANCH   3   4
ATOM      4  C   UNL     1       5.896   0.512  -8.531  1.00  0.00     0.000 C 
BRANCH   4   5
ATOM      5  C   UNL     1       4.418   0.449  -8.946  1.00  0.00     0.000 C 
BRANCH   5   6
ATOM      6  C   UNL     1       3.899  -0.995  -9.060  1.00  0.00     0.006 C 
BRANCH   6   7
ATOM      7  C   UNL     1       3.007  -1.384  -7.872  1.00  0.00     0.053 C 
BRANCH   7   8
ATOM      8  C   UNL     1       1.596  -0.918  -8.064  1.00  0.00     0.041 C 
ATOM      9  O   UNL     1       0.998  -0.313  -7.137  1.00  0.00    -0.550 OA
ATOM     10  O   UNL     1       0.960  -1.107  -9.286  1.00  0.00    -0.550 OA
ENDBRANCH   7   8
ENDBRANCH   6   7
ENDBRANCH   5   6
ENDBRANCH   4   5
ENDBRANCH   3   4
ENDBRANCH   2   3
ENDBRANCH   1   2
BRANCH   1  11
ATOM     11  C   UNL     1       9.441   0.644  -6.281  1.00  0.00    -0.031 C 
ATOM     12  C   UNL     1      10.391   1.564  -6.538  1.00  0.00    -0.027 C 
BRANCH  12  13
ATOM     13  C   UNL     1      10.258   2.714  -7.510  1.00  0.00     0.054 C 
BRANCH  13  14
ATOM     14  C   UNL     1      11.088   2.491  -8.749  1.00  0.00    -0.027 C 
ATOM     15  C   UNL     1      10.608   2.114  -9.950  1.00  0.00    -0.031 C 
BRANCH  15  16
ATOM     16  C   UNL     1       9.164   1.794 -10.254  1.00  0.00     0.027 C 
BRANCH  16  17
ATOM     17  C   UNL     1       8.985   0.343 -10.734  1.00  0.00     0.004 C 
BRANCH  17  18
ATOM     18  C   UNL     1      10.296  -0.453 -10.877  1.00  0.00     0.000 C 
BRANCH  18  19
ATOM     19  C   UNL     1      10.361  -1.672  -9.947  1.00  0.00    -0.003 C 
ATOM     20  C   UNL     1      11.252  -1.396  -8.739  1.00  0.00     0.004 C 
ENDBRANCH  18  19
ENDBRANCH  17  18
ENDBRANCH  16  17
ENDBRANCH  15  16
ENDBRANCH  13  14
ENDBRANCH  12  13
ENDBRANCH   1  11
TORSDOF 14
ENDMDL
MODEL 3
REMARK VINA RESULT:    -4.157      6.053      8.095
REMARK INTER + INTRA:          -9.448
REMARK INTER:                  -8.432
REMARK INTRA:                  -1.016
REMARK UNBOUND:                -1.890
REMARK SMILES CCCCCC=CCC=CCCCCCCCC(=O)[O-]
REMARK SMILES IDX 11 1 12 2 13 3 14 4 15 5 16 6 17 7 18 8 19 9 20 10 10 11
REMARK SMILES IDX 9 12 8 13 7 14 6 15 5 16 4 17 3 18 2 19 1 20
REMARK H PARENT
REMARK Flexibility Score: inf
ROOT
ATOM      1  C   UNL     1       8.744  -3.774  -6.495  1.00  0.00     0.027 C 
ENDROOT
BRANCH   1   2
ATOM      2  C   UNL     1       9.332  -3.912  -5.083  1.00  0.00     0.004 C 
BRANCH   2   3
ATOM      3  C   UNL     1       8.359  -4.588  -4.104  1.00  0.00     0.000 C 
BRANCH   3   4
ATOM      4  C   UNL     1       9.077  -5.149  -2.863  1.00  0.00     0.000 C 
BRANCH   4   5
ATOM      5  C   UNL     1       8.818  -4.310  -1.603  1.00  0.00     0.000 C 
BRANCH   5   6
ATOM      6  C   UNL     1       8.469  -5.176  -0.380  1.00  0.00     0.006 C 
BRANCH   6   7
ATOM      7  C   UNL     1       7.634  -4.406   0.654  1.00  0.00     0.053 C 
BRANCH   7   8
ATOM      8  C   UNL     1       6.825  -5.332   1.510  1.00  0.00     0.041 C 
ATOM      9  O   UNL     1       7.069  -5.430   2.742  1.00  0.00    -0.550 OA
ATOM     10  O   UNL     1       5.769  -6.048   0.959  1.00  0.00    -0.550 OA
ENDBRANCH   7   8
ENDBRANCH   6   7
ENDBRANCH   5   6
ENDBRANCH   4   5
ENDBRANCH   3   4
ENDBRANCH   2   3
ENDBRANCH   1   2
BRANCH   1  11
ATOM     11  C   UNL     1       7.252  -3.993  -6.490  1.00  0.00    -0.031 C 
ATOM     12  C   UNL     1       6.370  -3.339  -7.271  1.00  0.00    -0.027 C 
BRANCH  12  13
ATOM     13  C   UNL     1       6.720  -2.295  -8.305  1.00  0.00     0.054 C 
BRANCH  13  14
ATOM     14  C   UNL     1       5.947  -1.018  -8.086  1.00  0.00    -0.027 C 
ATOM     15  C   UNL     1       6.483   0.216  -8.023  1.00  0.00    -0.031 C 
BRANCH  15  16
ATOM     16  C   UNL     1       7.957   0.535  -8.104  1.00  0.00     0.027 C 
BRANCH  16  17
ATOM     17  C   UNL     1       8.667   0.316  -6.756  1.00  0.00     0.004 C 
BRANCH  17  18
ATOM     18  C   UNL     1       9.606   1.461  -6.332  1.00  0.00     0.000 C 
BRANCH  18  19
ATOM     19  C   UNL     1       9.776   2.530  -7.421  1.00  0.00    -0.003 C 
ATOM     20  C   UNL     1      11.237   2.950  -7.557  1.00  0.00     0.004 C 
ENDBRANCH  18  19
ENDBRANCH  17  18
ENDBRANCH  16  17
ENDBRANCH  15  16
ENDBRANCH  13  14
ENDBRANCH  12  13
ENDBRANCH   1  11
TORSDOF 14
ENDMDL
MODEL 4
REMARK VINA RESULT:    -4.153      1.041      1.614
REMARK INTER + INTRA:          -9.441
REMARK INTER:                  -6.847
REMARK INTRA:                  -2.594
REMARK UNBOUND:                -1.890
REMARK SMILES CCCCCC=CCC=CCCCCCCCC(=O)[O-]
REMARK SMILES IDX 11 1 12 2 13 3 14 4 15 5 16 6 17 7 18 8 19 9 20 10 10 11
REMARK SMILES IDX 9 12 8 13 7 14 6 15 5 16 4 17 3 18 2 19 1 20
REMARK H PARENT
REMARK Flexibility Score: inf
ROOT
ATOM      1  C   UNL     1       9.495   0.277  -6.550  1.00  0.00     0.027 C 
ENDROOT
BRANCH   1   2
ATOM      2  C   UNL     1       8.435  -0.686  -7.105  1.00  0.00     0.004 C 
BRANCH   2   3
ATOM      3  C   UNL     1       7.155   0.039  -7.547  1.00  0.00     0.000 C 
BRANCH   3   4
ATOM      4  C   UNL     1       6.172  -0.900  -8.268  1.00  0.00     0.000 C 
BRANCH   4   5
ATOM      5  C   UNL     1       4.876  -0.189  -8.687  1.00  0.00     0.000 C 
BRANCH   5   6
ATOM      6  C   UNL     1       3.616  -0.971  -8.279  1.00  0.00     0.006 C 
BRANCH   6   7
ATOM      7  C   UNL     1       2.352  -0.426  -8.960  1.00  0.00     0.053 C 
BRANCH   7   8
ATOM      8  C   UNL     1       1.547   0.427  -8.028  1.00  0.00     0.041 C 
ATOM      9  O   UNL     1       0.813  -0.107  -7.156  1.00  0.00    -0.550 OA
ATOM     10  O   UNL     1       1.647   1.812  -8.090  1.00  0.00    -0.550 OA
ENDBRANCH   7   8
ENDBRANCH   6   7
ENDBRANCH   5   6
ENDBRANCH   4   5
ENDBRANCH   3   4
ENDBRANCH   2   3
ENDBRANCH   1   2
BRANCH   1  11
ATOM     11  C   UNL     1       9.162   1.709  -6.885  1.00  0.00    -0.031 C 
ATOM     12  C   UNL     1       9.979   2.565  -7.530  1.00  0.00    -0.027 C 
BRANCH  12  13
ATOM     13  C   UNL     1      11.357   2.234  -8.053  1.00  0.00     0.054 C 
BRANCH  13  14
ATOM     14  C   UNL     1      11.440   2.416  -9.548  1.00  0.00    -0.027 C 
ATOM     15  C   UNL     1      11.298   1.436 -10.462  1.00  0.00    -0.031 C 
BRANCH  15  16
ATOM     16  C   UNL     1      11.087  -0.026 -10.150  1.00  0.00     0.027 C 
BRANCH  16  17
ATOM     17  C   UNL     1       9.655  -0.483 -10.479  1.00  0.00     0.004 C 
BRANCH  17  18
ATOM     18  C   UNL     1       8.971   0.311 -11.609  1.00  0.00     0.000 C 
BRANCH  18  19
ATOM     19  C   UNL     1       7.557   0.780 -11.239  1.00  0.00    -0.003 C 
ATOM     20  C   UNL     1       7.598   2.102 -10.477  1.00  0.00     0.004 C 
ENDBRANCH  18  19
ENDBRANCH  17  18
ENDBRANCH  16  17
ENDBRANCH  15  16
ENDBRANCH  13  14
ENDBRANCH  12  13
ENDBRANCH   1  11
TORSDOF 14
ENDMDL
MODEL 5
REMARK VINA RESULT:    -4.148      1.672      3.330
REMARK INTER + INTRA:          -9.433
REMARK INTER:                  -6.559
REMARK INTRA:                  -2.874
REMARK UNBOUND:                -1.890
REMARK SMILES CCCCCC=CCC=CCCCCCCCC(=O)[O-]
REMARK SMILES IDX 11 1 12 2 13 3 14 4 15 5 16 6 17 7 18 8 19 9 20 10 10 11
REMARK SMILES IDX 9 12 8 13 7 14 6 15 5 16 4 17 3 18 2 19 1 20
REMARK H PARENT
REMARK Flexibility Score: inf
ROOT
ATOM      1  C   UNL     1       8.607  -1.199  -7.423  1.00  0.00     0.027 C 
ENDROOT
BRANCH   1   2
ATOM      2  C   UNL     1       7.994  -2.477  -8.014  1.00  0.00     0.004 C 
BRANCH   2   3
ATOM      3  C   UNL     1       7.045  -3.182  -7.033  1.00  0.00     0.000 C 
BRANCH   3   4
ATOM      4  C   UNL     1       5.664  -3.460  -7.655  1.00  0.00     0.000 C 
BRANCH   4   5
ATOM      5  C   UNL     1       5.565  -2.977  -9.110  1.00  0.00     0.000 C 
BRANCH   5   6
ATOM      6  C   UNL     1       4.503  -1.879  -9.295  1.00  0.00     0.006 C 
BRANCH   6   7
ATOM      7  C   UNL     1       3.782  -1.545  -7.981  1.00  0.00     0.053 C 
BRANCH   7   8
ATOM      8  C   UNL     1       2.310  -1.361  -8.190  1.00  0.00     0.041 C 
ATOM      9  O   UNL     1       1.589  -0.918  -7.258  1.00  0.00    -0.550 OA
ATOM     10  O   UNL     1       1.743  -1.631  -9.430  1.00  0.00    -0.550 OA
ENDBRANCH   7   8
ENDBRANCH   6   7
ENDBRANCH   5   6
ENDBRANCH   4   5
ENDBRANCH   3   4
ENDBRANCH   2   3
ENDBRANCH   1   2
BRANCH   1  11
ATOM     11  C   UNL     1       7.563  -0.129  -7.233  1.00  0.00    -0.031 C 
ATOM     12  C   UNL     1       7.037   0.626  -8.218  1.00  0.00    -0.027 C 
BRANCH  12  13
ATOM     13  C   UNL     1       7.380   0.515  -9.685  1.00  0.00     0.054 C 
BRANCH  13  14
ATOM     14  C   UNL     1       8.095   1.746 -10.182  1.00  0.00    -0.027 C 
ATOM     15  C   UNL     1       9.431   1.880 -10.292  1.00  0.00    -0.031 C 
BRANCH  15  16
ATOM     16  C   UNL     1      10.450   0.843  -9.885  1.00  0.00     0.027 C 
BRANCH  16  17
ATOM     17  C   UNL     1      11.236   1.268  -8.632  1.00  0.00     0.004 C 
BRANCH  17  18
ATOM     18  C   UNL     1      10.953   2.705  -8.154  1.00  0.00     0.000 C 
BRANCH  18  19
ATOM     19  C   UNL     1      10.094   2.754  -6.883  1.00  0.00    -0.003 C 
ATOM     20  C   UNL     1      10.499   1.656  -5.902  1.00  0.00     0.004 C 
ENDBRANCH  18  19
ENDBRANCH  17  18
ENDBRANCH  16  17
ENDBRANCH  15  16
ENDBRANCH  13  14
ENDBRANCH  12  13
ENDBRANCH   1  11
TORSDOF 14
ENDMDL
MODEL 6
REMARK VINA RESULT:    -4.136      1.717      4.393
REMARK INTER + INTRA:          -9.410
REMARK INTER:                  -6.660
REMARK INTRA:                  -2.750
REMARK UNBOUND:                -1.890
REMARK SMILES CCCCCC=CCC=CCCCCCCCC(=O)[O-]
REMARK SMILES IDX 11 1 12 2 13 3 14 4 15 5 16 6 17 7 18 8 19 9 20 10 10 11
REMARK SMILES IDX 9 12 8 13 7 14 6 15 5 16 4 17 3 18 2 19 1 20
REMARK H PARENT
REMARK Flexibility Score: inf
ROOT
ATOM      1  C   UNL     1      10.958   1.020  -9.354  1.00  0.00     0.027 C 
ENDROOT
BRANCH   1   2
ATOM      2  C   UNL     1       9.783   0.714 -10.293  1.00  0.00     0.004 C 
BRANCH   2   3
ATOM      3  C   UNL     1       9.009   1.978 -10.698  1.00  0.00     0.000 C 
BRANCH   3   4
ATOM      4  C   UNL     1       7.498   1.845 -10.438  1.00  0.00     0.000 C 
BRANCH   4   5
ATOM      5  C   UNL     1       6.997   0.402 -10.596  1.00  0.00     0.000 C 
BRANCH   5   6
ATOM      6  C   UNL     1       5.464   0.297 -10.510  1.00  0.00     0.006 C 
BRANCH   6   7
ATOM      7  C   UNL     1       4.932   0.724  -9.134  1.00  0.00     0.053 C 
BRANCH   7   8
ATOM      8  C   UNL     1       3.467   1.033  -9.180  1.00  0.00     0.041 C 
ATOM      9  O   UNL     1       3.067   2.140  -9.625  1.00  0.00    -0.550 OA
ATOM     10  O   UNL     1       2.541   0.077  -8.778  1.00  0.00    -0.550 OA
ENDBRANCH   7   8
ENDBRANCH   6   7
ENDBRANCH   5   6
ENDBRANCH   4   5
ENDBRANCH   3   4
ENDBRANCH   2   3
ENDBRANCH   1   2
BRANCH   1  11
ATOM     11  C   UNL     1      10.774   2.347  -8.661  1.00  0.00    -0.031 C 
ATOM     12  C   UNL     1      10.220   2.516  -7.444  1.00  0.00    -0.027 C 
BRANCH  12  13
ATOM     13  C   UNL     1       9.713   1.408  -6.551  1.00  0.00     0.054 C 
BRANCH  13  14
ATOM     14  C   UNL     1       8.276   1.066  -6.854  1.00  0.00    -0.027 C 
ATOM     15  C   UNL     1       7.818  -0.158  -7.180  1.00  0.00    -0.031 C 
BRANCH  15  16
ATOM     16  C   UNL     1       8.670  -1.392  -7.353  1.00  0.00     0.027 C 
BRANCH  16  17
ATOM     17  C   UNL     1       7.937  -2.491  -8.143  1.00  0.00     0.004 C 
BRANCH  17  18
ATOM     18  C   UNL     1       6.402  -2.459  -8.014  1.00  0.00     0.000 C 
BRANCH  18  19
ATOM     19  C   UNL     1       5.844  -3.656  -7.229  1.00  0.00    -0.003 C 
ATOM     20  C   UNL     1       6.953  -4.636  -6.858  1.00  0.00     0.004 C 
ENDBRANCH  18  19
ENDBRANCH  17  18
ENDBRANCH  16  17
ENDBRANCH  15  16
ENDBRANCH  13  14
ENDBRANCH  12  13
ENDBRANCH   1  11
TORSDOF 14
ENDMDL
MODEL 7
REMARK VINA RESULT:    -4.131      1.563      2.277
REMARK INTER + INTRA:          -9.402
REMARK INTER:                  -6.844
REMARK INTRA:                  -2.558
REMARK UNBOUND:                -1.890
REMARK SMILES CCCCCC=CCC=CCCCCCCCC(=O)[O-]
REMARK SMILES IDX 11 1 12 2 13 3 14 4 15 5 16 6 17 7 18 8 19 9 20 10 10 11
REMARK SMILES IDX 9 12 8 13 7 14 6 15 5 16 4 17 3 18 2 19 1 20
REMARK H PARENT
REMARK Flexibility Score: inf
ROOT
ATOM      1  C   UNL     1       7.967  -1.557  -8.097  1.00  0.00     0.027 C 
ENDROOT
BRANCH   1   2
ATOM      2  C   UNL     1       7.153  -2.754  -7.585  1.00  0.00     0.004 C 
BRANCH   2   3
ATOM      3  C   UNL     1       6.074  -3.202  -8.582  1.00  0.00     0.000 C 
BRANCH   3   4
ATOM      4  C   UNL     1       4.658  -3.117  -7.986  1.00  0.00     0.000 C 
BRANCH   4   5
ATOM      5  C   UNL     1       3.711  -2.255  -8.836  1.00  0.00     0.000 C 
BRANCH   5   6
ATOM      6  C   UNL     1       3.672  -0.789  -8.371  1.00  0.00     0.006 C 
BRANCH   6   7
ATOM      7  C   UNL     1       4.001   0.187  -9.509  1.00  0.00     0.053 C 
BRANCH   7   8
ATOM      8  C   UNL     1       3.233   1.467  -9.379  1.00  0.00     0.041 C 
ATOM      9  O   UNL     1       2.387   1.606  -8.457  1.00  0.00    -0.550 OA
ATOM     10  O   UNL     1       3.489   2.525 -10.244  1.00  0.00    -0.550 OA
ENDBRANCH   7   8
ENDBRANCH   6   7
ENDBRANCH   5   6
ENDBRANCH   4   5
ENDBRANCH   3   4
ENDBRANCH   2   3
ENDBRANCH   1   2
BRANCH   1  11
ATOM     11  C   UNL     1       7.283  -0.253  -7.775  1.00  0.00    -0.031 C 
ATOM     12  C   UNL     1       7.839   0.766  -7.090  1.00  0.00    -0.027 C 
BRANCH  12  13
ATOM     13  C   UNL     1       9.250   0.792  -6.549  1.00  0.00     0.054 C 
BRANCH  13  14
ATOM     14  C   UNL     1       9.914   2.122  -6.799  1.00  0.00    -0.027 C 
ATOM     15  C   UNL     1      10.507   2.494  -7.950  1.00  0.00    -0.031 C 
BRANCH  15  16
ATOM     16  C   UNL     1      10.660   1.624  -9.175  1.00  0.00     0.027 C 
BRANCH  16  17
ATOM     17  C   UNL     1       9.602   1.946 -10.245  1.00  0.00     0.004 C 
BRANCH  17  18
ATOM     18  C   UNL     1       9.029   0.715 -10.973  1.00  0.00     0.000 C 
BRANCH  18  19
ATOM     19  C   UNL     1       7.518   0.818 -11.222  1.00  0.00    -0.003 C 
ATOM     20  C   UNL     1       6.961   2.137 -10.692  1.00  0.00     0.004 C 
ENDBRANCH  18  19
ENDBRANCH  17  18
ENDBRANCH  16  17
ENDBRANCH  15  16
ENDBRANCH  13  14
ENDBRANCH  12  13
ENDBRANCH   1  11
TORSDOF 14
ENDMDL
MODEL 8
REMARK VINA RESULT:    -4.101      1.170      3.427
REMARK INTER + INTRA:          -9.348
REMARK INTER:                  -6.716
REMARK INTRA:                  -2.631
REMARK UNBOUND:                -1.890
REMARK SMILES CCCCCC=CCC=CCCCCCCCC(=O)[O-]
REMARK SMILES IDX 11 1 12 2 13 3 14 4 15 5 16 6 17 7 18 8 19 9 20 10 10 11
REMARK SMILES IDX 9 12 8 13 7 14 6 15 5 16 4 17 3 18 2 19 1 20
REMARK H PARENT
REMARK Flexibility Score: inf
ROOT
ATOM      1  C   UNL     1       8.494   1.982 -10.617  1.00  0.00     0.027 C 
ENDROOT
BRANCH   1   2
ATOM      2  C   UNL     1       7.858   1.007 -11.618  1.00  0.00     0.004 C 
BRANCH   2   3
ATOM      3  C   UNL     1       6.363   0.779 -11.349  1.00  0.00     0.000 C 
BRANCH   3   4
ATOM      4  C   UNL     1       5.914   1.378 -10.004  1.00  0.00     0.000 C 
BRANCH   4   5
ATOM      5  C   UNL     1       4.771   0.582  -9.356  1.00  0.00     0.000 C 
BRANCH   5   6
ATOM      6  C   UNL     1       3.428   1.330  -9.411  1.00  0.00     0.006 C 
BRANCH   6   7
ATOM      7  C   UNL     1       2.244   0.418  -9.059  1.00  0.00     0.053 C 
BRANCH   7   8
ATOM      8  C   UNL     1       1.425   0.982  -7.939  1.00  0.00     0.041 C 
ATOM      9  O   UNL     1       1.332   2.229  -7.789  1.00  0.00    -0.550 OA
ATOM     10  O   UNL     1       0.722   0.133  -7.092  1.00  0.00    -0.550 OA
ENDBRANCH   7   8
ENDBRANCH   6   7
ENDBRANCH   5   6
ENDBRANCH   4   5
ENDBRANCH   3   4
ENDBRANCH   2   3
ENDBRANCH   1   2
BRANCH   1  11
ATOM     11  C   UNL     1       9.926   1.611 -10.324  1.00  0.00    -0.031 C 
ATOM     12  C   UNL     1      10.578   1.881  -9.177  1.00  0.00    -0.027 C 
BRANCH  12  13
ATOM     13  C   UNL     1       9.985   2.578  -7.974  1.00  0.00     0.054 C 
BRANCH  13  14
ATOM     14  C   UNL     1      10.026   1.699  -6.749  1.00  0.00    -0.027 C 
ATOM     15  C   UNL     1       9.093   0.789  -6.411  1.00  0.00    -0.031 C 
BRANCH  15  16
ATOM     16  C   UNL     1       7.813   0.526  -7.169  1.00  0.00     0.027 C 
BRANCH  16  17
ATOM     17  C   UNL     1       7.647  -0.964  -7.518  1.00  0.00     0.004 C 
BRANCH  17  18
ATOM     18  C   UNL     1       8.430  -1.422  -8.763  1.00  0.00     0.000 C 
BRANCH  18  19
ATOM     19  C   UNL     1       7.574  -2.245  -9.738  1.00  0.00    -0.003 C 
ATOM     20  C   UNL     1       6.322  -2.783  -9.051  1.00  0.00     0.004 C 
ENDBRANCH  18  19
ENDBRANCH  17  18
ENDBRANCH  16  17
ENDBRANCH  15  16
ENDBRANCH  13  14
ENDBRANCH  12  13
ENDBRANCH   1  11
TORSDOF 14
ENDMDL
MODEL 9
REMARK VINA RESULT:    -4.087      3.591      5.989
REMARK INTER + INTRA:          -9.322
REMARK INTER:                  -6.721
REMARK INTRA:                  -2.601
REMARK UNBOUND:                -1.890
REMARK SMILES CCCCCC=CCC=CCCCCCCCC(=O)[O-]
REMARK SMILES IDX 11 1 12 2 13 3 14 4 15 5 16 6 17 7 18 8 19 9 20 10 10 11
REMARK SMILES IDX 9 12 8 13 7 14 6 15 5 16 4 17 3 18 2 19 1 20
REMARK H PARENT
REMARK Flexibility Score: inf
ROOT
ATOM      1  C   UNL     1       9.309   1.258 -10.453  1.00  0.00     0.027 C 
ENDROOT
BRANCH   1   2
ATOM      2  C   UNL     1       9.383  -0.208 -10.901  1.00  0.00     0.004 C 
BRANCH   2   3
ATOM      3  C   UNL     1      10.275  -1.059  -9.985  1.00  0.00     0.000 C 
BRANCH   3   4
ATOM      4  C   UNL     1       9.507  -2.230  -9.345  1.00  0.00     0.000 C 
BRANCH   4   5
ATOM      5  C   UNL     1      10.094  -2.649  -7.989  1.00  0.00     0.000 C 
BRANCH   5   6
ATOM      6  C   UNL     1       9.328  -3.821  -7.352  1.00  0.00     0.006 C 
BRANCH   6   7
ATOM      7  C   UNL     1       8.313  -3.346  -6.302  1.00  0.00     0.053 C 
BRANCH   7   8
ATOM      8  C   UNL     1       8.037  -4.406  -5.280  1.00  0.00     0.041 C 
ATOM      9  O   UNL     1       7.527  -5.503  -5.627  1.00  0.00    -0.550 OA
ATOM     10  O   UNL     1       8.391  -4.202  -3.951  1.00  0.00    -0.550 OA
ENDBRANCH   7   8
ENDBRANCH   6   7
ENDBRANCH   5   6
ENDBRANCH   4   5
ENDBRANCH   3   4
ENDBRANCH   2   3
ENDBRANCH   1   2
BRANCH   1  11
ATOM     11  C   UNL     1      10.631   1.730  -9.904  1.00  0.00    -0.031 C 
ATOM     12  C   UNL     1      10.821   2.242  -8.672  1.00  0.00    -0.027 C 
BRANCH  12  13
ATOM     13  C   UNL     1       9.752   2.408  -7.617  1.00  0.00     0.054 C 
BRANCH  13  14
ATOM     14  C   UNL     1       9.566   1.145  -6.814  1.00  0.00    -0.027 C 
ATOM     15  C   UNL     1       8.470   0.362  -6.836  1.00  0.00    -0.031 C 
BRANCH  15  16
ATOM     16  C   UNL     1       7.212   0.640  -7.625  1.00  0.00     0.027 C 
BRANCH  16  17
ATOM     17  C   UNL     1       6.552  -0.655  -8.130  1.00  0.00     0.004 C 
BRANCH  17  18
ATOM     18  C   UNL     1       5.096  -0.490  -8.605  1.00  0.00     0.000 C 
BRANCH  18  19
ATOM     19  C   UNL     1       4.164  -1.586  -8.067  1.00  0.00    -0.003 C 
ATOM     20  C   UNL     1       4.924  -2.890  -7.838  1.00  0.00     0.004 C 
ENDBRANCH  18  19
ENDBRANCH  17  18
ENDBRANCH  16  17
ENDBRANCH  15  16
ENDBRANCH  13  14
ENDBRANCH  12  13
ENDBRANCH   1  11
TORSDOF 14
ENDMDL
