MODEL 1
REMARK VINA RESULT:    -3.046      0.000      0.000
REMARK INTER + INTRA:          -8.010
REMARK INTER:                  -5.361
REMARK INTRA:                  -2.649
REMARK UNBOUND:                -2.649
REMARK SMILES CCCCCCC=CCCCCCCCC(=O)[O-]
REMARK SMILES IDX 10 1 11 2 12 3 13 4 14 5 15 6 16 7 17 8 18 9 9 10 8 11 7 12
REMARK SMILES IDX 6 13 5 14 4 15 3 16 2 17 1 18
REMARK H PARENT
REMARK Flexibility Score: inf
ROOT
ATOM      1  C   UNL     1      13.228  42.442  68.982  1.00  0.00     0.004 C 
ENDROOT
BRANCH   1   2
ATOM      2  C   UNL     1      14.490  42.639  68.122  1.00  0.00     0.000 C 
BRANCH   2   3
ATOM      3  C   UNL     1      14.373  42.005  66.728  1.00  0.00     0.000 C 
BRANCH   3   4
ATOM      4  C   UNL     1      14.887  42.965  65.644  1.00  0.00     0.000 C 
BRANCH   4   5
ATOM      5  C   UNL     1      15.242  44.352  66.202  1.00  0.00     0.006 C 
BRANCH   5   6
ATOM      6  C   UNL     1      16.161  45.148  65.266  1.00  0.00     0.053 C 
BRANCH   6   7
ATOM      7  C   UNL     1      15.351  45.999  64.339  1.00  0.00     0.041 C 
ATOM      8  O   UNL     1      15.028  45.568  63.201  1.00  0.00    -0.550 OA
ATOM      9  O   UNL     1      14.911  47.250  64.752  1.00  0.00    -0.550 OA
ENDBRANCH   6   7
ENDBRANCH   5   6
ENDBRANCH   4   5
ENDBRANCH   3   4
ENDBRANCH   2   3
ENDBRANCH   1   2
BRANCH   1  10
ATOM     10  C   UNL     1      12.092  41.663  68.296  1.00  0.00     0.027 C 
BRANCH  10  11
ATOM     11  C   UNL     1      10.805  42.456  68.250  1.00  0.00    -0.031 C 
ATOM     12  C   UNL     1      10.297  43.059  67.158  1.00  0.00    -0.031 C 
BRANCH  12  13
ATOM     13  C   UNL     1      10.934  43.063  65.791  1.00  0.00     0.027 C 
BRANCH  13  14
ATOM     14  C   UNL     1      11.596  44.414  65.483  1.00  0.00     0.004 C 
BRANCH  14  15
ATOM     15  C   UNL     1      10.842  45.603  66.104  1.00  0.00     0.000 C 
BRANCH  15  16
ATOM     16  C   UNL     1      11.711  46.562  66.944  1.00  0.00    -0.000 C 
BRANCH  16  17
ATOM     17  C   UNL     1      12.559  45.882  68.035  1.00  0.00    -0.003 C 
ATOM     18  C   UNL     1      11.890  45.900  69.408  1.00  0.00     0.004 C 
ENDBRANCH  16  17
ENDBRANCH  15  16
ENDBRANCH  14  15
ENDBRANCH  13  14
ENDBRANCH  12  13
ENDBRANCH  10  11
ENDBRANCH   1  10
TORSDOF 13
ENDMDL
MODEL 2
REMARK VINA RESULT:    -2.953      1.307      2.661
REMARK INTER + INTRA:          -7.847
REMARK INTER:                  -5.635
REMARK INTRA:                  -2.212
REMARK UNBOUND:                -2.649
REMARK SMILES CCCCCCC=CCCCCCCCC(=O)[O-]
REMARK SMILES IDX 10 1 11 2 12 3 13 4 14 5 15 6 16 7 17 8 18 9 9 10 8 11 7 12
REMARK SMILES IDX 6 13 5 14 4 15 3 16 2 17 1 18
REMARK H PARENT
REMARK Flexibility Score: inf
ROOT
ATOM      1  C   UNL     1      12.537  40.915  66.066  1.00  0.00     0.004 C 
ENDROOT
BRANCH   1   2
ATOM      2  C   UNL     1      13.977  40.775  66.592  1.00  0.00     0.000 C 
BRANCH   2   3
ATOM      3  C   UNL     1      14.560  42.099  67.107  1.00  0.00     0.000 C 
BRANCH   3   4
ATOM      4  C   UNL     1      14.662  43.132  65.973  1.00  0.00     0.000 C 
BRANCH   4   5
ATOM      5  C   UNL     1      15.198  44.489  66.454  1.00  0.00     0.006 C 
BRANCH   5   6
ATOM      6  C   UNL     1      16.193  45.115  65.468  1.00  0.00     0.053 C 
BRANCH   6   7
ATOM      7  C   UNL     1      15.472  45.961  64.466  1.00  0.00     0.041 C 
ATOM      8  O   UNL     1      15.134  47.138  64.757  1.00  0.00    -0.550 OA
ATOM      9  O   UNL     1      15.217  45.466  63.194  1.00  0.00    -0.550 OA
ENDBRANCH   6   7
ENDBRANCH   5   6
ENDBRANCH   4   5
ENDBRANCH   3   4
ENDBRANCH   2   3
ENDBRANCH   1   2
BRANCH   1  10
ATOM     10  C   UNL     1      11.444  40.423  67.032  1.00  0.00     0.027 C 
BRANCH  10  11
ATOM     11  C   UNL     1      12.025  39.855  68.308  1.00  0.00    -0.031 C 
ATOM     12  C   UNL     1      11.981  40.447  69.517  1.00  0.00    -0.031 C 
BRANCH  12  13
ATOM     13  C   UNL     1      11.357  41.789  69.808  1.00  0.00     0.027 C 
BRANCH  13  14
ATOM     14  C   UNL     1      12.416  42.826  70.208  1.00  0.00     0.004 C 
BRANCH  14  15
ATOM     15  C   UNL     1      12.367  44.095  69.340  1.00  0.00     0.000 C 
BRANCH  15  16
ATOM     16  C   UNL     1      11.523  43.975  68.054  1.00  0.00    -0.000 C 
BRANCH  16  17
ATOM     17  C   UNL     1      11.497  45.239  67.175  1.00  0.00    -0.003 C 
ATOM     18  C   UNL     1      12.318  46.388  67.758  1.00  0.00     0.004 C 
ENDBRANCH  16  17
ENDBRANCH  15  16
ENDBRANCH  14  15
ENDBRANCH  13  14
ENDBRANCH  12  13
ENDBRANCH  10  11
ENDBRANCH   1  10
TORSDOF 13
ENDMDL
MODEL 3
REMARK VINA RESULT:    -2.947      1.749      4.142
REMARK INTER + INTRA:          -7.836
REMARK INTER:                  -5.580
REMARK INTRA:                  -2.256
REMARK UNBOUND:                -2.649
REMARK SMILES CCCCCCC=CCCCCCCCC(=O)[O-]
REMARK SMILES IDX 10 1 11 2 12 3 13 4 14 5 15 6 16 7 17 8 18 9 9 10 8 11 7 12
REMARK SMILES IDX 6 13 5 14 4 15 3 16 2 17 1 18
REMARK H PARENT
REMARK Flexibility Score: inf
ROOT
ATOM      1  C   UNL     1      11.821  44.953  69.288  1.00  0.00     0.004 C 
ENDROOT
BRANCH   1   2
ATOM      2  C   UNL     1      12.563  45.548  68.078  1.00  0.00     0.000 C 
BRANCH   2   3
ATOM      3  C   UNL     1      11.991  45.080  66.731  1.00  0.00     0.000 C 
BRANCH   3   4
ATOM      4  C   UNL     1      13.119  44.754  65.740  1.00  0.00     0.000 C 
BRANCH   4   5
ATOM      5  C   UNL     1      14.507  45.145  66.272  1.00  0.00     0.006 C 
BRANCH   5   6
ATOM      6  C   UNL     1      15.644  44.671  65.358  1.00  0.00     0.053 C 
BRANCH   6   7
ATOM      7  C   UNL     1      15.487  45.250  63.987  1.00  0.00     0.041 C 
ATOM      8  O   UNL     1      15.301  44.495  62.997  1.00  0.00    -0.550 OA
ATOM      9  O   UNL     1      15.497  46.627  63.810  1.00  0.00    -0.550 OA
ENDBRANCH   6   7
ENDBRANCH   5   6
ENDBRANCH   4   5
ENDBRANCH   3   4
ENDBRANCH   2   3
ENDBRANCH   1   2
BRANCH   1  10
ATOM     10  C   UNL     1      12.533  43.771  69.969  1.00  0.00     0.027 C 
BRANCH  10  11
ATOM     11  C   UNL     1      12.126  42.441  69.375  1.00  0.00    -0.031 C 
ATOM     12  C   UNL     1      12.879  41.692  68.548  1.00  0.00    -0.031 C 
BRANCH  12  13
ATOM     13  C   UNL     1      14.257  42.057  68.054  1.00  0.00     0.027 C 
BRANCH  13  14
ATOM     14  C   UNL     1      14.547  41.431  66.682  1.00  0.00     0.004 C 
BRANCH  14  15
ATOM     15  C   UNL     1      13.269  41.012  65.936  1.00  0.00     0.000 C 
BRANCH  15  16
ATOM     16  C   UNL     1      13.309  39.601  65.312  1.00  0.00    -0.000 C 
BRANCH  16  17
ATOM     17  C   UNL     1      13.701  38.473  66.283  1.00  0.00    -0.003 C 
ATOM     18  C   UNL     1      12.622  38.178  67.323  1.00  0.00     0.004 C 
ENDBRANCH  16  17
ENDBRANCH  15  16
ENDBRANCH  14  15
ENDBRANCH  13  14
ENDBRANCH  12  13
ENDBRANCH  10  11
ENDBRANCH   1  10
TORSDOF 13
ENDMDL
MODEL 4
REMARK VINA RESULT:    -2.939      1.821      4.034
REMARK INTER + INTRA:          -7.821
REMARK INTER:                  -5.614
REMARK INTRA:                  -2.207
REMARK UNBOUND:                -2.649
REMARK SMILES CCCCCCC=CCCCCCCCC(=O)[O-]
REMARK SMILES IDX 10 1 11 2 12 3 13 4 14 5 15 6 16 7 17 8 18 9 9 10 8 11 7 12
REMARK SMILES IDX 6 13 5 14 4 15 3 16 2 17 1 18
REMARK H PARENT
REMARK Flexibility Score: inf
ROOT
ATOM      1  C   UNL     1      11.708  43.536  68.615  1.00  0.00     0.004 C 
ENDROOT
BRANCH   1   2
ATOM      2  C   UNL     1      12.175  44.907  69.137  1.00  0.00     0.000 C 
BRANCH   2   3
ATOM      3  C   UNL     1      12.321  45.956  68.025  1.00  0.00     0.000 C 
BRANCH   3   4
ATOM      4  C   UNL     1      12.395  45.285  66.644  1.00  0.00     0.000 C 
BRANCH   4   5
ATOM      5  C   UNL     1      13.558  45.812  65.790  1.00  0.00     0.006 C 
BRANCH   5   6
ATOM      6  C   UNL     1      14.889  45.119  66.112  1.00  0.00     0.053 C 
BRANCH   6   7
ATOM      7  C   UNL     1      15.953  45.565  65.159  1.00  0.00     0.041 C 
ATOM      8  O   UNL     1      17.118  45.098  65.246  1.00  0.00    -0.550 OA
ATOM      9  O   UNL     1      15.644  46.459  64.143  1.00  0.00    -0.550 OA
ENDBRANCH   6   7
ENDBRANCH   5   6
ENDBRANCH   4   5
ENDBRANCH   3   4
ENDBRANCH   2   3
ENDBRANCH   1   2
BRANCH   1  10
ATOM     10  C   UNL     1      12.591  42.348  69.035  1.00  0.00     0.027 C 
BRANCH  10  11
ATOM     11  C   UNL     1      14.017  42.498  68.553  1.00  0.00    -0.031 C 
ATOM     12  C   UNL     1      14.537  41.911  67.459  1.00  0.00    -0.031 C 
BRANCH  12  13
ATOM     13  C   UNL     1      13.792  40.986  66.530  1.00  0.00     0.027 C 
BRANCH  13  14
ATOM     14  C   UNL     1      13.441  41.681  65.206  1.00  0.00     0.004 C 
BRANCH  14  15
ATOM     15  C   UNL     1      14.684  42.023  64.365  1.00  0.00     0.000 C 
BRANCH  15  16
ATOM     16  C   UNL     1      14.415  42.246  62.862  1.00  0.00    -0.000 C 
BRANCH  16  17
ATOM     17  C   UNL     1      14.618  43.692  62.374  1.00  0.00    -0.003 C 
ATOM     18  C   UNL     1      13.309  44.469  62.248  1.00  0.00     0.004 C 
ENDBRANCH  16  17
ENDBRANCH  15  16
ENDBRANCH  14  15
ENDBRANCH  13  14
ENDBRANCH  12  13
ENDBRANCH  10  11
ENDBRANCH   1  10
TORSDOF 13
ENDMDL
MODEL 5
REMARK VINA RESULT:    -2.904      1.018      2.398
REMARK INTER + INTRA:          -7.759
REMARK INTER:                  -5.409
REMARK INTRA:                  -2.350
REMARK UNBOUND:                -2.649
REMARK SMILES CCCCCCC=CCCCCCCCC(=O)[O-]
REMARK SMILES IDX 10 1 11 2 12 3 13 4 14 5 15 6 16 7 17 8 18 9 9 10 8 11 7 12
REMARK SMILES IDX 6 13 5 14 4 15 3 16 2 17 1 18
REMARK H PARENT
REMARK Flexibility Score: inf
ROOT
ATOM      1  C   UNL     1      13.067  41.291  67.137  1.00  0.00     0.004 C 
ENDROOT
BRANCH   1   2
ATOM      2  C   UNL     1      14.464  41.937  67.140  1.00  0.00     0.000 C 
BRANCH   2   3
ATOM      3  C   UNL     1      14.640  42.994  66.039  1.00  0.00     0.000 C 
BRANCH   3   4
ATOM      4  C   UNL     1      15.042  44.350  66.641  1.00  0.00     0.000 C 
BRANCH   4   5
ATOM      5  C   UNL     1      16.040  45.116  65.759  1.00  0.00     0.006 C 
BRANCH   5   6
ATOM      6  C   UNL     1      15.741  44.969  64.262  1.00  0.00     0.053 C 
BRANCH   6   7
ATOM      7  C   UNL     1      15.086  46.209  63.737  1.00  0.00     0.041 C 
ATOM      8  O   UNL     1      14.529  46.202  62.608  1.00  0.00    -0.550 OA
ATOM      9  O   UNL     1      15.047  47.357  64.517  1.00  0.00    -0.550 OA
ENDBRANCH   6   7
ENDBRANCH   5   6
ENDBRANCH   4   5
ENDBRANCH   3   4
ENDBRANCH   2   3
ENDBRANCH   1   2
BRANCH   1  10
ATOM     10  C   UNL     1      12.221  41.572  68.392  1.00  0.00     0.027 C 
BRANCH  10  11
ATOM     11  C   UNL     1      12.957  42.431  69.395  1.00  0.00    -0.031 C 
ATOM     12  C   UNL     1      12.581  43.661  69.795  1.00  0.00    -0.031 C 
BRANCH  12  13
ATOM     13  C   UNL     1      11.365  44.403  69.300  1.00  0.00     0.027 C 
BRANCH  13  14
ATOM     14  C   UNL     1      11.718  45.832  68.862  1.00  0.00     0.004 C 
BRANCH  14  15
ATOM     15  C   UNL     1      11.953  45.950  67.346  1.00  0.00     0.000 C 
BRANCH  15  16
ATOM     16  C   UNL     1      11.367  44.798  66.501  1.00  0.00    -0.000 C 
BRANCH  16  17
ATOM     17  C   UNL     1      11.653  44.891  64.991  1.00  0.00    -0.003 C 
ATOM     18  C   UNL     1      11.475  46.302  64.435  1.00  0.00     0.004 C 
ENDBRANCH  16  17
ENDBRANCH  15  16
ENDBRANCH  14  15
ENDBRANCH  13  14
ENDBRANCH  12  13
ENDBRANCH  10  11
ENDBRANCH   1  10
TORSDOF 13
ENDMDL
MODEL 6
REMARK VINA RESULT:    -2.894      3.706      5.770
REMARK INTER + INTRA:          -7.743
REMARK INTER:                  -5.178
REMARK INTRA:                  -2.565
REMARK UNBOUND:                -2.649
REMARK SMILES CCCCCCC=CCCCCCCCC(=O)[O-]
REMARK SMILES IDX 10 1 11 2 12 3 13 4 14 5 15 6 16 7 17 8 18 9 9 10 8 11 7 12
REMARK SMILES IDX 6 13 5 14 4 15 3 16 2 17 1 18
REMARK H PARENT
REMARK Flexibility Score: inf
ROOT
ATOM      1  C   UNL     1      13.060  44.272  67.360  1.00  0.00     0.004 C 
ENDROOT
BRANCH   1   2
ATOM      2  C   UNL     1      13.924  43.218  68.075  1.00  0.00     0.000 C 
BRANCH   2   3
ATOM      3  C   UNL     1      13.553  41.777  67.693  1.00  0.00     0.000 C 
BRANCH   3   4
ATOM      4  C   UNL     1      14.517  41.225  66.631  1.00  0.00     0.000 C 
BRANCH   4   5
ATOM      5  C   UNL     1      13.963  39.984  65.915  1.00  0.00     0.006 C 
BRANCH   5   6
ATOM      6  C   UNL     1      13.005  39.172  66.797  1.00  0.00     0.053 C 
BRANCH   6   7
ATOM      7  C   UNL     1      13.303  37.710  66.681  1.00  0.00     0.041 C 
ATOM      8  O   UNL     1      12.376  36.864  66.780  1.00  0.00    -0.550 OA
ATOM      9  O   UNL     1      14.597  37.284  66.414  1.00  0.00    -0.550 OA
ENDBRANCH   6   7
ENDBRANCH   5   6
ENDBRANCH   4   5
ENDBRANCH   3   4
ENDBRANCH   2   3
ENDBRANCH   1   2
BRANCH   1  10
ATOM     10  C   UNL     1      13.819  45.167  66.365  1.00  0.00     0.027 C 
BRANCH  10  11
ATOM     11  C   UNL     1      15.278  44.785  66.254  1.00  0.00    -0.031 C 
ATOM     12  C   UNL     1      15.911  44.441  65.116  1.00  0.00    -0.031 C 
BRANCH  12  13
ATOM     13  C   UNL     1      15.270  44.361  63.753  1.00  0.00     0.027 C 
BRANCH  13  14
ATOM     14  C   UNL     1      14.832  42.928  63.421  1.00  0.00     0.004 C 
BRANCH  14  15
ATOM     15  C   UNL     1      13.379  42.848  62.922  1.00  0.00     0.000 C 
BRANCH  15  16
ATOM     16  C   UNL     1      12.302  42.966  64.021  1.00  0.00    -0.000 C 
BRANCH  16  17
ATOM     17  C   UNL     1      11.385  41.737  64.164  1.00  0.00    -0.003 C 
ATOM     18  C   UNL     1      10.534  41.773  65.432  1.00  0.00     0.004 C 
ENDBRANCH  16  17
ENDBRANCH  15  16
ENDBRANCH  14  15
ENDBRANCH  13  14
ENDBRANCH  12  13
ENDBRANCH  10  11
ENDBRANCH   1  10
TORSDOF 13
ENDMDL
MODEL 7
REMARK VINA RESULT:    -2.891      2.584      4.785
REMARK INTER + INTRA:          -7.737
REMARK INTER:                  -5.192
REMARK INTRA:                  -2.545
REMARK UNBOUND:                -2.649
REMARK SMILES CCCCCCC=CCCCCCCCC(=O)[O-]
REMARK SMILES IDX 10 1 11 2 12 3 13 4 14 5 15 6 16 7 17 8 18 9 9 10 8 11 7 12
REMARK SMILES IDX 6 13 5 14 4 15 3 16 2 17 1 18
REMARK H PARENT
REMARK Flexibility Score: inf
ROOT
ATOM      1  C   UNL     1      13.081  41.829  64.722  1.00  0.00     0.004 C 
ENDROOT
BRANCH   1   2
ATOM      2  C   UNL     1      13.103  41.516  66.229  1.00  0.00     0.000 C 
BRANCH   2   3
ATOM      3  C   UNL     1      14.504  41.631  66.847  1.00  0.00     0.000 C 
BRANCH   3   4
ATOM      4  C   UNL     1      14.451  42.377  68.190  1.00  0.00     0.000 C 
BRANCH   4   5
ATOM      5  C   UNL     1      13.051  42.362  68.821  1.00  0.00     0.006 C 
BRANCH   5   6
ATOM      6  C   UNL     1      12.712  43.675  69.538  1.00  0.00     0.053 C 
BRANCH   6   7
ATOM      7  C   UNL     1      11.415  44.225  69.033  1.00  0.00     0.041 C 
ATOM      8  O   UNL     1      10.716  44.974  69.765  1.00  0.00    -0.550 OA
ATOM      9  O   UNL     1      11.003  43.951  67.736  1.00  0.00    -0.550 OA
ENDBRANCH   6   7
ENDBRANCH   5   6
ENDBRANCH   4   5
ENDBRANCH   3   4
ENDBRANCH   2   3
ENDBRANCH   1   2
BRANCH   1  10
ATOM     10  C   UNL     1      14.467  41.965  64.068  1.00  0.00     0.027 C 
BRANCH  10  11
ATOM     11  C   UNL     1      14.599  43.243  63.271  1.00  0.00    -0.031 C 
ATOM     12  C   UNL     1      15.292  44.333  63.652  1.00  0.00    -0.031 C 
BRANCH  12  13
ATOM     13  C   UNL     1      16.047  44.475  64.950  1.00  0.00     0.027 C 
BRANCH  13  14
ATOM     14  C   UNL     1      15.400  45.526  65.863  1.00  0.00     0.004 C 
BRANCH  14  15
ATOM     15  C   UNL     1      13.910  45.250  66.129  1.00  0.00     0.000 C 
BRANCH  15  16
ATOM     16  C   UNL     1      13.005  46.499  66.144  1.00  0.00    -0.000 C 
BRANCH  16  17
ATOM     17  C   UNL     1      11.943  46.545  65.030  1.00  0.00    -0.003 C 
ATOM     18  C   UNL     1      11.629  45.168  64.448  1.00  0.00     0.004 C 
ENDBRANCH  16  17
ENDBRANCH  15  16
ENDBRANCH  14  15
ENDBRANCH  13  14
ENDBRANCH  12  13
ENDBRANCH  10  11
ENDBRANCH   1  10
TORSDOF 13
ENDMDL
MODEL 8
REMARK VINA RESULT:    -2.871      1.373      2.936
REMARK INTER + INTRA:          -7.702
REMARK INTER:                  -5.173
REMARK INTRA:                  -2.529
REMARK UNBOUND:                -2.649
REMARK SMILES CCCCCCC=CCCCCCCCC(=O)[O-]
REMARK SMILES IDX 10 1 11 2 12 3 13 4 14 5 15 6 16 7 17 8 18 9 9 10 8 11 7 12
REMARK SMILES IDX 6 13 5 14 4 15 3 16 2 17 1 18
REMARK H PARENT
REMARK Flexibility Score: inf
ROOT
ATOM      1  C   UNL     1      11.595  42.794  65.057  1.00  0.00     0.004 C 
ENDROOT
BRANCH   1   2
ATOM      2  C   UNL     1      12.747  43.732  64.655  1.00  0.00     0.000 C 
BRANCH   2   3
ATOM      3  C   UNL     1      13.818  43.038  63.799  1.00  0.00     0.000 C 
BRANCH   3   4
ATOM      4  C   UNL     1      15.222  43.279  64.376  1.00  0.00     0.000 C 
BRANCH   4   5
ATOM      5  C   UNL     1      15.237  44.364  65.464  1.00  0.00     0.006 C 
BRANCH   5   6
ATOM      6  C   UNL     1      16.079  45.584  65.069  1.00  0.00     0.053 C 
BRANCH   6   7
ATOM      7  C   UNL     1      15.193  46.719  64.660  1.00  0.00     0.041 C 
ATOM      8  O   UNL     1      15.457  47.389  63.628  1.00  0.00    -0.550 OA
ATOM      9  O   UNL     1      14.048  47.004  65.391  1.00  0.00    -0.550 OA
ENDBRANCH   6   7
ENDBRANCH   5   6
ENDBRANCH   4   5
ENDBRANCH   3   4
ENDBRANCH   2   3
ENDBRANCH   1   2
BRANCH   1  10
ATOM     10  C   UNL     1      11.963  41.301  65.106  1.00  0.00     0.027 C 
BRANCH  10  11
ATOM     11  C   UNL     1      11.789  40.715  66.489  1.00  0.00    -0.031 C 
ATOM     12  C   UNL     1      12.703  40.758  67.476  1.00  0.00    -0.031 C 
BRANCH  12  13
ATOM     13  C   UNL     1      14.071  41.385  67.369  1.00  0.00     0.027 C 
BRANCH  13  14
ATOM     14  C   UNL     1      14.216  42.582  68.319  1.00  0.00     0.004 C 
BRANCH  14  15
ATOM     15  C   UNL     1      13.054  42.694  69.321  1.00  0.00     0.000 C 
BRANCH  15  16
ATOM     16  C   UNL     1      12.253  44.011  69.251  1.00  0.00    -0.000 C 
BRANCH  16  17
ATOM     17  C   UNL     1      12.659  44.956  68.105  1.00  0.00    -0.003 C 
ATOM     18  C   UNL     1      11.470  45.692  67.490  1.00  0.00     0.004 C 
ENDBRANCH  16  17
ENDBRANCH  15  16
ENDBRANCH  14  15
ENDBRANCH  13  14
ENDBRANCH  12  13
ENDBRANCH  10  11
ENDBRANCH   1  10
TORSDOF 13
ENDMDL
MODEL 9
REMARK VINA RESULT:    -2.864      1.900      4.207
REMARK INTER + INTRA:          -7.689
REMARK INTER:                  -5.271
REMARK INTRA:                  -2.419
REMARK UNBOUND:                -2.649
REMARK SMILES CCCCCCC=CCCCCCCCC(=O)[O-]
REMARK SMILES IDX 10 1 11 2 12 3 13 4 14 5 15 6 16 7 17 8 18 9 9 10 8 11 7 12
REMARK SMILES IDX 6 13 5 14 4 15 3 16 2 17 1 18
REMARK H PARENT
REMARK Flexibility Score: inf
ROOT
ATOM      1  C   UNL     1      12.335  44.653  65.785  1.00  0.00     0.004 C 
ENDROOT
BRANCH   1   2
ATOM      2  C   UNL     1      12.931  46.047  66.054  1.00  0.00     0.000 C 
BRANCH   2   3
ATOM      3  C   UNL     1      14.311  46.246  65.411  1.00  0.00     0.000 C 
BRANCH   3   4
ATOM      4  C   UNL     1      15.297  45.165  65.882  1.00  0.00     0.000 C 
BRANCH   4   5
ATOM      5  C   UNL     1      15.939  44.400  64.715  1.00  0.00     0.006 C 
BRANCH   5   6
ATOM      6  C   UNL     1      15.192  44.607  63.391  1.00  0.00     0.053 C 
BRANCH   6   7
ATOM      7  C   UNL     1      14.546  43.330  62.951  1.00  0.00     0.041 C 
ATOM      8  O   UNL     1      14.923  42.230  63.434  1.00  0.00    -0.550 OA
ATOM      9  O   UNL     1      13.494  43.360  62.045  1.00  0.00    -0.550 OA
ENDBRANCH   6   7
ENDBRANCH   5   6
ENDBRANCH   4   5
ENDBRANCH   3   4
ENDBRANCH   2   3
ENDBRANCH   1   2
BRANCH   1  10
ATOM     10  C   UNL     1      11.441  44.102  66.909  1.00  0.00     0.027 C 
BRANCH  10  11
ATOM     11  C   UNL     1      11.848  44.624  68.269  1.00  0.00    -0.031 C 
ATOM     12  C   UNL     1      12.602  43.962  69.166  1.00  0.00    -0.031 C 
BRANCH  12  13
ATOM     13  C   UNL     1      13.162  42.574  68.979  1.00  0.00     0.027 C 
BRANCH  13  14
ATOM     14  C   UNL     1      14.475  42.600  68.183  1.00  0.00     0.004 C 
BRANCH  14  15
ATOM     15  C   UNL     1      14.470  41.627  66.992  1.00  0.00     0.000 C 
BRANCH  15  16
ATOM     16  C   UNL     1      13.204  40.754  66.865  1.00  0.00    -0.000 C 
BRANCH  16  17
ATOM     17  C   UNL     1      12.879  40.286  65.435  1.00  0.00    -0.003 C 
ATOM     18  C   UNL     1      11.797  41.130  64.762  1.00  0.00     0.004 C 
ENDBRANCH  16  17
ENDBRANCH  15  16
ENDBRANCH  14  15
ENDBRANCH  13  14
ENDBRANCH  12  13
ENDBRANCH  10  11
ENDBRANCH   1  10
TORSDOF 13
ENDMDL
