MODEL 1
REMARK VINA RESULT:    -4.197      0.000      0.000
REMARK INTER + INTRA:          -8.527
REMARK INTER:                  -7.142
REMARK INTRA:                  -1.385
REMARK UNBOUND:                -1.385
REMARK SMILES CCCCCCCCCCCCCC(=O)[O-]
REMARK SMILES IDX 8 1 9 2 10 3 11 4 12 5 13 6 14 7 15 8 16 9 7 10 6 11 5 12
REMARK SMILES IDX 4 13 3 14 2 15 1 16
REMARK H PARENT
REMARK Flexibility Score: inf
ROOT
ATOM      1  C   UNL     1      58.472  34.245  80.688  1.00  0.00     0.000 C 
ENDROOT
BRANCH   1   2
ATOM      2  C   UNL     1      58.888  33.780  79.280  1.00  0.00     0.000 C 
BRANCH   2   3
ATOM      3  C   UNL     1      57.769  33.023  78.544  1.00  0.00     0.000 C 
BRANCH   3   4
ATOM      4  C   UNL     1      58.155  32.628  77.107  1.00  0.00     0.000 C 
BRANCH   4   5
ATOM      5  C   UNL     1      58.517  31.145  76.911  1.00  0.00     0.006 C 
BRANCH   5   6
ATOM      6  C   UNL     1      58.610  30.740  75.434  1.00  0.00     0.053 C 
BRANCH   6   7
ATOM      7  C   UNL     1      57.244  30.646  74.831  1.00  0.00     0.041 C 
ATOM      8  O   UNL     1      56.454  29.732  75.188  1.00  0.00    -0.550 OA
ATOM      9  O   UNL     1      56.859  31.539  73.839  1.00  0.00    -0.550 OA
ENDBRANCH   6   7
ENDBRANCH   5   6
ENDBRANCH   4   5
ENDBRANCH   3   4
ENDBRANCH   2   3
ENDBRANCH   1   2
BRANCH   1  10
ATOM     10  C   UNL     1      59.025  35.619  81.115  1.00  0.00     0.000 C 
BRANCH  10  11
ATOM     11  C   UNL     1      58.146  36.825  80.732  1.00  0.00    -0.000 C 
BRANCH  11  12
ATOM     12  C   UNL     1      58.719  37.723  79.617  1.00  0.00    -0.000 C 
BRANCH  12  13
ATOM     13  C   UNL     1      57.762  38.002  78.444  1.00  0.00    -0.000 C 
BRANCH  13  14
ATOM     14  C   UNL     1      56.571  37.030  78.402  1.00  0.00    -0.000 C 
BRANCH  14  15
ATOM     15  C   UNL     1      56.493  36.251  77.080  1.00  0.00    -0.003 C 
ATOM     16  C   UNL     1      57.801  36.294  76.288  1.00  0.00     0.004 C 
ENDBRANCH  14  15
ENDBRANCH  13  14
ENDBRANCH  12  13
ENDBRANCH  11  12
ENDBRANCH  10  11
ENDBRANCH   1  10
TORSDOF 12
ENDMDL
MODEL 2
REMARK VINA RESULT:    -4.102      0.998      1.472
REMARK INTER + INTRA:          -8.365
REMARK INTER:                  -7.046
REMARK INTRA:                  -1.319
REMARK UNBOUND:                -1.385
REMARK SMILES CCCCCCCCCCCCCC(=O)[O-]
REMARK SMILES IDX 8 1 9 2 10 3 11 4 12 5 13 6 14 7 15 8 16 9 7 10 6 11 5 12
REMARK SMILES IDX 4 13 3 14 2 15 1 16
REMARK H PARENT
REMARK Flexibility Score: inf
ROOT
ATOM      1  C   UNL     1      59.112  34.457  80.050  1.00  0.00     0.000 C 
ENDROOT
BRANCH   1   2
ATOM      2  C   UNL     1      57.909  33.629  79.562  1.00  0.00     0.000 C 
BRANCH   2   3
ATOM      3  C   UNL     1      57.763  33.630  78.031  1.00  0.00     0.000 C 
BRANCH   3   4
ATOM      4  C   UNL     1      58.454  32.428  77.360  1.00  0.00     0.000 C 
BRANCH   4   5
ATOM      5  C   UNL     1      57.857  32.002  76.007  1.00  0.00     0.006 C 
BRANCH   5   6
ATOM      6  C   UNL     1      58.424  30.671  75.493  1.00  0.00     0.053 C 
BRANCH   6   7
ATOM      7  C   UNL     1      57.317  29.707  75.208  1.00  0.00     0.041 C 
ATOM      8  O   UNL     1      56.317  30.070  74.535  1.00  0.00    -0.550 OA
ATOM      9  O   UNL     1      57.365  28.420  75.729  1.00  0.00    -0.550 OA
ENDBRANCH   6   7
ENDBRANCH   5   6
ENDBRANCH   4   5
ENDBRANCH   3   4
ENDBRANCH   2   3
ENDBRANCH   1   2
BRANCH   1  10
ATOM     10  C   UNL     1      58.792  35.499  81.142  1.00  0.00     0.000 C 
BRANCH  10  11
ATOM     11  C   UNL     1      58.442  36.905  80.620  1.00  0.00    -0.000 C 
BRANCH  11  12
ATOM     12  C   UNL     1      56.934  37.203  80.508  1.00  0.00    -0.000 C 
BRANCH  12  13
ATOM     13  C   UNL     1      56.409  37.394  79.073  1.00  0.00    -0.000 C 
BRANCH  13  14
ATOM     14  C   UNL     1      57.428  38.085  78.152  1.00  0.00    -0.000 C 
BRANCH  14  15
ATOM     15  C   UNL     1      57.832  37.207  76.957  1.00  0.00    -0.003 C 
ATOM     16  C   UNL     1      59.324  36.876  76.941  1.00  0.00     0.004 C 
ENDBRANCH  14  15
ENDBRANCH  13  14
ENDBRANCH  12  13
ENDBRANCH  11  12
ENDBRANCH  10  11
ENDBRANCH   1  10
TORSDOF 12
ENDMDL
MODEL 3
REMARK VINA RESULT:    -4.011      2.602      6.522
REMARK INTER + INTRA:          -8.210
REMARK INTER:                  -7.222
REMARK INTRA:                  -0.988
REMARK UNBOUND:                -1.385
REMARK SMILES CCCCCCCCCCCCCC(=O)[O-]
REMARK SMILES IDX 8 1 9 2 10 3 11 4 12 5 13 6 14 7 15 8 16 9 7 10 6 11 5 12
REMARK SMILES IDX 4 13 3 14 2 15 1 16
REMARK H PARENT
REMARK Flexibility Score: inf
ROOT
ATOM      1  C   UNL     1      57.955  32.791  78.152  1.00  0.00     0.000 C 
ENDROOT
BRANCH   1   2
ATOM      2  C   UNL     1      58.893  33.562  79.098  1.00  0.00     0.000 C 
BRANCH   2   3
ATOM      3  C   UNL     1      58.232  33.915  80.441  1.00  0.00     0.000 C 
BRANCH   3   4
ATOM      4  C   UNL     1      58.860  35.149  81.114  1.00  0.00     0.000 C 
BRANCH   4   5
ATOM      5  C   UNL     1      58.699  36.470  80.340  1.00  0.00     0.006 C 
BRANCH   5   6
ATOM      6  C   UNL     1      57.274  36.688  79.814  1.00  0.00     0.053 C 
BRANCH   6   7
ATOM      7  C   UNL     1      57.284  36.837  78.325  1.00  0.00     0.041 C 
ATOM      8  O   UNL     1      58.270  37.364  77.747  1.00  0.00    -0.550 OA
ATOM      9  O   UNL     1      56.181  36.440  77.580  1.00  0.00    -0.550 OA
ENDBRANCH   6   7
ENDBRANCH   5   6
ENDBRANCH   4   5
ENDBRANCH   3   4
ENDBRANCH   2   3
ENDBRANCH   1   2
BRANCH   1  10
ATOM     10  C   UNL     1      58.048  33.190  76.665  1.00  0.00     0.000 C 
BRANCH  10  11
ATOM     11  C   UNL     1      58.891  32.246  75.787  1.00  0.00    -0.000 C 
BRANCH  11  12
ATOM     12  C   UNL     1      59.088  30.827  76.358  1.00  0.00    -0.000 C 
BRANCH  12  13
ATOM     13  C   UNL     1      59.102  29.697  75.312  1.00  0.00    -0.000 C 
BRANCH  13  14
ATOM     14  C   UNL     1      57.943  28.703  75.491  1.00  0.00    -0.000 C 
BRANCH  14  15
ATOM     15  C   UNL     1      56.586  29.405  75.654  1.00  0.00    -0.003 C 
ATOM     16  C   UNL     1      55.925  29.736  74.316  1.00  0.00     0.004 C 
ENDBRANCH  14  15
ENDBRANCH  13  14
ENDBRANCH  12  13
ENDBRANCH  11  12
ENDBRANCH  10  11
ENDBRANCH   1  10
TORSDOF 12
ENDMDL
MODEL 4
REMARK VINA RESULT:    -3.994      1.136      2.449
REMARK INTER + INTRA:          -8.182
REMARK INTER:                  -6.988
REMARK INTRA:                  -1.194
REMARK UNBOUND:                -1.385
REMARK SMILES CCCCCCCCCCCCCC(=O)[O-]
REMARK SMILES IDX 8 1 9 2 10 3 11 4 12 5 13 6 14 7 15 8 16 9 7 10 6 11 5 12
REMARK SMILES IDX 4 13 3 14 2 15 1 16
REMARK H PARENT
REMARK Flexibility Score: inf
ROOT
ATOM      1  C   UNL     1      58.050  33.303  78.296  1.00  0.00     0.000 C 
ENDROOT
BRANCH   1   2
ATOM      2  C   UNL     1      57.799  34.264  77.119  1.00  0.00     0.000 C 
BRANCH   2   3
ATOM      3  C   UNL     1      57.522  33.530  75.796  1.00  0.00     0.000 C 
BRANCH   3   4
ATOM      4  C   UNL     1      58.786  32.900  75.183  1.00  0.00     0.000 C 
BRANCH   4   5
ATOM      5  C   UNL     1      58.800  31.362  75.145  1.00  0.00     0.006 C 
BRANCH   5   6
ATOM      6  C   UNL     1      57.658  30.731  75.953  1.00  0.00     0.053 C 
BRANCH   6   7
ATOM      7  C   UNL     1      57.125  29.523  75.250  1.00  0.00     0.041 C 
ATOM      8  O   UNL     1      56.180  29.635  74.425  1.00  0.00    -0.550 OA
ATOM      9  O   UNL     1      57.638  28.266  75.542  1.00  0.00    -0.550 OA
ENDBRANCH   6   7
ENDBRANCH   5   6
ENDBRANCH   4   5
ENDBRANCH   3   4
ENDBRANCH   2   3
ENDBRANCH   1   2
BRANCH   1  10
ATOM     10  C   UNL     1      59.072  33.798  79.340  1.00  0.00     0.000 C 
BRANCH  10  11
ATOM     11  C   UNL     1      58.467  34.247  80.684  1.00  0.00    -0.000 C 
BRANCH  11  12
ATOM     12  C   UNL     1      59.036  35.565  81.248  1.00  0.00    -0.000 C 
BRANCH  12  13
ATOM     13  C   UNL     1      58.259  36.835  80.855  1.00  0.00    -0.000 C 
BRANCH  13  14
ATOM     14  C   UNL     1      58.865  37.552  79.637  1.00  0.00    -0.000 C 
BRANCH  14  15
ATOM     15  C   UNL     1      57.889  37.627  78.453  1.00  0.00    -0.003 C 
ATOM     16  C   UNL     1      56.446  37.318  78.852  1.00  0.00     0.004 C 
ENDBRANCH  14  15
ENDBRANCH  13  14
ENDBRANCH  12  13
ENDBRANCH  11  12
ENDBRANCH  10  11
ENDBRANCH   1  10
TORSDOF 12
ENDMDL
MODEL 5
REMARK VINA RESULT:    -3.951      1.263      1.934
REMARK INTER + INTRA:          -8.108
REMARK INTER:                  -6.623
REMARK INTRA:                  -1.485
REMARK UNBOUND:                -1.385
REMARK SMILES CCCCCCCCCCCCCC(=O)[O-]
REMARK SMILES IDX 8 1 9 2 10 3 11 4 12 5 13 6 14 7 15 8 16 9 7 10 6 11 5 12
REMARK SMILES IDX 4 13 3 14 2 15 1 16
REMARK H PARENT
REMARK Flexibility Score: inf
ROOT
ATOM      1  C   UNL     1      58.830  35.828  79.864  1.00  0.00     0.000 C 
ENDROOT
BRANCH   1   2
ATOM      2  C   UNL     1      58.787  34.390  80.410  1.00  0.00     0.000 C 
BRANCH   2   3
ATOM      3  C   UNL     1      58.054  33.415  79.474  1.00  0.00     0.000 C 
BRANCH   3   4
ATOM      4  C   UNL     1      57.750  34.023  78.092  1.00  0.00     0.000 C 
BRANCH   4   5
ATOM      5  C   UNL     1      58.008  33.090  76.895  1.00  0.00     0.006 C 
BRANCH   5   6
ATOM      6  C   UNL     1      58.353  31.655  77.316  1.00  0.00     0.053 C 
BRANCH   6   7
ATOM      7  C   UNL     1      58.259  30.730  76.144  1.00  0.00     0.041 C 
ATOM      8  O   UNL     1      57.170  30.162  75.869  1.00  0.00    -0.550 OA
ATOM      9  O   UNL     1      59.389  30.454  75.384  1.00  0.00    -0.550 OA
ENDBRANCH   6   7
ENDBRANCH   5   6
ENDBRANCH   4   5
ENDBRANCH   3   4
ENDBRANCH   2   3
ENDBRANCH   1   2
BRANCH   1  10
ATOM     10  C   UNL     1      58.014  36.861  80.667  1.00  0.00     0.000 C 
BRANCH  10  11
ATOM     11  C   UNL     1      56.700  37.315  80.003  1.00  0.00    -0.000 C 
BRANCH  11  12
ATOM     12  C   UNL     1      56.835  37.778  78.538  1.00  0.00    -0.000 C 
BRANCH  12  13
ATOM     13  C   UNL     1      56.084  36.916  77.507  1.00  0.00    -0.000 C 
BRANCH  13  14
ATOM     14  C   UNL     1      56.722  36.967  76.109  1.00  0.00    -0.000 C 
BRANCH  14  15
ATOM     15  C   UNL     1      58.103  37.640  76.115  1.00  0.00    -0.003 C 
ATOM     16  C   UNL     1      59.249  36.647  75.921  1.00  0.00     0.004 C 
ENDBRANCH  14  15
ENDBRANCH  13  14
ENDBRANCH  12  13
ENDBRANCH  11  12
ENDBRANCH  10  11
ENDBRANCH   1  10
TORSDOF 12
ENDMDL
MODEL 6
REMARK VINA RESULT:    -3.921      3.377      6.368
REMARK INTER + INTRA:          -8.057
REMARK INTER:                  -7.057
REMARK INTRA:                  -1.000
REMARK UNBOUND:                -1.385
REMARK SMILES CCCCCCCCCCCCCC(=O)[O-]
REMARK SMILES IDX 8 1 9 2 10 3 11 4 12 5 13 6 14 7 15 8 16 9 7 10 6 11 5 12
REMARK SMILES IDX 4 13 3 14 2 15 1 16
REMARK H PARENT
REMARK Flexibility Score: inf
ROOT
ATOM      1  C   UNL     1      59.110  33.878  79.628  1.00  0.00     0.000 C 
ENDROOT
BRANCH   1   2
ATOM      2  C   UNL     1      58.676  34.734  80.832  1.00  0.00     0.000 C 
BRANCH   2   3
ATOM      3  C   UNL     1      58.624  36.237  80.510  1.00  0.00     0.000 C 
BRANCH   3   4
ATOM      4  C   UNL     1      57.264  36.683  79.942  1.00  0.00     0.000 C 
BRANCH   4   5
ATOM      5  C   UNL     1      57.291  37.170  78.483  1.00  0.00     0.006 C 
BRANCH   5   6
ATOM      6  C   UNL     1      58.673  37.035  77.830  1.00  0.00     0.053 C 
BRANCH   6   7
ATOM      7  C   UNL     1      59.251  38.385  77.545  1.00  0.00     0.041 C 
ATOM      8  O   UNL     1      58.671  39.423  77.957  1.00  0.00    -0.550 OA
ATOM      9  O   UNL     1      60.405  38.500  76.780  1.00  0.00    -0.550 OA
ENDBRANCH   6   7
ENDBRANCH   5   6
ENDBRANCH   4   5
ENDBRANCH   3   4
ENDBRANCH   2   3
ENDBRANCH   1   2
BRANCH   1  10
ATOM     10  C   UNL     1      57.964  33.158  78.888  1.00  0.00     0.000 C 
BRANCH  10  11
ATOM     11  C   UNL     1      58.377  32.435  77.591  1.00  0.00    -0.000 C 
BRANCH  11  12
ATOM     12  C   UNL     1      57.773  33.019  76.298  1.00  0.00    -0.000 C 
BRANCH  12  13
ATOM     13  C   UNL     1      57.649  32.027  75.128  1.00  0.00    -0.000 C 
BRANCH  13  14
ATOM     14  C   UNL     1      58.063  30.596  75.511  1.00  0.00    -0.000 C 
BRANCH  14  15
ATOM     15  C   UNL     1      56.862  29.643  75.613  1.00  0.00    -0.003 C 
ATOM     16  C   UNL     1      55.950  29.704  74.387  1.00  0.00     0.004 C 
ENDBRANCH  14  15
ENDBRANCH  13  14
ENDBRANCH  12  13
ENDBRANCH  11  12
ENDBRANCH  10  11
ENDBRANCH   1  10
TORSDOF 12
ENDMDL
MODEL 7
REMARK VINA RESULT:    -3.888      2.080      5.426
REMARK INTER + INTRA:          -8.000
REMARK INTER:                  -6.798
REMARK INTRA:                  -1.203
REMARK UNBOUND:                -1.385
REMARK SMILES CCCCCCCCCCCCCC(=O)[O-]
REMARK SMILES IDX 8 1 9 2 10 3 11 4 12 5 13 6 14 7 15 8 16 9 7 10 6 11 5 12
REMARK SMILES IDX 4 13 3 14 2 15 1 16
REMARK H PARENT
REMARK Flexibility Score: inf
ROOT
ATOM      1  C   UNL     1      58.761  34.943  80.699  1.00  0.00     0.000 C 
ENDROOT
BRANCH   1   2
ATOM      2  C   UNL     1      58.601  36.373  80.152  1.00  0.00     0.000 C 
BRANCH   2   3
ATOM      3  C   UNL     1      59.489  36.648  78.927  1.00  0.00     0.000 C 
BRANCH   3   4
ATOM      4  C   UNL     1      58.679  36.899  77.642  1.00  0.00     0.000 C 
BRANCH   4   5
ATOM      5  C   UNL     1      57.246  37.416  77.861  1.00  0.00     0.006 C 
BRANCH   5   6
ATOM      6  C   UNL     1      56.172  36.430  77.383  1.00  0.00     0.053 C 
BRANCH   6   7
ATOM      7  C   UNL     1      56.166  36.346  75.889  1.00  0.00     0.041 C 
ATOM      8  O   UNL     1      56.172  35.225  75.317  1.00  0.00    -0.550 OA
ATOM      9  O   UNL     1      56.205  37.507  75.128  1.00  0.00    -0.550 OA
ENDBRANCH   6   7
ENDBRANCH   5   6
ENDBRANCH   4   5
ENDBRANCH   3   4
ENDBRANCH   2   3
ENDBRANCH   1   2
BRANCH   1  10
ATOM     10  C   UNL     1      59.074  33.866  79.641  1.00  0.00     0.000 C 
BRANCH  10  11
ATOM     11  C   UNL     1      57.857  33.362  78.841  1.00  0.00    -0.000 C 
BRANCH  11  12
ATOM     12  C   UNL     1      58.163  32.919  77.397  1.00  0.00    -0.000 C 
BRANCH  12  13
ATOM     13  C   UNL     1      58.409  31.410  77.214  1.00  0.00    -0.000 C 
BRANCH  13  14
ATOM     14  C   UNL     1      57.701  30.835  75.976  1.00  0.00    -0.000 C 
BRANCH  14  15
ATOM     15  C   UNL     1      58.393  29.575  75.434  1.00  0.00    -0.003 C 
ATOM     16  C   UNL     1      59.895  29.553  75.719  1.00  0.00     0.004 C 
ENDBRANCH  14  15
ENDBRANCH  13  14
ENDBRANCH  12  13
ENDBRANCH  11  12
ENDBRANCH  10  11
ENDBRANCH   1  10
TORSDOF 12
ENDMDL
MODEL 8
REMARK VINA RESULT:    -3.868      1.297      2.285
REMARK INTER + INTRA:          -7.967
REMARK INTER:                  -6.426
REMARK INTRA:                  -1.541
REMARK UNBOUND:                -1.385
REMARK SMILES CCCCCCCCCCCCCC(=O)[O-]
REMARK SMILES IDX 8 1 9 2 10 3 11 4 12 5 13 6 14 7 15 8 16 9 7 10 6 11 5 12
REMARK SMILES IDX 4 13 3 14 2 15 1 16
REMARK H PARENT
REMARK Flexibility Score: inf
ROOT
ATOM      1  C   UNL     1      57.775  36.180  79.804  1.00  0.00     0.000 C 
ENDROOT
BRANCH   1   2
ATOM      2  C   UNL     1      58.485  35.063  80.590  1.00  0.00     0.000 C 
BRANCH   2   3
ATOM      3  C   UNL     1      59.030  33.946  79.684  1.00  0.00     0.000 C 
BRANCH   3   4
ATOM      4  C   UNL     1      57.918  33.152  78.974  1.00  0.00     0.000 C 
BRANCH   4   5
ATOM      5  C   UNL     1      58.342  32.455  77.669  1.00  0.00     0.006 C 
BRANCH   5   6
ATOM      6  C   UNL     1      57.985  33.261  76.413  1.00  0.00     0.053 C 
BRANCH   6   7
ATOM      7  C   UNL     1      57.677  32.344  75.272  1.00  0.00     0.041 C 
ATOM      8  O   UNL     1      57.740  32.763  74.087  1.00  0.00    -0.550 OA
ATOM      9  O   UNL     1      57.272  31.038  75.520  1.00  0.00    -0.550 OA
ENDBRANCH   6   7
ENDBRANCH   5   6
ENDBRANCH   4   5
ENDBRANCH   3   4
ENDBRANCH   2   3
ENDBRANCH   1   2
BRANCH   1  10
ATOM     10  C   UNL     1      58.413  37.578  79.927  1.00  0.00     0.000 C 
BRANCH  10  11
ATOM     11  C   UNL     1      59.118  38.088  78.655  1.00  0.00    -0.000 C 
BRANCH  11  12
ATOM     12  C   UNL     1      59.641  36.986  77.712  1.00  0.00    -0.000 C 
BRANCH  12  13
ATOM     13  C   UNL     1      58.963  36.931  76.331  1.00  0.00    -0.000 C 
BRANCH  13  14
ATOM     14  C   UNL     1      57.911  38.036  76.137  1.00  0.00    -0.000 C 
BRANCH  14  15
ATOM     15  C   UNL     1      56.544  37.478  75.711  1.00  0.00    -0.003 C 
ATOM     16  C   UNL     1      56.095  36.291  76.564  1.00  0.00     0.004 C 
ENDBRANCH  14  15
ENDBRANCH  13  14
ENDBRANCH  12  13
ENDBRANCH  11  12
ENDBRANCH  10  11
ENDBRANCH   1  10
TORSDOF 12
ENDMDL
MODEL 9
REMARK VINA RESULT:    -3.842      1.250      2.852
REMARK INTER + INTRA:          -7.923
REMARK INTER:                  -6.424
REMARK INTRA:                  -1.499
REMARK UNBOUND:                -1.385
REMARK SMILES CCCCCCCCCCCCCC(=O)[O-]
REMARK SMILES IDX 8 1 9 2 10 3 11 4 12 5 13 6 14 7 15 8 16 9 7 10 6 11 5 12
REMARK SMILES IDX 4 13 3 14 2 15 1 16
REMARK H PARENT
REMARK Flexibility Score: inf
ROOT
ATOM      1  C   UNL     1      58.115  35.421  75.966  1.00  0.00     0.000 C 
ENDROOT
BRANCH   1   2
ATOM      2  C   UNL     1      57.556  34.000  76.167  1.00  0.00     0.000 C 
BRANCH   2   3
ATOM      3  C   UNL     1      57.974  33.378  77.510  1.00  0.00     0.000 C 
BRANCH   3   4
ATOM      4  C   UNL     1      58.513  31.943  77.365  1.00  0.00     0.000 C 
BRANCH   4   5
ATOM      5  C   UNL     1      58.457  31.363  75.941  1.00  0.00     0.006 C 
BRANCH   5   6
ATOM      6  C   UNL     1      57.469  30.196  75.805  1.00  0.00     0.053 C 
BRANCH   6   7
ATOM      7  C   UNL     1      56.604  30.381  74.599  1.00  0.00     0.041 C 
ATOM      8  O   UNL     1      55.702  29.545  74.331  1.00  0.00    -0.550 OA
ATOM      9  O   UNL     1      56.828  31.450  73.740  1.00  0.00    -0.550 OA
ENDBRANCH   6   7
ENDBRANCH   5   6
ENDBRANCH   4   5
ENDBRANCH   3   4
ENDBRANCH   2   3
ENDBRANCH   1   2
BRANCH   1  10
ATOM     10  C   UNL     1      57.066  36.550  76.002  1.00  0.00     0.000 C 
BRANCH  10  11
ATOM     11  C   UNL     1      56.090  36.498  77.193  1.00  0.00    -0.000 C 
BRANCH  11  12
ATOM     12  C   UNL     1      56.560  37.251  78.454  1.00  0.00    -0.000 C 
BRANCH  12  13
ATOM     13  C   UNL     1      57.239  36.376  79.523  1.00  0.00    -0.000 C 
BRANCH  13  14
ATOM     14  C   UNL     1      58.757  36.606  79.607  1.00  0.00    -0.000 C 
BRANCH  14  15
ATOM     15  C   UNL     1      59.192  37.913  78.928  1.00  0.00    -0.003 C 
ATOM     16  C   UNL     1      60.254  37.698  77.849  1.00  0.00     0.004 C 
ENDBRANCH  14  15
ENDBRANCH  13  14
ENDBRANCH  12  13
ENDBRANCH  11  12
ENDBRANCH  10  11
ENDBRANCH   1  10
TORSDOF 12
ENDMDL
