MODEL 1
REMARK VINA RESULT:    -3.138      0.000      0.000
REMARK INTER + INTRA:          -3.519
REMARK INTER:                  -3.504
REMARK INTRA:                  -0.014
REMARK UNBOUND:                -0.014
REMARK SMILES CCCC(=O)[O-]
REMARK SMILES IDX 3 1 4 2 5 3 6 4 2 5 1 6
REMARK H PARENT
REMARK Flexibility Score: inf
ROOT
ATOM      1  C   UNL     1      60.206  29.150  10.803  1.00  0.00     0.052 C 
ENDROOT
BRANCH   1   2
ATOM      2  C   UNL     1      61.348  28.516  10.069  1.00  0.00     0.041 C 
ATOM      3  O   UNL     1      62.521  28.611  10.518  1.00  0.00    -0.550 OA
ATOM      4  O   UNL     1      61.113  27.790   8.908  1.00  0.00    -0.550 OA
ENDBRANCH   1   2
BRANCH   1   5
ATOM      5  C   UNL     1      60.206  28.775  12.290  1.00  0.00     0.003 C 
ATOM      6  C   UNL     1      58.965  27.974  12.688  1.00  0.00     0.004 C 
ENDBRANCH   1   5
TORSDOF 2
ENDMDL
MODEL 2
REMARK VINA RESULT:    -3.053      1.773      2.281
REMARK INTER + INTRA:          -3.424
REMARK INTER:                  -3.365
REMARK INTRA:                  -0.059
REMARK UNBOUND:                -0.014
REMARK SMILES CCCC(=O)[O-]
REMARK SMILES IDX 3 1 4 2 5 3 6 4 2 5 1 6
REMARK H PARENT
REMARK Flexibility Score: inf
ROOT
ATOM      1  C   UNL     1      60.306  28.332  12.333  1.00  0.00     0.052 C 
ENDROOT
BRANCH   1   2
ATOM      2  C   UNL     1      60.496  28.923  10.969  1.00  0.00     0.041 C 
ATOM      3  O   UNL     1      60.080  30.084  10.718  1.00  0.00    -0.550 OA
ATOM      4  O   UNL     1      61.164  28.204   9.986  1.00  0.00    -0.550 OA
ENDBRANCH   1   2
BRANCH   1   5
ATOM      5  C   UNL     1      61.200  29.011  13.377  1.00  0.00     0.003 C 
ATOM      6  C   UNL     1      62.688  28.853  13.059  1.00  0.00     0.004 C 
ENDBRANCH   1   5
TORSDOF 2
ENDMDL
MODEL 3
REMARK VINA RESULT:    -3.045      2.298      3.199
REMARK INTER + INTRA:          -3.415
REMARK INTER:                  -3.405
REMARK INTRA:                  -0.010
REMARK UNBOUND:                -0.014
REMARK SMILES CCCC(=O)[O-]
REMARK SMILES IDX 3 1 4 2 5 3 6 4 2 5 1 6
REMARK H PARENT
REMARK Flexibility Score: inf
ROOT
ATOM      1  C   UNL     1      60.146  29.164  11.012  1.00  0.00     0.052 C 
ENDROOT
BRANCH   1   2
ATOM      2  C   UNL     1      59.913  28.543  12.355  1.00  0.00     0.041 C 
ATOM      3  O   UNL     1      60.809  28.590  13.239  1.00  0.00    -0.550 OA
ATOM      4  O   UNL     1      58.694  27.943  12.643  1.00  0.00    -0.550 OA
ENDBRANCH   1   2
BRANCH   1   5
ATOM      5  C   UNL     1      61.435  28.646  10.361  1.00  0.00     0.003 C 
ATOM      6  C   UNL     1      61.184  28.033   8.982  1.00  0.00     0.004 C 
ENDBRANCH   1   5
TORSDOF 2
ENDMDL
MODEL 4
REMARK VINA RESULT:    -3.024     15.521     16.579
REMARK INTER + INTRA:          -3.392
REMARK INTER:                  -3.333
REMARK INTRA:                  -0.059
REMARK UNBOUND:                -0.014
REMARK SMILES CCCC(=O)[O-]
REMARK SMILES IDX 3 1 4 2 5 3 6 4 2 5 1 6
REMARK H PARENT
REMARK Flexibility Score: inf
ROOT
ATOM      1  C   UNL     1      61.886  27.597  27.254  1.00  0.00     0.052 C 
ENDROOT
BRANCH   1   2
ATOM      2  C   UNL     1      61.532  28.874  27.953  1.00  0.00     0.041 C 
ATOM      3  O   UNL     1      62.147  29.938  27.680  1.00  0.00    -0.550 OA
ATOM      4  O   UNL     1      60.499  28.896  28.882  1.00  0.00    -0.550 OA
ENDBRANCH   1   2
BRANCH   1   5
ATOM      5  C   UNL     1      60.751  27.113  26.343  1.00  0.00     0.003 C 
ATOM      6  C   UNL     1      60.649  27.934  25.057  1.00  0.00     0.004 C 
ENDBRANCH   1   5
TORSDOF 2
ENDMDL
MODEL 5
REMARK VINA RESULT:    -3.006     14.709     15.686
REMARK INTER + INTRA:          -3.372
REMARK INTER:                  -3.355
REMARK INTRA:                  -0.018
REMARK UNBOUND:                -0.014
REMARK SMILES CCCC(=O)[O-]
REMARK SMILES IDX 3 1 4 2 5 3 6 4 2 5 1 6
REMARK H PARENT
REMARK Flexibility Score: inf
ROOT
ATOM      1  C   UNL     1      61.103  27.127  26.835  1.00  0.00     0.052 C 
ENDROOT
BRANCH   1   2
ATOM      2  C   UNL     1      60.342  27.266  25.552  1.00  0.00     0.041 C 
ATOM      3  O   UNL     1      60.661  28.154  24.718  1.00  0.00    -0.550 OA
ATOM      4  O   UNL     1      59.301  26.393  25.262  1.00  0.00    -0.550 OA
ENDBRANCH   1   2
BRANCH   1   5
ATOM      5  C   UNL     1      61.441  28.491  27.447  1.00  0.00     0.003 C 
ATOM      6  C   UNL     1      60.727  28.724  28.780  1.00  0.00     0.004 C 
ENDBRANCH   1   5
TORSDOF 2
ENDMDL
MODEL 6
REMARK VINA RESULT:    -2.995     15.416     16.488
REMARK INTER + INTRA:          -3.359
REMARK INTER:                  -3.304
REMARK INTRA:                  -0.055
REMARK UNBOUND:                -0.014
REMARK SMILES CCCC(=O)[O-]
REMARK SMILES IDX 3 1 4 2 5 3 6 4 2 5 1 6
REMARK H PARENT
REMARK Flexibility Score: inf
ROOT
ATOM      1  C   UNL     1      61.943  27.697  27.059  1.00  0.00     0.052 C 
ENDROOT
BRANCH   1   2
ATOM      2  C   UNL     1      61.564  28.909  27.853  1.00  0.00     0.041 C 
ATOM      3  O   UNL     1      60.593  28.865  28.654  1.00  0.00    -0.550 OA
ATOM      4  O   UNL     1      62.305  30.078  27.735  1.00  0.00    -0.550 OA
ENDBRANCH   1   2
BRANCH   1   5
ATOM      5  C   UNL     1      60.755  27.145  26.261  1.00  0.00     0.003 C 
ATOM      6  C   UNL     1      60.498  27.936  24.978  1.00  0.00     0.004 C 
ENDBRANCH   1   5
TORSDOF 2
ENDMDL
MODEL 7
REMARK VINA RESULT:    -2.899     16.858     17.558
REMARK INTER + INTRA:          -3.252
REMARK INTER:                  -3.243
REMARK INTRA:                  -0.008
REMARK UNBOUND:                -0.014
REMARK SMILES CCCC(=O)[O-]
REMARK SMILES IDX 3 1 4 2 5 3 6 4 2 5 1 6
REMARK H PARENT
REMARK Flexibility Score: inf
ROOT
ATOM      1  C   UNL     1      61.244  28.848  28.582  1.00  0.00     0.052 C 
ENDROOT
BRANCH   1   2
ATOM      2  C   UNL     1      61.400  27.406  28.206  1.00  0.00     0.041 C 
ATOM      3  O   UNL     1      61.885  26.585  29.028  1.00  0.00    -0.550 OA
ATOM      4  O   UNL     1      60.977  26.963  26.959  1.00  0.00    -0.550 OA
ENDBRANCH   1   2
BRANCH   1   5
ATOM      5  C   UNL     1      62.244  29.742  27.839  1.00  0.00     0.003 C 
ATOM      6  C   UNL     1      62.898  30.774  28.759  1.00  0.00     0.004 C 
ENDBRANCH   1   5
TORSDOF 2
ENDMDL
MODEL 8
REMARK VINA RESULT:    -2.889      2.211      3.648
REMARK INTER + INTRA:          -3.241
REMARK INTER:                  -3.218
REMARK INTRA:                  -0.023
REMARK UNBOUND:                -0.014
REMARK SMILES CCCC(=O)[O-]
REMARK SMILES IDX 3 1 4 2 5 3 6 4 2 5 1 6
REMARK H PARENT
REMARK Flexibility Score: inf
ROOT
ATOM      1  C   UNL     1      61.970  28.600  10.315  1.00  0.00     0.052 C 
ENDROOT
BRANCH   1   2
ATOM      2  C   UNL     1      60.604  29.218  10.348  1.00  0.00     0.041 C 
ATOM      3  O   UNL     1      60.297  30.121   9.526  1.00  0.00    -0.550 OA
ATOM      4  O   UNL     1      59.660  28.771  11.263  1.00  0.00    -0.550 OA
ENDBRANCH   1   2
BRANCH   1   5
ATOM      5  C   UNL     1      62.588  28.660   8.913  1.00  0.00     0.003 C 
ATOM      6  C   UNL     1      64.080  28.993   8.949  1.00  0.00     0.004 C 
ENDBRANCH   1   5
TORSDOF 2
ENDMDL
MODEL 9
REMARK VINA RESULT:    -2.861      1.735      2.195
REMARK INTER + INTRA:          -3.210
REMARK INTER:                  -3.172
REMARK INTRA:                  -0.038
REMARK UNBOUND:                -0.014
REMARK SMILES CCCC(=O)[O-]
REMARK SMILES IDX 3 1 4 2 5 3 6 4 2 5 1 6
REMARK H PARENT
REMARK Flexibility Score: inf
ROOT
ATOM      1  C   UNL     1      62.031  28.796  13.094  1.00  0.00     0.052 C 
ENDROOT
BRANCH   1   2
ATOM      2  C   UNL     1      62.962  29.106  11.962  1.00  0.00     0.041 C 
ATOM      3  O   UNL     1      64.074  29.652  12.187  1.00  0.00    -0.550 OA
ATOM      4  O   UNL     1      62.617  28.760  10.662  1.00  0.00    -0.550 OA
ENDBRANCH   1   2
BRANCH   1   5
ATOM      5  C   UNL     1      60.595  29.241  12.789  1.00  0.00     0.003 C 
ATOM      6  C   UNL     1      59.647  28.057  12.600  1.00  0.00     0.004 C 
ENDBRANCH   1   5
TORSDOF 2
ENDMDL
