MODEL 1
REMARK VINA RESULT:    -3.865      0.000      0.000
REMARK INTER + INTRA:          -4.220
REMARK INTER:                  -4.204
REMARK INTRA:                  -0.016
REMARK UNBOUND:                -0.016
REMARK SMILES OCc1ccco1
REMARK SMILES IDX 2 1 3 2 5 3 6 4 4 5 7 6 1 7
REMARK H PARENT 1 8
REMARK Flexibility Score: inf
ROOT
ATOM      1  C   UNL     1       1.897  -9.421   3.803  1.00  0.00     0.231 C 
ENDROOT
BRANCH   1   2
ATOM      2  C   UNL     1       3.173  -8.876   4.361  1.00  0.00     0.129 A 
ATOM      3  C   UNL     1       4.686  -8.049   5.721  1.00  0.00     0.042 A 
ATOM      4  C   UNL     1       5.171  -8.138   4.431  1.00  0.00     0.195 A 
ATOM      5  C   UNL     1       3.392  -8.523   5.676  1.00  0.00     0.048 A 
ATOM      6  O   UNL     1       4.244  -8.632   3.642  1.00  0.00    -0.467 OA
ENDBRANCH   1   2
BRANCH   1   7
ATOM      7  O   UNL     1       0.986  -9.666   4.838  1.00  0.00    -0.388 OA
ATOM      8  H   UNL     1       1.152 -10.594   5.149  1.00  0.00     0.211 HD
ENDBRANCH   1   7
TORSDOF 2
ENDMDL
MODEL 2
REMARK VINA RESULT:    -3.666      9.924     10.121
REMARK INTER + INTRA:          -4.004
REMARK INTER:                  -3.987
REMARK INTRA:                  -0.016
REMARK UNBOUND:                -0.016
REMARK SMILES OCc1ccco1
REMARK SMILES IDX 2 1 3 2 5 3 6 4 4 5 7 6 1 7
REMARK H PARENT 1 8
REMARK Flexibility Score: inf
ROOT
ATOM      1  C   UNL     1      11.989 -11.034  -0.383  1.00  0.00     0.231 C 
ENDROOT
BRANCH   1   2
ATOM      2  C   UNL     1      12.538  -9.787   0.234  1.00  0.00     0.129 A 
ATOM      3  C   UNL     1      13.608  -8.389   1.546  1.00  0.00     0.042 A 
ATOM      4  C   UNL     1      12.859  -7.713   0.604  1.00  0.00     0.195 A 
ATOM      5  C   UNL     1      13.398  -9.731   1.310  1.00  0.00     0.048 A 
ATOM      6  O   UNL     1      12.229  -8.574  -0.162  1.00  0.00    -0.467 OA
ENDBRANCH   1   2
BRANCH   1   7
ATOM      7  O   UNL     1      10.608 -11.113  -0.158  1.00  0.00    -0.388 OA
ATOM      8  H   UNL     1      10.166 -10.835  -1.002  1.00  0.00     0.211 HD
ENDBRANCH   1   7
TORSDOF 2
ENDMDL
MODEL 3
REMARK VINA RESULT:    -3.640      1.334      3.045
REMARK INTER + INTRA:          -3.976
REMARK INTER:                  -3.961
REMARK INTRA:                  -0.014
REMARK UNBOUND:                -0.016
REMARK SMILES OCc1ccco1
REMARK SMILES IDX 2 1 3 2 5 3 6 4 4 5 7 6 1 7
REMARK H PARENT 1 8
REMARK Flexibility Score: inf
ROOT
ATOM      1  C   UNL     1       5.443  -8.012   4.849  1.00  0.00     0.231 C 
ENDROOT
BRANCH   1   2
ATOM      2  C   UNL     1       4.064  -8.563   4.673  1.00  0.00     0.129 A 
ATOM      3  C   UNL     1       2.072  -9.399   5.064  1.00  0.00     0.042 A 
ATOM      4  C   UNL     1       2.317  -9.310   3.708  1.00  0.00     0.195 A 
ATOM      5  C   UNL     1       3.203  -8.920   5.689  1.00  0.00     0.048 A 
ATOM      6  O   UNL     1       3.515  -8.810   3.507  1.00  0.00    -0.467 OA
ENDBRANCH   1   2
BRANCH   1   7
ATOM      7  O   UNL     1       6.151  -8.779   5.784  1.00  0.00    -0.388 OA
ATOM      8  H   UNL     1       5.540  -8.924   6.553  1.00  0.00     0.211 HD
ENDBRANCH   1   7
TORSDOF 2
ENDMDL
MODEL 4
REMARK VINA RESULT:    -3.617      8.908      9.858
REMARK INTER + INTRA:          -3.950
REMARK INTER:                  -3.933
REMARK INTRA:                  -0.017
REMARK UNBOUND:                -0.016
REMARK SMILES OCc1ccco1
REMARK SMILES IDX 2 1 3 2 5 3 6 4 4 5 7 6 1 7
REMARK H PARENT 1 8
REMARK Flexibility Score: inf
ROOT
ATOM      1  C   UNL     1       6.227  -0.994   5.173  1.00  0.00     0.231 C 
ENDROOT
BRANCH   1   2
ATOM      2  C   UNL     1       7.131   0.014   4.538  1.00  0.00     0.129 A 
ATOM      3  C   UNL     1       8.873   1.259   4.049  1.00  0.00     0.042 A 
ATOM      4  C   UNL     1       7.775   1.617   3.290  1.00  0.00     0.195 A 
ATOM      5  C   UNL     1       8.456   0.224   4.859  1.00  0.00     0.048 A 
ATOM      6  O   UNL     1       6.751   0.859   3.608  1.00  0.00    -0.467 OA
ENDBRANCH   1   2
BRANCH   1   7
ATOM      7  O   UNL     1       5.520  -1.693   4.186  1.00  0.00    -0.388 OA
ATOM      8  H   UNL     1       5.897  -1.411   3.312  1.00  0.00     0.211 HD
ENDBRANCH   1   7
TORSDOF 2
ENDMDL
MODEL 5
REMARK VINA RESULT:    -3.501      2.054      2.794
REMARK INTER + INTRA:          -3.824
REMARK INTER:                  -3.806
REMARK INTRA:                  -0.019
REMARK UNBOUND:                -0.016
REMARK SMILES OCc1ccco1
REMARK SMILES IDX 2 1 3 2 5 3 6 4 4 5 7 6 1 7
REMARK H PARENT 1 8
REMARK Flexibility Score: inf
ROOT
ATOM      1  C   UNL     1       4.182  -8.607   4.350  1.00  0.00     0.231 C 
ENDROOT
BRANCH   1   2
ATOM      2  C   UNL     1       4.211  -7.821   5.622  1.00  0.00     0.129 A 
ATOM      3  C   UNL     1       3.659  -6.920   7.546  1.00  0.00     0.042 A 
ATOM      4  C   UNL     1       4.893  -6.467   7.120  1.00  0.00     0.195 A 
ATOM      5  C   UNL     1       3.216  -7.792   6.575  1.00  0.00     0.048 A 
ATOM      6  O   UNL     1       5.193  -7.020   5.968  1.00  0.00    -0.467 OA
ENDBRANCH   1   2
BRANCH   1   7
ATOM      7  O   UNL     1       4.549  -7.791   3.272  1.00  0.00    -0.388 OA
ATOM      8  H   UNL     1       5.112  -7.064   3.645  1.00  0.00     0.211 HD
ENDBRANCH   1   7
TORSDOF 2
ENDMDL
MODEL 6
REMARK VINA RESULT:    -3.469      1.426      1.732
REMARK INTER + INTRA:          -3.789
REMARK INTER:                  -3.776
REMARK INTRA:                  -0.013
REMARK UNBOUND:                -0.016
REMARK SMILES OCc1ccco1
REMARK SMILES IDX 2 1 3 2 5 3 6 4 4 5 7 6 1 7
REMARK H PARENT 1 8
REMARK Flexibility Score: inf
ROOT
ATOM      1  C   UNL     1       1.909  -9.488   3.702  1.00  0.00     0.231 C 
ENDROOT
BRANCH   1   2
ATOM      2  C   UNL     1       3.014  -8.903   4.523  1.00  0.00     0.129 A 
ATOM      3  C   UNL     1       4.952  -8.093   5.162  1.00  0.00     0.042 A 
ATOM      4  C   UNL     1       4.078  -8.192   6.227  1.00  0.00     0.195 A 
ATOM      5  C   UNL     1       4.266  -8.557   4.061  1.00  0.00     0.048 A 
ATOM      6  O   UNL     1       2.931  -8.681   5.815  1.00  0.00    -0.467 OA
ENDBRANCH   1   2
BRANCH   1   7
ATOM      7  O   UNL     1       1.601  -8.635   2.635  1.00  0.00    -0.388 OA
ATOM      8  H   UNL     1       2.462  -8.255   2.317  1.00  0.00     0.211 HD
ENDBRANCH   1   7
TORSDOF 2
ENDMDL
MODEL 7
REMARK VINA RESULT:    -3.403     17.167     17.695
REMARK INTER + INTRA:          -3.718
REMARK INTER:                  -3.702
REMARK INTRA:                  -0.015
REMARK UNBOUND:                -0.016
REMARK SMILES OCc1ccco1
REMARK SMILES IDX 2 1 3 2 5 3 6 4 4 5 7 6 1 7
REMARK H PARENT 1 8
REMARK Flexibility Score: inf
ROOT
ATOM      1  C   UNL     1       2.768   5.660  -6.587  1.00  0.00     0.231 C 
ENDROOT
BRANCH   1   2
ATOM      2  C   UNL     1       1.674   5.637  -5.568  1.00  0.00     0.129 A 
ATOM      3  C   UNL     1      -0.291   5.750  -4.594  1.00  0.00     0.042 A 
ATOM      4  C   UNL     1       0.711   5.531  -3.670  1.00  0.00     0.195 A 
ATOM      5  C   UNL     1       0.332   5.823  -5.822  1.00  0.00     0.048 A 
ATOM      6  O   UNL     1       1.872   5.471  -4.281  1.00  0.00    -0.467 OA
ENDBRANCH   1   2
BRANCH   1   7
ATOM      7  O   UNL     1       3.437   4.429  -6.600  1.00  0.00    -0.388 OA
ATOM      8  H   UNL     1       4.377   4.618  -6.858  1.00  0.00     0.211 HD
ENDBRANCH   1   7
TORSDOF 2
ENDMDL
MODEL 8
REMARK VINA RESULT:    -3.389      1.932      3.377
REMARK INTER + INTRA:          -3.702
REMARK INTER:                  -3.687
REMARK INTRA:                  -0.015
REMARK UNBOUND:                -0.016
REMARK SMILES OCc1ccco1
REMARK SMILES IDX 2 1 3 2 5 3 6 4 4 5 7 6 1 7
REMARK H PARENT 1 8
REMARK Flexibility Score: inf
ROOT
ATOM      1  C   UNL     1       4.996  -7.355   6.379  1.00  0.00     0.231 C 
ENDROOT
BRANCH   1   2
ATOM      2  C   UNL     1       4.018  -8.215   5.644  1.00  0.00     0.129 A 
ATOM      3  C   UNL     1       2.954  -9.302   4.060  1.00  0.00     0.042 A 
ATOM      4  C   UNL     1       2.309  -9.433   5.274  1.00  0.00     0.195 A 
ATOM      5  C   UNL     1       4.058  -8.512   4.298  1.00  0.00     0.048 A 
ATOM      6  O   UNL     1       2.966  -8.770   6.199  1.00  0.00    -0.467 OA
ENDBRANCH   1   2
BRANCH   1   7
ATOM      7  O   UNL     1       4.485  -6.057   6.515  1.00  0.00    -0.388 OA
ATOM      8  H   UNL     1       5.266  -5.444   6.530  1.00  0.00     0.211 HD
ENDBRANCH   1   7
TORSDOF 2
ENDMDL
MODEL 9
REMARK VINA RESULT:    -3.323     10.218     10.766
REMARK INTER + INTRA:          -3.630
REMARK INTER:                  -3.612
REMARK INTRA:                  -0.019
REMARK UNBOUND:                -0.016
REMARK SMILES OCc1ccco1
REMARK SMILES IDX 2 1 3 2 5 3 6 4 4 5 7 6 1 7
REMARK H PARENT 1 8
REMARK Flexibility Score: inf
ROOT
ATOM      1  C   UNL     1      -1.544 -10.662  -4.318  1.00  0.00     0.231 C 
ENDROOT
BRANCH   1   2
ATOM      2  C   UNL     1      -0.474 -11.571  -4.832  1.00  0.00     0.129 A 
ATOM      3  C   UNL     1       0.702 -12.923  -6.101  1.00  0.00     0.042 A 
ATOM      4  C   UNL     1       1.286 -12.772  -4.859  1.00  0.00     0.195 A 
ATOM      5  C   UNL     1      -0.439 -12.149  -6.083  1.00  0.00     0.048 A 
ATOM      6  O   UNL     1       0.560 -11.962  -4.123  1.00  0.00    -0.467 OA
ENDBRANCH   1   2
BRANCH   1   7
ATOM      7  O   UNL     1      -0.980  -9.663  -3.514  1.00  0.00    -0.388 OA
ATOM      8  H   UNL     1      -0.084  -9.990  -3.241  1.00  0.00     0.211 HD
ENDBRANCH   1   7
TORSDOF 2
ENDMDL
