MODEL 1
REMARK VINA RESULT:    -4.497      0.000      0.000
REMARK INTER + INTRA:          -8.672
REMARK INTER:                  -7.651
REMARK INTRA:                  -1.021
REMARK UNBOUND:                -1.021
REMARK SMILES CCCCCCCCCCCCCC(=O)[O-]
REMARK SMILES IDX 8 1 9 2 10 3 11 4 12 5 13 6 14 7 15 8 16 9 7 10 6 11 5 12
REMARK SMILES IDX 4 13 3 14 2 15 1 16
REMARK H PARENT
REMARK Flexibility Score: inf
ROOT
ATOM      1  C   UNL     1      16.729   1.399  40.925  1.00  0.00     0.000 C 
ENDROOT
BRANCH   1   2
ATOM      2  C   UNL     1      15.280   1.020  40.585  1.00  0.00     0.000 C 
BRANCH   2   3
ATOM      3  C   UNL     1      14.827  -0.274  41.278  1.00  0.00     0.000 C 
BRANCH   3   4
ATOM      4  C   UNL     1      13.309  -0.457  41.163  1.00  0.00     0.000 C 
BRANCH   4   5
ATOM      5  C   UNL     1      12.963  -1.611  40.215  1.00  0.00     0.006 C 
BRANCH   5   6
ATOM      6  C   UNL     1      14.030  -2.709  40.274  1.00  0.00     0.053 C 
BRANCH   6   7
ATOM      7  C   UNL     1      13.557  -3.937  39.561  1.00  0.00     0.041 C 
ATOM      8  O   UNL     1      14.387  -4.722  39.033  1.00  0.00    -0.550 OA
ATOM      9  O   UNL     1      12.197  -4.189  39.437  1.00  0.00    -0.550 OA
ENDBRANCH   6   7
ENDBRANCH   5   6
ENDBRANCH   4   5
ENDBRANCH   3   4
ENDBRANCH   2   3
ENDBRANCH   1   2
BRANCH   1  10
ATOM     10  C   UNL     1      17.124   2.780  40.378  1.00  0.00     0.000 C 
BRANCH  10  11
ATOM     11  C   UNL     1      16.979   3.860  41.460  1.00  0.00    -0.000 C 
BRANCH  11  12
ATOM     12  C   UNL     1      16.468   5.201  40.904  1.00  0.00    -0.000 C 
BRANCH  12  13
ATOM     13  C   UNL     1      14.934   5.334  40.821  1.00  0.00    -0.000 C 
BRANCH  13  14
ATOM     14  C   UNL     1      14.151   4.521  41.868  1.00  0.00    -0.000 C 
BRANCH  14  15
ATOM     15  C   UNL     1      12.640   4.495  41.594  1.00  0.00    -0.003 C 
ATOM     16  C   UNL     1      12.130   3.061  41.470  1.00  0.00     0.004 C 
ENDBRANCH  14  15
ENDBRANCH  13  14
ENDBRANCH  12  13
ENDBRANCH  11  12
ENDBRANCH  10  11
ENDBRANCH   1  10
TORSDOF 12
ENDMDL
MODEL 2
REMARK VINA RESULT:    -4.393      3.487      5.523
REMARK INTER + INTRA:          -8.495
REMARK INTER:                  -7.997
REMARK INTRA:                  -0.498
REMARK UNBOUND:                -1.021
REMARK SMILES CCCCCCCCCCCCCC(=O)[O-]
REMARK SMILES IDX 8 1 9 2 10 3 11 4 12 5 13 6 14 7 15 8 16 9 7 10 6 11 5 12
REMARK SMILES IDX 4 13 3 14 2 15 1 16
REMARK H PARENT
REMARK Flexibility Score: inf
ROOT
ATOM      1  C   UNL     1      13.096  -0.808  41.021  1.00  0.00     0.000 C 
ENDROOT
BRANCH   1   2
ATOM      2  C   UNL     1      11.734  -0.116  40.856  1.00  0.00     0.000 C 
BRANCH   2   3
ATOM      3  C   UNL     1      11.289  -0.025  39.388  1.00  0.00     0.000 C 
BRANCH   3   4
ATOM      4  C   UNL     1       9.875  -0.589  39.207  1.00  0.00     0.000 C 
BRANCH   4   5
ATOM      5  C   UNL     1       9.534  -1.590  40.318  1.00  0.00     0.006 C 
BRANCH   5   6
ATOM      6  C   UNL     1       8.034  -1.576  40.628  1.00  0.00     0.053 C 
BRANCH   6   7
ATOM      7  C   UNL     1       7.802  -1.294  42.080  1.00  0.00     0.041 C 
ATOM      8  O   UNL     1       6.875  -0.520  42.434  1.00  0.00    -0.550 OA
ATOM      9  O   UNL     1       8.641  -1.847  43.038  1.00  0.00    -0.550 OA
ENDBRANCH   6   7
ENDBRANCH   5   6
ENDBRANCH   4   5
ENDBRANCH   3   4
ENDBRANCH   2   3
ENDBRANCH   1   2
BRANCH   1  10
ATOM     10  C   UNL     1      14.188  -0.180  40.142  1.00  0.00     0.000 C 
BRANCH  10  11
ATOM     11  C   UNL     1      15.469   0.070  40.952  1.00  0.00    -0.000 C 
BRANCH  11  12
ATOM     12  C   UNL     1      15.833   1.562  41.050  1.00  0.00    -0.000 C 
BRANCH  12  13
ATOM     13  C   UNL     1      17.116   1.974  40.300  1.00  0.00    -0.000 C 
BRANCH  13  14
ATOM     14  C   UNL     1      18.232   2.556  41.186  1.00  0.00    -0.000 C 
BRANCH  14  15
ATOM     15  C   UNL     1      19.607   2.538  40.502  1.00  0.00    -0.003 C 
ATOM     16  C   UNL     1      20.672   3.170  41.393  1.00  0.00     0.004 C 
ENDBRANCH  14  15
ENDBRANCH  13  14
ENDBRANCH  12  13
ENDBRANCH  11  12
ENDBRANCH  10  11
ENDBRANCH   1  10
TORSDOF 12
ENDMDL
MODEL 3
REMARK VINA RESULT:    -4.390      2.140      2.679
REMARK INTER + INTRA:          -8.490
REMARK INTER:                  -7.515
REMARK INTRA:                  -0.975
REMARK UNBOUND:                -1.021
REMARK SMILES CCCCCCCCCCCCCC(=O)[O-]
REMARK SMILES IDX 8 1 9 2 10 3 11 4 12 5 13 6 14 7 15 8 16 9 7 10 6 11 5 12
REMARK SMILES IDX 4 13 3 14 2 15 1 16
REMARK H PARENT
REMARK Flexibility Score: inf
ROOT
ATOM      1  C   UNL     1      16.693   1.392  40.599  1.00  0.00     0.000 C 
ENDROOT
BRANCH   1   2
ATOM      2  C   UNL     1      15.292   0.893  40.983  1.00  0.00     0.000 C 
BRANCH   2   3
ATOM      3  C   UNL     1      15.182  -0.639  40.962  1.00  0.00     0.000 C 
BRANCH   3   4
ATOM      4  C   UNL     1      13.817  -1.099  41.489  1.00  0.00     0.000 C 
BRANCH   4   5
ATOM      5  C   UNL     1      12.675  -0.381  40.761  1.00  0.00     0.006 C 
BRANCH   5   6
ATOM      6  C   UNL     1      11.632   0.141  41.754  1.00  0.00     0.053 C 
BRANCH   6   7
ATOM      7  C   UNL     1      10.371  -0.660  41.658  1.00  0.00     0.041 C 
ATOM      8  O   UNL     1      10.064  -1.231  40.579  1.00  0.00    -0.550 OA
ATOM      9  O   UNL     1       9.512  -0.736  42.747  1.00  0.00    -0.550 OA
ENDBRANCH   6   7
ENDBRANCH   5   6
ENDBRANCH   4   5
ENDBRANCH   3   4
ENDBRANCH   2   3
ENDBRANCH   1   2
BRANCH   1  10
ATOM     10  C   UNL     1      17.181   2.537  41.500  1.00  0.00     0.000 C 
BRANCH  10  11
ATOM     11  C   UNL     1      17.317   3.843  40.702  1.00  0.00    -0.000 C 
BRANCH  11  12
ATOM     12  C   UNL     1      16.032   4.690  40.717  1.00  0.00    -0.000 C 
BRANCH  12  13
ATOM     13  C   UNL     1      15.390   4.882  42.107  1.00  0.00    -0.000 C 
BRANCH  13  14
ATOM     14  C   UNL     1      13.934   5.382  42.089  1.00  0.00    -0.000 C 
BRANCH  14  15
ATOM     15  C   UNL     1      13.025   4.536  41.186  1.00  0.00    -0.003 C 
ATOM     16  C   UNL     1      11.866   3.938  41.980  1.00  0.00     0.004 C 
ENDBRANCH  14  15
ENDBRANCH  13  14
ENDBRANCH  12  13
ENDBRANCH  11  12
ENDBRANCH  10  11
ENDBRANCH   1  10
TORSDOF 12
ENDMDL
MODEL 4
REMARK VINA RESULT:    -4.362      2.660      3.814
REMARK INTER + INTRA:          -8.442
REMARK INTER:                  -7.696
REMARK INTRA:                  -0.746
REMARK UNBOUND:                -1.021
REMARK SMILES CCCCCCCCCCCCCC(=O)[O-]
REMARK SMILES IDX 8 1 9 2 10 3 11 4 12 5 13 6 14 7 15 8 16 9 7 10 6 11 5 12
REMARK SMILES IDX 4 13 3 14 2 15 1 16
REMARK H PARENT
REMARK Flexibility Score: inf
ROOT
ATOM      1  C   UNL     1      15.240  -0.340  40.987  1.00  0.00     0.000 C 
ENDROOT
BRANCH   1   2
ATOM      2  C   UNL     1      14.008  -0.853  40.225  1.00  0.00     0.000 C 
BRANCH   2   3
ATOM      3  C   UNL     1      12.692  -0.555  40.958  1.00  0.00     0.000 C 
BRANCH   3   4
ATOM      4  C   UNL     1      11.523  -0.455  39.969  1.00  0.00     0.000 C 
BRANCH   4   5
ATOM      5  C   UNL     1      10.254   0.052  40.664  1.00  0.00     0.006 C 
BRANCH   5   6
ATOM      6  C   UNL     1      10.121  -0.544  42.069  1.00  0.00     0.053 C 
BRANCH   6   7
ATOM      7  C   UNL     1       8.870  -1.358  42.175  1.00  0.00     0.041 C 
ATOM      8  O   UNL     1       8.601  -1.970  43.242  1.00  0.00    -0.550 OA
ATOM      9  O   UNL     1       8.024  -1.480  41.080  1.00  0.00    -0.550 OA
ENDBRANCH   6   7
ENDBRANCH   5   6
ENDBRANCH   4   5
ENDBRANCH   3   4
ENDBRANCH   2   3
ENDBRANCH   1   2
BRANCH   1  10
ATOM     10  C   UNL     1      15.364   1.190  40.949  1.00  0.00     0.000 C 
BRANCH  10  11
ATOM     11  C   UNL     1      16.811   1.616  40.658  1.00  0.00    -0.000 C 
BRANCH  11  12
ATOM     12  C   UNL     1      17.460   2.372  41.831  1.00  0.00    -0.000 C 
BRANCH  12  13
ATOM     13  C   UNL     1      17.570   3.899  41.646  1.00  0.00    -0.000 C 
BRANCH  13  14
ATOM     14  C   UNL     1      16.739   4.478  40.487  1.00  0.00    -0.000 C 
BRANCH  14  15
ATOM     15  C   UNL     1      15.640   5.438  40.964  1.00  0.00    -0.003 C 
ATOM     16  C   UNL     1      14.337   4.690  41.233  1.00  0.00     0.004 C 
ENDBRANCH  14  15
ENDBRANCH  13  14
ENDBRANCH  12  13
ENDBRANCH  11  12
ENDBRANCH  10  11
ENDBRANCH   1  10
TORSDOF 12
ENDMDL
MODEL 5
REMARK VINA RESULT:    -4.273      3.520      6.433
REMARK INTER + INTRA:          -8.292
REMARK INTER:                  -7.310
REMARK INTRA:                  -0.982
REMARK UNBOUND:                -1.021
REMARK SMILES CCCCCCCCCCCCCC(=O)[O-]
REMARK SMILES IDX 8 1 9 2 10 3 11 4 12 5 13 6 14 7 15 8 16 9 7 10 6 11 5 12
REMARK SMILES IDX 4 13 3 14 2 15 1 16
REMARK H PARENT
REMARK Flexibility Score: inf
ROOT
ATOM      1  C   UNL     1      12.814   4.548  40.740  1.00  0.00     0.000 C 
ENDROOT
BRANCH   1   2
ATOM      2  C   UNL     1      13.985   5.464  41.126  1.00  0.00     0.000 C 
BRANCH   2   3
ATOM      3  C   UNL     1      15.175   4.689  41.711  1.00  0.00     0.000 C 
BRANCH   3   4
ATOM      4  C   UNL     1      16.354   4.671  40.731  1.00  0.00     0.000 C 
BRANCH   4   5
ATOM      5  C   UNL     1      16.756   3.234  40.378  1.00  0.00     0.006 C 
BRANCH   5   6
ATOM      6  C   UNL     1      17.745   2.673  41.404  1.00  0.00     0.053 C 
BRANCH   6   7
ATOM      7  C   UNL     1      19.135   2.679  40.848  1.00  0.00     0.041 C 
ATOM      8  O   UNL     1      19.402   2.029  39.804  1.00  0.00    -0.550 OA
ATOM      9  O   UNL     1      20.146   3.362  41.512  1.00  0.00    -0.550 OA
ENDBRANCH   6   7
ENDBRANCH   5   6
ENDBRANCH   4   5
ENDBRANCH   3   4
ENDBRANCH   2   3
ENDBRANCH   1   2
BRANCH   1  10
ATOM     10  C   UNL     1      11.699   4.536  41.796  1.00  0.00     0.000 C 
BRANCH  10  11
ATOM     11  C   UNL     1      11.448   3.111  42.313  1.00  0.00    -0.000 C 
BRANCH  11  12
ATOM     12  C   UNL     1      12.192   2.039  41.497  1.00  0.00    -0.000 C 
BRANCH  12  13
ATOM     13  C   UNL     1      11.685   0.596  41.697  1.00  0.00    -0.000 C 
BRANCH  13  14
ATOM     14  C   UNL     1      12.745  -0.502  41.492  1.00  0.00    -0.000 C 
BRANCH  14  15
ATOM     15  C   UNL     1      13.789  -0.130  40.430  1.00  0.00    -0.003 C 
ATOM     16  C   UNL     1      15.198  -0.139  41.019  1.00  0.00     0.004 C 
ENDBRANCH  14  15
ENDBRANCH  13  14
ENDBRANCH  12  13
ENDBRANCH  11  12
ENDBRANCH  10  11
ENDBRANCH   1  10
TORSDOF 12
ENDMDL
MODEL 6
REMARK VINA RESULT:    -4.256      5.041      7.950
REMARK INTER + INTRA:          -8.262
REMARK INTER:                  -7.352
REMARK INTRA:                  -0.910
REMARK UNBOUND:                -1.021
REMARK SMILES CCCCCCCCCCCCCC(=O)[O-]
REMARK SMILES IDX 8 1 9 2 10 3 11 4 12 5 13 6 14 7 15 8 16 9 7 10 6 11 5 12
REMARK SMILES IDX 4 13 3 14 2 15 1 16
REMARK H PARENT
REMARK Flexibility Score: inf
ROOT
ATOM      1  C   UNL     1      17.335   3.634  40.300  1.00  0.00     0.000 C 
ENDROOT
BRANCH   1   2
ATOM      2  C   UNL     1      16.642   4.927  40.760  1.00  0.00     0.000 C 
BRANCH   2   3
ATOM      3  C   UNL     1      15.138   4.737  41.005  1.00  0.00     0.000 C 
BRANCH   3   4
ATOM      4  C   UNL     1      14.754   5.175  42.424  1.00  0.00     0.000 C 
BRANCH   4   5
ATOM      5  C   UNL     1      15.909   5.920  43.103  1.00  0.00     0.006 C 
BRANCH   5   6
ATOM      6  C   UNL     1      15.509   7.358  43.445  1.00  0.00     0.053 C 
BRANCH   6   7
ATOM      7  C   UNL     1      15.832   8.277  42.308  1.00  0.00     0.041 C 
ATOM      8  O   UNL     1      14.919   8.937  41.748  1.00  0.00    -0.550 OA
ATOM      9  O   UNL     1      17.135   8.366  41.836  1.00  0.00    -0.550 OA
ENDBRANCH   6   7
ENDBRANCH   5   6
ENDBRANCH   4   5
ENDBRANCH   3   4
ENDBRANCH   2   3
ENDBRANCH   1   2
BRANCH   1  10
ATOM     10  C   UNL     1      17.168   2.484  41.304  1.00  0.00     0.000 C 
BRANCH  10  11
ATOM     11  C   UNL     1      16.586   1.238  40.620  1.00  0.00    -0.000 C 
BRANCH  11  12
ATOM     12  C   UNL     1      15.106   1.000  40.968  1.00  0.00    -0.000 C 
BRANCH  12  13
ATOM     13  C   UNL     1      14.686  -0.481  41.064  1.00  0.00    -0.000 C 
BRANCH  13  14
ATOM     14  C   UNL     1      14.004  -1.049  39.806  1.00  0.00    -0.000 C 
BRANCH  14  15
ATOM     15  C   UNL     1      13.172  -2.306  40.097  1.00  0.00    -0.003 C 
ATOM     16  C   UNL     1      13.957  -3.573  39.767  1.00  0.00     0.004 C 
ENDBRANCH  14  15
ENDBRANCH  13  14
ENDBRANCH  12  13
ENDBRANCH  11  12
ENDBRANCH  10  11
ENDBRANCH   1  10
TORSDOF 12
ENDMDL
MODEL 7
REMARK VINA RESULT:    -4.254      4.030      6.584
REMARK INTER + INTRA:          -8.258
REMARK INTER:                  -7.533
REMARK INTRA:                  -0.725
REMARK UNBOUND:                -1.021
REMARK SMILES CCCCCCCCCCCCCC(=O)[O-]
REMARK SMILES IDX 8 1 9 2 10 3 11 4 12 5 13 6 14 7 15 8 16 9 7 10 6 11 5 12
REMARK SMILES IDX 4 13 3 14 2 15 1 16
REMARK H PARENT
REMARK Flexibility Score: inf
ROOT
ATOM      1  C   UNL     1      15.215   0.821  40.963  1.00  0.00     0.000 C 
ENDROOT
BRANCH   1   2
ATOM      2  C   UNL     1      16.621   1.322  40.602  1.00  0.00     0.000 C 
BRANCH   2   3
ATOM      3  C   UNL     1      17.038   2.556  41.416  1.00  0.00     0.000 C 
BRANCH   3   4
ATOM      4  C   UNL     1      17.343   3.744  40.495  1.00  0.00     0.000 C 
BRANCH   4   5
ATOM      5  C   UNL     1      16.541   4.983  40.909  1.00  0.00     0.006 C 
BRANCH   5   6
ATOM      6  C   UNL     1      15.039   4.686  40.922  1.00  0.00     0.053 C 
BRANCH   6   7
ATOM      7  C   UNL     1      14.412   5.210  42.176  1.00  0.00     0.041 C 
ATOM      8  O   UNL     1      13.181   5.469  42.208  1.00  0.00    -0.550 OA
ATOM      9  O   UNL     1      15.197   5.458  43.294  1.00  0.00    -0.550 OA
ENDBRANCH   6   7
ENDBRANCH   5   6
ENDBRANCH   4   5
ENDBRANCH   3   4
ENDBRANCH   2   3
ENDBRANCH   1   2
BRANCH   1  10
ATOM     10  C   UNL     1      15.133  -0.711  41.040  1.00  0.00     0.000 C 
BRANCH  10  11
ATOM     11  C   UNL     1      14.019  -1.248  40.128  1.00  0.00    -0.000 C 
BRANCH  11  12
ATOM     12  C   UNL     1      12.763  -0.359  40.130  1.00  0.00    -0.000 C 
BRANCH  12  13
ATOM     13  C   UNL     1      12.010  -0.292  41.475  1.00  0.00    -0.000 C 
BRANCH  13  14
ATOM     14  C   UNL     1      11.199   0.996  41.705  1.00  0.00    -0.000 C 
BRANCH  14  15
ATOM     15  C   UNL     1       9.774   0.721  42.208  1.00  0.00    -0.003 C 
ATOM     16  C   UNL     1       9.565  -0.768  42.474  1.00  0.00     0.004 C 
ENDBRANCH  14  15
ENDBRANCH  13  14
ENDBRANCH  12  13
ENDBRANCH  11  12
ENDBRANCH  10  11
ENDBRANCH   1  10
TORSDOF 12
ENDMDL
MODEL 8
REMARK VINA RESULT:    -4.219      0.871      3.139
REMARK INTER + INTRA:          -8.199
REMARK INTER:                  -7.302
REMARK INTRA:                  -0.897
REMARK UNBOUND:                -1.021
REMARK SMILES CCCCCCCCCCCCCC(=O)[O-]
REMARK SMILES IDX 8 1 9 2 10 3 11 4 12 5 13 6 14 7 15 8 16 9 7 10 6 11 5 12
REMARK SMILES IDX 4 13 3 14 2 15 1 16
REMARK H PARENT
REMARK Flexibility Score: inf
ROOT
ATOM      1  C   UNL     1      11.480   3.278  40.659  1.00  0.00     0.000 C 
ENDROOT
BRANCH   1   2
ATOM      2  C   UNL     1      11.231   1.812  41.045  1.00  0.00     0.000 C 
BRANCH   2   3
ATOM      3  C   UNL     1      12.534   1.035  41.291  1.00  0.00     0.000 C 
BRANCH   3   4
ATOM      4  C   UNL     1      12.342  -0.460  41.013  1.00  0.00     0.000 C 
BRANCH   4   5
ATOM      5  C   UNL     1      13.358  -0.964  39.981  1.00  0.00     0.006 C 
BRANCH   5   6
ATOM      6  C   UNL     1      14.053  -2.238  40.470  1.00  0.00     0.053 C 
BRANCH   6   7
ATOM      7  C   UNL     1      13.511  -3.437  39.758  1.00  0.00     0.041 C 
ATOM      8  O   UNL     1      14.290  -4.337  39.349  1.00  0.00    -0.550 OA
ATOM      9  O   UNL     1      12.149  -3.538  39.503  1.00  0.00    -0.550 OA
ENDBRANCH   6   7
ENDBRANCH   5   6
ENDBRANCH   4   5
ENDBRANCH   3   4
ENDBRANCH   2   3
ENDBRANCH   1   2
BRANCH   1  10
ATOM     10  C   UNL     1      12.382   4.010  41.664  1.00  0.00     0.000 C 
BRANCH  10  11
ATOM     11  C   UNL     1      13.463   4.825  40.939  1.00  0.00    -0.000 C 
BRANCH  11  12
ATOM     12  C   UNL     1      14.796   4.870  41.708  1.00  0.00    -0.000 C 
BRANCH  12  13
ATOM     13  C   UNL     1      16.062   4.822  40.828  1.00  0.00    -0.000 C 
BRANCH  13  14
ATOM     14  C   UNL     1      17.096   3.755  41.230  1.00  0.00    -0.000 C 
BRANCH  14  15
ATOM     15  C   UNL     1      17.112   2.553  40.275  1.00  0.00    -0.003 C 
ATOM     16  C   UNL     1      16.235   1.420  40.803  1.00  0.00     0.004 C 
ENDBRANCH  14  15
ENDBRANCH  13  14
ENDBRANCH  12  13
ENDBRANCH  11  12
ENDBRANCH  10  11
ENDBRANCH   1  10
TORSDOF 12
ENDMDL
MODEL 9
REMARK VINA RESULT:    -4.171      3.795      5.855
REMARK INTER + INTRA:          -8.118
REMARK INTER:                  -7.126
REMARK INTRA:                  -0.992
REMARK UNBOUND:                -1.021
REMARK SMILES CCCCCCCCCCCCCC(=O)[O-]
REMARK SMILES IDX 8 1 9 2 10 3 11 4 12 5 13 6 14 7 15 8 16 9 7 10 6 11 5 12
REMARK SMILES IDX 4 13 3 14 2 15 1 16
REMARK H PARENT
REMARK Flexibility Score: inf
ROOT
ATOM      1  C   UNL     1      13.227  -0.647  39.880  1.00  0.00     0.000 C 
ENDROOT
BRANCH   1   2
ATOM      2  C   UNL     1      11.727  -0.416  40.117  1.00  0.00     0.000 C 
BRANCH   2   3
ATOM      3  C   UNL     1      11.396  -0.139  41.592  1.00  0.00     0.000 C 
BRANCH   3   4
ATOM      4  C   UNL     1      10.812   1.268  41.769  1.00  0.00     0.000 C 
BRANCH   4   5
ATOM      5  C   UNL     1      11.863   2.343  41.469  1.00  0.00     0.006 C 
BRANCH   5   6
ATOM      6  C   UNL     1      11.255   3.746  41.556  1.00  0.00     0.053 C 
BRANCH   6   7
ATOM      7  C   UNL     1      10.717   3.998  42.930  1.00  0.00     0.041 C 
ATOM      8  O   UNL     1       9.496   4.256  43.094  1.00  0.00    -0.550 OA
ATOM      9  O   UNL     1      11.573   3.997  44.023  1.00  0.00    -0.550 OA
ENDBRANCH   6   7
ENDBRANCH   5   6
ENDBRANCH   4   5
ENDBRANCH   3   4
ENDBRANCH   2   3
ENDBRANCH   1   2
BRANCH   1  10
ATOM     10  C   UNL     1      14.016  -0.804  41.189  1.00  0.00     0.000 C 
BRANCH  10  11
ATOM     11  C   UNL     1      15.468  -0.336  41.014  1.00  0.00    -0.000 C 
BRANCH  11  12
ATOM     12  C   UNL     1      15.604   1.197  40.980  1.00  0.00    -0.000 C 
BRANCH  12  13
ATOM     13  C   UNL     1      17.012   1.723  40.635  1.00  0.00    -0.000 C 
BRANCH  13  14
ATOM     14  C   UNL     1      17.623   2.683  41.672  1.00  0.00    -0.000 C 
BRANCH  14  15
ATOM     15  C   UNL     1      16.742   3.913  41.936  1.00  0.00    -0.003 C 
ATOM     16  C   UNL     1      16.558   4.739  40.665  1.00  0.00     0.004 C 
ENDBRANCH  14  15
ENDBRANCH  13  14
ENDBRANCH  12  13
ENDBRANCH  11  12
ENDBRANCH  10  11
ENDBRANCH   1  10
TORSDOF 12
ENDMDL
