MODEL 1
REMARK VINA RESULT:    -3.338      0.000      0.000
REMARK INTER + INTRA:          -5.610
REMARK INTER:                  -5.094
REMARK INTRA:                  -0.516
REMARK UNBOUND:                -0.516
REMARK SMILES O=C([O-])CCCCCCCCC(=O)[O-]
REMARK SMILES IDX 7 1 6 2 5 3 4 4 2 5 1 6 3 7 8 8 9 9 10 10 11 11 12 12 13 13
REMARK SMILES IDX 14 14
REMARK H PARENT
REMARK Flexibility Score: inf
ROOT
ATOM      1  C   UNL     1     -13.168   9.642   7.697  1.00  0.00     0.000 C 
ENDROOT
BRANCH   1   2
ATOM      2  C   UNL     1     -14.608   9.210   8.041  1.00  0.00     0.000 C 
BRANCH   2   3
ATOM      3  C   UNL     1     -15.021   9.417   9.512  1.00  0.00     0.006 C 
BRANCH   3   4
ATOM      4  C   UNL     1     -13.841   9.559  10.488  1.00  0.00     0.053 C 
BRANCH   4   5
ATOM      5  C   UNL     1     -14.193  10.405  11.672  1.00  0.00     0.041 C 
ATOM      6  O   UNL     1     -15.366  10.842  11.812  1.00  0.00    -0.550 OA
ATOM      7  O   UNL     1     -13.218  10.739  12.604  1.00  0.00    -0.550 OA
ENDBRANCH   4   5
ENDBRANCH   3   4
ENDBRANCH   2   3
ENDBRANCH   1   2
BRANCH   1   8
ATOM      8  C   UNL     1     -12.650   9.157   6.331  1.00  0.00     0.000 C 
BRANCH   8   9
ATOM      9  C   UNL     1     -12.018  10.282   5.499  1.00  0.00     0.000 C 
BRANCH   9  10
ATOM     10  C   UNL     1     -12.755  10.458   4.165  1.00  0.00     0.006 C 
BRANCH  10  11
ATOM     11  C   UNL     1     -14.140   9.805   4.212  1.00  0.00     0.053 C 
BRANCH  11  12
ATOM     12  C   UNL     1     -15.208  10.849   4.307  1.00  0.00     0.041 C 
ATOM     13  O   UNL     1     -15.058  11.841   5.068  1.00  0.00    -0.550 OA
ATOM     14  O   UNL     1     -16.346  10.753   3.519  1.00  0.00    -0.550 OA
ENDBRANCH  11  12
ENDBRANCH  10  11
ENDBRANCH   9  10
ENDBRANCH   8   9
ENDBRANCH   1   8
TORSDOF 9
ENDMDL
MODEL 2
REMARK VINA RESULT:    -3.312      2.475      3.409
REMARK INTER + INTRA:          -5.571
REMARK INTER:                  -4.676
REMARK INTRA:                  -0.895
REMARK UNBOUND:                -0.516
REMARK SMILES O=C([O-])CCCCCCCCC(=O)[O-]
REMARK SMILES IDX 7 1 6 2 5 3 4 4 2 5 1 6 3 7 8 8 9 9 10 10 11 11 12 12 13 13
REMARK SMILES IDX 14 14
REMARK H PARENT
REMARK Flexibility Score: inf
ROOT
ATOM      1  C   UNL     1     -15.086  11.402   4.716  1.00  0.00     0.000 C 
ENDROOT
BRANCH   1   2
ATOM      2  C   UNL     1     -15.443  11.492   6.214  1.00  0.00     0.000 C 
BRANCH   2   3
ATOM      3  C   UNL     1     -16.454  10.440   6.712  1.00  0.00     0.006 C 
BRANCH   3   4
ATOM      4  C   UNL     1     -15.844   9.348   7.606  1.00  0.00     0.053 C 
BRANCH   4   5
ATOM      5  C   UNL     1     -15.595   9.838   8.998  1.00  0.00     0.041 C 
ATOM      6  O   UNL     1     -16.469  10.520   9.595  1.00  0.00    -0.550 OA
ATOM      7  O   UNL     1     -14.383   9.573   9.625  1.00  0.00    -0.550 OA
ENDBRANCH   4   5
ENDBRANCH   3   4
ENDBRANCH   2   3
ENDBRANCH   1   2
BRANCH   1   8
ATOM      8  C   UNL     1     -15.549  10.114   4.012  1.00  0.00     0.000 C 
BRANCH   8   9
ATOM      9  C   UNL     1     -14.415   9.093   3.831  1.00  0.00     0.000 C 
BRANCH   9  10
ATOM     10  C   UNL     1     -13.068   9.799   3.633  1.00  0.00     0.006 C 
BRANCH  10  11
ATOM     11  C   UNL     1     -12.033   9.303   4.647  1.00  0.00     0.053 C 
BRANCH  11  12
ATOM     12  C   UNL     1     -11.995  10.206   5.840  1.00  0.00     0.041 C 
ATOM     13  O   UNL     1     -12.340   9.776   6.971  1.00  0.00    -0.550 OA
ATOM     14  O   UNL     1     -11.531  11.508   5.711  1.00  0.00    -0.550 OA
ENDBRANCH  11  12
ENDBRANCH  10  11
ENDBRANCH   9  10
ENDBRANCH   8   9
ENDBRANCH   1   8
TORSDOF 9
ENDMDL
MODEL 3
REMARK VINA RESULT:    -3.235      0.506      6.257
REMARK INTER + INTRA:          -5.453
REMARK INTER:                  -4.796
REMARK INTRA:                  -0.658
REMARK UNBOUND:                -0.516
REMARK SMILES O=C([O-])CCCCCCCCC(=O)[O-]
REMARK SMILES IDX 7 1 6 2 5 3 4 4 2 5 1 6 3 7 8 8 9 9 10 10 11 11 12 12 13 13
REMARK SMILES IDX 14 14
REMARK H PARENT
REMARK Flexibility Score: inf
ROOT
ATOM      1  C   UNL     1     -12.656  10.064   6.817  1.00  0.00     0.000 C 
ENDROOT
BRANCH   1   2
ATOM      2  C   UNL     1     -12.200   9.586   5.423  1.00  0.00     0.000 C 
BRANCH   2   3
ATOM      3  C   UNL     1     -12.869  10.303   4.234  1.00  0.00     0.006 C 
BRANCH   3   4
ATOM      4  C   UNL     1     -14.244   9.736   3.843  1.00  0.00     0.053 C 
BRANCH   4   5
ATOM      5  C   UNL     1     -15.363  10.627   4.287  1.00  0.00     0.041 C 
ATOM      6  O   UNL     1     -16.559  10.296   4.072  1.00  0.00    -0.550 OA
ATOM      7  O   UNL     1     -15.085  11.838   4.908  1.00  0.00    -0.550 OA
ENDBRANCH   4   5
ENDBRANCH   3   4
ENDBRANCH   2   3
ENDBRANCH   1   2
BRANCH   1   8
ATOM      8  C   UNL     1     -13.581   9.091   7.570  1.00  0.00     0.000 C 
BRANCH   8   9
ATOM      9  C   UNL     1     -14.930   9.720   7.946  1.00  0.00     0.000 C 
BRANCH   9  10
ATOM     10  C   UNL     1     -15.280   9.434   9.411  1.00  0.00     0.006 C 
BRANCH  10  11
ATOM     11  C   UNL     1     -14.030   9.491  10.295  1.00  0.00     0.053 C 
BRANCH  11  12
ATOM     12  C   UNL     1     -14.267  10.373  11.481  1.00  0.00     0.041 C 
ATOM     13  O   UNL     1     -15.428  10.785  11.741  1.00  0.00    -0.550 OA
ATOM     14  O   UNL     1     -13.215  10.699  12.326  1.00  0.00    -0.550 OA
ENDBRANCH  11  12
ENDBRANCH  10  11
ENDBRANCH   9  10
ENDBRANCH   8   9
ENDBRANCH   1   8
TORSDOF 9
ENDMDL
MODEL 4
REMARK VINA RESULT:    -3.227      2.487      3.803
REMARK INTER + INTRA:          -5.440
REMARK INTER:                  -5.157
REMARK INTRA:                  -0.283
REMARK UNBOUND:                -0.516
REMARK SMILES O=C([O-])CCCCCCCCC(=O)[O-]
REMARK SMILES IDX 7 1 6 2 5 3 4 4 2 5 1 6 3 7 8 8 9 9 10 10 11 11 12 12 13 13
REMARK SMILES IDX 14 14
REMARK H PARENT
REMARK Flexibility Score: inf
ROOT
ATOM      1  C   UNL     1     -14.375   9.690  11.045  1.00  0.00     0.000 C 
ENDROOT
BRANCH   1   2
ATOM      2  C   UNL     1     -13.672  10.442  12.194  1.00  0.00     0.000 C 
BRANCH   2   3
ATOM      3  C   UNL     1     -14.566  11.422  12.980  1.00  0.00     0.006 C 
BRANCH   3   4
ATOM      4  C   UNL     1     -16.050  11.021  13.036  1.00  0.00     0.053 C 
BRANCH   4   5
ATOM      5  C   UNL     1     -16.931  12.045  12.392  1.00  0.00     0.041 C 
ATOM      6  O   UNL     1     -17.686  11.720  11.437  1.00  0.00    -0.550 OA
ATOM      7  O   UNL     1     -16.895  13.365  12.822  1.00  0.00    -0.550 OA
ENDBRANCH   4   5
ENDBRANCH   3   4
ENDBRANCH   2   3
ENDBRANCH   1   2
BRANCH   1   8
ATOM      8  C   UNL     1     -13.452   9.247   9.896  1.00  0.00     0.000 C 
BRANCH   8   9
ATOM      9  C   UNL     1     -14.099   9.414   8.513  1.00  0.00     0.000 C 
BRANCH   9  10
ATOM     10  C   UNL     1     -13.043   9.351   7.402  1.00  0.00     0.006 C 
BRANCH  10  11
ATOM     11  C   UNL     1     -13.279  10.446   6.357  1.00  0.00     0.053 C 
BRANCH  11  12
ATOM     12  C   UNL     1     -12.050  10.654   5.529  1.00  0.00     0.041 C 
ATOM     13  O   UNL     1     -11.657   9.753   4.742  1.00  0.00    -0.550 OA
ATOM     14  O   UNL     1     -11.367  11.861   5.591  1.00  0.00    -0.550 OA
ENDBRANCH  11  12
ENDBRANCH  10  11
ENDBRANCH   9  10
ENDBRANCH   8   9
ENDBRANCH   1   8
TORSDOF 9
ENDMDL
MODEL 5
REMARK VINA RESULT:    -3.213     13.136     14.476
REMARK INTER + INTRA:          -5.419
REMARK INTER:                  -4.717
REMARK INTRA:                  -0.701
REMARK UNBOUND:                -0.516
REMARK SMILES O=C([O-])CCCCCCCCC(=O)[O-]
REMARK SMILES IDX 7 1 6 2 5 3 4 4 2 5 1 6 3 7 8 8 9 9 10 10 11 11 12 12 13 13
REMARK SMILES IDX 14 14
REMARK H PARENT
REMARK Flexibility Score: inf
ROOT
ATOM      1  C   UNL     1      -1.492  14.663  10.676  1.00  0.00     0.000 C 
ENDROOT
BRANCH   1   2
ATOM      2  C   UNL     1      -0.890  16.080  10.783  1.00  0.00     0.000 C 
BRANCH   2   3
ATOM      3  C   UNL     1      -0.203  16.401  12.125  1.00  0.00     0.006 C 
BRANCH   3   4
ATOM      4  C   UNL     1      -0.664  17.715  12.776  1.00  0.00     0.053 C 
BRANCH   4   5
ATOM      5  C   UNL     1      -2.112  17.675  13.153  1.00  0.00     0.041 C 
ATOM      6  O   UNL     1      -2.544  16.769  13.914  1.00  0.00    -0.550 OA
ATOM      7  O   UNL     1      -2.994  18.617  12.637  1.00  0.00    -0.550 OA
ENDBRANCH   4   5
ENDBRANCH   3   4
ENDBRANCH   2   3
ENDBRANCH   1   2
BRANCH   1   8
ATOM      8  C   UNL     1      -1.526  13.868  11.993  1.00  0.00     0.000 C 
BRANCH   8   9
ATOM      9  C   UNL     1      -1.857  12.383  11.785  1.00  0.00     0.000 C 
BRANCH   9  10
ATOM     10  C   UNL     1      -2.333  12.123  10.351  1.00  0.00     0.006 C 
BRANCH  10  11
ATOM     11  C   UNL     1      -1.530  10.990   9.703  1.00  0.00     0.053 C 
BRANCH  11  12
ATOM     12  C   UNL     1      -0.473  11.546   8.802  1.00  0.00     0.041 C 
ATOM     13  O   UNL     1       0.621  11.947   9.281  1.00  0.00    -0.550 OA
ATOM     14  O   UNL     1      -0.675  11.578   7.429  1.00  0.00    -0.550 OA
ENDBRANCH  11  12
ENDBRANCH  10  11
ENDBRANCH   9  10
ENDBRANCH   8   9
ENDBRANCH   1   8
TORSDOF 9
ENDMDL
MODEL 6
REMARK VINA RESULT:    -3.200      2.026      2.698
REMARK INTER + INTRA:          -5.400
REMARK INTER:                  -4.728
REMARK INTRA:                  -0.671
REMARK UNBOUND:                -0.516
REMARK SMILES O=C([O-])CCCCCCCCC(=O)[O-]
REMARK SMILES IDX 7 1 6 2 5 3 4 4 2 5 1 6 3 7 8 8 9 9 10 10 11 11 12 12 13 13
REMARK SMILES IDX 14 14
REMARK H PARENT
REMARK Flexibility Score: inf
ROOT
ATOM      1  C   UNL     1     -15.481   9.753   6.805  1.00  0.00     0.000 C 
ENDROOT
BRANCH   1   2
ATOM      2  C   UNL     1     -14.740   9.610   8.150  1.00  0.00     0.000 C 
BRANCH   2   3
ATOM      3  C   UNL     1     -15.620   9.181   9.341  1.00  0.00     0.006 C 
BRANCH   3   4
ATOM      4  C   UNL     1     -16.132  10.346  10.204  1.00  0.00     0.053 C 
BRANCH   4   5
ATOM      5  C   UNL     1     -15.375  10.465  11.490  1.00  0.00     0.041 C 
ATOM      6  O   UNL     1     -15.983  10.723  12.562  1.00  0.00    -0.550 OA
ATOM      7  O   UNL     1     -13.992  10.325  11.500  1.00  0.00    -0.550 OA
ENDBRANCH   4   5
ENDBRANCH   3   4
ENDBRANCH   2   3
ENDBRANCH   1   2
BRANCH   1   8
ATOM      8  C   UNL     1     -15.616  11.195   6.285  1.00  0.00     0.000 C 
BRANCH   8   9
ATOM      9  C   UNL     1     -14.992  11.389   4.895  1.00  0.00     0.000 C 
BRANCH   9  10
ATOM     10  C   UNL     1     -14.329  10.095   4.406  1.00  0.00     0.006 C 
BRANCH  10  11
ATOM     11  C   UNL     1     -12.854  10.328   4.066  1.00  0.00     0.053 C 
BRANCH  11  12
ATOM     12  C   UNL     1     -12.051  10.511   5.315  1.00  0.00     0.041 C 
ATOM     13  O   UNL     1     -11.906   9.554   6.120  1.00  0.00    -0.550 OA
ATOM     14  O   UNL     1     -11.421  11.722   5.566  1.00  0.00    -0.550 OA
ENDBRANCH  11  12
ENDBRANCH  10  11
ENDBRANCH   9  10
ENDBRANCH   8   9
ENDBRANCH   1   8
TORSDOF 9
ENDMDL
MODEL 7
REMARK VINA RESULT:    -3.146      1.972      6.452
REMARK INTER + INTRA:          -5.317
REMARK INTER:                  -4.711
REMARK INTRA:                  -0.606
REMARK UNBOUND:                -0.516
REMARK SMILES O=C([O-])CCCCCCCCC(=O)[O-]
REMARK SMILES IDX 7 1 6 2 5 3 4 4 2 5 1 6 3 7 8 8 9 9 10 10 11 11 12 12 13 13
REMARK SMILES IDX 14 14
REMARK H PARENT
REMARK Flexibility Score: inf
ROOT
ATOM      1  C   UNL     1     -15.907  10.757   7.218  1.00  0.00     0.000 C 
ENDROOT
BRANCH   1   2
ATOM      2  C   UNL     1     -14.916   9.628   6.864  1.00  0.00     0.000 C 
BRANCH   2   3
ATOM      3  C   UNL     1     -13.453   9.888   7.274  1.00  0.00     0.006 C 
BRANCH   3   4
ATOM      4  C   UNL     1     -12.411   9.301   6.307  1.00  0.00     0.053 C 
BRANCH   4   5
ATOM      5  C   UNL     1     -12.036  10.272   5.231  1.00  0.00     0.041 C 
ATOM      6  O   UNL     1     -12.089   9.927   4.021  1.00  0.00    -0.550 OA
ATOM      7  O   UNL     1     -11.595  11.546   5.564  1.00  0.00    -0.550 OA
ENDBRANCH   4   5
ENDBRANCH   3   4
ENDBRANCH   2   3
ENDBRANCH   1   2
BRANCH   1   8
ATOM      8  C   UNL     1     -17.026  10.359   8.197  1.00  0.00     0.000 C 
BRANCH   8   9
ATOM      9  C   UNL     1     -16.523   9.478   9.351  1.00  0.00     0.000 C 
BRANCH   9  10
ATOM     10  C   UNL     1     -16.096  10.335  10.549  1.00  0.00     0.006 C 
BRANCH  10  11
ATOM     11  C   UNL     1     -14.662  10.006  10.977  1.00  0.00     0.053 C 
BRANCH  11  12
ATOM     12  C   UNL     1     -14.306  10.745  12.229  1.00  0.00     0.041 C 
ATOM     13  O   UNL     1     -13.109  10.801  12.612  1.00  0.00    -0.550 OA
ATOM     14  O   UNL     1     -15.290  11.412  12.945  1.00  0.00    -0.550 OA
ENDBRANCH  11  12
ENDBRANCH  10  11
ENDBRANCH   9  10
ENDBRANCH   8   9
ENDBRANCH   1   8
TORSDOF 9
ENDMDL
MODEL 8
REMARK VINA RESULT:    -3.127      2.124      6.558
REMARK INTER + INTRA:          -5.289
REMARK INTER:                  -4.907
REMARK INTRA:                  -0.382
REMARK UNBOUND:                -0.516
REMARK SMILES O=C([O-])CCCCCCCCC(=O)[O-]
REMARK SMILES IDX 7 1 6 2 5 3 4 4 2 5 1 6 3 7 8 8 9 9 10 10 11 11 12 12 13 13
REMARK SMILES IDX 14 14
REMARK H PARENT
REMARK Flexibility Score: inf
ROOT
ATOM      1  C   UNL     1     -13.499   9.154   8.969  1.00  0.00     0.000 C 
ENDROOT
BRANCH   1   2
ATOM      2  C   UNL     1     -14.479   9.278   7.785  1.00  0.00     0.000 C 
BRANCH   2   3
ATOM      3  C   UNL     1     -13.819   9.433   6.400  1.00  0.00     0.006 C 
BRANCH   3   4
ATOM      4  C   UNL     1     -12.360   9.917   6.444  1.00  0.00     0.053 C 
BRANCH   4   5
ATOM      5  C   UNL     1     -12.054  10.874   5.335  1.00  0.00     0.041 C 
ATOM      6  O   UNL     1     -12.493  10.659   4.174  1.00  0.00    -0.550 OA
ATOM      7  O   UNL     1     -11.256  11.986   5.573  1.00  0.00    -0.550 OA
ENDBRANCH   4   5
ENDBRANCH   3   4
ENDBRANCH   2   3
ENDBRANCH   1   2
BRANCH   1   8
ATOM      8  C   UNL     1     -14.056   9.613  10.328  1.00  0.00     0.000 C 
BRANCH   8   9
ATOM      9  C   UNL     1     -15.560   9.340  10.479  1.00  0.00     0.000 C 
BRANCH   9  10
ATOM     10  C   UNL     1     -16.358  10.650  10.477  1.00  0.00     0.006 C 
BRANCH  10  11
ATOM     11  C   UNL     1     -17.115  10.834  11.797  1.00  0.00     0.053 C 
BRANCH  11  12
ATOM     12  C   UNL     1     -16.519  11.953  12.591  1.00  0.00     0.041 C 
ATOM     13  O   UNL     1     -15.451  11.775  13.233  1.00  0.00    -0.550 OA
ATOM     14  O   UNL     1     -17.116  13.206  12.583  1.00  0.00    -0.550 OA
ENDBRANCH  11  12
ENDBRANCH  10  11
ENDBRANCH   9  10
ENDBRANCH   8   9
ENDBRANCH   1   8
TORSDOF 9
ENDMDL
