MODEL 1
REMARK VINA RESULT:    -8.067      0.000      0.000
REMARK INTER + INTRA:         -11.243
REMARK INTER:                 -11.132
REMARK INTRA:                  -0.111
REMARK UNBOUND:                -0.111
REMARK SMILES O=C([O-])[C@H]1O[C@H](Oc2cc3oc(-c4ccccc4)cc(=O)c3c(O)c2O)[C@@H](O)[C@@H](O)[C@@H]1O
REMARK SMILES IDX 7 1 6 2 4 3 31 4 5 5 29 6 27 7 2 8 1 9 3 10 32 11 30 13
REMARK SMILES IDX 28 15 8 17 25 18 9 19 23 20 10 21 22 22 11 23 20 24 12 25
REMARK SMILES IDX 19 26 21 27 26 28 24 30 13 32 14 33 18 34 15 35 17 36 16 37
REMARK H PARENT 32 12 30 14 28 16 26 29 24 31
REMARK Flexibility Score: inf
ROOT
ATOM      1  O   UNL     1      -1.822  -2.162   9.858  1.00  0.00    -0.458 OA
ENDROOT
BRANCH   1   2
ATOM      2  C   UNL     1      -0.938  -1.127  10.301  1.00  0.00     0.339 C 
ATOM      3  C   UNL     1      -1.488   0.288   8.503  1.00  0.00     0.199 C 
ATOM      4  C   UNL     1      -2.229   1.297   9.410  1.00  0.00     0.180 C 
ATOM      5  O   UNL     1      -0.442  -0.360   9.211  1.00  0.00    -0.328 OA
ATOM      6  C   UNL     1      -2.770   0.572  10.649  1.00  0.00     0.181 C 
ATOM      7  C   UNL     1      -1.644  -0.230  11.331  1.00  0.00     0.214 C 
BRANCH   3   8
ATOM      8  C   UNL     1      -0.887   0.996   7.326  1.00  0.00     0.073 C 
ATOM      9  O   UNL     1       0.342   0.880   7.076  1.00  0.00    -0.547 OA
ATOM     10  O   UNL     1      -1.689   1.759   6.486  1.00  0.00    -0.547 OA
ENDBRANCH   3   8
BRANCH   4  11
ATOM     11  O   UNL     1      -3.306   1.875   8.715  1.00  0.00    -0.387 OA
ATOM     12  H   UNL     1      -4.042   1.209   8.712  1.00  0.00     0.211 HD
ENDBRANCH   4  11
BRANCH   6  13
ATOM     13  O   UNL     1      -3.317   1.510  11.540  1.00  0.00    -0.387 OA
ATOM     14  H   UNL     1      -4.037   1.985  11.048  1.00  0.00     0.211 HD
ENDBRANCH   6  13
BRANCH   7  15
ATOM     15  O   UNL     1      -0.701   0.638  11.907  1.00  0.00    -0.384 OA
ATOM     16  H   UNL     1      -0.336   0.180  12.708  1.00  0.00     0.211 HD
ENDBRANCH   7  15
ENDBRANCH   1   2
BRANCH   1  17
ATOM     17  C   UNL     1      -3.165  -2.357  10.236  1.00  0.00     0.172 A 
ATOM     18  C   UNL     1      -4.280  -1.995   9.441  1.00  0.00     0.201 A 
ATOM     19  C   UNL     1      -3.373  -2.955  11.481  1.00  0.00     0.098 A 
ATOM     20  C   UNL     1      -5.595  -2.189   9.943  1.00  0.00     0.176 A 
ATOM     21  C   UNL     1      -4.656  -3.185  11.965  1.00  0.00     0.146 A 
ATOM     22  C   UNL     1      -5.782  -2.803  11.206  1.00  0.00     0.111 A 
ATOM     23  O   UNL     1      -4.802  -3.762  13.154  1.00  0.00    -0.456 OA
ATOM     24  C   UNL     1      -7.057  -3.051  11.764  1.00  0.00     0.197 A 
ATOM     25  C   UNL     1      -5.987  -4.020  13.702  1.00  0.00     0.138 A 
ATOM     26  C   UNL     1      -7.156  -3.660  13.016  1.00  0.00     0.100 A 
ATOM     27  O   UNL     1      -8.115  -2.733  11.158  1.00  0.00    -0.289 OA
BRANCH  18  28
ATOM     28  O   UNL     1      -4.068  -1.480   8.161  1.00  0.00    -0.502 OA
ATOM     29  H   UNL     1      -4.580  -1.757   7.337  1.00  0.00     0.293 HD
ENDBRANCH  18  28
BRANCH  20  30
ATOM     30  O   UNL     1      -6.718  -1.772   9.219  1.00  0.00    -0.504 OA
ATOM     31  H   UNL     1      -6.856  -0.839   8.862  1.00  0.00     0.293 HD
ENDBRANCH  20  30
BRANCH  25  32
ATOM     32  C   UNL     1      -6.029  -4.670  15.037  1.00  0.00     0.017 A 
ATOM     33  C   UNL     1      -5.499  -5.964  15.195  1.00  0.00     0.012 A 
ATOM     34  C   UNL     1      -6.617  -4.036  16.151  1.00  0.00     0.012 A 
ATOM     35  C   UNL     1      -5.535  -6.599  16.441  1.00  0.00     0.001 A 
ATOM     36  C   UNL     1      -6.651  -4.677  17.393  1.00  0.00     0.001 A 
ATOM     37  C   UNL     1      -6.108  -5.956  17.539  1.00  0.00     0.000 A 
ENDBRANCH  25  32
ENDBRANCH   1  17
TORSDOF 9
ENDMDL
MODEL 2
REMARK VINA RESULT:    -8.032      1.717      2.788
REMARK INTER + INTRA:         -11.194
REMARK INTER:                 -12.382
REMARK INTRA:                   1.188
REMARK UNBOUND:                -0.111
REMARK SMILES O=C([O-])[C@H]1O[C@H](Oc2cc3oc(-c4ccccc4)cc(=O)c3c(O)c2O)[C@@H](O)[C@@H](O)[C@@H]1O
REMARK SMILES IDX 7 1 6 2 4 3 31 4 5 5 29 6 27 7 2 8 1 9 3 10 32 11 30 13
REMARK SMILES IDX 28 15 8 17 25 18 9 19 23 20 10 21 22 22 11 23 20 24 12 25
REMARK SMILES IDX 19 26 21 27 26 28 24 30 13 32 14 33 18 34 15 35 17 36 16 37
REMARK H PARENT 32 12 30 14 28 16 26 29 24 31
REMARK Flexibility Score: inf
ROOT
ATOM      1  O   UNL     1      -1.476  -2.236  10.476  1.00  0.00    -0.458 OA
ENDROOT
BRANCH   1   2
ATOM      2  C   UNL     1      -0.594  -1.217  10.960  1.00  0.00     0.339 C 
ATOM      3  C   UNL     1      -2.352   0.037  11.895  1.00  0.00     0.199 C 
ATOM      4  C   UNL     1      -1.909  -0.260  13.346  1.00  0.00     0.180 C 
ATOM      5  O   UNL     1      -1.238   0.049  11.015  1.00  0.00    -0.328 OA
ATOM      6  C   UNL     1      -1.158  -1.597  13.390  1.00  0.00     0.181 C 
ATOM      7  C   UNL     1      -0.033  -1.612  12.336  1.00  0.00     0.214 C 
BRANCH   3   8
ATOM      8  C   UNL     1      -3.019   1.378  11.823  1.00  0.00     0.073 C 
ATOM      9  O   UNL     1      -4.265   1.476  11.975  1.00  0.00    -0.547 OA
ATOM     10  O   UNL     1      -2.260   2.525  11.621  1.00  0.00    -0.547 OA
ENDBRANCH   3   8
BRANCH   4  11
ATOM     11  O   UNL     1      -3.030  -0.340  14.190  1.00  0.00    -0.387 OA
ATOM     12  H   UNL     1      -2.899  -1.132  14.774  1.00  0.00     0.211 HD
ENDBRANCH   4  11
BRANCH   6  13
ATOM     13  O   UNL     1      -0.632  -1.798  14.676  1.00  0.00    -0.387 OA
ATOM     14  H   UNL     1      -0.209  -2.697  14.675  1.00  0.00     0.211 HD
ENDBRANCH   6  13
BRANCH   7  15
ATOM     15  O   UNL     1       0.985  -0.710  12.692  1.00  0.00    -0.384 OA
ATOM     16  H   UNL     1       0.576   0.194  12.717  1.00  0.00     0.211 HD
ENDBRANCH   7  15
ENDBRANCH   1   2
BRANCH   1  17
ATOM     17  C   UNL     1      -2.850  -2.377  10.751  1.00  0.00     0.172 A 
ATOM     18  C   UNL     1      -3.886  -1.901   9.910  1.00  0.00     0.201 A 
ATOM     19  C   UNL     1      -3.176  -3.039  11.936  1.00  0.00     0.098 A 
ATOM     20  C   UNL     1      -5.242  -2.050  10.310  1.00  0.00     0.176 A 
ATOM     21  C   UNL     1      -4.501  -3.224  12.318  1.00  0.00     0.146 A 
ATOM     22  C   UNL     1      -5.549  -2.730  11.514  1.00  0.00     0.111 A 
ATOM     23  O   UNL     1      -4.759  -3.866  13.454  1.00  0.00    -0.456 OA
ATOM     24  C   UNL     1      -6.870  -2.939  11.969  1.00  0.00     0.197 A 
ATOM     25  C   UNL     1      -5.991  -4.090  13.904  1.00  0.00     0.138 A 
ATOM     26  C   UNL     1      -7.089  -3.620  13.168  1.00  0.00     0.100 A 
ATOM     27  O   UNL     1      -7.866  -2.522  11.317  1.00  0.00    -0.289 OA
BRANCH  18  28
ATOM     28  O   UNL     1      -3.558  -1.319   8.684  1.00  0.00    -0.502 OA
ATOM     29  H   UNL     1      -3.096  -0.429   8.575  1.00  0.00     0.293 HD
ENDBRANCH  18  28
BRANCH  20  30
ATOM     30  O   UNL     1      -6.288  -1.524   9.543  1.00  0.00    -0.504 OA
ATOM     31  H   UNL     1      -7.111  -1.081   9.924  1.00  0.00     0.293 HD
ENDBRANCH  20  30
BRANCH  25  32
ATOM     32  C   UNL     1      -6.161  -4.819  15.187  1.00  0.00     0.017 A 
ATOM     33  C   UNL     1      -6.884  -4.218  16.234  1.00  0.00     0.012 A 
ATOM     34  C   UNL     1      -5.588  -6.090  15.398  1.00  0.00     0.012 A 
ATOM     35  C   UNL     1      -7.049  -4.881  17.455  1.00  0.00     0.001 A 
ATOM     36  C   UNL     1      -5.757  -6.747  16.621  1.00  0.00     0.001 A 
ATOM     37  C   UNL     1      -6.490  -6.145  17.647  1.00  0.00     0.000 A 
ENDBRANCH  25  32
ENDBRANCH   1  17
TORSDOF 9
ENDMDL
MODEL 3
REMARK VINA RESULT:    -7.980      1.946      3.980
REMARK INTER + INTRA:         -11.123
REMARK INTER:                 -12.368
REMARK INTRA:                   1.245
REMARK UNBOUND:                -0.111
REMARK SMILES O=C([O-])[C@H]1O[C@H](Oc2cc3oc(-c4ccccc4)cc(=O)c3c(O)c2O)[C@@H](O)[C@@H](O)[C@@H]1O
REMARK SMILES IDX 7 1 6 2 4 3 31 4 5 5 29 6 27 7 2 8 1 9 3 10 32 11 30 13
REMARK SMILES IDX 28 15 8 17 25 18 9 19 23 20 10 21 22 22 11 23 20 24 12 25
REMARK SMILES IDX 19 26 21 27 26 28 24 30 13 32 14 33 18 34 15 35 17 36 16 37
REMARK H PARENT 32 12 30 14 28 16 26 29 24 31
REMARK Flexibility Score: inf
ROOT
ATOM      1  O   UNL     1      -5.752  -0.801   9.115  1.00  0.00    -0.458 OA
ENDROOT
BRANCH   1   2
ATOM      2  C   UNL     1      -4.936  -1.351   8.075  1.00  0.00     0.339 C 
ATOM      3  C   UNL     1      -3.118  -1.718   9.522  1.00  0.00     0.199 C 
ATOM      4  C   UNL     1      -3.265  -3.255   9.459  1.00  0.00     0.180 C 
ATOM      5  O   UNL     1      -3.555  -1.114   8.314  1.00  0.00    -0.328 OA
ATOM      6  C   UNL     1      -4.725  -3.619   9.159  1.00  0.00     0.181 C 
ATOM      7  C   UNL     1      -5.221  -2.853   7.916  1.00  0.00     0.214 C 
BRANCH   3   8
ATOM      8  C   UNL     1      -1.682  -1.345   9.738  1.00  0.00     0.073 C 
ATOM      9  O   UNL     1      -1.234  -1.190  10.905  1.00  0.00    -0.547 OA
ATOM     10  O   UNL     1      -0.828  -1.200   8.651  1.00  0.00    -0.547 OA
ENDBRANCH   3   8
BRANCH   4  11
ATOM     11  O   UNL     1      -2.897  -3.830  10.688  1.00  0.00    -0.387 OA
ATOM     12  H   UNL     1      -2.969  -3.117  11.376  1.00  0.00     0.211 HD
ENDBRANCH   4  11
BRANCH   6  13
ATOM     13  O   UNL     1      -4.832  -5.005   8.959  1.00  0.00    -0.387 OA
ATOM     14  H   UNL     1      -5.026  -5.141   7.995  1.00  0.00     0.211 HD
ENDBRANCH   6  13
BRANCH   7  15
ATOM     15  O   UNL     1      -4.574  -3.323   6.759  1.00  0.00    -0.384 OA
ATOM     16  H   UNL     1      -3.935  -2.617   6.478  1.00  0.00     0.211 HD
ENDBRANCH   7  15
ENDBRANCH   1   2
BRANCH   1  17
ATOM     17  C   UNL     1      -5.504  -0.832  10.501  1.00  0.00     0.172 A 
ATOM     18  C   UNL     1      -4.896   0.222  11.227  1.00  0.00     0.201 A 
ATOM     19  C   UNL     1      -5.902  -1.989  11.172  1.00  0.00     0.098 A 
ATOM     20  C   UNL     1      -4.644   0.065  12.617  1.00  0.00     0.176 A 
ATOM     21  C   UNL     1      -5.694  -2.138  12.540  1.00  0.00     0.146 A 
ATOM     22  C   UNL     1      -5.061  -1.116  13.278  1.00  0.00     0.111 A 
ATOM     23  O   UNL     1      -6.096  -3.258  13.134  1.00  0.00    -0.456 OA
ATOM     24  C   UNL     1      -4.867  -1.338  14.660  1.00  0.00     0.197 A 
ATOM     25  C   UNL     1      -5.940  -3.492  14.434  1.00  0.00     0.138 A 
ATOM     26  C   UNL     1      -5.308  -2.531  15.236  1.00  0.00     0.100 A 
ATOM     27  O   UNL     1      -4.302  -0.483  15.393  1.00  0.00    -0.289 OA
BRANCH  18  28
ATOM     28  O   UNL     1      -4.582   1.413  10.570  1.00  0.00    -0.502 OA
ATOM     29  H   UNL     1      -4.437   1.499   9.575  1.00  0.00     0.293 HD
ENDBRANCH  18  28
BRANCH  20  30
ATOM     30  O   UNL     1      -3.975   1.052  13.351  1.00  0.00    -0.504 OA
ATOM     31  H   UNL     1      -3.694   1.948  12.982  1.00  0.00     0.293 HD
ENDBRANCH  20  30
BRANCH  25  32
ATOM     32  C   UNL     1      -6.428  -4.780  14.990  1.00  0.00     0.017 A 
ATOM     33  C   UNL     1      -5.517  -5.657  15.607  1.00  0.00     0.012 A 
ATOM     34  C   UNL     1      -7.781  -5.166  14.889  1.00  0.00     0.012 A 
ATOM     35  C   UNL     1      -5.952  -6.880  16.130  1.00  0.00     0.001 A 
ATOM     36  C   UNL     1      -8.208  -6.390  15.413  1.00  0.00     0.001 A 
ATOM     37  C   UNL     1      -7.296  -7.244  16.036  1.00  0.00     0.000 A 
ENDBRANCH  25  32
ENDBRANCH   1  17
TORSDOF 9
ENDMDL
MODEL 4
REMARK VINA RESULT:    -7.936      1.823      2.935
REMARK INTER + INTRA:         -11.063
REMARK INTER:                 -10.976
REMARK INTRA:                  -0.087
REMARK UNBOUND:                -0.111
REMARK SMILES O=C([O-])[C@H]1O[C@H](Oc2cc3oc(-c4ccccc4)cc(=O)c3c(O)c2O)[C@@H](O)[C@@H](O)[C@@H]1O
REMARK SMILES IDX 7 1 6 2 4 3 31 4 5 5 29 6 27 7 2 8 1 9 3 10 32 11 30 13
REMARK SMILES IDX 28 15 8 17 25 18 9 19 23 20 10 21 22 22 11 23 20 24 12 25
REMARK SMILES IDX 19 26 21 27 26 28 24 30 13 32 14 33 18 34 15 35 17 36 16 37
REMARK H PARENT 32 12 30 14 28 16 26 29 24 31
REMARK Flexibility Score: inf
ROOT
ATOM      1  O   UNL     1      -4.582  -1.052   9.336  1.00  0.00    -0.458 OA
ENDROOT
BRANCH   1   2
ATOM      2  C   UNL     1      -3.443  -1.519   8.606  1.00  0.00     0.339 C 
ATOM      3  C   UNL     1      -2.612   0.655   8.264  1.00  0.00     0.199 C 
ATOM      4  C   UNL     1      -1.405   0.436   9.205  1.00  0.00     0.180 C 
ATOM      5  O   UNL     1      -3.006  -0.562   7.650  1.00  0.00    -0.328 OA
ATOM      6  C   UNL     1      -1.760  -0.623  10.257  1.00  0.00     0.181 C 
ATOM      7  C   UNL     1      -2.308  -1.891   9.574  1.00  0.00     0.214 C 
BRANCH   3   8
ATOM      8  C   UNL     1      -2.253   1.630   7.183  1.00  0.00     0.073 C 
ATOM      9  O   UNL     1      -1.077   1.678   6.736  1.00  0.00    -0.547 OA
ATOM     10  O   UNL     1      -3.226   2.464   6.644  1.00  0.00    -0.547 OA
ENDBRANCH   3   8
BRANCH   4  11
ATOM     11  O   UNL     1      -1.074   1.635   9.859  1.00  0.00    -0.387 OA
ATOM     12  H   UNL     1      -0.094   1.759   9.764  1.00  0.00     0.211 HD
ENDBRANCH   4  11
BRANCH   6  13
ATOM     13  O   UNL     1      -0.621  -0.926  11.020  1.00  0.00    -0.387 OA
ATOM     14  H   UNL     1      -0.942  -1.372  11.848  1.00  0.00     0.211 HD
ENDBRANCH   6  13
BRANCH   7  15
ATOM     15  O   UNL     1      -1.289  -2.543   8.858  1.00  0.00    -0.384 OA
ATOM     16  H   UNL     1      -0.903  -3.229   9.462  1.00  0.00     0.211 HD
ENDBRANCH   7  15
ENDBRANCH   1   2
BRANCH   1  17
ATOM     17  C   UNL     1      -4.739  -1.005  10.735  1.00  0.00     0.172 A 
ATOM     18  C   UNL     1      -4.517   0.149  11.525  1.00  0.00     0.201 A 
ATOM     19  C   UNL     1      -5.145  -2.191  11.349  1.00  0.00     0.098 A 
ATOM     20  C   UNL     1      -4.653   0.072  12.938  1.00  0.00     0.176 A 
ATOM     21  C   UNL     1      -5.319  -2.267  12.727  1.00  0.00     0.146 A 
ATOM     22  C   UNL     1      -5.072  -1.140  13.538  1.00  0.00     0.111 A 
ATOM     23  O   UNL     1      -5.712  -3.419  13.264  1.00  0.00    -0.456 OA
ATOM     24  C   UNL     1      -5.253  -1.291  14.932  1.00  0.00     0.197 A 
ATOM     25  C   UNL     1      -5.903  -3.590  14.569  1.00  0.00     0.138 A 
ATOM     26  C   UNL     1      -5.668  -2.520  15.446  1.00  0.00     0.100 A 
ATOM     27  O   UNL     1      -5.045  -0.338  15.731  1.00  0.00    -0.289 OA
BRANCH  18  28
ATOM     28  O   UNL     1      -4.198   1.355  10.898  1.00  0.00    -0.502 OA
ATOM     29  H   UNL     1      -4.427   1.586   9.943  1.00  0.00     0.293 HD
ENDBRANCH  18  28
BRANCH  20  30
ATOM     30  O   UNL     1      -4.367   1.171  13.757  1.00  0.00    -0.504 OA
ATOM     31  H   UNL     1      -4.387   1.154  14.765  1.00  0.00     0.293 HD
ENDBRANCH  20  30
BRANCH  25  32
ATOM     32  C   UNL     1      -6.345  -4.921  15.057  1.00  0.00     0.017 A 
ATOM     33  C   UNL     1      -7.700  -5.283  14.951  1.00  0.00     0.012 A 
ATOM     34  C   UNL     1      -5.445  -5.827  15.657  1.00  0.00     0.012 A 
ATOM     35  C   UNL     1      -8.141  -6.529  15.411  1.00  0.00     0.001 A 
ATOM     36  C   UNL     1      -5.893  -7.069  16.116  1.00  0.00     0.001 A 
ATOM     37  C   UNL     1      -7.238  -7.421  15.990  1.00  0.00     0.000 A 
ENDBRANCH  25  32
ENDBRANCH   1  17
TORSDOF 9
ENDMDL
MODEL 5
REMARK VINA RESULT:    -7.773      2.311      4.024
REMARK INTER + INTRA:         -10.838
REMARK INTER:                 -12.101
REMARK INTRA:                   1.263
REMARK UNBOUND:                -0.111
REMARK SMILES O=C([O-])[C@H]1O[C@H](Oc2cc3oc(-c4ccccc4)cc(=O)c3c(O)c2O)[C@@H](O)[C@@H](O)[C@@H]1O
REMARK SMILES IDX 7 1 6 2 4 3 31 4 5 5 29 6 27 7 2 8 1 9 3 10 32 11 30 13
REMARK SMILES IDX 28 15 8 17 25 18 9 19 23 20 10 21 22 22 11 23 20 24 12 25
REMARK SMILES IDX 19 26 21 27 26 28 24 30 13 32 14 33 18 34 15 35 17 36 16 37
REMARK H PARENT 32 12 30 14 28 16 26 29 24 31
REMARK Flexibility Score: inf
ROOT
ATOM      1  O   UNL     1      -3.614   1.358  12.459  1.00  0.00    -0.458 OA
ENDROOT
BRANCH   1   2
ATOM      2  C   UNL     1      -4.530   2.121  11.665  1.00  0.00     0.339 C 
ATOM      3  C   UNL     1      -5.242   0.238  10.448  1.00  0.00     0.199 C 
ATOM      4  C   UNL     1      -6.650   0.249  11.086  1.00  0.00     0.180 C 
ATOM      5  O   UNL     1      -4.705   1.550  10.375  1.00  0.00    -0.328 OA
ATOM      6  C   UNL     1      -6.578   0.892  12.477  1.00  0.00     0.181 C 
ATOM      7  C   UNL     1      -5.875   2.262  12.395  1.00  0.00     0.214 C 
BRANCH   3   8
ATOM      8  C   UNL     1      -5.310  -0.317   9.057  1.00  0.00     0.073 C 
ATOM      9  O   UNL     1      -5.231  -1.559   8.864  1.00  0.00    -0.547 OA
ATOM     10  O   UNL     1      -5.492   0.535   7.974  1.00  0.00    -0.547 OA
ENDBRANCH   3   8
BRANCH   4  11
ATOM     11  O   UNL     1      -7.134  -1.064  11.217  1.00  0.00    -0.387 OA
ATOM     12  H   UNL     1      -6.483  -1.662  10.765  1.00  0.00     0.211 HD
ENDBRANCH   4  11
BRANCH   6  13
ATOM     13  O   UNL     1      -7.875   1.033  12.997  1.00  0.00    -0.387 OA
ATOM     14  H   UNL     1      -8.170   1.956  12.781  1.00  0.00     0.211 HD
ENDBRANCH   6  13
BRANCH   7  15
ATOM     15  O   UNL     1      -6.678   3.185  11.704  1.00  0.00    -0.384 OA
ATOM     16  H   UNL     1      -6.599   2.972  10.738  1.00  0.00     0.211 HD
ENDBRANCH   7  15
ENDBRANCH   1   2
BRANCH   1  17
ATOM     17  C   UNL     1      -3.476  -0.043  12.492  1.00  0.00     0.172 A 
ATOM     18  C   UNL     1      -2.495  -0.767  11.770  1.00  0.00     0.201 A 
ATOM     19  C   UNL     1      -4.378  -0.732  13.304  1.00  0.00     0.098 A 
ATOM     20  C   UNL     1      -2.478  -2.186  11.834  1.00  0.00     0.176 A 
ATOM     21  C   UNL     1      -4.346  -2.119  13.405  1.00  0.00     0.146 A 
ATOM     22  C   UNL     1      -3.399  -2.863  12.670  1.00  0.00     0.111 A 
ATOM     23  O   UNL     1      -5.224  -2.728  14.196  1.00  0.00    -0.456 OA
ATOM     24  C   UNL     1      -3.432  -4.269  12.805  1.00  0.00     0.197 A 
ATOM     25  C   UNL     1      -5.273  -4.048  14.356  1.00  0.00     0.138 A 
ATOM     26  C   UNL     1      -4.373  -4.860  13.650  1.00  0.00     0.100 A 
ATOM     27  O   UNL     1      -2.629  -5.011  12.178  1.00  0.00    -0.289 OA
BRANCH  18  28
ATOM     28  O   UNL     1      -1.539  -0.069  11.030  1.00  0.00    -0.502 OA
ATOM     29  H   UNL     1      -0.901  -0.490  10.372  1.00  0.00     0.293 HD
ENDBRANCH  18  28
BRANCH  20  30
ATOM     30  O   UNL     1      -1.574  -2.937  11.074  1.00  0.00    -0.504 OA
ATOM     31  H   UNL     1      -1.213  -3.841  11.341  1.00  0.00     0.293 HD
ENDBRANCH  20  30
BRANCH  25  32
ATOM     32  C   UNL     1      -6.297  -4.619  15.267  1.00  0.00     0.017 A 
ATOM     33  C   UNL     1      -7.263  -5.504  14.755  1.00  0.00     0.012 A 
ATOM     34  C   UNL     1      -6.349  -4.273  16.633  1.00  0.00     0.012 A 
ATOM     35  C   UNL     1      -8.243  -6.048  15.592  1.00  0.00     0.001 A 
ATOM     36  C   UNL     1      -7.332  -4.819  17.464  1.00  0.00     0.001 A 
ATOM     37  C   UNL     1      -8.276  -5.708  16.945  1.00  0.00     0.000 A 
ENDBRANCH  25  32
ENDBRANCH   1  17
TORSDOF 9
ENDMDL
MODEL 6
REMARK VINA RESULT:    -7.715      1.839      3.512
REMARK INTER + INTRA:         -10.758
REMARK INTER:                 -10.754
REMARK INTRA:                  -0.004
REMARK UNBOUND:                -0.111
REMARK SMILES O=C([O-])[C@H]1O[C@H](Oc2cc3oc(-c4ccccc4)cc(=O)c3c(O)c2O)[C@@H](O)[C@@H](O)[C@@H]1O
REMARK SMILES IDX 7 1 6 2 4 3 31 4 5 5 29 6 27 7 2 8 1 9 3 10 32 11 30 13
REMARK SMILES IDX 28 15 8 17 25 18 9 19 23 20 10 21 22 22 11 23 20 24 12 25
REMARK SMILES IDX 19 26 21 27 26 28 24 30 13 32 14 33 18 34 15 35 17 36 16 37
REMARK H PARENT 32 12 30 14 28 16 26 29 24 31
REMARK Flexibility Score: inf
ROOT
ATOM      1  O   UNL     1      -4.035   0.799  11.376  1.00  0.00    -0.458 OA
ENDROOT
BRANCH   1   2
ATOM      2  C   UNL     1      -4.828   1.174  10.245  1.00  0.00     0.339 C 
ATOM      3  C   UNL     1      -2.942   1.616   8.909  1.00  0.00     0.199 C 
ATOM      4  C   UNL     1      -3.200   0.401   7.988  1.00  0.00     0.180 C 
ATOM      5  O   UNL     1      -4.159   2.128   9.430  1.00  0.00    -0.328 OA
ATOM      6  C   UNL     1      -3.964  -0.679   8.766  1.00  0.00     0.181 C 
ATOM      7  C   UNL     1      -5.215  -0.073   9.431  1.00  0.00     0.214 C 
BRANCH   3   8
ATOM      8  C   UNL     1      -2.265   2.711   8.141  1.00  0.00     0.073 C 
ATOM      9  O   UNL     1      -2.624   2.976   6.963  1.00  0.00    -0.547 OA
ATOM     10  O   UNL     1      -1.259   3.463   8.737  1.00  0.00    -0.547 OA
ENDBRANCH   3   8
BRANCH   4  11
ATOM     11  O   UNL     1      -1.981  -0.137   7.541  1.00  0.00    -0.387 OA
ATOM     12  H   UNL     1      -1.262   0.277   8.086  1.00  0.00     0.211 HD
ENDBRANCH   4  11
BRANCH   6  13
ATOM     13  O   UNL     1      -4.324  -1.719   7.893  1.00  0.00    -0.387 OA
ATOM     14  H   UNL     1      -5.315  -1.782   7.919  1.00  0.00     0.211 HD
ENDBRANCH   6  13
BRANCH   7  15
ATOM     15  O   UNL     1      -6.162   0.291   8.458  1.00  0.00    -0.384 OA
ATOM     16  H   UNL     1      -7.050   0.290   8.903  1.00  0.00     0.211 HD
ENDBRANCH   7  15
ENDBRANCH   1   2
BRANCH   1  17
ATOM     17  C   UNL     1      -3.725  -0.507  11.806  1.00  0.00     0.172 A 
ATOM     18  C   UNL     1      -2.532  -1.195  11.475  1.00  0.00     0.201 A 
ATOM     19  C   UNL     1      -4.677  -1.131  12.614  1.00  0.00     0.098 A 
ATOM     20  C   UNL     1      -2.343  -2.531  11.919  1.00  0.00     0.176 A 
ATOM     21  C   UNL     1      -4.485  -2.425  13.087  1.00  0.00     0.146 A 
ATOM     22  C   UNL     1      -3.320  -3.142  12.743  1.00  0.00     0.111 A 
ATOM     23  O   UNL     1      -5.419  -2.974  13.858  1.00  0.00    -0.456 OA
ATOM     24  C   UNL     1      -3.196  -4.458  13.244  1.00  0.00     0.197 A 
ATOM     25  C   UNL     1      -5.327  -4.205  14.355  1.00  0.00     0.138 A 
ATOM     26  C   UNL     1      -4.204  -4.988  14.050  1.00  0.00     0.100 A 
ATOM     27  O   UNL     1      -2.192  -5.173  12.978  1.00  0.00    -0.289 OA
BRANCH  18  28
ATOM     28  O   UNL     1      -1.544  -0.535  10.741  1.00  0.00    -0.502 OA
ATOM     29  H   UNL     1      -0.762  -0.041  11.144  1.00  0.00     0.293 HD
ENDBRANCH  18  28
BRANCH  20  30
ATOM     30  O   UNL     1      -1.213  -3.269  11.547  1.00  0.00    -0.504 OA
ATOM     31  H   UNL     1      -0.625  -3.779  12.189  1.00  0.00     0.293 HD
ENDBRANCH  20  30
BRANCH  25  32
ATOM     32  C   UNL     1      -6.432  -4.715  15.206  1.00  0.00     0.017 A 
ATOM     33  C   UNL     1      -6.401  -4.482  16.594  1.00  0.00     0.012 A 
ATOM     34  C   UNL     1      -7.502  -5.457  14.665  1.00  0.00     0.012 A 
ATOM     35  C   UNL     1      -7.426  -4.961  17.417  1.00  0.00     0.001 A 
ATOM     36  C   UNL     1      -8.523  -5.933  15.495  1.00  0.00     0.001 A 
ATOM     37  C   UNL     1      -8.487  -5.683  16.868  1.00  0.00     0.000 A 
ENDBRANCH  25  32
ENDBRANCH   1  17
TORSDOF 9
ENDMDL
MODEL 7
REMARK VINA RESULT:    -7.566      1.467      2.111
REMARK INTER + INTRA:         -10.552
REMARK INTER:                  -9.673
REMARK INTRA:                  -0.879
REMARK UNBOUND:                -0.111
REMARK SMILES O=C([O-])[C@H]1O[C@H](Oc2cc3oc(-c4ccccc4)cc(=O)c3c(O)c2O)[C@@H](O)[C@@H](O)[C@@H]1O
REMARK SMILES IDX 7 1 6 2 4 3 31 4 5 5 29 6 27 7 2 8 1 9 3 10 32 11 30 13
REMARK SMILES IDX 28 15 8 17 25 18 9 19 23 20 10 21 22 22 11 23 20 24 12 25
REMARK SMILES IDX 19 26 21 27 26 28 24 30 13 32 14 33 18 34 15 35 17 36 16 37
REMARK H PARENT 32 12 30 14 28 16 26 29 24 31
REMARK Flexibility Score: inf
ROOT
ATOM      1  O   UNL     1      -4.003   0.442  11.856  1.00  0.00    -0.458 OA
ENDROOT
BRANCH   1   2
ATOM      2  C   UNL     1      -2.577   0.396  11.967  1.00  0.00     0.339 C 
ATOM      3  C   UNL     1      -2.304  -0.392   9.767  1.00  0.00     0.199 C 
ATOM      4  C   UNL     1      -1.669   0.930   9.279  1.00  0.00     0.180 C 
ATOM      5  O   UNL     1      -2.021  -0.617  11.140  1.00  0.00    -0.328 OA
ATOM      6  C   UNL     1      -2.174   2.092  10.144  1.00  0.00     0.181 C 
ATOM      7  C   UNL     1      -1.974   1.772  11.639  1.00  0.00     0.214 C 
BRANCH   3   8
ATOM      8  C   UNL     1      -1.760  -1.547   8.982  1.00  0.00     0.073 C 
ATOM      9  O   UNL     1      -0.544  -1.575   8.654  1.00  0.00    -0.547 OA
ATOM     10  O   UNL     1      -2.587  -2.611   8.640  1.00  0.00    -0.547 OA
ENDBRANCH   3   8
BRANCH   4  11
ATOM     11  O   UNL     1      -2.020   1.173   7.940  1.00  0.00    -0.387 OA
ATOM     12  H   UNL     1      -2.997   1.351   7.923  1.00  0.00     0.211 HD
ENDBRANCH   4  11
BRANCH   6  13
ATOM     13  O   UNL     1      -1.490   3.268   9.796  1.00  0.00    -0.387 OA
ATOM     14  H   UNL     1      -1.991   4.022  10.206  1.00  0.00     0.211 HD
ENDBRANCH   6  13
BRANCH   7  15
ATOM     15  O   UNL     1      -0.606   1.761  11.960  1.00  0.00    -0.384 OA
ATOM     16  H   UNL     1      -0.365   2.685  12.232  1.00  0.00     0.211 HD
ENDBRANCH   7  15
ENDBRANCH   1   2
BRANCH   1  17
ATOM     17  C   UNL     1      -4.892  -0.650  11.813  1.00  0.00     0.172 A 
ATOM     18  C   UNL     1      -5.691  -0.986  10.691  1.00  0.00     0.201 A 
ATOM     19  C   UNL     1      -4.961  -1.434  12.965  1.00  0.00     0.098 A 
ATOM     20  C   UNL     1      -6.595  -2.079  10.773  1.00  0.00     0.176 A 
ATOM     21  C   UNL     1      -5.814  -2.530  13.042  1.00  0.00     0.146 A 
ATOM     22  C   UNL     1      -6.643  -2.864  11.950  1.00  0.00     0.111 A 
ATOM     23  O   UNL     1      -5.840  -3.249  14.161  1.00  0.00    -0.456 OA
ATOM     24  C   UNL     1      -7.498  -3.980  12.101  1.00  0.00     0.197 A 
ATOM     25  C   UNL     1      -6.623  -4.312  14.330  1.00  0.00     0.138 A 
ATOM     26  C   UNL     1      -7.486  -4.702  13.295  1.00  0.00     0.100 A 
ATOM     27  O   UNL     1      -8.278  -4.342  11.180  1.00  0.00    -0.289 OA
BRANCH  18  28
ATOM     28  O   UNL     1      -5.553  -0.253   9.511  1.00  0.00    -0.502 OA
ATOM     29  H   UNL     1      -5.813  -0.584   8.594  1.00  0.00     0.293 HD
ENDBRANCH  18  28
BRANCH  20  30
ATOM     30  O   UNL     1      -7.455  -2.392   9.714  1.00  0.00    -0.504 OA
ATOM     31  H   UNL     1      -8.357  -2.830   9.819  1.00  0.00     0.293 HD
ENDBRANCH  20  30
BRANCH  25  32
ATOM     32  C   UNL     1      -6.567  -5.040  15.623  1.00  0.00     0.017 A 
ATOM     33  C   UNL     1      -5.758  -6.185  15.738  1.00  0.00     0.012 A 
ATOM     34  C   UNL     1      -7.332  -4.633  16.736  1.00  0.00     0.012 A 
ATOM     35  C   UNL     1      -5.697  -6.893  16.943  1.00  0.00     0.001 A 
ATOM     36  C   UNL     1      -7.266  -5.346  17.937  1.00  0.00     0.001 A 
ATOM     37  C   UNL     1      -6.447  -6.472  18.042  1.00  0.00     0.000 A 
ENDBRANCH  25  32
ENDBRANCH   1  17
TORSDOF 9
ENDMDL
MODEL 8
REMARK VINA RESULT:    -7.260      1.785      3.630
REMARK INTER + INTRA:         -10.130
REMARK INTER:                  -9.327
REMARK INTRA:                  -0.803
REMARK UNBOUND:                -0.111
REMARK SMILES O=C([O-])[C@H]1O[C@H](Oc2cc3oc(-c4ccccc4)cc(=O)c3c(O)c2O)[C@@H](O)[C@@H](O)[C@@H]1O
REMARK SMILES IDX 7 1 6 2 4 3 31 4 5 5 29 6 27 7 2 8 1 9 3 10 32 11 30 13
REMARK SMILES IDX 28 15 8 17 25 18 9 19 23 20 10 21 22 22 11 23 20 24 12 25
REMARK SMILES IDX 19 26 21 27 26 28 24 30 13 32 14 33 18 34 15 35 17 36 16 37
REMARK H PARENT 32 12 30 14 28 16 26 29 24 31
REMARK Flexibility Score: inf
ROOT
ATOM      1  O   UNL     1      -4.501  -1.214   9.828  1.00  0.00    -0.458 OA
ENDROOT
BRANCH   1   2
ATOM      2  C   UNL     1      -4.953   0.122  10.076  1.00  0.00     0.339 C 
ATOM      3  C   UNL     1      -2.784   0.907  10.537  1.00  0.00     0.199 C 
ATOM      4  C   UNL     1      -2.724   1.759   9.249  1.00  0.00     0.180 C 
ATOM      5  O   UNL     1      -4.117   0.792  11.010  1.00  0.00    -0.328 OA
ATOM      6  C   UNL     1      -3.636   1.140   8.181  1.00  0.00     0.181 C 
ATOM      7  C   UNL     1      -5.046   0.905   8.756  1.00  0.00     0.214 C 
BRANCH   3   8
ATOM      8  C   UNL     1      -1.958   1.542  11.615  1.00  0.00     0.073 C 
ATOM      9  O   UNL     1      -0.967   0.934  12.097  1.00  0.00    -0.547 OA
ATOM     10  O   UNL     1      -2.265   2.821  12.067  1.00  0.00    -0.547 OA
ENDBRANCH   3   8
BRANCH   4  11
ATOM     11  O   UNL     1      -1.409   1.801   8.754  1.00  0.00    -0.387 OA
ATOM     12  H   UNL     1      -1.456   2.161   7.831  1.00  0.00     0.211 HD
ENDBRANCH   4  11
BRANCH   6  13
ATOM     13  O   UNL     1      -3.694   1.989   7.064  1.00  0.00    -0.387 OA
ATOM     14  H   UNL     1      -4.578   1.840   6.638  1.00  0.00     0.211 HD
ENDBRANCH   6  13
BRANCH   7  15
ATOM     15  O   UNL     1      -5.691   2.131   8.995  1.00  0.00    -0.384 OA
ATOM     16  H   UNL     1      -6.623   2.037   8.668  1.00  0.00     0.211 HD
ENDBRANCH   7  15
ENDBRANCH   1   2
BRANCH   1  17
ATOM     17  C   UNL     1      -4.066  -2.158  10.778  1.00  0.00     0.172 A 
ATOM     18  C   UNL     1      -2.750  -2.678  10.844  1.00  0.00     0.201 A 
ATOM     19  C   UNL     1      -5.020  -2.584  11.704  1.00  0.00     0.098 A 
ATOM     20  C   UNL     1      -2.432  -3.669  11.811  1.00  0.00     0.176 A 
ATOM     21  C   UNL     1      -4.709  -3.525  12.679  1.00  0.00     0.146 A 
ATOM     22  C   UNL     1      -3.414  -4.082  12.744  1.00  0.00     0.111 A 
ATOM     23  O   UNL     1      -5.652  -3.895  13.542  1.00  0.00    -0.456 OA
ATOM     24  C   UNL     1      -3.171  -5.044  13.750  1.00  0.00     0.197 A 
ATOM     25  C   UNL     1      -5.452  -4.788  14.507  1.00  0.00     0.138 A 
ATOM     26  C   UNL     1      -4.194  -5.397  14.631  1.00  0.00     0.100 A 
ATOM     27  O   UNL     1      -2.046  -5.599  13.873  1.00  0.00    -0.289 OA
BRANCH  18  28
ATOM     28  O   UNL     1      -1.776  -2.184   9.974  1.00  0.00    -0.502 OA
ATOM     29  H   UNL     1      -0.972  -2.703   9.655  1.00  0.00     0.293 HD
ENDBRANCH  18  28
BRANCH  20  30
ATOM     30  O   UNL     1      -1.165  -4.262  11.856  1.00  0.00    -0.504 OA
ATOM     31  H   UNL     1      -0.319  -3.832  11.513  1.00  0.00     0.293 HD
ENDBRANCH  20  30
BRANCH  25  32
ATOM     32  C   UNL     1      -6.579  -5.124  15.413  1.00  0.00     0.017 A 
ATOM     33  C   UNL     1      -7.651  -5.897  14.929  1.00  0.00     0.012 A 
ATOM     34  C   UNL     1      -6.622  -4.662  16.745  1.00  0.00     0.012 A 
ATOM     35  C   UNL     1      -8.728  -6.219  15.761  1.00  0.00     0.001 A 
ATOM     36  C   UNL     1      -7.703  -4.987  17.571  1.00  0.00     0.001 A 
ATOM     37  C   UNL     1      -8.753  -5.767  17.082  1.00  0.00     0.000 A 
ENDBRANCH  25  32
ENDBRANCH   1  17
TORSDOF 9
ENDMDL
MODEL 9
REMARK VINA RESULT:    -7.000      1.881      3.697
REMARK INTER + INTRA:          -9.771
REMARK INTER:                 -12.043
REMARK INTRA:                   2.272
REMARK UNBOUND:                -0.111
REMARK SMILES O=C([O-])[C@H]1O[C@H](Oc2cc3oc(-c4ccccc4)cc(=O)c3c(O)c2O)[C@@H](O)[C@@H](O)[C@@H]1O
REMARK SMILES IDX 7 1 6 2 4 3 31 4 5 5 29 6 27 7 2 8 1 9 3 10 32 11 30 13
REMARK SMILES IDX 28 15 8 17 25 18 9 19 23 20 10 21 22 22 11 23 20 24 12 25
REMARK SMILES IDX 19 26 21 27 26 28 24 30 13 32 14 33 18 34 15 35 17 36 16 37
REMARK H PARENT 32 12 30 14 28 16 26 29 24 31
REMARK Flexibility Score: inf
ROOT
ATOM      1  O   UNL     1      -1.505  -1.845  10.380  1.00  0.00    -0.458 OA
ENDROOT
BRANCH   1   2
ATOM      2  C   UNL     1      -1.734  -1.548   8.998  1.00  0.00     0.339 C 
ATOM      3  C   UNL     1      -3.936  -2.375   9.055  1.00  0.00     0.199 C 
ATOM      4  C   UNL     1      -4.561  -0.972   8.888  1.00  0.00     0.180 C 
ATOM      5  O   UNL     1      -2.669  -2.448   8.418  1.00  0.00    -0.328 OA
ATOM      6  C   UNL     1      -3.602   0.087   9.448  1.00  0.00     0.181 C 
ATOM      7  C   UNL     1      -2.198  -0.090   8.839  1.00  0.00     0.214 C 
BRANCH   3   8
ATOM      8  C   UNL     1      -4.827  -3.414   8.441  1.00  0.00     0.073 C 
ATOM      9  O   UNL     1      -5.560  -3.122   7.460  1.00  0.00    -0.547 OA
ATOM     10  O   UNL     1      -4.824  -4.714   8.932  1.00  0.00    -0.547 OA
ENDBRANCH   3   8
BRANCH   4  11
ATOM     11  O   UNL     1      -5.780  -0.897   9.586  1.00  0.00    -0.387 OA
ATOM     12  H   UNL     1      -5.579  -1.070  10.542  1.00  0.00     0.211 HD
ENDBRANCH   4  11
BRANCH   6  13
ATOM     13  O   UNL     1      -4.104   1.369   9.168  1.00  0.00    -0.387 OA
ATOM     14  H   UNL     1      -3.324   1.933   8.922  1.00  0.00     0.211 HD
ENDBRANCH   6  13
BRANCH   7  15
ATOM     15  O   UNL     1      -2.209   0.241   7.473  1.00  0.00    -0.384 OA
ATOM     16  H   UNL     1      -2.594  -0.536   6.990  1.00  0.00     0.211 HD
ENDBRANCH   7  15
ENDBRANCH   1   2
BRANCH   1  17
ATOM     17  C   UNL     1      -2.364  -1.579  11.464  1.00  0.00     0.172 A 
ATOM     18  C   UNL     1      -2.545  -0.299  12.045  1.00  0.00     0.201 A 
ATOM     19  C   UNL     1      -3.072  -2.670  11.971  1.00  0.00     0.098 A 
ATOM     20  C   UNL     1      -3.397  -0.151  13.172  1.00  0.00     0.176 A 
ATOM     21  C   UNL     1      -3.938  -2.529  13.050  1.00  0.00     0.146 A 
ATOM     22  C   UNL     1      -4.110  -1.271  13.666  1.00  0.00     0.111 A 
ATOM     23  O   UNL     1      -4.594  -3.598  13.493  1.00  0.00    -0.456 OA
ATOM     24  C   UNL     1      -4.993  -1.202  14.767  1.00  0.00     0.197 A 
ATOM     25  C   UNL     1      -5.441  -3.564  14.519  1.00  0.00     0.138 A 
ATOM     26  C   UNL     1      -5.657  -2.353  15.193  1.00  0.00     0.100 A 
ATOM     27  O   UNL     1      -5.197  -0.120  15.381  1.00  0.00    -0.289 OA
BRANCH  18  28
ATOM     28  O   UNL     1      -1.904   0.805  11.478  1.00  0.00    -0.502 OA
ATOM     29  H   UNL     1      -1.475   0.815  10.565  1.00  0.00     0.293 HD
ENDBRANCH  18  28
BRANCH  20  30
ATOM     30  O   UNL     1      -3.539   1.082  13.819  1.00  0.00    -0.504 OA
ATOM     31  H   UNL     1      -4.414   1.454  14.156  1.00  0.00     0.293 HD
ENDBRANCH  20  30
BRANCH  25  32
ATOM     32  C   UNL     1      -6.118  -4.821  14.927  1.00  0.00     0.017 A 
ATOM     33  C   UNL     1      -7.515  -4.927  14.801  1.00  0.00     0.012 A 
ATOM     34  C   UNL     1      -5.400  -5.906  15.471  1.00  0.00     0.012 A 
ATOM     35  C   UNL     1      -8.176  -6.098  15.188  1.00  0.00     0.001 A 
ATOM     36  C   UNL     1      -6.068  -7.074  15.855  1.00  0.00     0.001 A 
ATOM     37  C   UNL     1      -7.453  -7.171  15.711  1.00  0.00     0.000 A 
ENDBRANCH  25  32
ENDBRANCH   1  17
TORSDOF 9
ENDMDL
