MODEL 1
REMARK VINA RESULT:    -5.123      0.000      0.000
REMARK INTER + INTRA:         -14.216
REMARK INTER:                 -11.113
REMARK INTRA:                  -3.103
REMARK UNBOUND:                -3.103
REMARK SMILES CCCCCCCCCCCCCCCCCCCCCC(=O)[O-]
REMARK SMILES IDX 12 1 11 2 10 3 9 4 8 5 7 6 6 7 5 8 4 9 3 10 2 11 1 12 13 13
REMARK SMILES IDX 14 14 15 15 16 16 17 17 18 18 19 19 20 20 21 21 22 22 23 23
REMARK SMILES IDX 24 24
REMARK H PARENT
REMARK Flexibility Score: inf
ROOT
ATOM      1  C   UNL     1      10.921  18.881  33.182  1.00  0.00     0.000 C 
ENDROOT
BRANCH   1   2
ATOM      2  C   UNL     1      10.543  20.091  34.055  1.00  0.00     0.000 C 
BRANCH   2   3
ATOM      3  C   UNL     1       9.098  20.081  34.590  1.00  0.00     0.000 C 
BRANCH   3   4
ATOM      4  C   UNL     1       8.999  20.227  36.124  1.00  0.00    -0.000 C 
BRANCH   4   5
ATOM      5  C   UNL     1       8.580  18.918  36.816  1.00  0.00    -0.000 C 
BRANCH   5   6
ATOM      6  C   UNL     1       9.786  18.153  37.403  1.00  0.00    -0.000 C 
BRANCH   6   7
ATOM      7  C   UNL     1      10.343  17.064  36.465  1.00  0.00    -0.000 C 
BRANCH   7   8
ATOM      8  C   UNL     1      11.875  16.903  36.495  1.00  0.00    -0.000 C 
BRANCH   8   9
ATOM      9  C   UNL     1      12.668  18.222  36.523  1.00  0.00    -0.000 C 
BRANCH   9  10
ATOM     10  C   UNL     1      14.103  18.065  35.988  1.00  0.00    -0.000 C 
BRANCH  10  11
ATOM     11  C   UNL     1      14.645  16.639  36.171  1.00  0.00    -0.003 C 
ATOM     12  C   UNL     1      16.167  16.598  36.320  1.00  0.00     0.004 C 
ENDBRANCH  10  11
ENDBRANCH   9  10
ENDBRANCH   8   9
ENDBRANCH   7   8
ENDBRANCH   6   7
ENDBRANCH   5   6
ENDBRANCH   4   5
ENDBRANCH   3   4
ENDBRANCH   2   3
ENDBRANCH   1   2
BRANCH   1  13
ATOM     13  C   UNL     1       9.728  18.056  32.656  1.00  0.00     0.000 C 
BRANCH  13  14
ATOM     14  C   UNL     1       9.930  17.423  31.267  1.00  0.00     0.000 C 
BRANCH  14  15
ATOM     15  C   UNL     1       9.439  18.324  30.123  1.00  0.00     0.000 C 
BRANCH  15  16
ATOM     16  C   UNL     1       8.507  19.444  30.612  1.00  0.00     0.000 C 
BRANCH  16  17
ATOM     17  C   UNL     1       8.129  20.435  29.498  1.00  0.00     0.000 C 
BRANCH  17  18
ATOM     18  C   UNL     1       7.930  21.869  30.037  1.00  0.00     0.000 C 
BRANCH  18  19
ATOM     19  C   UNL     1       8.039  21.976  31.570  1.00  0.00     0.000 C 
BRANCH  19  20
ATOM     20  C   UNL     1       9.075  22.997  32.071  1.00  0.00     0.006 C 
BRANCH  20  21
ATOM     21  C   UNL     1       8.705  23.599  33.436  1.00  0.00     0.053 C 
BRANCH  21  22
ATOM     22  C   UNL     1       9.921  23.758  34.295  1.00  0.00     0.041 C 
ATOM     23  O   UNL     1      11.035  24.030  33.773  1.00  0.00    -0.550 OA
ATOM     24  O   UNL     1       9.826  23.594  35.673  1.00  0.00    -0.550 OA
ENDBRANCH  21  22
ENDBRANCH  20  21
ENDBRANCH  19  20
ENDBRANCH  18  19
ENDBRANCH  17  18
ENDBRANCH  16  17
ENDBRANCH  15  16
ENDBRANCH  14  15
ENDBRANCH  13  14
ENDBRANCH   1  13
TORSDOF 20
ENDMDL
MODEL 2
REMARK VINA RESULT:    -5.093      1.537      2.289
REMARK INTER + INTRA:         -14.151
REMARK INTER:                 -11.404
REMARK INTRA:                  -2.747
REMARK UNBOUND:                -3.103
REMARK SMILES CCCCCCCCCCCCCCCCCCCCCC(=O)[O-]
REMARK SMILES IDX 12 1 11 2 10 3 9 4 8 5 7 6 6 7 5 8 4 9 3 10 2 11 1 12 13 13
REMARK SMILES IDX 14 14 15 15 16 16 17 17 18 18 19 19 20 20 21 21 22 22 23 23
REMARK SMILES IDX 24 24
REMARK H PARENT
REMARK Flexibility Score: inf
ROOT
ATOM      1  C   UNL     1       8.188  18.111  34.154  1.00  0.00     0.000 C 
ENDROOT
BRANCH   1   2
ATOM      2  C   UNL     1       8.349  19.311  35.105  1.00  0.00     0.000 C 
BRANCH   2   3
ATOM      3  C   UNL     1       8.251  18.969  36.604  1.00  0.00     0.000 C 
BRANCH   3   4
ATOM      4  C   UNL     1       9.614  18.937  37.327  1.00  0.00    -0.000 C 
BRANCH   4   5
ATOM      5  C   UNL     1      10.716  19.673  36.544  1.00  0.00    -0.000 C 
BRANCH   5   6
ATOM      6  C   UNL     1      11.902  18.750  36.191  1.00  0.00    -0.000 C 
BRANCH   6   7
ATOM      7  C   UNL     1      11.939  17.448  37.015  1.00  0.00    -0.000 C 
BRANCH   7   8
ATOM      8  C   UNL     1      12.912  17.462  38.209  1.00  0.00    -0.000 C 
BRANCH   8   9
ATOM      9  C   UNL     1      14.055  16.434  38.130  1.00  0.00    -0.000 C 
BRANCH   9  10
ATOM     10  C   UNL     1      15.336  17.013  37.502  1.00  0.00    -0.000 C 
BRANCH  10  11
ATOM     11  C   UNL     1      15.481  18.523  37.754  1.00  0.00    -0.003 C 
ATOM     12  C   UNL     1      15.727  19.316  36.469  1.00  0.00     0.004 C 
ENDBRANCH  10  11
ENDBRANCH   9  10
ENDBRANCH   8   9
ENDBRANCH   7   8
ENDBRANCH   6   7
ENDBRANCH   5   6
ENDBRANCH   4   5
ENDBRANCH   3   4
ENDBRANCH   2   3
ENDBRANCH   1   2
BRANCH   1  13
ATOM     13  C   UNL     1       9.325  17.070  34.214  1.00  0.00     0.000 C 
BRANCH  13  14
ATOM     14  C   UNL     1      10.158  16.933  32.927  1.00  0.00     0.000 C 
BRANCH  14  15
ATOM     15  C   UNL     1      10.168  18.217  32.083  1.00  0.00     0.000 C 
BRANCH  15  16
ATOM     16  C   UNL     1       9.812  17.960  30.610  1.00  0.00     0.000 C 
BRANCH  16  17
ATOM     17  C   UNL     1       8.870  19.028  30.028  1.00  0.00     0.000 C 
BRANCH  17  18
ATOM     18  C   UNL     1       8.471  20.087  31.079  1.00  0.00     0.000 C 
BRANCH  18  19
ATOM     19  C   UNL     1       8.175  21.475  30.481  1.00  0.00     0.000 C 
BRANCH  19  20
ATOM     20  C   UNL     1       8.927  22.638  31.151  1.00  0.00     0.006 C 
BRANCH  20  21
ATOM     21  C   UNL     1       9.482  22.269  32.536  1.00  0.00     0.053 C 
BRANCH  21  22
ATOM     22  C   UNL     1      10.971  22.419  32.568  1.00  0.00     0.041 C 
ATOM     23  O   UNL     1      11.712  21.399  32.567  1.00  0.00    -0.550 OA
ATOM     24  O   UNL     1      11.543  23.686  32.612  1.00  0.00    -0.550 OA
ENDBRANCH  21  22
ENDBRANCH  20  21
ENDBRANCH  19  20
ENDBRANCH  18  19
ENDBRANCH  17  18
ENDBRANCH  16  17
ENDBRANCH  15  16
ENDBRANCH  14  15
ENDBRANCH  13  14
ENDBRANCH   1  13
TORSDOF 20
ENDMDL
MODEL 3
REMARK VINA RESULT:    -5.070      2.866      6.768
REMARK INTER + INTRA:         -14.101
REMARK INTER:                 -10.760
REMARK INTRA:                  -3.340
REMARK UNBOUND:                -3.103
REMARK SMILES CCCCCCCCCCCCCCCCCCCCCC(=O)[O-]
REMARK SMILES IDX 12 1 11 2 10 3 9 4 8 5 7 6 6 7 5 8 4 9 3 10 2 11 1 12 13 13
REMARK SMILES IDX 14 14 15 15 16 16 17 17 18 18 19 19 20 20 21 21 22 22 23 23
REMARK SMILES IDX 24 24
REMARK H PARENT
REMARK Flexibility Score: inf
ROOT
ATOM      1  C   UNL     1      10.143  18.505  32.005  1.00  0.00     0.000 C 
ENDROOT
BRANCH   1   2
ATOM      2  C   UNL     1       9.617  18.099  30.616  1.00  0.00     0.000 C 
BRANCH   2   3
ATOM      3  C   UNL     1       8.868  19.210  29.855  1.00  0.00     0.000 C 
BRANCH   3   4
ATOM      4  C   UNL     1       8.139  20.214  30.774  1.00  0.00    -0.000 C 
BRANCH   4   5
ATOM      5  C   UNL     1       8.308  21.671  30.310  1.00  0.00    -0.000 C 
BRANCH   5   6
ATOM      6  C   UNL     1       8.365  22.661  31.492  1.00  0.00    -0.000 C 
BRANCH   6   7
ATOM      7  C   UNL     1       9.758  23.283  31.712  1.00  0.00    -0.000 C 
BRANCH   7   8
ATOM      8  C   UNL     1      10.796  22.342  32.353  1.00  0.00    -0.000 C 
BRANCH   8   9
ATOM      9  C   UNL     1      10.322  21.624  33.630  1.00  0.00    -0.000 C 
BRANCH   9  10
ATOM     10  C   UNL     1      10.419  22.513  34.883  1.00  0.00    -0.000 C 
BRANCH  10  11
ATOM     11  C   UNL     1       9.133  22.482  35.725  1.00  0.00    -0.003 C 
ATOM     12  C   UNL     1       9.397  22.678  37.218  1.00  0.00     0.004 C 
ENDBRANCH  10  11
ENDBRANCH   9  10
ENDBRANCH   8   9
ENDBRANCH   7   8
ENDBRANCH   6   7
ENDBRANCH   5   6
ENDBRANCH   4   5
ENDBRANCH   3   4
ENDBRANCH   2   3
ENDBRANCH   1   2
BRANCH   1  13
ATOM     13  C   UNL     1       9.468  17.791  33.195  1.00  0.00     0.000 C 
BRANCH  13  14
ATOM     14  C   UNL     1       8.092  18.348  33.600  1.00  0.00     0.000 C 
BRANCH  14  15
ATOM     15  C   UNL     1       8.085  18.949  35.015  1.00  0.00     0.000 C 
BRANCH  15  16
ATOM     16  C   UNL     1       8.780  18.044  36.045  1.00  0.00     0.000 C 
BRANCH  16  17
ATOM     17  C   UNL     1       9.470  18.837  37.167  1.00  0.00     0.000 C 
BRANCH  17  18
ATOM     18  C   UNL     1      11.000  18.622  37.176  1.00  0.00     0.000 C 
BRANCH  18  19
ATOM     19  C   UNL     1      11.710  19.158  35.918  1.00  0.00     0.000 C 
BRANCH  19  20
ATOM     20  C   UNL     1      12.975  18.383  35.513  1.00  0.00     0.006 C 
BRANCH  20  21
ATOM     21  C   UNL     1      12.899  16.890  35.870  1.00  0.00     0.053 C 
BRANCH  21  22
ATOM     22  C   UNL     1      14.027  16.502  36.775  1.00  0.00     0.041 C 
ATOM     23  O   UNL     1      13.851  16.452  38.022  1.00  0.00    -0.550 OA
ATOM     24  O   UNL     1      15.277  16.206  36.242  1.00  0.00    -0.550 OA
ENDBRANCH  21  22
ENDBRANCH  20  21
ENDBRANCH  19  20
ENDBRANCH  18  19
ENDBRANCH  17  18
ENDBRANCH  16  17
ENDBRANCH  15  16
ENDBRANCH  14  15
ENDBRANCH  13  14
ENDBRANCH   1  13
TORSDOF 20
ENDMDL
MODEL 4
REMARK VINA RESULT:    -5.056      2.822      6.106
REMARK INTER + INTRA:         -14.070
REMARK INTER:                 -10.260
REMARK INTRA:                  -3.810
REMARK UNBOUND:                -3.103
REMARK SMILES CCCCCCCCCCCCCCCCCCCCCC(=O)[O-]
REMARK SMILES IDX 12 1 11 2 10 3 9 4 8 5 7 6 6 7 5 8 4 9 3 10 2 11 1 12 13 13
REMARK SMILES IDX 14 14 15 15 16 16 17 17 18 18 19 19 20 20 21 21 22 22 23 23
REMARK SMILES IDX 24 24
REMARK H PARENT
REMARK Flexibility Score: inf
ROOT
ATOM      1  C   UNL     1      10.139  18.224  32.370  1.00  0.00     0.000 C 
ENDROOT
BRANCH   1   2
ATOM      2  C   UNL     1       9.786  17.805  30.931  1.00  0.00     0.000 C 
BRANCH   2   3
ATOM      3  C   UNL     1       9.056  18.879  30.102  1.00  0.00     0.000 C 
BRANCH   3   4
ATOM      4  C   UNL     1       8.309  19.926  30.957  1.00  0.00    -0.000 C 
BRANCH   4   5
ATOM      5  C   UNL     1       8.264  21.311  30.288  1.00  0.00    -0.000 C 
BRANCH   5   6
ATOM      6  C   UNL     1       9.037  22.377  31.092  1.00  0.00    -0.000 C 
BRANCH   6   7
ATOM      7  C   UNL     1       9.498  21.891  32.480  1.00  0.00    -0.000 C 
BRANCH   7   8
ATOM      8  C   UNL     1      11.023  21.890  32.695  1.00  0.00    -0.000 C 
BRANCH   8   9
ATOM      9  C   UNL     1      11.490  21.323  34.048  1.00  0.00    -0.000 C 
BRANCH   9  10
ATOM     10  C   UNL     1      11.170  22.258  35.229  1.00  0.00    -0.000 C 
BRANCH  10  11
ATOM     11  C   UNL     1      12.364  22.430  36.181  1.00  0.00    -0.003 C 
ATOM     12  C   UNL     1      13.644  21.785  35.649  1.00  0.00     0.004 C 
ENDBRANCH  10  11
ENDBRANCH   9  10
ENDBRANCH   8   9
ENDBRANCH   7   8
ENDBRANCH   6   7
ENDBRANCH   5   6
ENDBRANCH   4   5
ENDBRANCH   3   4
ENDBRANCH   2   3
ENDBRANCH   1   2
BRANCH   1  13
ATOM     13  C   UNL     1      10.085  17.089  33.414  1.00  0.00     0.000 C 
BRANCH  13  14
ATOM     14  C   UNL     1       9.006  17.247  34.500  1.00  0.00     0.000 C 
BRANCH  14  15
ATOM     15  C   UNL     1       8.224  18.564  34.377  1.00  0.00     0.000 C 
BRANCH  15  16
ATOM     16  C   UNL     1       8.585  19.571  35.480  1.00  0.00     0.000 C 
BRANCH  16  17
ATOM     17  C   UNL     1       8.119  19.122  36.875  1.00  0.00     0.000 C 
BRANCH  17  18
ATOM     18  C   UNL     1       9.304  18.905  37.842  1.00  0.00     0.000 C 
BRANCH  18  19
ATOM     19  C   UNL     1      10.673  19.274  37.240  1.00  0.00     0.000 C 
BRANCH  19  20
ATOM     20  C   UNL     1      11.632  18.086  37.047  1.00  0.00     0.006 C 
BRANCH  20  21
ATOM     21  C   UNL     1      12.543  18.250  35.820  1.00  0.00     0.053 C 
BRANCH  21  22
ATOM     22  C   UNL     1      13.574  17.165  35.774  1.00  0.00     0.041 C 
ATOM     23  O   UNL     1      14.756  17.426  35.424  1.00  0.00    -0.550 OA
ATOM     24  O   UNL     1      13.225  15.860  36.107  1.00  0.00    -0.550 OA
ENDBRANCH  21  22
ENDBRANCH  20  21
ENDBRANCH  19  20
ENDBRANCH  18  19
ENDBRANCH  17  18
ENDBRANCH  16  17
ENDBRANCH  15  16
ENDBRANCH  14  15
ENDBRANCH  13  14
ENDBRANCH   1  13
TORSDOF 20
ENDMDL
MODEL 5
REMARK VINA RESULT:    -5.044      3.071      7.383
REMARK INTER + INTRA:         -14.043
REMARK INTER:                 -11.046
REMARK INTRA:                  -2.997
REMARK UNBOUND:                -3.103
REMARK SMILES CCCCCCCCCCCCCCCCCCCCCC(=O)[O-]
REMARK SMILES IDX 12 1 11 2 10 3 9 4 8 5 7 6 6 7 5 8 4 9 3 10 2 11 1 12 13 13
REMARK SMILES IDX 14 14 15 15 16 16 17 17 18 18 19 19 20 20 21 21 22 22 23 23
REMARK SMILES IDX 24 24
REMARK H PARENT
REMARK Flexibility Score: inf
ROOT
ATOM      1  C   UNL     1      10.079  18.123  33.406  1.00  0.00     0.000 C 
ENDROOT
BRANCH   1   2
ATOM      2  C   UNL     1      10.352  19.101  32.249  1.00  0.00     0.000 C 
BRANCH   2   3
ATOM      3  C   UNL     1       9.593  18.792  30.944  1.00  0.00     0.000 C 
BRANCH   3   4
ATOM      4  C   UNL     1       8.292  19.605  30.771  1.00  0.00    -0.000 C 
BRANCH   4   5
ATOM      5  C   UNL     1       8.214  20.311  29.406  1.00  0.00    -0.000 C 
BRANCH   5   6
ATOM      6  C   UNL     1       7.895  21.815  29.540  1.00  0.00    -0.000 C 
BRANCH   6   7
ATOM      7  C   UNL     1       8.054  22.355  30.975  1.00  0.00    -0.000 C 
BRANCH   7   8
ATOM      8  C   UNL     1       9.401  23.044  31.264  1.00  0.00    -0.000 C 
BRANCH   8   9
ATOM      9  C   UNL     1      10.058  22.654  32.600  1.00  0.00    -0.000 C 
BRANCH   9  10
ATOM     10  C   UNL     1       9.030  22.368  33.709  1.00  0.00    -0.000 C 
BRANCH  10  11
ATOM     11  C   UNL     1       9.695  22.051  35.058  1.00  0.00    -0.003 C 
ATOM     12  C   UNL     1      11.140  21.575  34.909  1.00  0.00     0.004 C 
ENDBRANCH  10  11
ENDBRANCH   9  10
ENDBRANCH   8   9
ENDBRANCH   7   8
ENDBRANCH   6   7
ENDBRANCH   5   6
ENDBRANCH   4   5
ENDBRANCH   3   4
ENDBRANCH   2   3
ENDBRANCH   1   2
BRANCH   1  13
ATOM     13  C   UNL     1       8.588  17.900  33.737  1.00  0.00     0.000 C 
BRANCH  13  14
ATOM     14  C   UNL     1       7.967  18.933  34.694  1.00  0.00     0.000 C 
BRANCH  14  15
ATOM     15  C   UNL     1       7.875  18.425  36.142  1.00  0.00     0.000 C 
BRANCH  15  16
ATOM     16  C   UNL     1       9.055  18.894  37.008  1.00  0.00     0.000 C 
BRANCH  16  17
ATOM     17  C   UNL     1      10.179  17.848  37.102  1.00  0.00     0.000 C 
BRANCH  17  18
ATOM     18  C   UNL     1      11.569  18.463  36.826  1.00  0.00     0.000 C 
BRANCH  18  19
ATOM     19  C   UNL     1      12.490  18.495  38.061  1.00  0.00     0.000 C 
BRANCH  19  20
ATOM     20  C   UNL     1      13.882  17.877  37.841  1.00  0.00     0.006 C 
BRANCH  20  21
ATOM     21  C   UNL     1      13.979  16.431  38.353  1.00  0.00     0.053 C 
BRANCH  21  22
ATOM     22  C   UNL     1      14.077  15.468  37.212  1.00  0.00     0.041 C 
ATOM     23  O   UNL     1      13.637  15.785  36.074  1.00  0.00    -0.550 OA
ATOM     24  O   UNL     1      14.645  14.213  37.406  1.00  0.00    -0.550 OA
ENDBRANCH  21  22
ENDBRANCH  20  21
ENDBRANCH  19  20
ENDBRANCH  18  19
ENDBRANCH  17  18
ENDBRANCH  16  17
ENDBRANCH  15  16
ENDBRANCH  14  15
ENDBRANCH  13  14
ENDBRANCH   1  13
TORSDOF 20
ENDMDL
MODEL 6
REMARK VINA RESULT:    -4.991      1.870      5.045
REMARK INTER + INTRA:         -13.930
REMARK INTER:                 -10.223
REMARK INTRA:                  -3.707
REMARK UNBOUND:                -3.103
REMARK SMILES CCCCCCCCCCCCCCCCCCCCCC(=O)[O-]
REMARK SMILES IDX 12 1 11 2 10 3 9 4 8 5 7 6 6 7 5 8 4 9 3 10 2 11 1 12 13 13
REMARK SMILES IDX 14 14 15 15 16 16 17 17 18 18 19 19 20 20 21 21 22 22 23 23
REMARK SMILES IDX 24 24
REMARK H PARENT
REMARK Flexibility Score: inf
ROOT
ATOM      1  C   UNL     1       8.820  18.536  32.199  1.00  0.00     0.000 C 
ENDROOT
BRANCH   1   2
ATOM      2  C   UNL     1       9.004  18.761  30.687  1.00  0.00     0.000 C 
BRANCH   2   3
ATOM      3  C   UNL     1       8.313  20.020  30.129  1.00  0.00     0.000 C 
BRANCH   3   4
ATOM      4  C   UNL     1       8.039  21.105  31.193  1.00  0.00    -0.000 C 
BRANCH   4   5
ATOM      5  C   UNL     1       8.622  22.475  30.803  1.00  0.00    -0.000 C 
BRANCH   5   6
ATOM      6  C   UNL     1       9.743  22.930  31.762  1.00  0.00    -0.000 C 
BRANCH   6   7
ATOM      7  C   UNL     1       9.736  22.192  33.116  1.00  0.00    -0.000 C 
BRANCH   7   8
ATOM      8  C   UNL     1      11.084  21.568  33.522  1.00  0.00    -0.000 C 
BRANCH   8   9
ATOM      9  C   UNL     1      10.992  20.446  34.572  1.00  0.00    -0.000 C 
BRANCH   9  10
ATOM     10  C   UNL     1      12.136  20.498  35.602  1.00  0.00    -0.000 C 
BRANCH  10  11
ATOM     11  C   UNL     1      12.384  19.137  36.272  1.00  0.00    -0.003 C 
ATOM     12  C   UNL     1      12.766  18.045  35.272  1.00  0.00     0.004 C 
ENDBRANCH  10  11
ENDBRANCH   9  10
ENDBRANCH   8   9
ENDBRANCH   7   8
ENDBRANCH   6   7
ENDBRANCH   5   6
ENDBRANCH   4   5
ENDBRANCH   3   4
ENDBRANCH   2   3
ENDBRANCH   1   2
BRANCH   1  13
ATOM     13  C   UNL     1       9.789  17.514  32.831  1.00  0.00     0.000 C 
BRANCH  13  14
ATOM     14  C   UNL     1       9.420  17.053  34.252  1.00  0.00     0.000 C 
BRANCH  14  15
ATOM     15  C   UNL     1       8.347  17.938  34.908  1.00  0.00     0.000 C 
BRANCH  15  16
ATOM     16  C   UNL     1       8.576  18.126  36.415  1.00  0.00     0.000 C 
BRANCH  16  17
ATOM     17  C   UNL     1       8.310  19.566  36.885  1.00  0.00     0.000 C 
BRANCH  17  18
ATOM     18  C   UNL     1       9.067  19.902  38.189  1.00  0.00     0.000 C 
BRANCH  18  19
ATOM     19  C   UNL     1       9.631  21.335  38.229  1.00  0.00     0.000 C 
BRANCH  19  20
ATOM     20  C   UNL     1       8.921  22.332  37.297  1.00  0.00     0.006 C 
BRANCH  20  21
ATOM     21  C   UNL     1       9.879  23.376  36.702  1.00  0.00     0.053 C 
BRANCH  21  22
ATOM     22  C   UNL     1      10.285  24.377  37.738  1.00  0.00     0.041 C 
ATOM     23  O   UNL     1      11.452  24.852  37.739  1.00  0.00    -0.550 OA
ATOM     24  O   UNL     1       9.376  24.778  38.712  1.00  0.00    -0.550 OA
ENDBRANCH  21  22
ENDBRANCH  20  21
ENDBRANCH  19  20
ENDBRANCH  18  19
ENDBRANCH  17  18
ENDBRANCH  16  17
ENDBRANCH  15  16
ENDBRANCH  14  15
ENDBRANCH  13  14
ENDBRANCH   1  13
TORSDOF 20
ENDMDL
MODEL 7
REMARK VINA RESULT:    -4.986      1.789      2.851
REMARK INTER + INTRA:         -13.919
REMARK INTER:                 -10.693
REMARK INTRA:                  -3.226
REMARK UNBOUND:                -3.103
REMARK SMILES CCCCCCCCCCCCCCCCCCCCCC(=O)[O-]
REMARK SMILES IDX 12 1 11 2 10 3 9 4 8 5 7 6 6 7 5 8 4 9 3 10 2 11 1 12 13 13
REMARK SMILES IDX 14 14 15 15 16 16 17 17 18 18 19 19 20 20 21 21 22 22 23 23
REMARK SMILES IDX 24 24
REMARK H PARENT
REMARK Flexibility Score: inf
ROOT
ATOM      1  C   UNL     1      10.079  18.663  31.701  1.00  0.00     0.000 C 
ENDROOT
BRANCH   1   2
ATOM      2  C   UNL     1       9.611  17.798  32.885  1.00  0.00     0.000 C 
BRANCH   2   3
ATOM      3  C   UNL     1       8.437  18.384  33.694  1.00  0.00     0.000 C 
BRANCH   3   4
ATOM      4  C   UNL     1       8.260  17.744  35.088  1.00  0.00    -0.000 C 
BRANCH   4   5
ATOM      5  C   UNL     1       9.464  16.878  35.498  1.00  0.00    -0.000 C 
BRANCH   5   6
ATOM      6  C   UNL     1      10.092  17.338  36.831  1.00  0.00    -0.000 C 
BRANCH   6   7
ATOM      7  C   UNL     1      11.352  18.208  36.652  1.00  0.00    -0.000 C 
BRANCH   7   8
ATOM      8  C   UNL     1      12.251  17.814  35.465  1.00  0.00    -0.000 C 
BRANCH   8   9
ATOM      9  C   UNL     1      13.176  16.610  35.721  1.00  0.00    -0.000 C 
BRANCH   9  10
ATOM     10  C   UNL     1      14.659  17.010  35.822  1.00  0.00    -0.000 C 
BRANCH  10  11
ATOM     11  C   UNL     1      14.919  18.017  36.954  1.00  0.00    -0.003 C 
ATOM     12  C   UNL     1      14.952  17.361  38.335  1.00  0.00     0.004 C 
ENDBRANCH  10  11
ENDBRANCH   9  10
ENDBRANCH   8   9
ENDBRANCH   7   8
ENDBRANCH   6   7
ENDBRANCH   5   6
ENDBRANCH   4   5
ENDBRANCH   3   4
ENDBRANCH   2   3
ENDBRANCH   1   2
BRANCH   1  13
ATOM     13  C   UNL     1       9.317  18.431  30.380  1.00  0.00     0.000 C 
BRANCH  13  14
ATOM     14  C   UNL     1       8.613  19.672  29.802  1.00  0.00     0.000 C 
BRANCH  14  15
ATOM     15  C   UNL     1       8.096  20.626  30.890  1.00  0.00     0.000 C 
BRANCH  15  16
ATOM     16  C   UNL     1       8.405  22.099  30.581  1.00  0.00     0.000 C 
BRANCH  16  17
ATOM     17  C   UNL     1       9.011  22.847  31.780  1.00  0.00     0.000 C 
BRANCH  17  18
ATOM     18  C   UNL     1       9.002  21.990  33.065  1.00  0.00     0.000 C 
BRANCH  18  19
ATOM     19  C   UNL     1      10.406  21.716  33.638  1.00  0.00     0.000 C 
BRANCH  19  20
ATOM     20  C   UNL     1      10.424  21.266  35.109  1.00  0.00     0.006 C 
BRANCH  20  21
ATOM     21  C   UNL     1       9.281  21.878  35.934  1.00  0.00     0.053 C 
BRANCH  21  22
ATOM     22  C   UNL     1       9.163  21.202  37.264  1.00  0.00     0.041 C 
ATOM     23  O   UNL     1       8.243  20.367  37.473  1.00  0.00    -0.550 OA
ATOM     24  O   UNL     1      10.064  21.503  38.280  1.00  0.00    -0.550 OA
ENDBRANCH  21  22
ENDBRANCH  20  21
ENDBRANCH  19  20
ENDBRANCH  18  19
ENDBRANCH  17  18
ENDBRANCH  16  17
ENDBRANCH  15  16
ENDBRANCH  14  15
ENDBRANCH  13  14
ENDBRANCH   1  13
TORSDOF 20
ENDMDL
MODEL 8
REMARK VINA RESULT:    -4.968      2.608      6.383
REMARK INTER + INTRA:         -13.881
REMARK INTER:                  -9.878
REMARK INTRA:                  -4.002
REMARK UNBOUND:                -3.103
REMARK SMILES CCCCCCCCCCCCCCCCCCCCCC(=O)[O-]
REMARK SMILES IDX 12 1 11 2 10 3 9 4 8 5 7 6 6 7 5 8 4 9 3 10 2 11 1 12 13 13
REMARK SMILES IDX 14 14 15 15 16 16 17 17 18 18 19 19 20 20 21 21 22 22 23 23
REMARK SMILES IDX 24 24
REMARK H PARENT
REMARK Flexibility Score: inf
ROOT
ATOM      1  C   UNL     1       9.242  18.180  31.394  1.00  0.00     0.000 C 
ENDROOT
BRANCH   1   2
ATOM      2  C   UNL     1       9.055  19.039  30.130  1.00  0.00     0.000 C 
BRANCH   2   3
ATOM      3  C   UNL     1       7.909  20.066  30.206  1.00  0.00     0.000 C 
BRANCH   3   4
ATOM      4  C   UNL     1       8.249  21.429  29.564  1.00  0.00    -0.000 C 
BRANCH   4   5
ATOM      5  C   UNL     1       8.606  22.501  30.608  1.00  0.00    -0.000 C 
BRANCH   5   6
ATOM      6  C   UNL     1       8.039  22.171  32.005  1.00  0.00    -0.000 C 
BRANCH   6   7
ATOM      7  C   UNL     1       9.085  22.263  33.134  1.00  0.00    -0.000 C 
BRANCH   7   8
ATOM      8  C   UNL     1      10.361  21.432  32.907  1.00  0.00    -0.000 C 
BRANCH   8   9
ATOM      9  C   UNL     1      11.634  22.253  32.632  1.00  0.00    -0.000 C 
BRANCH   9  10
ATOM     10  C   UNL     1      11.799  23.438  33.601  1.00  0.00    -0.000 C 
BRANCH  10  11
ATOM     11  C   UNL     1      12.104  24.755  32.871  1.00  0.00    -0.003 C 
ATOM     12  C   UNL     1      11.226  24.965  31.636  1.00  0.00     0.004 C 
ENDBRANCH  10  11
ENDBRANCH   9  10
ENDBRANCH   8   9
ENDBRANCH   7   8
ENDBRANCH   6   7
ENDBRANCH   5   6
ENDBRANCH   4   5
ENDBRANCH   3   4
ENDBRANCH   2   3
ENDBRANCH   1   2
BRANCH   1  13
ATOM     13  C   UNL     1       8.248  18.474  32.538  1.00  0.00     0.000 C 
BRANCH  13  14
ATOM     14  C   UNL     1       8.778  18.193  33.955  1.00  0.00     0.000 C 
BRANCH  14  15
ATOM     15  C   UNL     1       8.084  19.044  35.031  1.00  0.00     0.000 C 
BRANCH  15  16
ATOM     16  C   UNL     1       8.318  18.506  36.451  1.00  0.00     0.000 C 
BRANCH  16  17
ATOM     17  C   UNL     1       8.915  19.562  37.398  1.00  0.00     0.000 C 
BRANCH  17  18
ATOM     18  C   UNL     1       9.268  20.872  36.660  1.00  0.00     0.000 C 
BRANCH  18  19
ATOM     19  C   UNL     1      10.782  21.145  36.570  1.00  0.00     0.000 C 
BRANCH  19  20
ATOM     20  C   UNL     1      11.671  19.898  36.715  1.00  0.00     0.006 C 
BRANCH  20  21
ATOM     21  C   UNL     1      12.010  19.249  35.364  1.00  0.00     0.053 C 
BRANCH  21  22
ATOM     22  C   UNL     1      12.397  17.814  35.546  1.00  0.00     0.041 C 
ATOM     23  O   UNL     1      11.614  17.014  36.126  1.00  0.00    -0.550 OA
ATOM     24  O   UNL     1      13.628  17.361  35.083  1.00  0.00    -0.550 OA
ENDBRANCH  21  22
ENDBRANCH  20  21
ENDBRANCH  19  20
ENDBRANCH  18  19
ENDBRANCH  17  18
ENDBRANCH  16  17
ENDBRANCH  15  16
ENDBRANCH  14  15
ENDBRANCH  13  14
ENDBRANCH   1  13
TORSDOF 20
ENDMDL
MODEL 9
REMARK VINA RESULT:    -4.960      2.719      6.538
REMARK INTER + INTRA:         -13.861
REMARK INTER:                 -10.058
REMARK INTRA:                  -3.804
REMARK UNBOUND:                -3.103
REMARK SMILES CCCCCCCCCCCCCCCCCCCCCC(=O)[O-]
REMARK SMILES IDX 12 1 11 2 10 3 9 4 8 5 7 6 6 7 5 8 4 9 3 10 2 11 1 12 13 13
REMARK SMILES IDX 14 14 15 15 16 16 17 17 18 18 19 19 20 20 21 21 22 22 23 23
REMARK SMILES IDX 24 24
REMARK H PARENT
REMARK Flexibility Score: inf
ROOT
ATOM      1  C   UNL     1       8.783  20.243  38.043  1.00  0.00     0.000 C 
ENDROOT
BRANCH   1   2
ATOM      2  C   UNL     1       9.704  19.010  37.996  1.00  0.00     0.000 C 
BRANCH   2   3
ATOM      3  C   UNL     1       9.463  18.063  36.804  1.00  0.00     0.000 C 
BRANCH   3   4
ATOM      4  C   UNL     1       8.114  18.293  36.088  1.00  0.00    -0.000 C 
BRANCH   4   5
ATOM      5  C   UNL     1       8.207  18.071  34.568  1.00  0.00    -0.000 C 
BRANCH   5   6
ATOM      6  C   UNL     1       9.524  17.379  34.156  1.00  0.00    -0.000 C 
BRANCH   6   7
ATOM      7  C   UNL     1      10.026  17.788  32.757  1.00  0.00    -0.000 C 
BRANCH   7   8
ATOM      8  C   UNL     1       8.917  18.122  31.741  1.00  0.00    -0.000 C 
BRANCH   8   9
ATOM      9  C   UNL     1       9.309  19.149  30.664  1.00  0.00    -0.000 C 
BRANCH   9  10
ATOM     10  C   UNL     1       8.206  20.191  30.405  1.00  0.00    -0.000 C 
BRANCH  10  11
ATOM     11  C   UNL     1       8.178  21.294  31.476  1.00  0.00    -0.003 C 
ATOM     12  C   UNL     1       8.855  22.585  31.016  1.00  0.00     0.004 C 
ENDBRANCH  10  11
ENDBRANCH   9  10
ENDBRANCH   8   9
ENDBRANCH   7   8
ENDBRANCH   6   7
ENDBRANCH   5   6
ENDBRANCH   4   5
ENDBRANCH   3   4
ENDBRANCH   2   3
ENDBRANCH   1   2
BRANCH   1  13
ATOM     13  C   UNL     1       9.503  21.602  37.921  1.00  0.00     0.000 C 
BRANCH  13  14
ATOM     14  C   UNL     1       9.113  22.444  36.693  1.00  0.00     0.000 C 
BRANCH  14  15
ATOM     15  C   UNL     1       9.198  21.653  35.377  1.00  0.00     0.000 C 
BRANCH  15  16
ATOM     16  C   UNL     1      10.154  22.298  34.361  1.00  0.00     0.000 C 
BRANCH  16  17
ATOM     17  C   UNL     1      11.277  21.347  33.913  1.00  0.00     0.000 C 
BRANCH  17  18
ATOM     18  C   UNL     1      11.598  20.280  34.982  1.00  0.00     0.000 C 
BRANCH  18  19
ATOM     19  C   UNL     1      12.821  20.623  35.854  1.00  0.00     0.000 C 
BRANCH  19  20
ATOM     20  C   UNL     1      13.401  19.436  36.643  1.00  0.00     0.006 C 
BRANCH  20  21
ATOM     21  C   UNL     1      13.462  18.143  35.816  1.00  0.00     0.053 C 
BRANCH  21  22
ATOM     22  C   UNL     1      13.166  16.950  36.670  1.00  0.00     0.041 C 
ATOM     23  O   UNL     1      13.263  15.788  36.193  1.00  0.00    -0.550 OA
ATOM     24  O   UNL     1      12.772  17.122  37.993  1.00  0.00    -0.550 OA
ENDBRANCH  21  22
ENDBRANCH  20  21
ENDBRANCH  19  20
ENDBRANCH  18  19
ENDBRANCH  17  18
ENDBRANCH  16  17
ENDBRANCH  15  16
ENDBRANCH  14  15
ENDBRANCH  13  14
ENDBRANCH   1  13
TORSDOF 20
ENDMDL
