MODEL 1
REMARK VINA RESULT:    -7.901      0.000      0.000
REMARK INTER + INTRA:         -14.127
REMARK INTER:                 -12.520
REMARK INTRA:                  -1.607
REMARK UNBOUND:                -1.607
REMARK SMILES C[C@H]1O[C@H](O[C@H]2[C@H](Oc3cc(O)c4c(c3)O[C@@H](c3ccc(O)cc3)CC4=O)O[C@@H](CO)[C@H](O)[C@@H]2O)[C@@H](O)[C@H](O)[C@@H]1O
REMARK SMILES IDX 6 1 34 2 32 3 29 4 28 5 7 6 5 7 4 8 1 9 2 10 40 11 3 12
REMARK SMILES IDX 38 13 36 14 41 15 39 17 37 19 35 21 8 23 9 24 10 25 15 26
REMARK SMILES IDX 11 27 14 28 13 29 16 30 26 31 17 32 27 33 25 34 12 35 18 37
REMARK SMILES IDX 19 38 24 39 20 40 23 41 21 42 22 43 33 45 30 47 31 48
REMARK H PARENT 41 16 39 18 37 20 35 22 12 36 22 44 33 46 31 49
REMARK Flexibility Score: inf
ROOT
ATOM      1  C   UNL     1      14.914  -1.546  31.500  1.00  0.00     0.221 C 
ATOM      2  C   UNL     1      16.015  -0.889  32.340  1.00  0.00     0.181 C 
ATOM      3  C   UNL     1      15.765   0.622  32.466  1.00  0.00     0.177 C 
ATOM      4  C   UNL     1      15.473   1.261  31.081  1.00  0.00     0.179 C 
ATOM      5  O   UNL     1      14.445   0.563  30.386  1.00  0.00    -0.332 OA
ATOM      6  C   UNL     1      14.791  -0.796  30.153  1.00  0.00     0.339 C 
ENDROOT
BRANCH   1   7
ATOM      7  O   UNL     1      13.702  -1.405  32.217  1.00  0.00    -0.337 OA
BRANCH   7   8
ATOM      8  C   UNL     1      13.023  -2.630  32.458  1.00  0.00     0.282 C 
ATOM      9  C   UNL     1      12.898  -2.287  36.124  1.00  0.00     0.041 C 
ATOM     10  C   UNL     1      12.625  -1.918  34.663  1.00  0.00     0.150 C 
ATOM     11  C   UNL     1      11.109  -1.691  34.426  1.00  0.00     0.174 C 
ATOM     12  O   UNL     1      13.119  -2.966  33.837  1.00  0.00    -0.344 OA
ATOM     13  C   UNL     1      10.820  -1.443  32.920  1.00  0.00     0.179 C 
ATOM     14  C   UNL     1      11.543  -2.488  32.038  1.00  0.00     0.202 C 
BRANCH  11  15
ATOM     15  O   UNL     1      10.641  -0.600  35.190  1.00  0.00    -0.388 OA
ATOM     16  H   UNL     1      10.838  -0.802  36.144  1.00  0.00     0.211 HD
ENDBRANCH  11  15
BRANCH  13  17
ATOM     17  O   UNL     1      11.239  -0.158  32.516  1.00  0.00    -0.387 OA
ATOM     18  H   UNL     1      10.475   0.283  32.059  1.00  0.00     0.211 HD
ENDBRANCH  13  17
BRANCH  14  19
ATOM     19  O   UNL     1      10.893  -3.735  32.066  1.00  0.00    -0.385 OA
ATOM     20  H   UNL     1      11.234  -4.233  32.853  1.00  0.00     0.211 HD
ENDBRANCH  14  19
ENDBRANCH   7   8
ENDBRANCH   1   7
BRANCH   2  21
ATOM     21  O   UNL     1      17.282  -1.123  31.780  1.00  0.00    -0.387 OA
ATOM     22  H   UNL     1      17.460  -0.369  31.159  1.00  0.00     0.211 HD
ENDBRANCH   2  21
BRANCH   6  23
ATOM     23  O   UNL     1      15.990  -0.884  29.364  1.00  0.00    -0.462 OA
BRANCH  23  24
ATOM     24  C   UNL     1      16.366  -1.982  28.575  1.00  0.00     0.130 A 
ATOM     25  C   UNL     1      17.267  -2.961  29.028  1.00  0.00     0.093 A 
ATOM     26  C   UNL     1      15.838  -2.090  27.282  1.00  0.00     0.094 A 
ATOM     27  C   UNL     1      17.685  -3.999  28.180  1.00  0.00     0.133 A 
ATOM     28  C   UNL     1      16.263  -3.112  26.421  1.00  0.00     0.138 A 
ATOM     29  C   UNL     1      17.206  -4.055  26.856  1.00  0.00     0.102 A 
ATOM     30  O   UNL     1      15.771  -3.155  25.107  1.00  0.00    -0.484 OA
ATOM     31  C   UNL     1      17.717  -5.020  25.859  1.00  0.00     0.174 C 
ATOM     32  C   UNL     1      15.940  -4.294  24.251  1.00  0.00     0.211 C 
ATOM     33  O   UNL     1      18.489  -5.950  26.203  1.00  0.00    -0.294 OA
ATOM     34  C   UNL     1      17.373  -4.842  24.404  1.00  0.00     0.131 C 
BRANCH  27  35
ATOM     35  O   UNL     1      18.576  -4.965  28.657  1.00  0.00    -0.507 OA
ATOM     36  H   UNL     1      18.252  -5.863  29.001  1.00  0.00     0.293 HD
ENDBRANCH  27  35
BRANCH  32  37
ATOM     37  C   UNL     1      15.593  -3.920  22.811  1.00  0.00    -0.007 A 
ATOM     38  C   UNL     1      14.420  -3.199  22.494  1.00  0.00     0.011 A 
ATOM     39  C   UNL     1      16.507  -4.185  21.770  1.00  0.00     0.011 A 
ATOM     40  C   UNL     1      14.143  -2.825  21.173  1.00  0.00     0.046 A 
ATOM     41  C   UNL     1      16.232  -3.795  20.456  1.00  0.00     0.046 A 
ATOM     42  C   UNL     1      15.043  -3.129  20.153  1.00  0.00     0.115 A 
BRANCH  42  43
ATOM     43  O   UNL     1      14.745  -2.757  18.844  1.00  0.00    -0.508 OA
ATOM     44  H   UNL     1      15.110  -1.900  18.435  1.00  0.00     0.293 HD
ENDBRANCH  42  43
ENDBRANCH  32  37
ENDBRANCH  23  24
ENDBRANCH   6  23
BRANCH   3  45
ATOM     45  O   UNL     1      16.899   1.227  33.040  1.00  0.00    -0.387 OA
ATOM     46  H   UNL     1      16.664   1.469  33.975  1.00  0.00     0.211 HD
ENDBRANCH   3  45
BRANCH   4  47
ATOM     47  C   UNL     1      15.033   2.717  31.253  1.00  0.00     0.191 C 
BRANCH  47  48
ATOM     48  O   UNL     1      14.232   2.839  32.399  1.00  0.00    -0.394 OA
ATOM     49  H   UNL     1      13.318   2.552  32.137  1.00  0.00     0.210 HD
ENDBRANCH  47  48
ENDBRANCH   4  47
TORSDOF 14
ENDMDL
MODEL 2
REMARK VINA RESULT:    -7.763     15.199     18.456
REMARK INTER + INTRA:         -13.908
REMARK INTER:                 -12.314
REMARK INTRA:                  -1.594
REMARK UNBOUND:                -1.607
REMARK SMILES C[C@H]1O[C@H](O[C@H]2[C@H](Oc3cc(O)c4c(c3)O[C@@H](c3ccc(O)cc3)CC4=O)O[C@@H](CO)[C@H](O)[C@@H]2O)[C@@H](O)[C@H](O)[C@@H]1O
REMARK SMILES IDX 6 1 34 2 32 3 29 4 28 5 7 6 5 7 4 8 1 9 2 10 40 11 3 12
REMARK SMILES IDX 38 13 36 14 41 15 39 17 37 19 35 21 8 23 9 24 10 25 15 26
REMARK SMILES IDX 11 27 14 28 13 29 16 30 26 31 17 32 27 33 25 34 12 35 18 37
REMARK SMILES IDX 19 38 24 39 20 40 23 41 21 42 22 43 33 45 30 47 31 48
REMARK H PARENT 41 16 39 18 37 20 35 22 12 36 22 44 33 46 31 49
REMARK Flexibility Score: inf
ROOT
ATOM      1  C   UNL     1       2.589   7.533  19.763  1.00  0.00     0.221 C 
ATOM      2  C   UNL     1       1.754   8.747  20.184  1.00  0.00     0.181 C 
ATOM      3  C   UNL     1       0.895   9.241  19.009  1.00  0.00     0.177 C 
ATOM      4  C   UNL     1       1.744   9.395  17.718  1.00  0.00     0.179 C 
ATOM      5  O   UNL     1       2.486   8.215  17.432  1.00  0.00    -0.332 OA
ATOM      6  C   UNL     1       3.384   7.886  18.484  1.00  0.00     0.339 C 
ENDROOT
BRANCH   1   7
ATOM      7  O   UNL     1       1.685   6.486  19.469  1.00  0.00    -0.337 OA
BRANCH   7   8
ATOM      8  C   UNL     1       2.177   5.189  19.776  1.00  0.00     0.282 C 
ATOM      9  C   UNL     1      -1.110   3.692  20.503  1.00  0.00     0.041 C 
ATOM     10  C   UNL     1      -0.029   4.380  19.666  1.00  0.00     0.150 C 
ATOM     11  C   UNL     1       0.206   3.619  18.335  1.00  0.00     0.174 C 
ATOM     12  O   UNL     1       1.166   4.439  20.438  1.00  0.00    -0.344 OA
ATOM     13  C   UNL     1       1.391   4.245  17.547  1.00  0.00     0.179 C 
ATOM     14  C   UNL     1       2.608   4.480  18.472  1.00  0.00     0.202 C 
BRANCH  11  15
ATOM     15  O   UNL     1      -0.959   3.632  17.538  1.00  0.00    -0.388 OA
ATOM     16  H   UNL     1      -0.729   3.197  16.673  1.00  0.00     0.211 HD
ENDBRANCH  11  15
BRANCH  13  17
ATOM     17  O   UNL     1       1.032   5.478  16.965  1.00  0.00    -0.387 OA
ATOM     18  H   UNL     1       0.228   5.327  16.401  1.00  0.00     0.211 HD
ENDBRANCH  13  17
BRANCH  14  19
ATOM     19  O   UNL     1       3.290   3.283  18.754  1.00  0.00    -0.385 OA
ATOM     20  H   UNL     1       4.233   3.401  18.468  1.00  0.00     0.211 HD
ENDBRANCH  14  19
ENDBRANCH   7   8
ENDBRANCH   1   7
BRANCH   2  21
ATOM     21  O   UNL     1       2.576   9.787  20.650  1.00  0.00    -0.387 OA
ATOM     22  H   UNL     1       2.918   9.500  21.537  1.00  0.00     0.211 HD
ENDBRANCH   2  21
BRANCH   6  23
ATOM     23  O   UNL     1       4.324   8.953  18.698  1.00  0.00    -0.462 OA
BRANCH  23  24
ATOM     24  C   UNL     1       5.537   8.841  19.395  1.00  0.00     0.130 A 
ATOM     25  C   UNL     1       5.590   8.591  20.777  1.00  0.00     0.093 A 
ATOM     26  C   UNL     1       6.734   9.007  18.687  1.00  0.00     0.094 A 
ATOM     27  C   UNL     1       6.820   8.570  21.455  1.00  0.00     0.133 A 
ATOM     28  C   UNL     1       7.966   9.006  19.357  1.00  0.00     0.138 A 
ATOM     29  C   UNL     1       8.013   8.813  20.747  1.00  0.00     0.102 A 
ATOM     30  O   UNL     1       9.145   9.245  18.635  1.00  0.00    -0.484 OA
ATOM     31  C   UNL     1       9.324   8.963  21.413  1.00  0.00     0.174 C 
ATOM     32  C   UNL     1      10.451   9.006  19.177  1.00  0.00     0.211 C 
ATOM     33  O   UNL     1       9.455   8.710  22.637  1.00  0.00    -0.294 OA
ATOM     34  C   UNL     1      10.499   9.498  20.637  1.00  0.00     0.131 C 
BRANCH  27  35
ATOM     35  O   UNL     1       6.847   8.311  22.829  1.00  0.00    -0.507 OA
ATOM     36  H   UNL     1       5.994   8.171  23.360  1.00  0.00     0.293 HD
ENDBRANCH  27  35
BRANCH  32  37
ATOM     37  C   UNL     1      11.511   9.657  18.291  1.00  0.00    -0.007 A 
ATOM     38  C   UNL     1      11.410   9.645  16.882  1.00  0.00     0.011 A 
ATOM     39  C   UNL     1      12.563  10.398  18.870  1.00  0.00     0.011 A 
ATOM     40  C   UNL     1      12.367  10.288  16.088  1.00  0.00     0.046 A 
ATOM     41  C   UNL     1      13.506  11.051  18.073  1.00  0.00     0.046 A 
ATOM     42  C   UNL     1      13.420  10.985  16.681  1.00  0.00     0.115 A 
BRANCH  42  43
ATOM     43  O   UNL     1      14.368  11.610  15.875  1.00  0.00    -0.508 OA
ATOM     44  H   UNL     1      14.963  12.355  16.229  1.00  0.00     0.293 HD
ENDBRANCH  42  43
ENDBRANCH  32  37
ENDBRANCH  23  24
ENDBRANCH   6  23
BRANCH   3  45
ATOM     45  O   UNL     1       0.319  10.480  19.351  1.00  0.00    -0.387 OA
ATOM     46  H   UNL     1      -0.402  10.662  18.692  1.00  0.00     0.211 HD
ENDBRANCH   3  45
BRANCH   4  47
ATOM     47  C   UNL     1       0.836   9.693  16.521  1.00  0.00     0.191 C 
BRANCH  47  48
ATOM     48  O   UNL     1      -0.389   9.026  16.676  1.00  0.00    -0.394 OA
ATOM     49  H   UNL     1      -0.180   8.055  16.708  1.00  0.00     0.210 HD
ENDBRANCH  47  48
ENDBRANCH   4  47
TORSDOF 14
ENDMDL
MODEL 3
REMARK VINA RESULT:    -6.878      4.735     10.941
REMARK INTER + INTRA:         -12.505
REMARK INTER:                 -10.903
REMARK INTRA:                  -1.602
REMARK UNBOUND:                -1.607
REMARK SMILES C[C@H]1O[C@H](O[C@H]2[C@H](Oc3cc(O)c4c(c3)O[C@@H](c3ccc(O)cc3)CC4=O)O[C@@H](CO)[C@H](O)[C@@H]2O)[C@@H](O)[C@H](O)[C@@H]1O
REMARK SMILES IDX 6 1 34 2 32 3 29 4 28 5 7 6 5 7 4 8 1 9 2 10 40 11 3 12
REMARK SMILES IDX 38 13 36 14 41 15 39 17 37 19 35 21 8 23 9 24 10 25 15 26
REMARK SMILES IDX 11 27 14 28 13 29 16 30 26 31 17 32 27 33 25 34 12 35 18 37
REMARK SMILES IDX 19 38 24 39 20 40 23 41 21 42 22 43 33 45 30 47 31 48
REMARK H PARENT 41 16 39 18 37 20 35 22 12 36 22 44 33 46 31 49
REMARK Flexibility Score: inf
ROOT
ATOM      1  C   UNL     1      14.353   0.952  30.909  1.00  0.00     0.221 C 
ATOM      2  C   UNL     1      14.340   1.188  29.395  1.00  0.00     0.181 C 
ATOM      3  C   UNL     1      15.618   0.626  28.753  1.00  0.00     0.177 C 
ATOM      4  C   UNL     1      16.885   1.093  29.519  1.00  0.00     0.179 C 
ATOM      5  O   UNL     1      16.781   0.836  30.915  1.00  0.00    -0.332 OA
ATOM      6  C   UNL     1      15.671   1.508  31.496  1.00  0.00     0.339 C 
ENDROOT
BRANCH   1   7
ATOM      7  O   UNL     1      14.314  -0.447  31.113  1.00  0.00    -0.337 OA
BRANCH   7   8
ATOM      8  C   UNL     1      14.013  -0.833  32.448  1.00  0.00     0.282 C 
ATOM      9  C   UNL     1      10.415  -1.389  31.889  1.00  0.00     0.041 C 
ATOM     10  C   UNL     1      11.919  -1.601  31.703  1.00  0.00     0.150 C 
ATOM     11  C   UNL     1      12.291  -3.097  31.875  1.00  0.00     0.174 C 
ATOM     12  O   UNL     1      12.607  -0.792  32.652  1.00  0.00    -0.344 OA
ATOM     13  C   UNL     1      13.832  -3.291  31.812  1.00  0.00     0.179 C 
ATOM     14  C   UNL     1      14.556  -2.257  32.707  1.00  0.00     0.202 C 
BRANCH  11  15
ATOM     15  O   UNL     1      11.669  -3.885  30.882  1.00  0.00    -0.388 OA
ATOM     16  H   UNL     1      10.687  -3.829  31.034  1.00  0.00     0.211 HD
ENDBRANCH  11  15
BRANCH  13  17
ATOM     17  O   UNL     1      14.318  -3.155  30.496  1.00  0.00    -0.387 OA
ATOM     18  H   UNL     1      14.961  -3.895  30.330  1.00  0.00     0.211 HD
ENDBRANCH  13  17
BRANCH  14  19
ATOM     19  O   UNL     1      14.464  -2.588  34.070  1.00  0.00    -0.385 OA
ATOM     20  H   UNL     1      13.509  -2.765  34.271  1.00  0.00     0.211 HD
ENDBRANCH  14  19
ENDBRANCH   7   8
ENDBRANCH   1   7
BRANCH   2  21
ATOM     21  O   UNL     1      14.215   2.557  29.101  1.00  0.00    -0.387 OA
ATOM     22  H   UNL     1      13.260   2.711  28.878  1.00  0.00     0.211 HD
ENDBRANCH   2  21
BRANCH   6  23
ATOM     23  O   UNL     1      15.794   2.930  31.322  1.00  0.00    -0.462 OA
BRANCH  23  24
ATOM     24  C   UNL     1      16.371   3.816  32.244  1.00  0.00     0.130 A 
ATOM     25  C   UNL     1      17.315   3.400  33.198  1.00  0.00     0.093 A 
ATOM     26  C   UNL     1      15.971   5.159  32.223  1.00  0.00     0.094 A 
ATOM     27  C   UNL     1      17.807   4.297  34.159  1.00  0.00     0.133 A 
ATOM     28  C   UNL     1      16.442   6.058  33.190  1.00  0.00     0.138 A 
ATOM     29  C   UNL     1      17.342   5.627  34.177  1.00  0.00     0.102 A 
ATOM     30  O   UNL     1      15.971   7.381  33.190  1.00  0.00    -0.484 OA
ATOM     31  C   UNL     1      17.690   6.584  35.249  1.00  0.00     0.174 C 
ATOM     32  C   UNL     1      16.583   8.425  33.960  1.00  0.00     0.211 C 
ATOM     33  O   UNL     1      18.562   6.296  36.107  1.00  0.00    -0.294 OA
ATOM     34  C   UNL     1      16.941   7.886  35.360  1.00  0.00     0.131 C 
BRANCH  27  35
ATOM     35  O   UNL     1      18.752   3.861  35.093  1.00  0.00    -0.507 OA
ATOM     36  H   UNL     1      19.307   4.516  35.633  1.00  0.00     0.293 HD
ENDBRANCH  27  35
BRANCH  32  37
ATOM     37  C   UNL     1      15.667   9.645  34.005  1.00  0.00    -0.007 A 
ATOM     38  C   UNL     1      14.926   9.975  35.162  1.00  0.00     0.011 A 
ATOM     39  C   UNL     1      15.634  10.548  32.921  1.00  0.00     0.011 A 
ATOM     40  C   UNL     1      14.128  11.124  35.199  1.00  0.00     0.046 A 
ATOM     41  C   UNL     1      14.847  11.701  32.970  1.00  0.00     0.046 A 
ATOM     42  C   UNL     1      14.081  11.984  34.103  1.00  0.00     0.115 A 
BRANCH  42  43
ATOM     43  O   UNL     1      13.274  13.118  34.155  1.00  0.00    -0.508 OA
ATOM     44  H   UNL     1      13.472  13.942  33.593  1.00  0.00     0.293 HD
ENDBRANCH  42  43
ENDBRANCH  32  37
ENDBRANCH  23  24
ENDBRANCH   6  23
BRANCH   3  45
ATOM     45  O   UNL     1      15.684   1.055  27.414  1.00  0.00    -0.387 OA
ATOM     46  H   UNL     1      14.982   0.565  26.911  1.00  0.00     0.211 HD
ENDBRANCH   3  45
BRANCH   4  47
ATOM     47  C   UNL     1      18.123   0.365  28.986  1.00  0.00     0.191 C 
BRANCH  47  48
ATOM     48  O   UNL     1      17.735  -0.816  28.336  1.00  0.00    -0.394 OA
ATOM     49  H   UNL     1      18.004  -0.716  27.384  1.00  0.00     0.210 HD
ENDBRANCH  47  48
ENDBRANCH   4  47
TORSDOF 14
ENDMDL
MODEL 4
REMARK VINA RESULT:    -6.584      4.276      9.864
REMARK INTER + INTRA:         -12.041
REMARK INTER:                 -10.126
REMARK INTRA:                  -1.915
REMARK UNBOUND:                -1.607
REMARK SMILES C[C@H]1O[C@H](O[C@H]2[C@H](Oc3cc(O)c4c(c3)O[C@@H](c3ccc(O)cc3)CC4=O)O[C@@H](CO)[C@H](O)[C@@H]2O)[C@@H](O)[C@H](O)[C@@H]1O
REMARK SMILES IDX 6 1 34 2 32 3 29 4 28 5 7 6 5 7 4 8 1 9 2 10 40 11 3 12
REMARK SMILES IDX 38 13 36 14 41 15 39 17 37 19 35 21 8 23 9 24 10 25 15 26
REMARK SMILES IDX 11 27 14 28 13 29 16 30 26 31 17 32 27 33 25 34 12 35 18 37
REMARK SMILES IDX 19 38 24 39 20 40 23 41 21 42 22 43 33 45 30 47 31 48
REMARK H PARENT 41 16 39 18 37 20 35 22 12 36 22 44 33 46 31 49
REMARK Flexibility Score: inf
ROOT
ATOM      1  C   UNL     1      14.846   1.217  30.453  1.00  0.00     0.221 C 
ATOM      2  C   UNL     1      14.774   1.511  28.951  1.00  0.00     0.181 C 
ATOM      3  C   UNL     1      15.385   0.352  28.147  1.00  0.00     0.177 C 
ATOM      4  C   UNL     1      16.774  -0.052  28.711  1.00  0.00     0.179 C 
ATOM      5  O   UNL     1      16.725  -0.287  30.114  1.00  0.00    -0.332 OA
ATOM      6  C   UNL     1      16.304   0.867  30.830  1.00  0.00     0.339 C 
ENDROOT
BRANCH   1   7
ATOM      7  O   UNL     1      14.025   0.091  30.698  1.00  0.00    -0.337 OA
BRANCH   7   8
ATOM      8  C   UNL     1      13.830  -0.199  32.075  1.00  0.00     0.282 C 
ATOM      9  C   UNL     1      10.404  -1.503  31.715  1.00  0.00     0.041 C 
ATOM     10  C   UNL     1      11.917  -1.436  31.494  1.00  0.00     0.150 C 
ATOM     11  C   UNL     1      12.581  -2.804  31.804  1.00  0.00     0.174 C 
ATOM     12  O   UNL     1      12.447  -0.411  32.328  1.00  0.00    -0.344 OA
ATOM     13  C   UNL     1      14.128  -2.699  31.703  1.00  0.00     0.179 C 
ATOM     14  C   UNL     1      14.649  -1.453  32.458  1.00  0.00     0.202 C 
BRANCH  11  15
ATOM     15  O   UNL     1      12.109  -3.800  30.922  1.00  0.00    -0.388 OA
ATOM     16  H   UNL     1      12.752  -3.850  30.164  1.00  0.00     0.211 HD
ENDBRANCH  11  15
BRANCH  13  17
ATOM     17  O   UNL     1      14.555  -2.614  30.362  1.00  0.00    -0.387 OA
ATOM     18  H   UNL     1      15.549  -2.616  30.357  1.00  0.00     0.211 HD
ENDBRANCH  13  17
BRANCH  14  19
ATOM     19  O   UNL     1      14.647  -1.646  33.851  1.00  0.00    -0.385 OA
ATOM     20  H   UNL     1      15.554  -1.422  34.185  1.00  0.00     0.211 HD
ENDBRANCH  14  19
ENDBRANCH   7   8
ENDBRANCH   1   7
BRANCH   2  21
ATOM     21  O   UNL     1      15.433   2.712  28.640  1.00  0.00    -0.387 OA
ATOM     22  H   UNL     1      15.951   2.544  27.811  1.00  0.00     0.211 HD
ENDBRANCH   2  21
BRANCH   6  23
ATOM     23  O   UNL     1      17.208   1.961  30.601  1.00  0.00    -0.462 OA
BRANCH  23  24
ATOM     24  C   UNL     1      17.373   3.070  31.446  1.00  0.00     0.130 A 
ATOM     25  C   UNL     1      17.736   2.939  32.797  1.00  0.00     0.093 A 
ATOM     26  C   UNL     1      17.145   4.349  30.923  1.00  0.00     0.094 A 
ATOM     27  C   UNL     1      17.809   4.066  33.632  1.00  0.00     0.133 A 
ATOM     28  C   UNL     1      17.196   5.479  31.753  1.00  0.00     0.138 A 
ATOM     29  C   UNL     1      17.504   5.340  33.115  1.00  0.00     0.102 A 
ATOM     30  O   UNL     1      16.894   6.741  31.220  1.00  0.00    -0.484 OA
ATOM     31  C   UNL     1      17.404   6.547  33.964  1.00  0.00     0.174 C 
ATOM     32  C   UNL     1      17.173   7.966  31.913  1.00  0.00     0.211 C 
ATOM     33  O   UNL     1      17.758   6.514  35.169  1.00  0.00    -0.294 OA
ATOM     34  C   UNL     1      16.803   7.808  33.401  1.00  0.00     0.131 C 
BRANCH  27  35
ATOM     35  O   UNL     1      18.181   3.911  34.971  1.00  0.00    -0.507 OA
ATOM     36  H   UNL     1      17.842   3.134  35.530  1.00  0.00     0.293 HD
ENDBRANCH  27  35
BRANCH  32  37
ATOM     37  C   UNL     1      16.447   9.126  31.236  1.00  0.00    -0.007 A 
ATOM     38  C   UNL     1      16.409   9.259  29.830  1.00  0.00     0.011 A 
ATOM     39  C   UNL     1      15.688  10.034  32.004  1.00  0.00     0.011 A 
ATOM     40  C   UNL     1      15.699  10.303  29.226  1.00  0.00     0.046 A 
ATOM     41  C   UNL     1      14.968  11.065  31.395  1.00  0.00     0.046 A 
ATOM     42  C   UNL     1      14.985  11.211  30.007  1.00  0.00     0.115 A 
BRANCH  42  43
ATOM     43  O   UNL     1      14.292  12.249  29.389  1.00  0.00    -0.508 OA
ATOM     44  H   UNL     1      14.766  13.089  29.063  1.00  0.00     0.293 HD
ENDBRANCH  42  43
ENDBRANCH  32  37
ENDBRANCH  23  24
ENDBRANCH   6  23
BRANCH   3  45
ATOM     45  O   UNL     1      15.513   0.745  26.801  1.00  0.00    -0.387 OA
ATOM     46  H   UNL     1      16.313   0.285  26.433  1.00  0.00     0.211 HD
ENDBRANCH   3  45
BRANCH   4  47
ATOM     47  C   UNL     1      17.272  -1.328  28.027  1.00  0.00     0.191 C 
BRANCH  47  48
ATOM     48  O   UNL     1      16.178  -2.132  27.669  1.00  0.00    -0.394 OA
ATOM     49  H   UNL     1      16.210  -2.932  28.258  1.00  0.00     0.210 HD
ENDBRANCH  47  48
ENDBRANCH   4  47
TORSDOF 14
ENDMDL
MODEL 5
REMARK VINA RESULT:    -6.219      5.282     10.427
REMARK INTER + INTRA:         -11.461
REMARK INTER:                  -9.747
REMARK INTRA:                  -1.714
REMARK UNBOUND:                -1.607
REMARK SMILES C[C@H]1O[C@H](O[C@H]2[C@H](Oc3cc(O)c4c(c3)O[C@@H](c3ccc(O)cc3)CC4=O)O[C@@H](CO)[C@H](O)[C@@H]2O)[C@@H](O)[C@H](O)[C@@H]1O
REMARK SMILES IDX 6 1 34 2 32 3 29 4 28 5 7 6 5 7 4 8 1 9 2 10 40 11 3 12
REMARK SMILES IDX 38 13 36 14 41 15 39 17 37 19 35 21 8 23 9 24 10 25 15 26
REMARK SMILES IDX 11 27 14 28 13 29 16 30 26 31 17 32 27 33 25 34 12 35 18 37
REMARK SMILES IDX 19 38 24 39 20 40 23 41 21 42 22 43 33 45 30 47 31 48
REMARK H PARENT 41 16 39 18 37 20 35 22 12 36 22 44 33 46 31 49
REMARK Flexibility Score: inf
ROOT
ATOM      1  C   UNL     1      16.747   6.668  32.324  1.00  0.00     0.221 C 
ATOM      2  C   UNL     1      15.818   6.902  33.519  1.00  0.00     0.181 C 
ATOM      3  C   UNL     1      16.621   7.385  34.738  1.00  0.00     0.177 C 
ATOM      4  C   UNL     1      17.861   6.484  34.986  1.00  0.00     0.179 C 
ATOM      5  O   UNL     1      18.642   6.327  33.807  1.00  0.00    -0.332 OA
ATOM      6  C   UNL     1      17.898   5.728  32.754  1.00  0.00     0.339 C 
ENDROOT
BRANCH   1   7
ATOM      7  O   UNL     1      17.290   7.924  31.965  1.00  0.00    -0.337 OA
BRANCH   7   8
ATOM      8  C   UNL     1      17.471   8.102  30.567  1.00  0.00     0.282 C 
ATOM      9  C   UNL     1      14.860  10.669  30.163  1.00  0.00     0.041 C 
ATOM     10  C   UNL     1      16.153  10.045  30.693  1.00  0.00     0.150 C 
ATOM     11  C   UNL     1      17.356  11.000  30.474  1.00  0.00     0.174 C 
ATOM     12  O   UNL     1      16.358   8.804  30.026  1.00  0.00    -0.344 OA
ATOM     13  C   UNL     1      18.685  10.314  30.895  1.00  0.00     0.179 C 
ATOM     14  C   UNL     1      18.779   8.884  30.313  1.00  0.00     0.202 C 
BRANCH  11  15
ATOM     15  O   UNL     1      17.184  12.198  31.200  1.00  0.00    -0.388 OA
ATOM     16  H   UNL     1      16.233  12.472  31.095  1.00  0.00     0.211 HD
ENDBRANCH  11  15
BRANCH  13  17
ATOM     17  O   UNL     1      18.802  10.229  32.298  1.00  0.00    -0.387 OA
ATOM     18  H   UNL     1      18.331   9.406  32.594  1.00  0.00     0.211 HD
ENDBRANCH  13  17
BRANCH  14  19
ATOM     19  O   UNL     1      19.098   8.897  28.943  1.00  0.00    -0.385 OA
ATOM     20  H   UNL     1      18.472   8.278  28.485  1.00  0.00     0.211 HD
ENDBRANCH  14  19
ENDBRANCH   7   8
ENDBRANCH   1   7
BRANCH   2  21
ATOM     21  O   UNL     1      15.109   5.732  33.843  1.00  0.00    -0.387 OA
ATOM     22  H   UNL     1      14.319   5.706  33.243  1.00  0.00     0.211 HD
ENDBRANCH   2  21
BRANCH   6  23
ATOM     23  O   UNL     1      17.427   4.427  33.144  1.00  0.00    -0.462 OA
BRANCH  23  24
ATOM     24  C   UNL     1      16.952   3.438  32.269  1.00  0.00     0.130 A 
ATOM     25  C   UNL     1      17.407   3.323  30.945  1.00  0.00     0.093 A 
ATOM     26  C   UNL     1      15.972   2.549  32.731  1.00  0.00     0.094 A 
ATOM     27  C   UNL     1      16.848   2.374  30.073  1.00  0.00     0.133 A 
ATOM     28  C   UNL     1      15.393   1.612  31.864  1.00  0.00     0.138 A 
ATOM     29  C   UNL     1      15.810   1.536  30.526  1.00  0.00     0.102 A 
ATOM     30  O   UNL     1      14.364   0.781  32.333  1.00  0.00    -0.484 OA
ATOM     31  C   UNL     1      15.065   0.627  29.629  1.00  0.00     0.174 C 
ATOM     32  C   UNL     1      13.901  -0.368  31.611  1.00  0.00     0.211 C 
ATOM     33  O   UNL     1      15.445   0.439  28.446  1.00  0.00    -0.294 OA
ATOM     34  C   UNL     1      13.796  -0.023  30.112  1.00  0.00     0.131 C 
BRANCH  27  35
ATOM     35  O   UNL     1      17.324   2.274  28.763  1.00  0.00    -0.507 OA
ATOM     36  H   UNL     1      16.716   2.419  27.964  1.00  0.00     0.293 HD
ENDBRANCH  27  35
BRANCH  32  37
ATOM     37  C   UNL     1      12.584  -0.863  32.205  1.00  0.00    -0.007 A 
ATOM     38  C   UNL     1      11.462  -1.142  31.394  1.00  0.00     0.011 A 
ATOM     39  C   UNL     1      12.497  -1.170  33.580  1.00  0.00     0.011 A 
ATOM     40  C   UNL     1      10.279  -1.640  31.952  1.00  0.00     0.046 A 
ATOM     41  C   UNL     1      11.318  -1.680  34.129  1.00  0.00     0.046 A 
ATOM     42  C   UNL     1      10.202  -1.902  33.320  1.00  0.00     0.115 A 
BRANCH  42  43
ATOM     43  O   UNL     1       9.013  -2.387  33.858  1.00  0.00    -0.508 OA
ATOM     44  H   UNL     1       8.490  -3.137  33.412  1.00  0.00     0.293 HD
ENDBRANCH  42  43
ENDBRANCH  32  37
ENDBRANCH  23  24
ENDBRANCH   6  23
BRANCH   3  45
ATOM     45  O   UNL     1      15.787   7.371  35.871  1.00  0.00    -0.387 OA
ATOM     46  H   UNL     1      15.346   6.481  35.903  1.00  0.00     0.211 HD
ENDBRANCH   3  45
BRANCH   4  47
ATOM     47  C   UNL     1      18.750   7.096  36.073  1.00  0.00     0.191 C 
BRANCH  47  48
ATOM     48  O   UNL     1      18.551   8.485  36.122  1.00  0.00    -0.394 OA
ATOM     49  H   UNL     1      18.672   8.821  35.195  1.00  0.00     0.210 HD
ENDBRANCH  47  48
ENDBRANCH   4  47
TORSDOF 14
ENDMDL
MODEL 6
REMARK VINA RESULT:    -5.936      3.757     10.195
REMARK INTER + INTRA:         -11.014
REMARK INTER:                  -9.277
REMARK INTRA:                  -1.736
REMARK UNBOUND:                -1.607
REMARK SMILES C[C@H]1O[C@H](O[C@H]2[C@H](Oc3cc(O)c4c(c3)O[C@@H](c3ccc(O)cc3)CC4=O)O[C@@H](CO)[C@H](O)[C@@H]2O)[C@@H](O)[C@H](O)[C@@H]1O
REMARK SMILES IDX 6 1 34 2 32 3 29 4 28 5 7 6 5 7 4 8 1 9 2 10 40 11 3 12
REMARK SMILES IDX 38 13 36 14 41 15 39 17 37 19 35 21 8 23 9 24 10 25 15 26
REMARK SMILES IDX 11 27 14 28 13 29 16 30 26 31 17 32 27 33 25 34 12 35 18 37
REMARK SMILES IDX 19 38 24 39 20 40 23 41 21 42 22 43 33 45 30 47 31 48
REMARK H PARENT 41 16 39 18 37 20 35 22 12 36 22 44 33 46 31 49
REMARK Flexibility Score: inf
ROOT
ATOM      1  C   UNL     1      15.461  -0.991  31.755  1.00  0.00     0.221 C 
ATOM      2  C   UNL     1      14.734  -1.804  32.832  1.00  0.00     0.181 C 
ATOM      3  C   UNL     1      13.296  -2.119  32.389  1.00  0.00     0.177 C 
ATOM      4  C   UNL     1      12.575  -0.843  31.875  1.00  0.00     0.179 C 
ATOM      5  O   UNL     1      13.345  -0.164  30.890  1.00  0.00    -0.332 OA
ATOM      6  C   UNL     1      14.608   0.249  31.397  1.00  0.00     0.339 C 
ENDROOT
BRANCH   1   7
ATOM      7  O   UNL     1      15.572  -1.818  30.613  1.00  0.00    -0.337 OA
BRANCH   7   8
ATOM      8  C   UNL     1      16.858  -2.400  30.439  1.00  0.00     0.282 C 
ATOM      9  C   UNL     1      15.774  -5.041  28.110  1.00  0.00     0.041 C 
ATOM     10  C   UNL     1      16.007  -3.614  28.614  1.00  0.00     0.150 C 
ATOM     11  C   UNL     1      16.783  -2.777  27.563  1.00  0.00     0.174 C 
ATOM     12  O   UNL     1      16.724  -3.683  29.841  1.00  0.00    -0.344 OA
ATOM     13  C   UNL     1      17.129  -1.371  28.127  1.00  0.00     0.179 C 
ATOM     14  C   UNL     1      17.723  -1.477  29.551  1.00  0.00     0.202 C 
BRANCH  11  15
ATOM     15  O   UNL     1      16.033  -2.645  26.374  1.00  0.00    -0.388 OA
ATOM     16  H   UNL     1      16.653  -2.316  25.669  1.00  0.00     0.211 HD
ENDBRANCH  11  15
BRANCH  13  17
ATOM     17  O   UNL     1      15.991  -0.541  28.183  1.00  0.00    -0.387 OA
ATOM     18  H   UNL     1      15.572  -0.657  29.077  1.00  0.00     0.211 HD
ENDBRANCH  13  17
BRANCH  14  19
ATOM     19  O   UNL     1      19.060  -1.913  29.529  1.00  0.00    -0.385 OA
ATOM     20  H   UNL     1      19.609  -1.176  29.157  1.00  0.00     0.211 HD
ENDBRANCH  14  19
ENDBRANCH   7   8
ENDBRANCH   1   7
BRANCH   2  21
ATOM     21  O   UNL     1      14.721  -1.117  34.058  1.00  0.00    -0.387 OA
ATOM     22  H   UNL     1      15.123  -1.729  34.729  1.00  0.00     0.211 HD
ENDBRANCH   2  21
BRANCH   6  23
ATOM     23  O   UNL     1      14.439   1.140  32.512  1.00  0.00    -0.462 OA
BRANCH  23  24
ATOM     24  C   UNL     1      15.385   2.077  32.954  1.00  0.00     0.130 A 
ATOM     25  C   UNL     1      16.349   1.771  33.929  1.00  0.00     0.093 A 
ATOM     26  C   UNL     1      15.347   3.371  32.418  1.00  0.00     0.094 A 
ATOM     27  C   UNL     1      17.225   2.759  34.408  1.00  0.00     0.133 A 
ATOM     28  C   UNL     1      16.204   4.370  32.902  1.00  0.00     0.138 A 
ATOM     29  C   UNL     1      17.129   4.076  33.917  1.00  0.00     0.102 A 
ATOM     30  O   UNL     1      16.098   5.675  32.397  1.00  0.00    -0.484 OA
ATOM     31  C   UNL     1      17.903   5.201  34.481  1.00  0.00     0.174 C 
ATOM     32  C   UNL     1      17.089   6.684  32.635  1.00  0.00     0.211 C 
ATOM     33  O   UNL     1      18.814   4.994  35.322  1.00  0.00    -0.294 OA
ATOM     34  C   UNL     1      17.548   6.615  34.105  1.00  0.00     0.131 C 
BRANCH  27  35
ATOM     35  O   UNL     1      18.181   2.427  35.372  1.00  0.00    -0.507 OA
ATOM     36  H   UNL     1      17.998   1.725  36.082  1.00  0.00     0.293 HD
ENDBRANCH  27  35
BRANCH  32  37
ATOM     37  C   UNL     1      16.542   8.055  32.243  1.00  0.00    -0.007 A 
ATOM     38  C   UNL     1      16.686   8.564  30.933  1.00  0.00     0.011 A 
ATOM     39  C   UNL     1      15.768   8.799  33.158  1.00  0.00     0.011 A 
ATOM     40  C   UNL     1      16.137   9.803  30.580  1.00  0.00     0.046 A 
ATOM     41  C   UNL     1      15.210  10.027  32.795  1.00  0.00     0.046 A 
ATOM     42  C   UNL     1      15.406  10.539  31.511  1.00  0.00     0.115 A 
BRANCH  42  43
ATOM     43  O   UNL     1      14.876  11.773  31.144  1.00  0.00    -0.508 OA
ATOM     44  H   UNL     1      15.261  12.313  30.373  1.00  0.00     0.293 HD
ENDBRANCH  42  43
ENDBRANCH  32  37
ENDBRANCH  23  24
ENDBRANCH   6  23
BRANCH   3  45
ATOM     45  O   UNL     1      12.589  -2.660  33.480  1.00  0.00    -0.387 OA
ATOM     46  H   UNL     1      13.243  -2.805  34.213  1.00  0.00     0.211 HD
ENDBRANCH   3  45
BRANCH   4  47
ATOM     47  C   UNL     1      11.224  -1.214  31.257  1.00  0.00     0.191 C 
BRANCH  47  48
ATOM     48  O   UNL     1      11.223  -2.569  30.894  1.00  0.00    -0.394 OA
ATOM     49  H   UNL     1      10.341  -2.750  30.475  1.00  0.00     0.210 HD
ENDBRANCH  47  48
ENDBRANCH   4  47
TORSDOF 14
ENDMDL
MODEL 7
REMARK VINA RESULT:    -5.905     14.103     16.795
REMARK INTER + INTRA:         -10.965
REMARK INTER:                  -9.466
REMARK INTRA:                  -1.498
REMARK UNBOUND:                -1.607
REMARK SMILES C[C@H]1O[C@H](O[C@H]2[C@H](Oc3cc(O)c4c(c3)O[C@@H](c3ccc(O)cc3)CC4=O)O[C@@H](CO)[C@H](O)[C@@H]2O)[C@@H](O)[C@H](O)[C@@H]1O
REMARK SMILES IDX 6 1 34 2 32 3 29 4 28 5 7 6 5 7 4 8 1 9 2 10 40 11 3 12
REMARK SMILES IDX 38 13 36 14 41 15 39 17 37 19 35 21 8 23 9 24 10 25 15 26
REMARK SMILES IDX 11 27 14 28 13 29 16 30 26 31 17 32 27 33 25 34 12 35 18 37
REMARK SMILES IDX 19 38 24 39 20 40 23 41 21 42 22 43 33 45 30 47 31 48
REMARK H PARENT 41 16 39 18 37 20 35 22 12 36 22 44 33 46 31 49
REMARK Flexibility Score: inf
ROOT
ATOM      1  C   UNL     1       5.014   6.571  21.551  1.00  0.00     0.221 C 
ATOM      2  C   UNL     1       4.788   7.203  22.928  1.00  0.00     0.181 C 
ATOM      3  C   UNL     1       3.770   8.351  22.832  1.00  0.00     0.177 C 
ATOM      4  C   UNL     1       4.125   9.320  21.671  1.00  0.00     0.179 C 
ATOM      5  O   UNL     1       4.325   8.623  20.446  1.00  0.00    -0.332 OA
ATOM      6  C   UNL     1       5.386   7.680  20.540  1.00  0.00     0.339 C 
ENDROOT
BRANCH   1   7
ATOM      7  O   UNL     1       3.791   5.980  21.157  1.00  0.00    -0.337 OA
BRANCH   7   8
ATOM      8  C   UNL     1       3.641   4.626  21.562  1.00  0.00     0.282 C 
ATOM      9  C   UNL     1       0.213   4.216  20.277  1.00  0.00     0.041 C 
ATOM     10  C   UNL     1       1.718   4.488  20.216  1.00  0.00     0.150 C 
ATOM     11  C   UNL     1       2.399   3.583  19.155  1.00  0.00     0.174 C 
ATOM     12  O   UNL     1       2.267   4.261  21.509  1.00  0.00    -0.344 OA
ATOM     13  C   UNL     1       3.942   3.769  19.184  1.00  0.00     0.179 C 
ATOM     14  C   UNL     1       4.478   3.716  20.635  1.00  0.00     0.202 C 
BRANCH  11  15
ATOM     15  O   UNL     1       1.907   3.867  17.863  1.00  0.00    -0.388 OA
ATOM     16  H   UNL     1       0.915   3.802  17.905  1.00  0.00     0.211 HD
ENDBRANCH  11  15
BRANCH  13  17
ATOM     17  O   UNL     1       4.326   5.000  18.615  1.00  0.00    -0.387 OA
ATOM     18  H   UNL     1       5.059   5.378  19.170  1.00  0.00     0.211 HD
ENDBRANCH  13  17
BRANCH  14  19
ATOM     19  O   UNL     1       4.522   2.401  21.129  1.00  0.00    -0.385 OA
ATOM     20  H   UNL     1       5.311   1.955  20.726  1.00  0.00     0.211 HD
ENDBRANCH  14  19
ENDBRANCH   7   8
ENDBRANCH   1   7
BRANCH   2  21
ATOM     21  O   UNL     1       5.995   7.675  23.471  1.00  0.00    -0.387 OA
ATOM     22  H   UNL     1       6.582   6.882  23.586  1.00  0.00     0.211 HD
ENDBRANCH   2  21
BRANCH   6  23
ATOM     23  O   UNL     1       6.619   8.339  20.876  1.00  0.00    -0.462 OA
BRANCH  23  24
ATOM     24  C   UNL     1       7.549   8.842  19.953  1.00  0.00     0.130 A 
ATOM     25  C   UNL     1       7.218   9.094  18.611  1.00  0.00     0.093 A 
ATOM     26  C   UNL     1       8.861   9.077  20.386  1.00  0.00     0.094 A 
ATOM     27  C   UNL     1       8.197   9.517  17.698  1.00  0.00     0.133 A 
ATOM     28  C   UNL     1       9.850   9.481  19.478  1.00  0.00     0.138 A 
ATOM     29  C   UNL     1       9.529   9.678  18.126  1.00  0.00     0.102 A 
ATOM     30  O   UNL     1      11.171   9.641  19.923  1.00  0.00    -0.484 OA
ATOM     31  C   UNL     1      10.641   9.965  17.195  1.00  0.00     0.174 C 
ATOM     32  C   UNL     1      12.182  10.295  19.142  1.00  0.00     0.211 C 
ATOM     33  O   UNL     1      10.414  10.247  15.991  1.00  0.00    -0.294 OA
ATOM     34  C   UNL     1      12.064   9.845  17.672  1.00  0.00     0.131 C 
BRANCH  27  35
ATOM     35  O   UNL     1       7.839   9.770  16.370  1.00  0.00    -0.507 OA
ATOM     36  H   UNL     1       8.501  10.159  15.706  1.00  0.00     0.293 HD
ENDBRANCH  27  35
BRANCH  32  37
ATOM     37  C   UNL     1      13.560  10.027  19.742  1.00  0.00    -0.007 A 
ATOM     38  C   UNL     1      14.723  10.650  19.237  1.00  0.00     0.011 A 
ATOM     39  C   UNL     1      13.687   9.235  20.903  1.00  0.00     0.011 A 
ATOM     40  C   UNL     1      15.971  10.428  19.830  1.00  0.00     0.046 A 
ATOM     41  C   UNL     1      14.933   9.029  21.500  1.00  0.00     0.046 A 
ATOM     42  C   UNL     1      16.080   9.612  20.956  1.00  0.00     0.115 A 
BRANCH  42  43
ATOM     43  O   UNL     1      17.331   9.395  21.527  1.00  0.00    -0.508 OA
ATOM     44  H   UNL     1      17.978  10.160  21.706  1.00  0.00     0.293 HD
ENDBRANCH  42  43
ENDBRANCH  32  37
ENDBRANCH  23  24
ENDBRANCH   6  23
BRANCH   3  45
ATOM     45  O   UNL     1       3.755   9.054  24.051  1.00  0.00    -0.387 OA
ATOM     46  H   UNL     1       2.893   8.848  24.500  1.00  0.00     0.211 HD
ENDBRANCH   3  45
BRANCH   4  47
ATOM     47  C   UNL     1       2.997  10.335  21.467  1.00  0.00     0.191 C 
BRANCH  47  48
ATOM     48  O   UNL     1       2.250   9.993  20.329  1.00  0.00    -0.394 OA
ATOM     49  H   UNL     1       2.842  10.148  19.546  1.00  0.00     0.210 HD
ENDBRANCH  47  48
ENDBRANCH   4  47
TORSDOF 14
ENDMDL
MODEL 8
REMARK VINA RESULT:    -5.764      4.627      9.806
REMARK INTER + INTRA:         -10.740
REMARK INTER:                  -9.125
REMARK INTRA:                  -1.615
REMARK UNBOUND:                -1.607
REMARK SMILES C[C@H]1O[C@H](O[C@H]2[C@H](Oc3cc(O)c4c(c3)O[C@@H](c3ccc(O)cc3)CC4=O)O[C@@H](CO)[C@H](O)[C@@H]2O)[C@@H](O)[C@H](O)[C@@H]1O
REMARK SMILES IDX 6 1 34 2 32 3 29 4 28 5 7 6 5 7 4 8 1 9 2 10 40 11 3 12
REMARK SMILES IDX 38 13 36 14 41 15 39 17 37 19 35 21 8 23 9 24 10 25 15 26
REMARK SMILES IDX 11 27 14 28 13 29 16 30 26 31 17 32 27 33 25 34 12 35 18 37
REMARK SMILES IDX 19 38 24 39 20 40 23 41 21 42 22 43 33 45 30 47 31 48
REMARK H PARENT 41 16 39 18 37 20 35 22 12 36 22 44 33 46 31 49
REMARK Flexibility Score: inf
ROOT
ATOM      1  C   UNL     1      14.591   0.588  31.335  1.00  0.00     0.221 C 
ATOM      2  C   UNL     1      14.551   0.271  29.836  1.00  0.00     0.181 C 
ATOM      3  C   UNL     1      15.735  -0.627  29.445  1.00  0.00     0.177 C 
ATOM      4  C   UNL     1      17.073  -0.068  30.003  1.00  0.00     0.179 C 
ATOM      5  O   UNL     1      16.990   0.200  31.398  1.00  0.00    -0.332 OA
ATOM      6  C   UNL     1      15.982   1.159  31.694  1.00  0.00     0.339 C 
ENDROOT
BRANCH   1   7
ATOM      7  O   UNL     1      14.403  -0.633  32.024  1.00  0.00    -0.337 OA
BRANCH   7   8
ATOM      8  C   UNL     1      13.621  -0.521  33.205  1.00  0.00     0.282 C 
ATOM      9  C   UNL     1      10.452  -1.611  31.674  1.00  0.00     0.041 C 
ATOM     10  C   UNL     1      11.910  -1.722  32.127  1.00  0.00     0.150 C 
ATOM     11  C   UNL     1      12.128  -2.999  32.980  1.00  0.00     0.174 C 
ATOM     12  O   UNL     1      12.240  -0.551  32.867  1.00  0.00    -0.344 OA
ATOM     13  C   UNL     1      13.575  -3.043  33.544  1.00  0.00     0.179 C 
ATOM     14  C   UNL     1      13.969  -1.681  34.165  1.00  0.00     0.202 C 
BRANCH  11  15
ATOM     15  O   UNL     1      11.876  -4.160  32.217  1.00  0.00    -0.388 OA
ATOM     16  H   UNL     1      11.031  -4.004  31.714  1.00  0.00     0.211 HD
ENDBRANCH  11  15
BRANCH  13  17
ATOM     17  O   UNL     1      14.513  -3.360  32.541  1.00  0.00    -0.387 OA
ATOM     18  H   UNL     1      15.412  -3.086  32.865  1.00  0.00     0.211 HD
ENDBRANCH  13  17
BRANCH  14  19
ATOM     19  O   UNL     1      13.372  -1.487  35.423  1.00  0.00    -0.385 OA
ATOM     20  H   UNL     1      13.821  -0.714  35.851  1.00  0.00     0.211 HD
ENDBRANCH  14  19
ENDBRANCH   7   8
ENDBRANCH   1   7
BRANCH   2  21
ATOM     21  O   UNL     1      14.568   1.451  29.072  1.00  0.00    -0.387 OA
ATOM     22  H   UNL     1      13.921   1.317  28.331  1.00  0.00     0.211 HD
ENDBRANCH   2  21
BRANCH   6  23
ATOM     23  O   UNL     1      16.255   2.402  31.025  1.00  0.00    -0.462 OA
BRANCH  23  24
ATOM     24  C   UNL     1      16.326   3.660  31.643  1.00  0.00     0.130 A 
ATOM     25  C   UNL     1      15.847   3.887  32.944  1.00  0.00     0.093 A 
ATOM     26  C   UNL     1      16.875   4.729  30.923  1.00  0.00     0.094 A 
ATOM     27  C   UNL     1      15.858   5.178  33.497  1.00  0.00     0.133 A 
ATOM     28  C   UNL     1      16.873   6.025  31.459  1.00  0.00     0.138 A 
ATOM     29  C   UNL     1      16.342   6.260  32.737  1.00  0.00     0.102 A 
ATOM     30  O   UNL     1      17.364   7.091  30.689  1.00  0.00    -0.484 OA
ATOM     31  C   UNL     1      16.241   7.665  33.187  1.00  0.00     0.174 C 
ATOM     32  C   UNL     1      17.644   8.385  31.240  1.00  0.00     0.211 C 
ATOM     33  O   UNL     1      15.866   7.939  34.354  1.00  0.00    -0.294 OA
ATOM     34  C   UNL     1      16.516   8.782  32.214  1.00  0.00     0.131 C 
BRANCH  27  35
ATOM     35  O   UNL     1      15.384   5.376  34.797  1.00  0.00    -0.507 OA
ATOM     36  H   UNL     1      14.975   6.259  35.085  1.00  0.00     0.293 HD
ENDBRANCH  27  35
BRANCH  32  37
ATOM     37  C   UNL     1      17.847   9.399  30.116  1.00  0.00    -0.007 A 
ATOM     38  C   UNL     1      18.804  10.434  30.214  1.00  0.00     0.011 A 
ATOM     39  C   UNL     1      17.161   9.249  28.893  1.00  0.00     0.011 A 
ATOM     40  C   UNL     1      19.008  11.324  29.154  1.00  0.00     0.046 A 
ATOM     41  C   UNL     1      17.380  10.132  27.833  1.00  0.00     0.046 A 
ATOM     42  C   UNL     1      18.293  11.180  27.966  1.00  0.00     0.115 A 
BRANCH  42  43
ATOM     43  O   UNL     1      18.503  12.082  26.926  1.00  0.00    -0.508 OA
ATOM     44  H   UNL     1      18.964  12.976  27.078  1.00  0.00     0.293 HD
ENDBRANCH  42  43
ENDBRANCH  32  37
ENDBRANCH  23  24
ENDBRANCH   6  23
BRANCH   3  45
ATOM     45  O   UNL     1      15.802  -0.711  28.041  1.00  0.00    -0.387 OA
ATOM     46  H   UNL     1      15.033  -1.263  27.741  1.00  0.00     0.211 HD
ENDBRANCH   3  45
BRANCH   4  47
ATOM     47  C   UNL     1      18.202  -1.076  29.773  1.00  0.00     0.191 C 
BRANCH  47  48
ATOM     48  O   UNL     1      18.681  -0.963  28.459  1.00  0.00    -0.394 OA
ATOM     49  H   UNL     1      18.725   0.009  28.257  1.00  0.00     0.210 HD
ENDBRANCH  47  48
ENDBRANCH   4  47
TORSDOF 14
ENDMDL
MODEL 9
REMARK VINA RESULT:    -5.725      7.363     12.284
REMARK INTER + INTRA:         -10.678
REMARK INTER:                  -8.777
REMARK INTRA:                  -1.901
REMARK UNBOUND:                -1.607
REMARK SMILES C[C@H]1O[C@H](O[C@H]2[C@H](Oc3cc(O)c4c(c3)O[C@@H](c3ccc(O)cc3)CC4=O)O[C@@H](CO)[C@H](O)[C@@H]2O)[C@@H](O)[C@H](O)[C@@H]1O
REMARK SMILES IDX 6 1 34 2 32 3 29 4 28 5 7 6 5 7 4 8 1 9 2 10 40 11 3 12
REMARK SMILES IDX 38 13 36 14 41 15 39 17 37 19 35 21 8 23 9 24 10 25 15 26
REMARK SMILES IDX 11 27 14 28 13 29 16 30 26 31 17 32 27 33 25 34 12 35 18 37
REMARK SMILES IDX 19 38 24 39 20 40 23 41 21 42 22 43 33 45 30 47 31 48
REMARK H PARENT 41 16 39 18 37 20 35 22 12 36 22 44 33 46 31 49
REMARK Flexibility Score: inf
ROOT
ATOM      1  C   UNL     1      14.933  10.389  32.732  1.00  0.00     0.221 C 
ATOM      2  C   UNL     1      14.392  11.183  33.925  1.00  0.00     0.181 C 
ATOM      3  C   UNL     1      15.436  12.201  34.412  1.00  0.00     0.177 C 
ATOM      4  C   UNL     1      16.827  11.535  34.592  1.00  0.00     0.179 C 
ATOM      5  O   UNL     1      17.222  10.817  33.429  1.00  0.00    -0.332 OA
ATOM      6  C   UNL     1      16.303   9.779  33.110  1.00  0.00     0.339 C 
ENDROOT
BRANCH   1   7
ATOM      7  O   UNL     1      15.115  11.305  31.669  1.00  0.00    -0.337 OA
BRANCH   7   8
ATOM      8  C   UNL     1      14.998  10.727  30.376  1.00  0.00     0.282 C 
ATOM      9  C   UNL     1      14.224  13.870  28.617  1.00  0.00     0.041 C 
ATOM     10  C   UNL     1      15.047  12.891  29.458  1.00  0.00     0.150 C 
ATOM     11  C   UNL     1      16.472  12.720  28.869  1.00  0.00     0.174 C 
ATOM     12  O   UNL     1      14.359  11.646  29.499  1.00  0.00    -0.344 OA
ATOM     13  C   UNL     1      17.262  11.632  29.648  1.00  0.00     0.179 C 
ATOM     14  C   UNL     1      16.403  10.361  29.847  1.00  0.00     0.202 C 
BRANCH  11  15
ATOM     15  O   UNL     1      17.179  13.942  28.904  1.00  0.00    -0.388 OA
ATOM     16  H   UNL     1      17.665  13.976  29.771  1.00  0.00     0.211 HD
ENDBRANCH  11  15
BRANCH  13  17
ATOM     17  O   UNL     1      17.668  12.095  30.916  1.00  0.00    -0.387 OA
ATOM     18  H   UNL     1      18.642  11.919  31.008  1.00  0.00     0.211 HD
ENDBRANCH  13  17
BRANCH  14  19
ATOM     19  O   UNL     1      16.311   9.600  28.667  1.00  0.00    -0.385 OA
ATOM     20  H   UNL     1      16.827   8.765  28.809  1.00  0.00     0.211 HD
ENDBRANCH  14  19
ENDBRANCH   7   8
ENDBRANCH   1   7
BRANCH   2  21
ATOM     21  O   UNL     1      14.029  10.325  34.978  1.00  0.00    -0.387 OA
ATOM     22  H   UNL     1      13.515  10.875  35.626  1.00  0.00     0.211 HD
ENDBRANCH   2  21
BRANCH   6  23
ATOM     23  O   UNL     1      16.206   8.840  34.194  1.00  0.00    -0.462 OA
BRANCH  23  24
ATOM     24  C   UNL     1      16.653   7.510  34.159  1.00  0.00     0.130 A 
ATOM     25  C   UNL     1      17.605   7.012  35.064  1.00  0.00     0.093 A 
ATOM     26  C   UNL     1      16.144   6.657  33.171  1.00  0.00     0.094 A 
ATOM     27  C   UNL     1      18.091   5.700  34.946  1.00  0.00     0.133 A 
ATOM     28  C   UNL     1      16.635   5.351  33.032  1.00  0.00     0.138 A 
ATOM     29  C   UNL     1      17.628   4.875  33.902  1.00  0.00     0.102 A 
ATOM     30  O   UNL     1      16.159   4.542  31.989  1.00  0.00    -0.484 OA
ATOM     31  C   UNL     1      18.204   3.543  33.617  1.00  0.00     0.174 C 
ATOM     32  C   UNL     1      16.402   3.130  31.927  1.00  0.00     0.211 C 
ATOM     33  O   UNL     1      19.025   3.017  34.409  1.00  0.00    -0.294 OA
ATOM     34  C   UNL     1      17.863   2.843  32.328  1.00  0.00     0.131 C 
BRANCH  27  35
ATOM     35  O   UNL     1      19.032   5.226  35.864  1.00  0.00    -0.507 OA
ATOM     36  H   UNL     1      19.466   5.840  36.546  1.00  0.00     0.293 HD
ENDBRANCH  27  35
BRANCH  32  37
ATOM     37  C   UNL     1      16.047   2.599  30.540  1.00  0.00    -0.007 A 
ATOM     38  C   UNL     1      17.009   2.513  29.509  1.00  0.00     0.011 A 
ATOM     39  C   UNL     1      14.765   2.065  30.291  1.00  0.00     0.011 A 
ATOM     40  C   UNL     1      16.676   1.980  28.259  1.00  0.00     0.046 A 
ATOM     41  C   UNL     1      14.443   1.521  29.045  1.00  0.00     0.046 A 
ATOM     42  C   UNL     1      15.392   1.491  28.022  1.00  0.00     0.115 A 
BRANCH  42  43
ATOM     43  O   UNL     1      15.076   0.974  26.769  1.00  0.00    -0.508 OA
ATOM     44  H   UNL     1      15.712   0.356  26.269  1.00  0.00     0.293 HD
ENDBRANCH  42  43
ENDBRANCH  32  37
ENDBRANCH  23  24
ENDBRANCH   6  23
BRANCH   3  45
ATOM     45  O   UNL     1      15.006  12.748  35.635  1.00  0.00    -0.387 OA
ATOM     46  H   UNL     1      14.024  12.610  35.692  1.00  0.00     0.211 HD
ENDBRANCH   3  45
BRANCH   4  47
ATOM     47  C   UNL     1      17.888  12.601  34.882  1.00  0.00     0.191 C 
BRANCH  47  48
ATOM     48  O   UNL     1      18.291  13.208  33.682  1.00  0.00    -0.394 OA
ATOM     49  H   UNL     1      18.157  14.186  33.801  1.00  0.00     0.210 HD
ENDBRANCH  47  48
ENDBRANCH   4  47
TORSDOF 14
ENDMDL
