MODEL 1
REMARK VINA RESULT:    -2.813      0.000      0.000
REMARK INTER + INTRA:          -7.523
REMARK INTER:                  -5.280
REMARK INTRA:                  -2.243
REMARK UNBOUND:                -2.243
REMARK SMILES O=C([O-])CCCCCCCCCCCCCCC(=O)[O-]
REMARK SMILES IDX 10 1 9 2 8 3 7 4 6 5 5 6 4 7 2 8 1 9 3 10 11 11 12 12 13 13
REMARK SMILES IDX 14 14 15 15 16 16 17 17 18 18 19 19 20 20
REMARK H PARENT
REMARK Flexibility Score: inf
ROOT
ATOM      1  C   UNL     1       9.441 -14.451  21.318  1.00  0.00     0.000 C 
ENDROOT
BRANCH   1   2
ATOM      2  C   UNL     1       9.669 -13.363  20.261  1.00  0.00     0.000 C 
BRANCH   2   3
ATOM      3  C   UNL     1      10.989 -12.618  20.516  1.00  0.00     0.000 C 
BRANCH   3   4
ATOM      4  C   UNL     1      12.151 -13.166  19.673  1.00  0.00     0.000 C 
BRANCH   4   5
ATOM      5  C   UNL     1      12.991 -14.207  20.432  1.00  0.00     0.000 C 
BRANCH   5   6
ATOM      6  C   UNL     1      12.906 -15.615  19.815  1.00  0.00     0.006 C 
BRANCH   6   7
ATOM      7  C   UNL     1      12.462 -16.708  20.805  1.00  0.00     0.053 C 
BRANCH   7   8
ATOM      8  C   UNL     1      13.597 -17.581  21.251  1.00  0.00     0.041 C 
ATOM      9  O   UNL     1      14.776 -17.138  21.259  1.00  0.00    -0.550 OA
ATOM     10  O   UNL     1      13.355 -18.897  21.624  1.00  0.00    -0.550 OA
ENDBRANCH   7   8
ENDBRANCH   6   7
ENDBRANCH   5   6
ENDBRANCH   4   5
ENDBRANCH   3   4
ENDBRANCH   2   3
ENDBRANCH   1   2
BRANCH   1  11
ATOM     11  C   UNL     1       8.820 -15.705  20.692  1.00  0.00     0.000 C 
BRANCH  11  12
ATOM     12  C   UNL     1       9.209 -15.832  19.214  1.00  0.00     0.000 C 
BRANCH  12  13
ATOM     13  C   UNL     1       7.999 -16.240  18.361  1.00  0.00     0.000 C 
BRANCH  13  14
ATOM     14  C   UNL     1       6.913 -16.969  19.173  1.00  0.00     0.000 C 
BRANCH  14  15
ATOM     15  C   UNL     1       6.592 -18.401  18.696  1.00  0.00     0.000 C 
BRANCH  15  16
ATOM     16  C   UNL     1       7.783 -19.173  18.101  1.00  0.00     0.006 C 
BRANCH  16  17
ATOM     17  C   UNL     1       8.496 -20.056  19.133  1.00  0.00     0.053 C 
BRANCH  17  18
ATOM     18  C   UNL     1       9.750 -19.393  19.609  1.00  0.00     0.041 C 
ATOM     19  O   UNL     1      10.633 -19.042  18.783  1.00  0.00    -0.550 OA
ATOM     20  O   UNL     1       9.967 -19.211  20.969  1.00  0.00    -0.550 OA
ENDBRANCH  17  18
ENDBRANCH  16  17
ENDBRANCH  15  16
ENDBRANCH  14  15
ENDBRANCH  13  14
ENDBRANCH  12  13
ENDBRANCH  11  12
ENDBRANCH   1  11
TORSDOF 15
ENDMDL
MODEL 2
REMARK VINA RESULT:    -2.776      4.061      7.738
REMARK INTER + INTRA:          -7.452
REMARK INTER:                  -5.135
REMARK INTRA:                  -2.317
REMARK UNBOUND:                -2.243
REMARK SMILES O=C([O-])CCCCCCCCCCCCCCC(=O)[O-]
REMARK SMILES IDX 10 1 9 2 8 3 7 4 6 5 5 6 4 7 2 8 1 9 3 10 11 11 12 12 13 13
REMARK SMILES IDX 14 14 15 15 16 16 17 17 18 18 19 19 20 20
REMARK H PARENT
REMARK Flexibility Score: inf
ROOT
ATOM      1  C   UNL     1       7.971 -20.172  21.425  1.00  0.00     0.000 C 
ENDROOT
BRANCH   1   2
ATOM      2  C   UNL     1       6.496 -19.754  21.383  1.00  0.00     0.000 C 
BRANCH   2   3
ATOM      3  C   UNL     1       6.358 -18.224  21.441  1.00  0.00     0.000 C 
BRANCH   3   4
ATOM      4  C   UNL     1       5.223 -17.697  20.549  1.00  0.00     0.000 C 
BRANCH   4   5
ATOM      5  C   UNL     1       4.948 -18.612  19.344  1.00  0.00     0.000 C 
BRANCH   5   6
ATOM      6  C   UNL     1       3.447 -18.855  19.103  1.00  0.00     0.006 C 
BRANCH   6   7
ATOM      7  C   UNL     1       2.707 -19.453  20.315  1.00  0.00     0.053 C 
BRANCH   7   8
ATOM      8  C   UNL     1       1.465 -20.197  19.924  1.00  0.00     0.041 C 
ATOM      9  O   UNL     1       1.151 -20.322  18.711  1.00  0.00    -0.550 OA
ATOM     10  O   UNL     1       0.634 -20.725  20.905  1.00  0.00    -0.550 OA
ENDBRANCH   7   8
ENDBRANCH   6   7
ENDBRANCH   5   6
ENDBRANCH   4   5
ENDBRANCH   3   4
ENDBRANCH   2   3
ENDBRANCH   1   2
BRANCH   1  11
ATOM     11  C   UNL     1       8.762 -19.517  20.285  1.00  0.00     0.000 C 
BRANCH  11  12
ATOM     12  C   UNL     1       8.338 -20.086  18.925  1.00  0.00     0.000 C 
BRANCH  12  13
ATOM     13  C   UNL     1       8.220 -18.971  17.876  1.00  0.00     0.000 C 
BRANCH  13  14
ATOM     14  C   UNL     1       8.791 -17.627  18.365  1.00  0.00     0.000 C 
BRANCH  14  15
ATOM     15  C   UNL     1       7.836 -16.423  18.226  1.00  0.00     0.000 C 
BRANCH  15  16
ATOM     16  C   UNL     1       7.984 -15.344  19.315  1.00  0.00     0.006 C 
BRANCH  16  17
ATOM     17  C   UNL     1       9.100 -15.660  20.319  1.00  0.00     0.053 C 
BRANCH  17  18
ATOM     18  C   UNL     1       9.708 -14.395  20.836  1.00  0.00     0.041 C 
ATOM     19  O   UNL     1       9.782 -13.379  20.096  1.00  0.00    -0.550 OA
ATOM     20  O   UNL     1      10.240 -14.353  22.119  1.00  0.00    -0.550 OA
ENDBRANCH  17  18
ENDBRANCH  16  17
ENDBRANCH  15  16
ENDBRANCH  14  15
ENDBRANCH  13  14
ENDBRANCH  12  13
ENDBRANCH  11  12
ENDBRANCH   1  11
TORSDOF 15
ENDMDL
MODEL 3
REMARK VINA RESULT:    -2.755      3.151      6.576
REMARK INTER + INTRA:          -7.413
REMARK INTER:                  -4.853
REMARK INTRA:                  -2.560
REMARK UNBOUND:                -2.243
REMARK SMILES O=C([O-])CCCCCCCCCCCCCCC(=O)[O-]
REMARK SMILES IDX 10 1 9 2 8 3 7 4 6 5 5 6 4 7 2 8 1 9 3 10 11 11 12 12 13 13
REMARK SMILES IDX 14 14 15 15 16 16 17 17 18 18 19 19 20 20
REMARK H PARENT
REMARK Flexibility Score: inf
ROOT
ATOM      1  C   UNL     1       7.713 -16.128  18.511  1.00  0.00     0.000 C 
ENDROOT
BRANCH   1   2
ATOM      2  C   UNL     1       8.188 -15.603  19.871  1.00  0.00     0.000 C 
BRANCH   2   3
ATOM      3  C   UNL     1       7.106 -15.802  20.944  1.00  0.00     0.000 C 
BRANCH   3   4
ATOM      4  C   UNL     1       5.864 -16.531  20.406  1.00  0.00     0.000 C 
BRANCH   4   5
ATOM      5  C   UNL     1       5.190 -17.411  21.471  1.00  0.00     0.000 C 
BRANCH   5   6
ATOM      6  C   UNL     1       4.617 -18.719  20.896  1.00  0.00     0.006 C 
BRANCH   6   7
ATOM      7  C   UNL     1       4.538 -18.746  19.358  1.00  0.00     0.053 C 
BRANCH   7   8
ATOM      8  C   UNL     1       3.127 -18.731  18.850  1.00  0.00     0.041 C 
ATOM      9  O   UNL     1       2.450 -19.792  18.820  1.00  0.00    -0.550 OA
ATOM     10  O   UNL     1       2.572 -17.549  18.375  1.00  0.00    -0.550 OA
ENDBRANCH   7   8
ENDBRANCH   6   7
ENDBRANCH   5   6
ENDBRANCH   4   5
ENDBRANCH   3   4
ENDBRANCH   2   3
ENDBRANCH   1   2
BRANCH   1  11
ATOM     11  C   UNL     1       8.600 -17.281  18.025  1.00  0.00     0.000 C 
BRANCH  11  12
ATOM     12  C   UNL     1       7.789 -18.574  17.875  1.00  0.00     0.000 C 
BRANCH  12  13
ATOM     13  C   UNL     1       8.378 -19.695  18.742  1.00  0.00     0.000 C 
BRANCH  13  14
ATOM     14  C   UNL     1       8.138 -19.477  20.247  1.00  0.00     0.000 C 
BRANCH  14  15
ATOM     15  C   UNL     1       9.403 -19.547  21.127  1.00  0.00     0.000 C 
BRANCH  15  16
ATOM     16  C   UNL     1      10.153 -18.214  21.299  1.00  0.00     0.006 C 
BRANCH  16  17
ATOM     17  C   UNL     1      11.363 -18.087  20.364  1.00  0.00     0.053 C 
BRANCH  17  18
ATOM     18  C   UNL     1      12.026 -16.758  20.547  1.00  0.00     0.041 C 
ATOM     19  O   UNL     1      12.818 -16.573  21.508  1.00  0.00    -0.550 OA
ATOM     20  O   UNL     1      11.730 -15.709  19.687  1.00  0.00    -0.550 OA
ENDBRANCH  17  18
ENDBRANCH  16  17
ENDBRANCH  15  16
ENDBRANCH  14  15
ENDBRANCH  13  14
ENDBRANCH  12  13
ENDBRANCH  11  12
ENDBRANCH   1  11
TORSDOF 15
ENDMDL
MODEL 4
REMARK VINA RESULT:    -2.723      5.201      9.246
REMARK INTER + INTRA:          -7.354
REMARK INTER:                  -6.221
REMARK INTRA:                  -1.134
REMARK UNBOUND:                -2.243
REMARK SMILES O=C([O-])CCCCCCCCCCCCCCC(=O)[O-]
REMARK SMILES IDX 10 1 9 2 8 3 7 4 6 5 5 6 4 7 2 8 1 9 3 10 11 11 12 12 13 13
REMARK SMILES IDX 14 14 15 15 16 16 17 17 18 18 19 19 20 20
REMARK H PARENT
REMARK Flexibility Score: inf
ROOT
ATOM      1  C   UNL     1       5.970 -18.342  19.526  1.00  0.00     0.000 C 
ENDROOT
BRANCH   1   2
ATOM      2  C   UNL     1       4.455 -18.530  19.381  1.00  0.00     0.000 C 
BRANCH   2   3
ATOM      3  C   UNL     1       3.843 -19.076  20.681  1.00  0.00     0.000 C 
BRANCH   3   4
ATOM      4  C   UNL     1       2.445 -19.680  20.471  1.00  0.00     0.000 C 
BRANCH   4   5
ATOM      5  C   UNL     1       1.992 -19.618  19.003  1.00  0.00     0.000 C 
BRANCH   5   6
ATOM      6  C   UNL     1       0.854 -20.605  18.683  1.00  0.00     0.006 C 
BRANCH   6   7
ATOM      7  C   UNL     1      -0.002 -20.991  19.903  1.00  0.00     0.053 C 
BRANCH   7   8
ATOM      8  C   UNL     1      -1.280 -20.211  19.984  1.00  0.00     0.041 C 
ATOM      9  O   UNL     1      -1.415 -19.295  20.838  1.00  0.00    -0.550 OA
ATOM     10  O   UNL     1      -2.338 -20.519  19.137  1.00  0.00    -0.550 OA
ENDBRANCH   7   8
ENDBRANCH   6   7
ENDBRANCH   5   6
ENDBRANCH   4   5
ENDBRANCH   3   4
ENDBRANCH   2   3
ENDBRANCH   1   2
BRANCH   1  11
ATOM     11  C   UNL     1       6.593 -19.493  20.325  1.00  0.00     0.000 C 
BRANCH  11  12
ATOM     12  C   UNL     1       7.887 -19.984  19.663  1.00  0.00     0.000 C 
BRANCH  12  13
ATOM     13  C   UNL     1       8.028 -19.416  18.244  1.00  0.00     0.000 C 
BRANCH  13  14
ATOM     14  C   UNL     1       9.376 -18.709  18.014  1.00  0.00     0.000 C 
BRANCH  14  15
ATOM     15  C   UNL     1      10.622 -19.553  18.352  1.00  0.00     0.000 C 
BRANCH  15  16
ATOM     16  C   UNL     1      11.638 -18.872  19.288  1.00  0.00     0.006 C 
BRANCH  16  17
ATOM     17  C   UNL     1      10.970 -17.992  20.352  1.00  0.00     0.053 C 
BRANCH  17  18
ATOM     18  C   UNL     1      11.537 -16.608  20.315  1.00  0.00     0.041 C 
ATOM     19  O   UNL     1      10.964 -15.708  19.647  1.00  0.00    -0.550 OA
ATOM     20  O   UNL     1      12.726 -16.325  20.975  1.00  0.00    -0.550 OA
ENDBRANCH  17  18
ENDBRANCH  16  17
ENDBRANCH  15  16
ENDBRANCH  14  15
ENDBRANCH  13  14
ENDBRANCH  12  13
ENDBRANCH  11  12
ENDBRANCH   1  11
TORSDOF 15
ENDMDL
MODEL 5
REMARK VINA RESULT:    -2.703      1.936      5.201
REMARK INTER + INTRA:          -7.316
REMARK INTER:                  -5.094
REMARK INTRA:                  -2.222
REMARK UNBOUND:                -2.243
REMARK SMILES O=C([O-])CCCCCCCCCCCCCCC(=O)[O-]
REMARK SMILES IDX 10 1 9 2 8 3 7 4 6 5 5 6 4 7 2 8 1 9 3 10 11 11 12 12 13 13
REMARK SMILES IDX 14 14 15 15 16 16 17 17 18 18 19 19 20 20
REMARK H PARENT
REMARK Flexibility Score: inf
ROOT
ATOM      1  C   UNL     1       7.427 -18.485  18.167  1.00  0.00     0.000 C 
ENDROOT
BRANCH   1   2
ATOM      2  C   UNL     1       7.672 -19.579  19.214  1.00  0.00     0.000 C 
BRANCH   2   3
ATOM      3  C   UNL     1       9.152 -19.622  19.626  1.00  0.00     0.000 C 
BRANCH   3   4
ATOM      4  C   UNL     1      10.103 -19.356  18.448  1.00  0.00     0.000 C 
BRANCH   4   5
ATOM      5  C   UNL     1      11.510 -18.939  18.909  1.00  0.00     0.000 C 
BRANCH   5   6
ATOM      6  C   UNL     1      11.644 -18.866  20.441  1.00  0.00     0.006 C 
BRANCH   6   7
ATOM      7  C   UNL     1      12.863 -18.059  20.925  1.00  0.00     0.053 C 
BRANCH   7   8
ATOM      8  C   UNL     1      12.714 -17.575  22.337  1.00  0.00     0.041 C 
ATOM      9  O   UNL     1      11.664 -17.822  22.987  1.00  0.00    -0.550 OA
ATOM     10  O   UNL     1      13.721 -16.819  22.923  1.00  0.00    -0.550 OA
ENDBRANCH   7   8
ENDBRANCH   6   7
ENDBRANCH   5   6
ENDBRANCH   4   5
ENDBRANCH   3   4
ENDBRANCH   2   3
ENDBRANCH   1   2
BRANCH   1  11
ATOM     11  C   UNL     1       6.822 -17.232  18.812  1.00  0.00     0.000 C 
BRANCH  11  12
ATOM     12  C   UNL     1       7.581 -15.971  18.380  1.00  0.00     0.000 C 
BRANCH  12  13
ATOM     13  C   UNL     1       9.035 -16.009  18.870  1.00  0.00     0.000 C 
BRANCH  13  14
ATOM     14  C   UNL     1       9.150 -15.999  20.406  1.00  0.00     0.000 C 
BRANCH  14  15
ATOM     15  C   UNL     1      10.334 -15.185  20.967  1.00  0.00     0.000 C 
BRANCH  15  16
ATOM     16  C   UNL     1      11.384 -14.757  19.925  1.00  0.00     0.006 C 
BRANCH  16  17
ATOM     17  C   UNL     1      11.667 -13.250  19.950  1.00  0.00     0.053 C 
BRANCH  17  18
ATOM     18  C   UNL     1      13.047 -12.987  20.463  1.00  0.00     0.041 C 
ATOM     19  O   UNL     1      13.732 -13.926  20.946  1.00  0.00    -0.550 OA
ATOM     20  O   UNL     1      13.557 -11.695  20.457  1.00  0.00    -0.550 OA
ENDBRANCH  17  18
ENDBRANCH  16  17
ENDBRANCH  15  16
ENDBRANCH  14  15
ENDBRANCH  13  14
ENDBRANCH  12  13
ENDBRANCH  11  12
ENDBRANCH   1  11
TORSDOF 15
ENDMDL
MODEL 6
REMARK VINA RESULT:    -2.700      2.762      4.723
REMARK INTER + INTRA:          -7.311
REMARK INTER:                  -5.734
REMARK INTRA:                  -1.576
REMARK UNBOUND:                -2.243
REMARK SMILES O=C([O-])CCCCCCCCCCCCCCC(=O)[O-]
REMARK SMILES IDX 10 1 9 2 8 3 7 4 6 5 5 6 4 7 2 8 1 9 3 10 11 11 12 12 13 13
REMARK SMILES IDX 14 14 15 15 16 16 17 17 18 18 19 19 20 20
REMARK H PARENT
REMARK Flexibility Score: inf
ROOT
ATOM      1  C   UNL     1      13.355 -16.637  22.670  1.00  0.00     0.000 C 
ENDROOT
BRANCH   1   2
ATOM      2  C   UNL     1      13.340 -15.281  21.955  1.00  0.00     0.000 C 
BRANCH   2   3
ATOM      3  C   UNL     1      12.775 -15.417  20.532  1.00  0.00     0.000 C 
BRANCH   3   4
ATOM      4  C   UNL     1      11.295 -15.013  20.442  1.00  0.00     0.000 C 
BRANCH   4   5
ATOM      5  C   UNL     1      11.110 -13.536  20.052  1.00  0.00     0.000 C 
BRANCH   5   6
ATOM      6  C   UNL     1      12.412 -12.874  19.568  1.00  0.00     0.006 C 
BRANCH   6   7
ATOM      7  C   UNL     1      12.450 -11.347  19.768  1.00  0.00     0.053 C 
BRANCH   7   8
ATOM      8  C   UNL     1      13.544 -10.910  20.695  1.00  0.00     0.041 C 
ATOM      9  O   UNL     1      14.477 -11.702  20.997  1.00  0.00    -0.550 OA
ATOM     10  O   UNL     1      13.515  -9.639  21.255  1.00  0.00    -0.550 OA
ENDBRANCH   7   8
ENDBRANCH   6   7
ENDBRANCH   5   6
ENDBRANCH   4   5
ENDBRANCH   3   4
ENDBRANCH   2   3
ENDBRANCH   1   2
BRANCH   1  11
ATOM     11  C   UNL     1      14.144 -17.676  21.864  1.00  0.00     0.000 C 
BRANCH  11  12
ATOM     12  C   UNL     1      13.324 -18.957  21.667  1.00  0.00     0.000 C 
BRANCH  12  13
ATOM     13  C   UNL     1      11.858 -18.738  22.066  1.00  0.00     0.000 C 
BRANCH  13  14
ATOM     14  C   UNL     1      10.911 -18.667  20.854  1.00  0.00     0.000 C 
BRANCH  14  15
ATOM     15  C   UNL     1      11.579 -18.929  19.488  1.00  0.00     0.000 C 
BRANCH  15  16
ATOM     16  C   UNL     1      10.616 -19.331  18.357  1.00  0.00     0.006 C 
BRANCH  16  17
ATOM     17  C   UNL     1       9.300 -18.542  18.386  1.00  0.00     0.053 C 
BRANCH  17  18
ATOM     18  C   UNL     1       8.145 -19.463  18.619  1.00  0.00     0.041 C 
ATOM     19  O   UNL     1       6.965 -19.032  18.536  1.00  0.00    -0.550 OA
ATOM     20  O   UNL     1       8.372 -20.786  18.978  1.00  0.00    -0.550 OA
ENDBRANCH  17  18
ENDBRANCH  16  17
ENDBRANCH  15  16
ENDBRANCH  14  15
ENDBRANCH  13  14
ENDBRANCH  12  13
ENDBRANCH  11  12
ENDBRANCH   1  11
TORSDOF 15
ENDMDL
MODEL 7
REMARK VINA RESULT:    -2.689      2.612      6.027
REMARK INTER + INTRA:          -7.290
REMARK INTER:                  -4.801
REMARK INTRA:                  -2.488
REMARK UNBOUND:                -2.243
REMARK SMILES O=C([O-])CCCCCCCCCCCCCCC(=O)[O-]
REMARK SMILES IDX 10 1 9 2 8 3 7 4 6 5 5 6 4 7 2 8 1 9 3 10 11 11 12 12 13 13
REMARK SMILES IDX 14 14 15 15 16 16 17 17 18 18 19 19 20 20
REMARK H PARENT
REMARK Flexibility Score: inf
ROOT
ATOM      1  C   UNL     1       6.441 -18.823  18.998  1.00  0.00     0.000 C 
ENDROOT
BRANCH   1   2
ATOM      2  C   UNL     1       7.708 -19.230  18.236  1.00  0.00     0.000 C 
BRANCH   2   3
ATOM      3  C   UNL     1       8.649 -20.048  19.135  1.00  0.00     0.000 C 
BRANCH   3   4
ATOM      4  C   UNL     1       7.953 -20.574  20.400  1.00  0.00     0.000 C 
BRANCH   4   5
ATOM      5  C   UNL     1       8.696 -20.183  21.688  1.00  0.00     0.000 C 
BRANCH   5   6
ATOM      6  C   UNL     1       8.151 -18.895  22.331  1.00  0.00     0.006 C 
BRANCH   6   7
ATOM      7  C   UNL     1       6.669 -18.979  22.742  1.00  0.00     0.053 C 
BRANCH   7   8
ATOM      8  C   UNL     1       6.416 -20.027  23.784  1.00  0.00     0.041 C 
ATOM      9  O   UNL     1       5.687 -21.021  23.523  1.00  0.00    -0.550 OA
ATOM     10  O   UNL     1       6.958 -19.889  25.056  1.00  0.00    -0.550 OA
ENDBRANCH   7   8
ENDBRANCH   6   7
ENDBRANCH   5   6
ENDBRANCH   4   5
ENDBRANCH   3   4
ENDBRANCH   2   3
ENDBRANCH   1   2
BRANCH   1  11
ATOM     11  C   UNL     1       6.456 -17.326  19.331  1.00  0.00     0.000 C 
BRANCH  11  12
ATOM     12  C   UNL     1       7.646 -16.626  18.662  1.00  0.00     0.000 C 
BRANCH  12  13
ATOM     13  C   UNL     1       8.651 -16.128  19.710  1.00  0.00     0.000 C 
BRANCH  13  14
ATOM     14  C   UNL     1      10.090 -16.596  19.430  1.00  0.00     0.000 C 
BRANCH  14  15
ATOM     15  C   UNL     1      10.860 -17.115  20.662  1.00  0.00     0.000 C 
BRANCH  15  16
ATOM     16  C   UNL     1      11.725 -18.364  20.414  1.00  0.00     0.006 C 
BRANCH  16  17
ATOM     17  C   UNL     1      13.072 -18.310  21.145  1.00  0.00     0.053 C 
BRANCH  17  18
ATOM     18  C   UNL     1      13.179 -19.436  22.125  1.00  0.00     0.041 C 
ATOM     19  O   UNL     1      12.195 -20.195  22.326  1.00  0.00    -0.550 OA
ATOM     20  O   UNL     1      14.347 -19.614  22.855  1.00  0.00    -0.550 OA
ENDBRANCH  17  18
ENDBRANCH  16  17
ENDBRANCH  15  16
ENDBRANCH  14  15
ENDBRANCH  13  14
ENDBRANCH  12  13
ENDBRANCH  11  12
ENDBRANCH   1  11
TORSDOF 15
ENDMDL
MODEL 8
REMARK VINA RESULT:    -2.655      2.728      4.619
REMARK INTER + INTRA:          -7.225
REMARK INTER:                  -4.610
REMARK INTRA:                  -2.615
REMARK UNBOUND:                -2.243
REMARK SMILES O=C([O-])CCCCCCCCCCCCCCC(=O)[O-]
REMARK SMILES IDX 10 1 9 2 8 3 7 4 6 5 5 6 4 7 2 8 1 9 3 10 11 11 12 12 13 13
REMARK SMILES IDX 14 14 15 15 16 16 17 17 18 18 19 19 20 20
REMARK H PARENT
REMARK Flexibility Score: inf
ROOT
ATOM      1  C   UNL     1       7.291 -19.839  21.192  1.00  0.00     0.000 C 
ENDROOT
BRANCH   1   2
ATOM      2  C   UNL     1       8.706 -19.732  21.775  1.00  0.00     0.000 C 
BRANCH   2   3
ATOM      3  C   UNL     1       9.015 -18.289  22.205  1.00  0.00     0.000 C 
BRANCH   3   4
ATOM      4  C   UNL     1      10.515 -17.961  22.142  1.00  0.00     0.000 C 
BRANCH   4   5
ATOM      5  C   UNL     1      11.315 -19.007  21.347  1.00  0.00     0.000 C 
BRANCH   5   6
ATOM      6  C   UNL     1      12.618 -18.443  20.753  1.00  0.00     0.006 C 
BRANCH   6   7
ATOM      7  C   UNL     1      12.688 -16.905  20.740  1.00  0.00     0.053 C 
BRANCH   7   8
ATOM      8  C   UNL     1      14.061 -16.385  21.043  1.00  0.00     0.041 C 
ATOM      9  O   UNL     1      14.995 -17.181  21.327  1.00  0.00    -0.550 OA
ATOM     10  O   UNL     1      14.302 -15.016  21.045  1.00  0.00    -0.550 OA
ENDBRANCH   7   8
ENDBRANCH   6   7
ENDBRANCH   5   6
ENDBRANCH   4   5
ENDBRANCH   3   4
ENDBRANCH   2   3
ENDBRANCH   1   2
BRANCH   1  11
ATOM     11  C   UNL     1       7.280 -19.470  19.704  1.00  0.00     0.000 C 
BRANCH  11  12
ATOM     12  C   UNL     1       8.481 -20.087  18.975  1.00  0.00     0.000 C 
BRANCH  12  13
ATOM     13  C   UNL     1       9.269 -19.015  18.210  1.00  0.00     0.000 C 
BRANCH  13  14
ATOM     14  C   UNL     1       8.608 -17.626  18.274  1.00  0.00     0.000 C 
BRANCH  14  15
ATOM     15  C   UNL     1       9.448 -16.534  18.969  1.00  0.00     0.000 C 
BRANCH  15  16
ATOM     16  C   UNL     1       8.638 -15.490  19.758  1.00  0.00     0.006 C 
BRANCH  16  17
ATOM     17  C   UNL     1       7.135 -15.796  19.782  1.00  0.00     0.053 C 
BRANCH  17  18
ATOM     18  C   UNL     1       6.364 -14.672  19.166  1.00  0.00     0.041 C 
ATOM     19  O   UNL     1       6.917 -13.558  18.972  1.00  0.00    -0.550 OA
ATOM     20  O   UNL     1       5.021 -14.838  18.854  1.00  0.00    -0.550 OA
ENDBRANCH  17  18
ENDBRANCH  16  17
ENDBRANCH  15  16
ENDBRANCH  14  15
ENDBRANCH  13  14
ENDBRANCH  12  13
ENDBRANCH  11  12
ENDBRANCH   1  11
TORSDOF 15
ENDMDL
MODEL 9
REMARK VINA RESULT:    -2.642      1.656      3.536
REMARK INTER + INTRA:          -7.202
REMARK INTER:                  -4.703
REMARK INTRA:                  -2.499
REMARK UNBOUND:                -2.243
REMARK SMILES O=C([O-])CCCCCCCCCCCCCCC(=O)[O-]
REMARK SMILES IDX 10 1 9 2 8 3 7 4 6 5 5 6 4 7 2 8 1 9 3 10 11 11 12 12 13 13
REMARK SMILES IDX 14 14 15 15 16 16 17 17 18 18 19 19 20 20
REMARK H PARENT
REMARK Flexibility Score: inf
ROOT
ATOM      1  C   UNL     1       5.785 -16.376  19.371  1.00  0.00     0.000 C 
ENDROOT
BRANCH   1   2
ATOM      2  C   UNL     1       6.527 -16.630  20.689  1.00  0.00     0.000 C 
BRANCH   2   3
ATOM      3  C   UNL     1       7.719 -15.671  20.841  1.00  0.00     0.000 C 
BRANCH   3   4
ATOM      4  C   UNL     1       8.421 -15.382  19.505  1.00  0.00     0.000 C 
BRANCH   4   5
ATOM      5  C   UNL     1       9.742 -16.156  19.354  1.00  0.00     0.000 C 
BRANCH   5   6
ATOM      6  C   UNL     1      10.820 -15.707  20.355  1.00  0.00     0.006 C 
BRANCH   6   7
ATOM      7  C   UNL     1      12.149 -15.288  19.699  1.00  0.00     0.053 C 
BRANCH   7   8
ATOM      8  C   UNL     1      13.284 -15.225  20.678  1.00  0.00     0.041 C 
ATOM      9  O   UNL     1      14.271 -15.998  20.560  1.00  0.00    -0.550 OA
ATOM     10  O   UNL     1      13.234 -14.333  21.742  1.00  0.00    -0.550 OA
ENDBRANCH   7   8
ENDBRANCH   6   7
ENDBRANCH   5   6
ENDBRANCH   4   5
ENDBRANCH   3   4
ENDBRANCH   2   3
ENDBRANCH   1   2
BRANCH   1  11
ATOM     11  C   UNL     1       5.574 -17.684  18.599  1.00  0.00     0.000 C 
BRANCH  11  12
ATOM     12  C   UNL     1       6.399 -18.823  19.210  1.00  0.00     0.000 C 
BRANCH  12  13
ATOM     13  C   UNL     1       7.614 -19.155  18.331  1.00  0.00     0.000 C 
BRANCH  13  14
ATOM     14  C   UNL     1       8.815 -19.675  19.141  1.00  0.00     0.000 C 
BRANCH  14  15
ATOM     15  C   UNL     1       8.557 -19.850  20.652  1.00  0.00     0.000 C 
BRANCH  15  16
ATOM     16  C   UNL     1       9.426 -18.969  21.569  1.00  0.00     0.006 C 
BRANCH  16  17
ATOM     17  C   UNL     1      10.713 -19.670  22.022  1.00  0.00     0.053 C 
BRANCH  17  18
ATOM     18  C   UNL     1      11.913 -18.938  21.512  1.00  0.00     0.041 C 
ATOM     19  O   UNL     1      12.189 -18.953  20.284  1.00  0.00    -0.550 OA
ATOM     20  O   UNL     1      12.757 -18.282  22.400  1.00  0.00    -0.550 OA
ENDBRANCH  17  18
ENDBRANCH  16  17
ENDBRANCH  15  16
ENDBRANCH  14  15
ENDBRANCH  13  14
ENDBRANCH  12  13
ENDBRANCH  11  12
ENDBRANCH   1  11
TORSDOF 15
ENDMDL
