MODEL 1
REMARK VINA RESULT:    -5.994      0.000      0.000
REMARK INTER + INTRA:          -7.542
REMARK INTER:                  -7.221
REMARK INTRA:                  -0.321
REMARK UNBOUND:                -0.321
REMARK SMILES O=c1c(O)c(-c2ccc(O)c(O)c2)oc2cc(O)cc(O)c12
REMARK SMILES IDX 5 1 3 2 2 3 1 4 22 5 20 6 19 7 17 8 16 9 15 10 14 11 6 12
REMARK SMILES IDX 7 13 8 14 9 15 13 16 11 17 10 18 12 20 4 22 21 24 18 26
REMARK H PARENT 10 19 12 21 4 23 21 25 18 27
REMARK Flexibility Score: inf
ROOT
ATOM      1  C   UNL     1      16.467  26.999  36.475  1.00  0.00     0.180 A 
ATOM      2  C   UNL     1      16.988  27.122  35.174  1.00  0.00     0.208 A 
ATOM      3  C   UNL     1      16.355  26.443  34.120  1.00  0.00     0.238 A 
ATOM      4  O   UNL     1      16.858  26.514  32.969  1.00  0.00    -0.285 OA
ATOM      5  C   UNL     1      15.203  25.663  34.375  1.00  0.00     0.111 A 
ATOM      6  C   UNL     1      14.459  24.965  33.378  1.00  0.00     0.134 A 
ATOM      7  C   UNL     1      13.412  24.118  33.762  1.00  0.00     0.093 A 
ATOM      8  C   UNL     1      13.040  23.996  35.103  1.00  0.00     0.123 A 
ATOM      9  C   UNL     1      13.722  24.719  36.079  1.00  0.00     0.094 A 
ATOM     10  C   UNL     1      14.794  25.544  35.730  1.00  0.00     0.146 A 
ATOM     11  O   UNL     1      15.424  26.207  36.692  1.00  0.00    -0.452 OA
ENDROOT
BRANCH   1  12
ATOM     12  C   UNL     1      17.063  27.703  37.632  1.00  0.00     0.025 A 
ATOM     13  C   UNL     1      16.571  28.949  38.063  1.00  0.00     0.016 A 
ATOM     14  C   UNL     1      17.133  29.584  39.174  1.00  0.00     0.051 A 
ATOM     15  C   UNL     1      18.184  28.979  39.876  1.00  0.00     0.157 A 
ATOM     16  C   UNL     1      18.103  27.094  38.353  1.00  0.00     0.062 A 
ATOM     17  C   UNL     1      18.667  27.731  39.468  1.00  0.00     0.158 A 
BRANCH  15  18
ATOM     18  O   UNL     1      18.749  29.611  40.983  1.00  0.00    -0.504 OA
ATOM     19  H   UNL     1      18.305  30.410  41.422  1.00  0.00     0.293 HD
ENDBRANCH  15  18
BRANCH  17  20
ATOM     20  O   UNL     1      19.708  27.129  40.172  1.00  0.00    -0.504 OA
ATOM     21  H   UNL     1      20.678  27.306  39.940  1.00  0.00     0.293 HD
ENDBRANCH  17  20
ENDBRANCH   1  12
BRANCH   2  22
ATOM     22  O   UNL     1      18.140  27.880  34.948  1.00  0.00    -0.502 OA
ATOM     23  H   UNL     1      18.123  28.891  34.882  1.00  0.00     0.293 HD
ENDBRANCH   2  22
BRANCH   6  24
ATOM     24  O   UNL     1      14.688  25.089  32.003  1.00  0.00    -0.507 OA
ATOM     25  H   UNL     1      14.303  24.478  31.299  1.00  0.00     0.293 HD
ENDBRANCH   6  24
BRANCH   8  26
ATOM     26  O   UNL     1      11.987  23.163  35.476  1.00  0.00    -0.508 OA
ATOM     27  H   UNL     1      11.782  22.310  34.970  1.00  0.00     0.293 HD
ENDBRANCH   8  26
TORSDOF 6
ENDMDL
MODEL 2
REMARK VINA RESULT:    -5.924      2.600      7.823
REMARK INTER + INTRA:          -7.457
REMARK INTER:                  -7.252
REMARK INTRA:                  -0.206
REMARK UNBOUND:                -0.321
REMARK SMILES O=c1c(O)c(-c2ccc(O)c(O)c2)oc2cc(O)cc(O)c12
REMARK SMILES IDX 5 1 3 2 2 3 1 4 22 5 20 6 19 7 17 8 16 9 15 10 14 11 6 12
REMARK SMILES IDX 7 13 8 14 9 15 13 16 11 17 10 18 12 20 4 22 21 24 18 26
REMARK H PARENT 10 19 12 21 4 23 21 25 18 27
REMARK Flexibility Score: inf
ROOT
ATOM      1  C   UNL     1      14.321  24.973  34.026  1.00  0.00     0.180 A 
ATOM      2  C   UNL     1      14.017  24.427  35.286  1.00  0.00     0.208 A 
ATOM      3  C   UNL     1      14.245  25.200  36.436  1.00  0.00     0.238 A 
ATOM      4  O   UNL     1      14.022  24.686  37.563  1.00  0.00    -0.285 OA
ATOM      5  C   UNL     1      14.759  26.513  36.312  1.00  0.00     0.111 A 
ATOM      6  C   UNL     1      14.991  27.399  37.406  1.00  0.00     0.134 A 
ATOM      7  C   UNL     1      15.625  28.626  37.178  1.00  0.00     0.093 A 
ATOM      8  C   UNL     1      15.975  29.028  35.887  1.00  0.00     0.123 A 
ATOM      9  C   UNL     1      15.699  28.196  34.805  1.00  0.00     0.094 A 
ATOM     10  C   UNL     1      15.100  26.949  35.005  1.00  0.00     0.146 A 
ATOM     11  O   UNL     1      14.864  26.182  33.948  1.00  0.00    -0.452 OA
ENDROOT
BRANCH   1  12
ATOM     12  C   UNL     1      14.086  24.229  32.767  1.00  0.00     0.025 A 
ATOM     13  C   UNL     1      15.155  23.735  31.999  1.00  0.00     0.016 A 
ATOM     14  C   UNL     1      14.909  23.015  30.827  1.00  0.00     0.051 A 
ATOM     15  C   UNL     1      13.593  22.767  30.414  1.00  0.00     0.157 A 
ATOM     16  C   UNL     1      12.770  23.959  32.359  1.00  0.00     0.062 A 
ATOM     17  C   UNL     1      12.521  23.237  31.183  1.00  0.00     0.158 A 
BRANCH  15  18
ATOM     18  O   UNL     1      13.343  22.050  29.245  1.00  0.00    -0.504 OA
ATOM     19  H   UNL     1      14.091  21.602  28.727  1.00  0.00     0.293 HD
ENDBRANCH  15  18
BRANCH  17  20
ATOM     20  O   UNL     1      11.214  22.983  30.773  1.00  0.00    -0.504 OA
ATOM     21  H   UNL     1      10.669  22.229  31.177  1.00  0.00     0.293 HD
ENDBRANCH  17  20
ENDBRANCH   1  12
BRANCH   2  22
ATOM     22  O   UNL     1      13.531  23.121  35.387  1.00  0.00    -0.502 OA
ATOM     23  H   UNL     1      13.393  22.658  36.278  1.00  0.00     0.293 HD
ENDBRANCH   2  22
BRANCH   6  24
ATOM     24  O   UNL     1      14.597  27.134  38.722  1.00  0.00    -0.507 OA
ATOM     25  H   UNL     1      15.171  26.674  39.412  1.00  0.00     0.293 HD
ENDBRANCH   6  24
BRANCH   8  26
ATOM     26  O   UNL     1      16.591  30.258  35.667  1.00  0.00    -0.508 OA
ATOM     27  H   UNL     1      16.061  31.071  35.377  1.00  0.00     0.293 HD
ENDBRANCH   8  26
TORSDOF 6
ENDMDL
MODEL 3
REMARK VINA RESULT:    -5.865      9.863     12.607
REMARK INTER + INTRA:          -7.387
REMARK INTER:                  -7.065
REMARK INTRA:                  -0.322
REMARK UNBOUND:                -0.321
REMARK SMILES O=c1c(O)c(-c2ccc(O)c(O)c2)oc2cc(O)cc(O)c12
REMARK SMILES IDX 5 1 3 2 2 3 1 4 22 5 20 6 19 7 17 8 16 9 15 10 14 11 6 12
REMARK SMILES IDX 7 13 8 14 9 15 13 16 11 17 10 18 12 20 4 22 21 24 18 26
REMARK H PARENT 10 19 12 21 4 23 21 25 18 27
REMARK Flexibility Score: inf
ROOT
ATOM      1  C   UNL     1      11.671  36.027  35.650  1.00  0.00     0.180 A 
ATOM      2  C   UNL     1      12.585  36.535  34.710  1.00  0.00     0.208 A 
ATOM      3  C   UNL     1      13.625  37.369  35.153  1.00  0.00     0.238 A 
ATOM      4  O   UNL     1      14.406  37.865  34.300  1.00  0.00    -0.285 OA
ATOM      5  C   UNL     1      13.747  37.672  36.530  1.00  0.00     0.111 A 
ATOM      6  C   UNL     1      14.784  38.472  37.095  1.00  0.00     0.134 A 
ATOM      7  C   UNL     1      14.732  38.814  38.452  1.00  0.00     0.093 A 
ATOM      8  C   UNL     1      13.716  38.328  39.279  1.00  0.00     0.123 A 
ATOM      9  C   UNL     1      12.732  37.497  38.749  1.00  0.00     0.094 A 
ATOM     10  C   UNL     1      12.737  37.169  37.391  1.00  0.00     0.146 A 
ATOM     11  O   UNL     1      11.774  36.382  36.925  1.00  0.00    -0.452 OA
ENDROOT
BRANCH   1  12
ATOM     12  C   UNL     1      10.565  35.122  35.263  1.00  0.00     0.025 A 
ATOM     13  C   UNL     1      10.702  33.725  35.341  1.00  0.00     0.016 A 
ATOM     14  C   UNL     1       9.635  32.891  34.994  1.00  0.00     0.051 A 
ATOM     15  C   UNL     1       8.415  33.440  34.579  1.00  0.00     0.157 A 
ATOM     16  C   UNL     1       9.333  35.667  34.867  1.00  0.00     0.062 A 
ATOM     17  C   UNL     1       8.262  34.830  34.518  1.00  0.00     0.158 A 
BRANCH  15  18
ATOM     18  O   UNL     1       7.350  32.611  34.231  1.00  0.00    -0.504 OA
ATOM     19  H   UNL     1       6.393  32.852  34.464  1.00  0.00     0.293 HD
ENDBRANCH  15  18
BRANCH  17  20
ATOM     20  O   UNL     1       7.045  35.374  34.112  1.00  0.00    -0.504 OA
ATOM     21  H   UNL     1       6.500  35.970  34.724  1.00  0.00     0.293 HD
ENDBRANCH  17  20
ENDBRANCH   1  12
BRANCH   2  22
ATOM     22  O   UNL     1      12.433  36.242  33.352  1.00  0.00    -0.502 OA
ATOM     23  H   UNL     1      13.218  36.020  32.752  1.00  0.00     0.293 HD
ENDBRANCH   2  22
BRANCH   6  24
ATOM     24  O   UNL     1      15.894  38.932  36.378  1.00  0.00    -0.507 OA
ATOM     25  H   UNL     1      16.043  38.782  35.392  1.00  0.00     0.293 HD
ENDBRANCH   6  24
BRANCH   8  26
ATOM     26  O   UNL     1      13.681  38.659  40.631  1.00  0.00    -0.508 OA
ATOM     27  H   UNL     1      12.959  38.300  41.246  1.00  0.00     0.293 HD
ENDBRANCH   8  26
TORSDOF 6
ENDMDL
MODEL 4
REMARK VINA RESULT:    -5.724      2.284      7.260
REMARK INTER + INTRA:          -7.216
REMARK INTER:                  -7.195
REMARK INTRA:                  -0.021
REMARK UNBOUND:                -0.321
REMARK SMILES O=c1c(O)c(-c2ccc(O)c(O)c2)oc2cc(O)cc(O)c12
REMARK SMILES IDX 5 1 3 2 2 3 1 4 22 5 20 6 19 7 17 8 16 9 15 10 14 11 6 12
REMARK SMILES IDX 7 13 8 14 9 15 13 16 11 17 10 18 12 20 4 22 21 24 18 26
REMARK H PARENT 10 19 12 21 4 23 21 25 18 27
REMARK Flexibility Score: inf
ROOT
ATOM      1  C   UNL     1      14.897  25.213  33.742  1.00  0.00     0.180 A 
ATOM      2  C   UNL     1      16.016  26.055  33.616  1.00  0.00     0.208 A 
ATOM      3  C   UNL     1      16.463  26.766  34.742  1.00  0.00     0.238 A 
ATOM      4  O   UNL     1      17.431  27.559  34.610  1.00  0.00    -0.285 OA
ATOM      5  C   UNL     1      15.798  26.613  35.982  1.00  0.00     0.111 A 
ATOM      6  C   UNL     1      16.189  27.252  37.196  1.00  0.00     0.134 A 
ATOM      7  C   UNL     1      15.380  27.131  38.332  1.00  0.00     0.093 A 
ATOM      8  C   UNL     1      14.228  26.340  38.316  1.00  0.00     0.123 A 
ATOM      9  C   UNL     1      13.870  25.665  37.152  1.00  0.00     0.094 A 
ATOM     10  C   UNL     1      14.638  25.795  35.992  1.00  0.00     0.146 A 
ATOM     11  O   UNL     1      14.255  25.142  34.901  1.00  0.00    -0.452 OA
ENDROOT
BRANCH   1  12
ATOM     12  C   UNL     1      14.382  24.414  32.607  1.00  0.00     0.025 A 
ATOM     13  C   UNL     1      15.235  23.606  31.834  1.00  0.00     0.016 A 
ATOM     14  C   UNL     1      14.722  22.841  30.783  1.00  0.00     0.051 A 
ATOM     15  C   UNL     1      13.351  22.861  30.498  1.00  0.00     0.157 A 
ATOM     16  C   UNL     1      13.005  24.414  32.330  1.00  0.00     0.062 A 
ATOM     17  C   UNL     1      12.490  23.646  31.275  1.00  0.00     0.158 A 
BRANCH  15  18
ATOM     18  O   UNL     1      12.836  22.101  29.449  1.00  0.00    -0.504 OA
ATOM     19  H   UNL     1      12.383  22.535  28.653  1.00  0.00     0.293 HD
ENDBRANCH  15  18
BRANCH  17  20
ATOM     20  O   UNL     1      11.125  23.659  30.994  1.00  0.00    -0.504 OA
ATOM     21  H   UNL     1      10.669  22.876  30.541  1.00  0.00     0.293 HD
ENDBRANCH  17  20
ENDBRANCH   1  12
BRANCH   2  22
ATOM     22  O   UNL     1      16.645  26.209  32.378  1.00  0.00    -0.502 OA
ATOM     23  H   UNL     1      16.152  26.099  31.499  1.00  0.00     0.293 HD
ENDBRANCH   2  22
BRANCH   6  24
ATOM     24  O   UNL     1      17.369  27.989  37.345  1.00  0.00    -0.507 OA
ATOM     25  H   UNL     1      17.562  28.613  38.114  1.00  0.00     0.293 HD
ENDBRANCH   6  24
BRANCH   8  26
ATOM     26  O   UNL     1      13.437  26.213  39.456  1.00  0.00    -0.508 OA
ATOM     27  H   UNL     1      13.029  27.021  39.910  1.00  0.00     0.293 HD
ENDBRANCH   8  26
TORSDOF 6
ENDMDL
MODEL 5
REMARK VINA RESULT:    -5.508      1.800      7.062
REMARK INTER + INTRA:          -6.956
REMARK INTER:                  -6.850
REMARK INTRA:                  -0.107
REMARK UNBOUND:                -0.321
REMARK SMILES O=c1c(O)c(-c2ccc(O)c(O)c2)oc2cc(O)cc(O)c12
REMARK SMILES IDX 5 1 3 2 2 3 1 4 22 5 20 6 19 7 17 8 16 9 15 10 14 11 6 12
REMARK SMILES IDX 7 13 8 14 9 15 13 16 11 17 10 18 12 20 4 22 21 24 18 26
REMARK H PARENT 10 19 12 21 4 23 21 25 18 27
REMARK Flexibility Score: inf
ROOT
ATOM      1  C   UNL     1      16.457  27.744  36.843  1.00  0.00     0.180 A 
ATOM      2  C   UNL     1      15.771  28.907  37.236  1.00  0.00     0.208 A 
ATOM      3  C   UNL     1      16.158  29.559  38.418  1.00  0.00     0.238 A 
ATOM      4  O   UNL     1      15.506  30.568  38.793  1.00  0.00    -0.285 OA
ATOM      5  C   UNL     1      17.235  29.051  39.183  1.00  0.00     0.111 A 
ATOM      6  C   UNL     1      17.738  29.653  40.375  1.00  0.00     0.134 A 
ATOM      7  C   UNL     1      18.721  28.992  41.121  1.00  0.00     0.093 A 
ATOM      8  C   UNL     1      19.267  27.782  40.683  1.00  0.00     0.123 A 
ATOM      9  C   UNL     1      18.824  27.217  39.490  1.00  0.00     0.094 A 
ATOM     10  C   UNL     1      17.818  27.834  38.742  1.00  0.00     0.146 A 
ATOM     11  O   UNL     1      17.418  27.255  37.617  1.00  0.00    -0.452 OA
ENDROOT
BRANCH   1  12
ATOM     12  C   UNL     1      16.123  27.015  35.598  1.00  0.00     0.025 A 
ATOM     13  C   UNL     1      14.841  26.474  35.389  1.00  0.00     0.016 A 
ATOM     14  C   UNL     1      14.541  25.811  34.196  1.00  0.00     0.051 A 
ATOM     15  C   UNL     1      15.510  25.692  33.191  1.00  0.00     0.157 A 
ATOM     16  C   UNL     1      17.083  26.910  34.579  1.00  0.00     0.062 A 
ATOM     17  C   UNL     1      16.782  26.245  33.381  1.00  0.00     0.158 A 
BRANCH  15  18
ATOM     18  O   UNL     1      15.215  25.030  32.001  1.00  0.00    -0.504 OA
ATOM     19  H   UNL     1      15.646  25.299  31.123  1.00  0.00     0.293 HD
ENDBRANCH  15  18
BRANCH  17  20
ATOM     20  O   UNL     1      17.742  26.131  32.377  1.00  0.00    -0.504 OA
ATOM     21  H   UNL     1      18.243  25.265  32.218  1.00  0.00     0.293 HD
ENDBRANCH  17  20
ENDBRANCH   1  12
BRANCH   2  22
ATOM     22  O   UNL     1      14.697  29.379  36.478  1.00  0.00    -0.502 OA
ATOM     23  H   UNL     1      13.749  29.412  36.836  1.00  0.00     0.293 HD
ENDBRANCH   2  22
BRANCH   6  24
ATOM     24  O   UNL     1      17.328  30.903  40.851  1.00  0.00    -0.507 OA
ATOM     25  H   UNL     1      17.692  31.787  40.530  1.00  0.00     0.293 HD
ENDBRANCH   6  24
BRANCH   8  26
ATOM     26  O   UNL     1      20.256  27.139  41.424  1.00  0.00    -0.508 OA
ATOM     27  H   UNL     1      21.214  27.091  41.097  1.00  0.00     0.293 HD
ENDBRANCH   8  26
TORSDOF 6
ENDMDL
MODEL 6
REMARK VINA RESULT:    -5.483      1.658      6.940
REMARK INTER + INTRA:          -6.926
REMARK INTER:                  -6.598
REMARK INTRA:                  -0.328
REMARK UNBOUND:                -0.321
REMARK SMILES O=c1c(O)c(-c2ccc(O)c(O)c2)oc2cc(O)cc(O)c12
REMARK SMILES IDX 5 1 3 2 2 3 1 4 22 5 20 6 19 7 17 8 16 9 15 10 14 11 6 12
REMARK SMILES IDX 7 13 8 14 9 15 13 16 11 17 10 18 12 20 4 22 21 24 18 26
REMARK H PARENT 10 19 12 21 4 23 21 25 18 27
REMARK Flexibility Score: inf
ROOT
ATOM      1  C   UNL     1      16.095  27.319  35.783  1.00  0.00     0.180 A 
ATOM      2  C   UNL     1      15.539  28.600  35.951  1.00  0.00     0.208 A 
ATOM      3  C   UNL     1      15.925  29.370  37.060  1.00  0.00     0.238 A 
ATOM      4  O   UNL     1      15.383  30.492  37.234  1.00  0.00    -0.285 OA
ATOM      5  C   UNL     1      16.873  28.858  37.978  1.00  0.00     0.111 A 
ATOM      6  C   UNL     1      17.366  29.566  39.114  1.00  0.00     0.134 A 
ATOM      7  C   UNL     1      18.204  28.912  40.026  1.00  0.00     0.093 A 
ATOM      8  C   UNL     1      18.618  27.596  39.808  1.00  0.00     0.123 A 
ATOM      9  C   UNL     1      18.189  26.916  38.671  1.00  0.00     0.094 A 
ATOM     10  C   UNL     1      17.324  27.529  37.761  1.00  0.00     0.146 A 
ATOM     11  O   UNL     1      16.931  26.841  36.697  1.00  0.00    -0.452 OA
ENDROOT
BRANCH   1  12
ATOM     12  C   UNL     1      15.756  26.459  34.627  1.00  0.00     0.025 A 
ATOM     13  C   UNL     1      16.526  26.478  33.450  1.00  0.00     0.016 A 
ATOM     14  C   UNL     1      16.202  25.639  32.380  1.00  0.00     0.051 A 
ATOM     15  C   UNL     1      15.115  24.761  32.476  1.00  0.00     0.157 A 
ATOM     16  C   UNL     1      14.681  25.561  34.724  1.00  0.00     0.062 A 
ATOM     17  C   UNL     1      14.355  24.719  33.650  1.00  0.00     0.158 A 
BRANCH  15  18
ATOM     18  O   UNL     1      14.788  23.924  31.410  1.00  0.00    -0.504 OA
ATOM     19  H   UNL     1      14.788  24.259  30.453  1.00  0.00     0.293 HD
ENDBRANCH  15  18
BRANCH  17  20
ATOM     20  O   UNL     1      13.278  23.839  33.745  1.00  0.00    -0.504 OA
ATOM     21  H   UNL     1      13.130  23.107  33.061  1.00  0.00     0.293 HD
ENDBRANCH  17  20
ENDBRANCH   1  12
BRANCH   2  22
ATOM     22  O   UNL     1      14.588  29.077  35.045  1.00  0.00    -0.502 OA
ATOM     23  H   UNL     1      13.620  28.779  35.063  1.00  0.00     0.293 HD
ENDBRANCH   2  22
BRANCH   6  24
ATOM     24  O   UNL     1      17.088  30.912  39.375  1.00  0.00    -0.507 OA
ATOM     25  H   UNL     1      17.191  31.355  40.276  1.00  0.00     0.293 HD
ENDBRANCH   6  24
BRANCH   8  26
ATOM     26  O   UNL     1      19.464  26.958  40.712  1.00  0.00    -0.508 OA
ATOM     27  H   UNL     1      20.402  26.676  40.452  1.00  0.00     0.293 HD
ENDBRANCH   8  26
TORSDOF 6
ENDMDL
MODEL 7
REMARK VINA RESULT:    -5.461      1.731      3.345
REMARK INTER + INTRA:          -6.899
REMARK INTER:                  -6.622
REMARK INTRA:                  -0.277
REMARK UNBOUND:                -0.321
REMARK SMILES O=c1c(O)c(-c2ccc(O)c(O)c2)oc2cc(O)cc(O)c12
REMARK SMILES IDX 5 1 3 2 2 3 1 4 22 5 20 6 19 7 17 8 16 9 15 10 14 11 6 12
REMARK SMILES IDX 7 13 8 14 9 15 13 16 11 17 10 18 12 20 4 22 21 24 18 26
REMARK H PARENT 10 19 12 21 4 23 21 25 18 27
REMARK Flexibility Score: inf
ROOT
ATOM      1  C   UNL     1      16.343  28.352  37.744  1.00  0.00     0.180 A 
ATOM      2  C   UNL     1      14.991  27.973  37.821  1.00  0.00     0.208 A 
ATOM      3  C   UNL     1      14.435  27.217  36.776  1.00  0.00     0.238 A 
ATOM      4  O   UNL     1      13.211  26.928  36.825  1.00  0.00    -0.285 OA
ATOM      5  C   UNL     1      15.240  26.835  35.676  1.00  0.00     0.111 A 
ATOM      6  C   UNL     1      14.792  26.036  34.583  1.00  0.00     0.134 A 
ATOM      7  C   UNL     1      15.638  25.829  33.486  1.00  0.00     0.093 A 
ATOM      8  C   UNL     1      16.938  26.338  33.473  1.00  0.00     0.123 A 
ATOM      9  C   UNL     1      17.405  27.070  34.562  1.00  0.00     0.094 A 
ATOM     10  C   UNL     1      16.573  27.323  35.655  1.00  0.00     0.146 A 
ATOM     11  O   UNL     1      17.054  28.034  36.668  1.00  0.00    -0.452 OA
ENDROOT
BRANCH   1  12
ATOM     12  C   UNL     1      17.007  29.127  38.816  1.00  0.00     0.025 A 
ATOM     13  C   UNL     1      16.794  30.511  38.956  1.00  0.00     0.016 A 
ATOM     14  C   UNL     1      17.412  31.218  39.991  1.00  0.00     0.051 A 
ATOM     15  C   UNL     1      18.238  30.554  40.906  1.00  0.00     0.157 A 
ATOM     16  C   UNL     1      17.819  28.464  39.749  1.00  0.00     0.062 A 
ATOM     17  C   UNL     1      18.439  29.173  40.788  1.00  0.00     0.158 A 
BRANCH  15  18
ATOM     18  O   UNL     1      18.857  31.257  41.939  1.00  0.00    -0.504 OA
ATOM     19  H   UNL     1      19.828  31.096  42.181  1.00  0.00     0.293 HD
ENDBRANCH  15  18
BRANCH  17  20
ATOM     20  O   UNL     1      19.256  28.513  41.704  1.00  0.00    -0.504 OA
ATOM     21  H   UNL     1      20.173  28.868  41.949  1.00  0.00     0.293 HD
ENDBRANCH  17  20
ENDBRANCH   1  12
BRANCH   2  22
ATOM     22  O   UNL     1      14.209  28.379  38.905  1.00  0.00    -0.502 OA
ATOM     23  H   UNL     1      14.095  27.813  39.737  1.00  0.00     0.293 HD
ENDBRANCH   2  22
BRANCH   6  24
ATOM     24  O   UNL     1      13.545  25.404  34.537  1.00  0.00    -0.507 OA
ATOM     25  H   UNL     1      12.744  25.750  34.032  1.00  0.00     0.293 HD
ENDBRANCH   6  24
BRANCH   8  26
ATOM     26  O   UNL     1      17.778  26.115  32.384  1.00  0.00    -0.508 OA
ATOM     27  H   UNL     1      17.487  26.328  31.438  1.00  0.00     0.293 HD
ENDBRANCH   8  26
TORSDOF 6
ENDMDL
MODEL 8
REMARK VINA RESULT:    -5.360      1.818      7.314
REMARK INTER + INTRA:          -6.778
REMARK INTER:                  -6.506
REMARK INTRA:                  -0.272
REMARK UNBOUND:                -0.321
REMARK SMILES O=c1c(O)c(-c2ccc(O)c(O)c2)oc2cc(O)cc(O)c12
REMARK SMILES IDX 5 1 3 2 2 3 1 4 22 5 20 6 19 7 17 8 16 9 15 10 14 11 6 12
REMARK SMILES IDX 7 13 8 14 9 15 13 16 11 17 10 18 12 20 4 22 21 24 18 26
REMARK H PARENT 10 19 12 21 4 23 21 25 18 27
REMARK Flexibility Score: inf
ROOT
ATOM      1  C   UNL     1      16.908  28.048  37.228  1.00  0.00     0.180 A 
ATOM      2  C   UNL     1      17.696  27.420  38.208  1.00  0.00     0.208 A 
ATOM      3  C   UNL     1      18.091  28.154  39.338  1.00  0.00     0.238 A 
ATOM      4  O   UNL     1      18.841  27.603  40.185  1.00  0.00    -0.285 OA
ATOM      5  C   UNL     1      17.679  29.501  39.483  1.00  0.00     0.111 A 
ATOM      6  C   UNL     1      17.986  30.326  40.605  1.00  0.00     0.134 A 
ATOM      7  C   UNL     1      17.638  31.683  40.581  1.00  0.00     0.093 A 
ATOM      8  C   UNL     1      16.935  32.227  39.504  1.00  0.00     0.123 A 
ATOM      9  C   UNL     1      16.579  31.415  38.430  1.00  0.00     0.094 A 
ATOM     10  C   UNL     1      16.944  30.067  38.408  1.00  0.00     0.146 A 
ATOM     11  O   UNL     1      16.594  29.331  37.360  1.00  0.00    -0.452 OA
ENDROOT
BRANCH   1  12
ATOM     12  C   UNL     1      16.433  27.333  36.022  1.00  0.00     0.025 A 
ATOM     13  C   UNL     1      15.097  26.910  35.901  1.00  0.00     0.016 A 
ATOM     14  C   UNL     1      14.665  26.258  34.743  1.00  0.00     0.051 A 
ATOM     15  C   UNL     1      15.556  26.033  33.685  1.00  0.00     0.157 A 
ATOM     16  C   UNL     1      17.315  27.122  34.950  1.00  0.00     0.062 A 
ATOM     17  C   UNL     1      16.882  26.468  33.787  1.00  0.00     0.158 A 
BRANCH  15  18
ATOM     18  O   UNL     1      15.129  25.381  32.529  1.00  0.00    -0.504 OA
ATOM     19  H   UNL     1      15.651  25.443  31.662  1.00  0.00     0.293 HD
ENDBRANCH  15  18
BRANCH  17  20
ATOM     20  O   UNL     1      17.765  26.248  32.731  1.00  0.00    -0.504 OA
ATOM     21  H   UNL     1      17.733  25.396  32.183  1.00  0.00     0.293 HD
ENDBRANCH  17  20
ENDBRANCH   1  12
BRANCH   2  22
ATOM     22  O   UNL     1      18.110  26.097  38.035  1.00  0.00    -0.502 OA
ATOM     23  H   UNL     1      18.273  25.691  37.121  1.00  0.00     0.293 HD
ENDBRANCH   2  22
BRANCH   6  24
ATOM     24  O   UNL     1      18.603  29.861  41.771  1.00  0.00    -0.507 OA
ATOM     25  H   UNL     1      19.601  29.811  41.913  1.00  0.00     0.293 HD
ENDBRANCH   6  24
BRANCH   8  26
ATOM     26  O   UNL     1      16.579  33.574  39.495  1.00  0.00    -0.508 OA
ATOM     27  H   UNL     1      15.663  33.881  39.800  1.00  0.00     0.293 HD
ENDBRANCH   8  26
TORSDOF 6
ENDMDL
MODEL 9
REMARK VINA RESULT:    -5.318      2.792      4.992
REMARK INTER + INTRA:          -6.727
REMARK INTER:                  -6.765
REMARK INTRA:                   0.038
REMARK UNBOUND:                -0.321
REMARK SMILES O=c1c(O)c(-c2ccc(O)c(O)c2)oc2cc(O)cc(O)c12
REMARK SMILES IDX 5 1 3 2 2 3 1 4 22 5 20 6 19 7 17 8 16 9 15 10 14 11 6 12
REMARK SMILES IDX 7 13 8 14 9 15 13 16 11 17 10 18 12 20 4 22 21 24 18 26
REMARK H PARENT 10 19 12 21 4 23 21 25 18 27
REMARK Flexibility Score: inf
ROOT
ATOM      1  C   UNL     1      13.635  24.378  33.460  1.00  0.00     0.180 A 
ATOM      2  C   UNL     1      14.276  24.049  32.253  1.00  0.00     0.208 A 
ATOM      3  C   UNL     1      13.620  23.203  31.343  1.00  0.00     0.238 A 
ATOM      4  O   UNL     1      14.221  22.868  30.289  1.00  0.00    -0.285 OA
ATOM      5  C   UNL     1      12.329  22.710  31.644  1.00  0.00     0.111 A 
ATOM      6  C   UNL     1      11.556  21.880  30.779  1.00  0.00     0.134 A 
ATOM      7  C   UNL     1      10.345  21.344  31.235  1.00  0.00     0.093 A 
ATOM      8  C   UNL     1       9.847  21.663  32.500  1.00  0.00     0.123 A 
ATOM      9  C   UNL     1      10.566  22.521  33.329  1.00  0.00     0.094 A 
ATOM     10  C   UNL     1      11.795  23.042  32.917  1.00  0.00     0.146 A 
ATOM     11  O   UNL     1      12.452  23.847  33.743  1.00  0.00    -0.452 OA
ENDROOT
BRANCH   1  12
ATOM     12  C   UNL     1      14.251  25.283  34.458  1.00  0.00     0.025 A 
ATOM     13  C   UNL     1      14.859  26.492  34.072  1.00  0.00     0.016 A 
ATOM     14  C   UNL     1      15.412  27.341  35.033  1.00  0.00     0.051 A 
ATOM     15  C   UNL     1      15.355  27.004  36.391  1.00  0.00     0.157 A 
ATOM     16  C   UNL     1      14.179  24.960  35.822  1.00  0.00     0.062 A 
ATOM     17  C   UNL     1      14.734  25.813  36.788  1.00  0.00     0.158 A 
BRANCH  15  18
ATOM     18  O   UNL     1      15.907  27.849  37.353  1.00  0.00    -0.504 OA
ATOM     19  H   UNL     1      15.355  28.567  37.808  1.00  0.00     0.293 HD
ENDBRANCH  15  18
BRANCH  17  20
ATOM     20  O   UNL     1      14.672  25.483  38.140  1.00  0.00    -0.504 OA
ATOM     21  H   UNL     1      14.335  26.143  38.832  1.00  0.00     0.293 HD
ENDBRANCH  17  20
ENDBRANCH   1  12
BRANCH   2  22
ATOM     22  O   UNL     1      15.561  24.529  31.985  1.00  0.00    -0.502 OA
ATOM     23  H   UNL     1      16.323  24.443  32.647  1.00  0.00     0.293 HD
ENDBRANCH   2  22
BRANCH   6  24
ATOM     24  O   UNL     1      11.917  21.574  29.462  1.00  0.00    -0.507 OA
ATOM     25  H   UNL     1      11.425  21.895  28.642  1.00  0.00     0.293 HD
ENDBRANCH   6  24
BRANCH   8  26
ATOM     26  O   UNL     1       8.634  21.139  32.940  1.00  0.00    -0.508 OA
ATOM     27  H   UNL     1       8.141  21.535  33.731  1.00  0.00     0.293 HD
ENDBRANCH   8  26
TORSDOF 6
ENDMDL
