MODEL 1
REMARK VINA RESULT:     2.736      0.000      0.000
REMARK INTER + INTRA:           3.765
REMARK INTER:                   4.015
REMARK INTRA:                  -0.250
REMARK UNBOUND:                -0.250
REMARK SMILES O=C([O-])CCCCCCCC(=O)[O-]
REMARK SMILES IDX 7 1 6 2 5 3 4 4 2 5 1 6 3 7 8 8 9 9 10 10 11 11 12 12 13 13
REMARK H PARENT
REMARK Flexibility Score: inf
ROOT
ATOM      1  C   UNL     1       8.409  20.637  55.430  1.00  0.00     0.000 C 
ENDROOT
BRANCH   1   2
ATOM      2  C   UNL     1       9.649  20.062  56.125  1.00  0.00     0.000 C 
BRANCH   2   3
ATOM      3  C   UNL     1      10.914  20.831  55.715  1.00  0.00     0.006 C 
BRANCH   3   4
ATOM      4  C   UNL     1      11.969  19.915  55.080  1.00  0.00     0.053 C 
BRANCH   4   5
ATOM      5  C   UNL     1      13.326  20.130  55.679  1.00  0.00     0.041 C 
ATOM      6  O   UNL     1      13.655  21.267  56.109  1.00  0.00    -0.550 OA
ATOM      7  O   UNL     1      14.237  19.084  55.733  1.00  0.00    -0.550 OA
ENDBRANCH   4   5
ENDBRANCH   3   4
ENDBRANCH   2   3
ENDBRANCH   1   2
BRANCH   1   8
ATOM      8  C   UNL     1       7.961  21.945  56.095  1.00  0.00     0.000 C 
BRANCH   8   9
ATOM      9  C   UNL     1       6.432  22.081  56.067  1.00  0.00     0.006 C 
BRANCH   9  10
ATOM     10  C   UNL     1       5.777  21.079  55.108  1.00  0.00     0.053 C 
BRANCH  10  11
ATOM     11  C   UNL     1       4.317  21.360  54.925  1.00  0.00     0.041 C 
ATOM     12  O   UNL     1       3.697  22.069  55.761  1.00  0.00    -0.550 OA
ATOM     13  O   UNL     1       3.633  20.811  53.846  1.00  0.00    -0.550 OA
ENDBRANCH  10  11
ENDBRANCH   9  10
ENDBRANCH   8   9
ENDBRANCH   1   8
TORSDOF 8
ENDMDL
MODEL 2
REMARK VINA RESULT:     4.864     12.625     13.906
REMARK INTER + INTRA:           6.889
REMARK INTER:                   6.142
REMARK INTRA:                   0.747
REMARK UNBOUND:                -0.250
REMARK SMILES O=C([O-])CCCCCCCC(=O)[O-]
REMARK SMILES IDX 7 1 6 2 5 3 4 4 2 5 1 6 3 7 8 8 9 9 10 10 11 11 12 12 13 13
REMARK H PARENT
REMARK Flexibility Score: inf
ROOT
ATOM      1  C   UNL     1       2.885   9.720  52.115  1.00  0.00     0.000 C 
ENDROOT
BRANCH   1   2
ATOM      2  C   UNL     1       4.164   8.883  51.995  1.00  0.00     0.000 C 
BRANCH   2   3
ATOM      3  C   UNL     1       4.479   8.168  53.318  1.00  0.00     0.006 C 
BRANCH   3   4
ATOM      4  C   UNL     1       3.702   6.854  53.469  1.00  0.00     0.053 C 
BRANCH   4   5
ATOM      5  C   UNL     1       3.448   6.520  54.907  1.00  0.00     0.041 C 
ATOM      6  O   UNL     1       2.621   7.194  55.577  1.00  0.00    -0.550 OA
ATOM      7  O   UNL     1       4.145   5.485  55.515  1.00  0.00    -0.550 OA
ENDBRANCH   4   5
ENDBRANCH   3   4
ENDBRANCH   2   3
ENDBRANCH   1   2
BRANCH   1   8
ATOM      8  C   UNL     1       2.274   9.594  53.516  1.00  0.00     0.000 C 
BRANCH   8   9
ATOM      9  C   UNL     1       2.545  10.854  54.351  1.00  0.00     0.006 C 
BRANCH   9  10
ATOM     10  C   UNL     1       2.856  10.524  55.816  1.00  0.00     0.053 C 
BRANCH  10  11
ATOM     11  C   UNL     1       4.324  10.327  56.041  1.00  0.00     0.041 C 
ATOM     12  O   UNL     1       5.093  11.321  56.125  1.00  0.00    -0.550 OA
ATOM     13  O   UNL     1       4.848   9.043  56.125  1.00  0.00    -0.550 OA
ENDBRANCH  10  11
ENDBRANCH   9  10
ENDBRANCH   8   9
ENDBRANCH   1   8
TORSDOF 8
ENDMDL
MODEL 3
REMARK VINA RESULT:     4.942     12.602     13.922
REMARK INTER + INTRA:           7.003
REMARK INTER:                   6.177
REMARK INTRA:                   0.826
REMARK UNBOUND:                -0.250
REMARK SMILES O=C([O-])CCCCCCCC(=O)[O-]
REMARK SMILES IDX 7 1 6 2 5 3 4 4 2 5 1 6 3 7 8 8 9 9 10 10 11 11 12 12 13 13
REMARK H PARENT
REMARK Flexibility Score: inf
ROOT
ATOM      1  C   UNL     1       2.572   9.421  52.271  1.00  0.00     0.000 C 
ENDROOT
BRANCH   1   2
ATOM      2  C   UNL     1       2.393  10.580  53.259  1.00  0.00     0.000 C 
BRANCH   2   3
ATOM      3  C   UNL     1       2.131  10.056  54.679  1.00  0.00     0.006 C 
BRANCH   3   4
ATOM      4  C   UNL     1       2.848  10.891  55.748  1.00  0.00     0.053 C 
BRANCH   4   5
ATOM      5  C   UNL     1       4.245  10.406  55.988  1.00  0.00     0.041 C 
ATOM      6  O   UNL     1       5.200  11.225  56.038  1.00  0.00    -0.550 OA
ATOM      7  O   UNL     1       4.497   9.047  56.125  1.00  0.00    -0.550 OA
ENDBRANCH   4   5
ENDBRANCH   3   4
ENDBRANCH   2   3
ENDBRANCH   1   2
BRANCH   1   8
ATOM      8  C   UNL     1       4.050   9.030  52.142  1.00  0.00     0.000 C 
BRANCH   8   9
ATOM      9  C   UNL     1       4.502   8.187  53.343  1.00  0.00     0.006 C 
BRANCH   9  10
ATOM     10  C   UNL     1       3.731   6.866  53.450  1.00  0.00     0.053 C 
BRANCH  10  11
ATOM     11  C   UNL     1       3.445   6.504  54.875  1.00  0.00     0.041 C 
ATOM     12  O   UNL     1       2.638   7.191  55.555  1.00  0.00    -0.550 OA
ATOM     13  O   UNL     1       4.096   5.425  55.462  1.00  0.00    -0.550 OA
ENDBRANCH  10  11
ENDBRANCH   9  10
ENDBRANCH   8   9
ENDBRANCH   1   8
TORSDOF 8
ENDMDL
