MODEL 1
REMARK VINA RESULT:    -5.198      0.000      0.000
REMARK INTER + INTRA:          -6.703
REMARK INTER:                  -6.110
REMARK INTRA:                  -0.593
REMARK UNBOUND:                -0.593
REMARK SMILES C=C[C@@]1(C)CC[C@H](C(=C)C)C[C@H]1C(=C)C
REMARK SMILES IDX 7 1 6 2 5 3 3 4 12 5 11 6 4 7 8 8 10 9 9 10 13 11 14 12
REMARK SMILES IDX 15 13 2 14 1 15
REMARK H PARENT
REMARK Flexibility Score: inf
ROOT
ATOM      1  C   UNL     1      31.803  10.585  31.491  1.00  0.00     0.015 C 
ATOM      2  C   UNL     1      31.339   9.260  30.868  1.00  0.00     0.009 C 
ATOM      3  C   UNL     1      30.622   8.385  31.905  1.00  0.00     0.012 C 
ATOM      4  C   UNL     1      31.457   8.131  33.206  1.00  0.00    -0.008 C 
ATOM      5  C   UNL     1      32.082   9.473  33.775  1.00  0.00     0.024 C 
ATOM      6  C   UNL     1      32.759  10.315  32.663  1.00  0.00     0.017 C 
ATOM      7  C   UNL     1      32.607   7.139  32.876  1.00  0.00     0.016 C 
ENDROOT
BRANCH   1   8
ATOM      8  C   UNL     1      32.445  11.496  30.451  1.00  0.00    -0.077 C 
ATOM      9  C   UNL     1      32.361  11.149  28.988  1.00  0.00     0.039 C 
ATOM     10  C   UNL     1      33.088  12.621  30.808  1.00  0.00     0.008 C 
ENDBRANCH   1   8
BRANCH   5  11
ATOM     11  C   UNL     1      31.207  10.392  34.650  1.00  0.00    -0.077 C 
ATOM     12  C   UNL     1      31.654  10.657  35.891  1.00  0.00     0.008 C 
ATOM     13  C   UNL     1      29.917  11.053  34.213  1.00  0.00     0.039 C 
ENDBRANCH   5  11
BRANCH   4  14
ATOM     14  C   UNL     1      30.603   7.450  34.278  1.00  0.00    -0.028 C 
ATOM     15  C   UNL     1      31.112   6.902  35.391  1.00  0.00     0.004 C 
ENDBRANCH   4  14
TORSDOF 3
ENDMDL
MODEL 2
REMARK VINA RESULT:    -5.027      1.133      3.051
REMARK INTER + INTRA:          -6.503
REMARK INTER:                  -5.933
REMARK INTRA:                  -0.569
REMARK UNBOUND:                -0.593
REMARK SMILES C=C[C@@]1(C)CC[C@H](C(=C)C)C[C@H]1C(=C)C
REMARK SMILES IDX 7 1 6 2 5 3 3 4 12 5 11 6 4 7 8 8 10 9 9 10 13 11 14 12
REMARK SMILES IDX 15 13 2 14 1 15
REMARK H PARENT
REMARK Flexibility Score: inf
ROOT
ATOM      1  C   UNL     1      32.206  10.674  32.036  1.00  0.00     0.015 C 
ATOM      2  C   UNL     1      32.575  11.518  33.265  1.00  0.00     0.009 C 
ATOM      3  C   UNL     1      32.372  10.720  34.561  1.00  0.00     0.012 C 
ATOM      4  C   UNL     1      30.938  10.107  34.711  1.00  0.00    -0.008 C 
ATOM      5  C   UNL     1      30.473   9.369  33.387  1.00  0.00     0.024 C 
ATOM      6  C   UNL     1      30.740  10.224  32.121  1.00  0.00     0.017 C 
ATOM      7  C   UNL     1      29.937  11.252  35.029  1.00  0.00     0.016 C 
ENDROOT
BRANCH   1   8
ATOM      8  C   UNL     1      32.480  11.429  30.739  1.00  0.00    -0.077 C 
ATOM      9  C   UNL     1      32.054  10.843  29.420  1.00  0.00     0.039 C 
ATOM     10  C   UNL     1      33.096  12.623  30.743  1.00  0.00     0.008 C 
ENDBRANCH   1   8
BRANCH   5  11
ATOM     11  C   UNL     1      30.944   7.922  33.134  1.00  0.00    -0.077 C 
ATOM     12  C   UNL     1      29.987   6.991  32.973  1.00  0.00     0.008 C 
ATOM     13  C   UNL     1      32.385   7.477  33.007  1.00  0.00     0.039 C 
ENDBRANCH   5  11
BRANCH   4  14
ATOM     14  C   UNL     1      30.877   9.147  35.901  1.00  0.00    -0.028 C 
ATOM     15  C   UNL     1      31.405   9.424  37.102  1.00  0.00     0.004 C 
ENDBRANCH   4  14
TORSDOF 3
ENDMDL
MODEL 3
REMARK VINA RESULT:    -4.962      2.471      5.671
REMARK INTER + INTRA:          -6.426
REMARK INTER:                  -5.824
REMARK INTRA:                  -0.601
REMARK UNBOUND:                -0.593
REMARK SMILES C=C[C@@]1(C)CC[C@H](C(=C)C)C[C@H]1C(=C)C
REMARK SMILES IDX 7 1 6 2 5 3 3 4 12 5 11 6 4 7 8 8 10 9 9 10 13 11 14 12
REMARK SMILES IDX 15 13 2 14 1 15
REMARK H PARENT
REMARK Flexibility Score: inf
ROOT
ATOM      1  C   UNL     1      31.507   9.603  30.813  1.00  0.00     0.015 C 
ATOM      2  C   UNL     1      30.062   9.127  31.021  1.00  0.00     0.009 C 
ATOM      3  C   UNL     1      29.293   9.104  29.693  1.00  0.00     0.012 C 
ATOM      4  C   UNL     1      29.329  10.464  28.916  1.00  0.00    -0.008 C 
ATOM      5  C   UNL     1      30.798  11.054  28.833  1.00  0.00     0.024 C 
ATOM      6  C   UNL     1      31.519  11.014  30.204  1.00  0.00     0.017 C 
ATOM      7  C   UNL     1      28.416  11.483  29.652  1.00  0.00     0.016 C 
ENDROOT
BRANCH   1   8
ATOM      8  C   UNL     1      32.304   9.553  32.113  1.00  0.00    -0.077 C 
ATOM      9  C   UNL     1      32.281   8.312  32.965  1.00  0.00     0.039 C 
ATOM     10  C   UNL     1      33.040  10.600  32.522  1.00  0.00     0.008 C 
ENDBRANCH   1   8
BRANCH   5  11
ATOM     11  C   UNL     1      31.752  10.533  27.739  1.00  0.00    -0.077 C 
ATOM     12  C   UNL     1      32.471  11.451  27.071  1.00  0.00     0.008 C 
ATOM     13  C   UNL     1      31.976   9.076  27.391  1.00  0.00     0.039 C 
ENDBRANCH   5  11
BRANCH   4  14
ATOM     14  C   UNL     1      28.743  10.304  27.511  1.00  0.00    -0.028 C 
ATOM     15  C   UNL     1      27.968   9.272  27.146  1.00  0.00     0.004 C 
ENDBRANCH   4  14
TORSDOF 3
ENDMDL
MODEL 4
REMARK VINA RESULT:    -4.690      1.913      4.248
REMARK INTER + INTRA:          -6.106
REMARK INTER:                  -5.517
REMARK INTRA:                  -0.590
REMARK UNBOUND:                -0.593
REMARK SMILES C=C[C@@]1(C)CC[C@H](C(=C)C)C[C@H]1C(=C)C
REMARK SMILES IDX 7 1 6 2 5 3 3 4 12 5 11 6 4 7 8 8 10 9 9 10 13 11 14 12
REMARK SMILES IDX 15 13 2 14 1 15
REMARK H PARENT
REMARK Flexibility Score: inf
ROOT
ATOM      1  C   UNL     1      31.679   9.433  34.313  1.00  0.00     0.015 C 
ATOM      2  C   UNL     1      31.781  10.585  35.324  1.00  0.00     0.009 C 
ATOM      3  C   UNL     1      31.363  10.124  36.727  1.00  0.00     0.012 C 
ATOM      4  C   UNL     1      29.948   9.454  36.780  1.00  0.00    -0.008 C 
ATOM      5  C   UNL     1      29.767   8.372  35.635  1.00  0.00     0.024 C 
ATOM      6  C   UNL     1      30.239   8.901  34.257  1.00  0.00     0.017 C 
ATOM      7  C   UNL     1      28.867  10.557  36.609  1.00  0.00     0.016 C 
ENDROOT
BRANCH   1   8
ATOM      8  C   UNL     1      32.168   9.859  32.932  1.00  0.00    -0.077 C 
ATOM      9  C   UNL     1      31.575   9.237  31.696  1.00  0.00     0.039 C 
ATOM     10  C   UNL     1      33.124  10.791  32.786  1.00  0.00     0.008 C 
ENDBRANCH   1   8
BRANCH   5  11
ATOM     11  C   UNL     1      30.325   6.951  35.855  1.00  0.00    -0.077 C 
ATOM     12  C   UNL     1      29.514   5.924  35.545  1.00  0.00     0.008 C 
ATOM     13  C   UNL     1      31.719   6.621  36.345  1.00  0.00     0.039 C 
ENDBRANCH   5  11
BRANCH   4  14
ATOM     14  C   UNL     1      29.696   8.821  38.150  1.00  0.00    -0.028 C 
ATOM     15  C   UNL     1      30.276   9.250  39.281  1.00  0.00     0.004 C 
ENDBRANCH   4  14
TORSDOF 3
ENDMDL
MODEL 5
REMARK VINA RESULT:    -4.685      1.267      5.185
REMARK INTER + INTRA:          -6.100
REMARK INTER:                  -5.511
REMARK INTRA:                  -0.589
REMARK UNBOUND:                -0.593
REMARK SMILES C=C[C@@]1(C)CC[C@H](C(=C)C)C[C@H]1C(=C)C
REMARK SMILES IDX 7 1 6 2 5 3 3 4 12 5 11 6 4 7 8 8 10 9 9 10 13 11 14 12
REMARK SMILES IDX 15 13 2 14 1 15
REMARK H PARENT
REMARK Flexibility Score: inf
ROOT
ATOM      1  C   UNL     1      30.602   8.360  33.994  1.00  0.00     0.015 C 
ATOM      2  C   UNL     1      30.675   9.666  34.798  1.00  0.00     0.009 C 
ATOM      3  C   UNL     1      30.646  10.887  33.868  1.00  0.00     0.012 C 
ATOM      4  C   UNL     1      31.740  10.856  32.746  1.00  0.00    -0.008 C 
ATOM      5  C   UNL     1      31.789   9.452  32.012  1.00  0.00     0.024 C 
ATOM      6  C   UNL     1      31.784   8.271  33.016  1.00  0.00     0.017 C 
ATOM      7  C   UNL     1      33.125  11.137  33.393  1.00  0.00     0.016 C 
ENDROOT
BRANCH   1   8
ATOM      8  C   UNL     1      30.549   7.143  34.912  1.00  0.00    -0.077 C 
ATOM      9  C   UNL     1      31.483   7.043  36.089  1.00  0.00     0.039 C 
ATOM     10  C   UNL     1      29.675   6.145  34.699  1.00  0.00     0.008 C 
ENDBRANCH   1   8
BRANCH   5  11
ATOM     11  C   UNL     1      30.781   9.164  30.881  1.00  0.00    -0.077 C 
ATOM     12  C   UNL     1      31.275   8.640  29.745  1.00  0.00     0.008 C 
ATOM     13  C   UNL     1      29.285   9.381  30.962  1.00  0.00     0.039 C 
ENDBRANCH   5  11
BRANCH   4  14
ATOM     14  C   UNL     1      31.510  11.977  31.730  1.00  0.00    -0.028 C 
ATOM     15  C   UNL     1      32.505  12.654  31.139  1.00  0.00     0.004 C 
ENDBRANCH   4  14
TORSDOF 3
ENDMDL
MODEL 6
REMARK VINA RESULT:    -4.647      1.293      5.201
REMARK INTER + INTRA:          -6.055
REMARK INTER:                  -5.752
REMARK INTRA:                  -0.303
REMARK UNBOUND:                -0.593
REMARK SMILES C=C[C@@]1(C)CC[C@H](C(=C)C)C[C@H]1C(=C)C
REMARK SMILES IDX 7 1 6 2 5 3 3 4 12 5 11 6 4 7 8 8 10 9 9 10 13 11 14 12
REMARK SMILES IDX 15 13 2 14 1 15
REMARK H PARENT
REMARK Flexibility Score: inf
ROOT
ATOM      1  C   UNL     1      30.951   8.464  34.702  1.00  0.00     0.015 C 
ATOM      2  C   UNL     1      30.947   9.998  34.648  1.00  0.00     0.009 C 
ATOM      3  C   UNL     1      30.651  10.498  33.227  1.00  0.00     0.012 C 
ATOM      4  C   UNL     1      31.601   9.901  32.134  1.00  0.00    -0.008 C 
ATOM      5  C   UNL     1      31.746   8.328  32.278  1.00  0.00     0.024 C 
ATOM      6  C   UNL     1      32.011   7.901  33.744  1.00  0.00     0.017 C 
ATOM      7  C   UNL     1      33.004  10.553  32.282  1.00  0.00     0.016 C 
ENDROOT
BRANCH   1   8
ATOM      8  C   UNL     1      31.163   7.956  36.125  1.00  0.00    -0.077 C 
ATOM      9  C   UNL     1      31.226   8.930  37.272  1.00  0.00     0.039 C 
ATOM     10  C   UNL     1      31.293   6.645  36.387  1.00  0.00     0.008 C 
ENDBRANCH   1   8
BRANCH   5  11
ATOM     11  C   UNL     1      30.659   7.419  31.670  1.00  0.00    -0.077 C 
ATOM     12  C   UNL     1      30.861   6.986  30.413  1.00  0.00     0.008 C 
ATOM     13  C   UNL     1      29.413   6.941  32.385  1.00  0.00     0.039 C 
ENDBRANCH   5  11
BRANCH   4  14
ATOM     14  C   UNL     1      31.111  10.260  30.730  1.00  0.00    -0.028 C 
ATOM     15  C   UNL     1      31.925  10.659  29.742  1.00  0.00     0.004 C 
ENDBRANCH   4  14
TORSDOF 3
ENDMDL
MODEL 7
REMARK VINA RESULT:    -4.626      2.782      5.620
REMARK INTER + INTRA:          -6.031
REMARK INTER:                  -5.417
REMARK INTRA:                  -0.614
REMARK UNBOUND:                -0.593
REMARK SMILES C=C[C@@]1(C)CC[C@H](C(=C)C)C[C@H]1C(=C)C
REMARK SMILES IDX 7 1 6 2 5 3 3 4 12 5 11 6 4 7 8 8 10 9 9 10 13 11 14 12
REMARK SMILES IDX 15 13 2 14 1 15
REMARK H PARENT
REMARK Flexibility Score: inf
ROOT
ATOM      1  C   UNL     1      31.412  10.448  30.554  1.00  0.00     0.015 C 
ATOM      2  C   UNL     1      30.184  11.369  30.497  1.00  0.00     0.009 C 
ATOM      3  C   UNL     1      29.042  10.716  29.708  1.00  0.00     0.012 C 
ATOM      4  C   UNL     1      29.453  10.240  28.273  1.00  0.00    -0.008 C 
ATOM      5  C   UNL     1      30.812   9.422  28.292  1.00  0.00     0.024 C 
ATOM      6  C   UNL     1      31.904  10.130  29.134  1.00  0.00     0.017 C 
ATOM      7  C   UNL     1      29.629  11.488  27.364  1.00  0.00     0.016 C 
ENDROOT
BRANCH   1   8
ATOM      8  C   UNL     1      32.524  11.053  31.404  1.00  0.00    -0.077 C 
ATOM      9  C   UNL     1      32.990  10.349  32.651  1.00  0.00     0.039 C 
ATOM     10  C   UNL     1      33.113  12.212  31.063  1.00  0.00     0.008 C 
ENDBRANCH   1   8
BRANCH   5  11
ATOM     11  C   UNL     1      30.777   7.924  28.657  1.00  0.00    -0.077 C 
ATOM     12  C   UNL     1      31.268   7.064  27.747  1.00  0.00     0.008 C 
ATOM     13  C   UNL     1      30.278   7.351  29.967  1.00  0.00     0.039 C 
ENDBRANCH   5  11
BRANCH   4  14
ATOM     14  C   UNL     1      28.342   9.403  27.636  1.00  0.00    -0.028 C 
ATOM     15  C   UNL     1      28.236   9.196  26.316  1.00  0.00     0.004 C 
ENDBRANCH   4  14
TORSDOF 3
ENDMDL
MODEL 8
REMARK VINA RESULT:    -4.593      1.524      4.702
REMARK INTER + INTRA:          -5.991
REMARK INTER:                  -5.480
REMARK INTRA:                  -0.512
REMARK UNBOUND:                -0.593
REMARK SMILES C=C[C@@]1(C)CC[C@H](C(=C)C)C[C@H]1C(=C)C
REMARK SMILES IDX 7 1 6 2 5 3 3 4 12 5 11 6 4 7 8 8 10 9 9 10 13 11 14 12
REMARK SMILES IDX 15 13 2 14 1 15
REMARK H PARENT
REMARK Flexibility Score: inf
ROOT
ATOM      1  C   UNL     1      31.450   8.647  34.886  1.00  0.00     0.015 C 
ATOM      2  C   UNL     1      31.602   7.396  34.008  1.00  0.00     0.009 C 
ATOM      3  C   UNL     1      32.005   7.773  32.577  1.00  0.00     0.012 C 
ATOM      4  C   UNL     1      31.052   8.818  31.903  1.00  0.00    -0.008 C 
ATOM      5  C   UNL     1      30.752  10.044  32.863  1.00  0.00     0.024 C 
ATOM      6  C   UNL     1      30.384   9.583  34.296  1.00  0.00     0.017 C 
ATOM      7  C   UNL     1      29.712   8.116  31.549  1.00  0.00     0.016 C 
ENDROOT
BRANCH   1   8
ATOM      8  C   UNL     1      31.128   8.280  36.330  1.00  0.00    -0.077 C 
ATOM      9  C   UNL     1      30.877   6.844  36.706  1.00  0.00     0.039 C 
ATOM     10  C   UNL     1      31.066   9.216  37.293  1.00  0.00     0.008 C 
ENDBRANCH   1   8
BRANCH   5  11
ATOM     11  C   UNL     1      31.774  11.196  32.944  1.00  0.00    -0.077 C 
ATOM     12  C   UNL     1      31.441  12.349  32.338  1.00  0.00     0.008 C 
ATOM     13  C   UNL     1      33.094  11.149  33.686  1.00  0.00     0.039 C 
ENDBRANCH   5  11
BRANCH   4  14
ATOM     14  C   UNL     1      31.635   9.314  30.578  1.00  0.00    -0.028 C 
ATOM     15  C   UNL     1      30.884   9.735  29.551  1.00  0.00     0.004 C 
ENDBRANCH   4  14
TORSDOF 3
ENDMDL
