MODEL 1
REMARK VINA RESULT:    -4.174      0.000      0.000
REMARK INTER + INTRA:          -8.047
REMARK INTER:                  -6.370
REMARK INTRA:                  -1.677
REMARK UNBOUND:                -1.677
REMARK SMILES OC[C@H]1O[C@@H](O[C@@]2(CO)O[C@H](CO)[C@@H](O)[C@H]2O)[C@@H](O)[C@@H](O)[C@@H]1O
REMARK SMILES IDX 6 1 5 2 3 3 22 4 4 5 20 6 18 7 2 8 1 9 23 11 21 13 19 15
REMARK SMILES IDX 7 17 16 18 10 19 14 20 11 21 8 22 9 23 17 25 15 27 12 29
REMARK SMILES IDX 13 30
REMARK H PARENT 1 10 23 12 21 14 19 16 9 24 17 26 15 28 13 31
REMARK Flexibility Score: inf
ROOT
ATOM      1  O   UNL     1      13.492  48.913  24.495  1.00  0.00    -0.313 OA
ENDROOT
BRANCH   1   2
ATOM      2  C   UNL     1      13.124  48.913  23.117  1.00  0.00     0.285 C 
ATOM      3  C   UNL     1      11.379  47.254  23.236  1.00  0.00     0.178 C 
ATOM      4  C   UNL     1      12.320  46.156  22.634  1.00  0.00     0.177 C 
ATOM      5  O   UNL     1      11.748  48.602  22.954  1.00  0.00    -0.341 OA
ATOM      6  C   UNL     1      13.819  46.504  22.737  1.00  0.00     0.179 C 
ATOM      7  C   UNL     1      14.036  47.970  22.311  1.00  0.00     0.202 C 
BRANCH   3   8
ATOM      8  C   UNL     1      11.000  47.049  24.720  1.00  0.00     0.191 C 
BRANCH   8   9
ATOM      9  O   UNL     1      12.112  46.714  25.497  1.00  0.00    -0.394 OA
ATOM     10  H   UNL     1      12.891  47.165  25.075  1.00  0.00     0.210 HD
ENDBRANCH   8   9
ENDBRANCH   3   8
BRANCH   4  11
ATOM     11  O   UNL     1      11.967  45.875  21.296  1.00  0.00    -0.387 OA
ATOM     12  H   UNL     1      12.794  45.625  20.807  1.00  0.00     0.211 HD
ENDBRANCH   4  11
BRANCH   6  13
ATOM     13  O   UNL     1      14.272  46.241  24.049  1.00  0.00    -0.387 OA
ATOM     14  H   UNL     1      14.056  45.282  24.280  1.00  0.00     0.211 HD
ENDBRANCH   6  13
BRANCH   7  15
ATOM     15  O   UNL     1      15.386  48.331  22.468  1.00  0.00    -0.385 OA
ATOM     16  H   UNL     1      15.428  49.005  23.200  1.00  0.00     0.211 HD
ENDBRANCH   7  15
ENDBRANCH   1   2
BRANCH   1  17
ATOM     17  C   UNL     1      13.449  50.207  25.104  1.00  0.00     0.224 C 
ATOM     18  C   UNL     1      13.778  50.072  26.617  1.00  0.00     0.208 C 
ATOM     19  O   UNL     1      12.150  50.768  24.976  1.00  0.00    -0.337 OA
ATOM     20  C   UNL     1      12.601  50.741  27.297  1.00  0.00     0.180 C 
ATOM     21  C   UNL     1      11.520  50.678  26.231  1.00  0.00     0.179 C 
BRANCH  17  22
ATOM     22  C   UNL     1      14.483  51.153  24.433  1.00  0.00     0.225 C 
BRANCH  22  23
ATOM     23  O   UNL     1      15.759  50.564  24.395  1.00  0.00    -0.391 OA
ATOM     24  H   UNL     1      16.244  50.976  23.630  1.00  0.00     0.210 HD
ENDBRANCH  22  23
ENDBRANCH  17  22
BRANCH  18  25
ATOM     25  O   UNL     1      13.888  48.723  26.993  1.00  0.00    -0.385 OA
ATOM     26  H   UNL     1      14.744  48.388  26.622  1.00  0.00     0.211 HD
ENDBRANCH  18  25
BRANCH  20  27
ATOM     27  O   UNL     1      12.211  50.067  28.470  1.00  0.00    -0.387 OA
ATOM     28  H   UNL     1      11.298  50.385  28.690  1.00  0.00     0.211 HD
ENDBRANCH  20  27
BRANCH  21  29
ATOM     29  C   UNL     1      10.501  51.815  26.383  1.00  0.00     0.191 C 
BRANCH  29  30
ATOM     30  O   UNL     1       9.938  51.788  27.667  1.00  0.00    -0.394 OA
ATOM     31  H   UNL     1      10.693  51.770  28.315  1.00  0.00     0.210 HD
ENDBRANCH  29  30
ENDBRANCH  21  29
ENDBRANCH   1  17
TORSDOF 13
ENDMDL
MODEL 2
REMARK VINA RESULT:    -4.167      4.023      7.335
REMARK INTER + INTRA:          -8.036
REMARK INTER:                  -6.363
REMARK INTRA:                  -1.673
REMARK UNBOUND:                -1.677
REMARK SMILES OC[C@H]1O[C@@H](O[C@@]2(CO)O[C@H](CO)[C@@H](O)[C@H]2O)[C@@H](O)[C@@H](O)[C@@H]1O
REMARK SMILES IDX 6 1 5 2 3 3 22 4 4 5 20 6 18 7 2 8 1 9 23 11 21 13 19 15
REMARK SMILES IDX 7 17 16 18 10 19 14 20 11 21 8 22 9 23 17 25 15 27 12 29
REMARK SMILES IDX 13 30
REMARK H PARENT 1 10 23 12 21 14 19 16 9 24 17 26 15 28 13 31
REMARK Flexibility Score: inf
ROOT
ATOM      1  O   UNL     1      12.980  50.448  29.286  1.00  0.00    -0.313 OA
ENDROOT
BRANCH   1   2
ATOM      2  C   UNL     1      12.932  51.806  28.850  1.00  0.00     0.285 C 
ATOM      3  C   UNL     1      12.894  52.854  31.021  1.00  0.00     0.178 C 
ATOM      4  C   UNL     1      11.354  53.120  30.915  1.00  0.00     0.177 C 
ATOM      5  O   UNL     1      13.573  52.666  29.781  1.00  0.00    -0.341 OA
ATOM      6  C   UNL     1      10.647  52.245  29.859  1.00  0.00     0.179 C 
ATOM      7  C   UNL     1      11.481  52.233  28.562  1.00  0.00     0.202 C 
BRANCH   3   8
ATOM      8  C   UNL     1      13.304  51.804  32.078  1.00  0.00     0.191 C 
BRANCH   8   9
ATOM      9  O   UNL     1      14.588  51.305  31.842  1.00  0.00    -0.394 OA
ATOM     10  H   UNL     1      15.166  51.678  32.560  1.00  0.00     0.210 HD
ENDBRANCH   8   9
ENDBRANCH   3   8
BRANCH   4  11
ATOM     11  O   UNL     1      11.100  54.489  30.675  1.00  0.00    -0.387 OA
ATOM     12  H   UNL     1      10.455  54.805  31.360  1.00  0.00     0.211 HD
ENDBRANCH   4  11
BRANCH   6  13
ATOM     13  O   UNL     1      10.435  50.953  30.388  1.00  0.00    -0.387 OA
ATOM     14  H   UNL     1      11.012  50.841  31.210  1.00  0.00     0.211 HD
ENDBRANCH   6  13
BRANCH   7  15
ATOM     15  O   UNL     1      10.893  51.380  27.610  1.00  0.00    -0.385 OA
ATOM     16  H   UNL     1      10.296  50.755  28.103  1.00  0.00     0.211 HD
ENDBRANCH   7  15
ENDBRANCH   1   2
BRANCH   1  17
ATOM     17  C   UNL     1      14.119  49.727  28.805  1.00  0.00     0.224 C 
ATOM     18  C   UNL     1      13.682  48.799  27.638  1.00  0.00     0.208 C 
ATOM     19  O   UNL     1      14.663  48.920  29.839  1.00  0.00    -0.337 OA
ATOM     20  C   UNL     1      14.168  47.431  28.071  1.00  0.00     0.180 C 
ATOM     21  C   UNL     1      14.301  47.586  29.578  1.00  0.00     0.179 C 
BRANCH  17  22
ATOM     22  C   UNL     1      15.207  50.715  28.300  1.00  0.00     0.225 C 
BRANCH  22  23
ATOM     23  O   UNL     1      16.124  51.022  29.319  1.00  0.00    -0.391 OA
ATOM     24  H   UNL     1      16.398  50.159  29.731  1.00  0.00     0.210 HD
ENDBRANCH  22  23
ENDBRANCH  17  22
BRANCH  18  25
ATOM     25  O   UNL     1      12.287  48.818  27.470  1.00  0.00    -0.385 OA
ATOM     26  H   UNL     1      12.052  49.708  27.102  1.00  0.00     0.211 HD
ENDBRANCH  18  25
BRANCH  20  27
ATOM     27  O   UNL     1      13.257  46.412  27.735  1.00  0.00    -0.387 OA
ATOM     28  H   UNL     1      13.717  45.551  27.909  1.00  0.00     0.211 HD
ENDBRANCH  20  27
BRANCH  21  29
ATOM     29  C   UNL     1      15.358  46.637  30.158  1.00  0.00     0.191 C 
BRANCH  29  30
ATOM     30  O   UNL     1      15.973  45.914  29.127  1.00  0.00    -0.394 OA
ATOM     31  H   UNL     1      16.227  46.570  28.422  1.00  0.00     0.210 HD
ENDBRANCH  29  30
ENDBRANCH  21  29
ENDBRANCH   1  17
TORSDOF 13
ENDMDL
MODEL 3
REMARK VINA RESULT:    -3.994      1.576      5.470
REMARK INTER + INTRA:          -7.772
REMARK INTER:                  -6.194
REMARK INTRA:                  -1.578
REMARK UNBOUND:                -1.677
REMARK SMILES OC[C@H]1O[C@@H](O[C@@]2(CO)O[C@H](CO)[C@@H](O)[C@H]2O)[C@@H](O)[C@@H](O)[C@@H]1O
REMARK SMILES IDX 6 1 5 2 3 3 22 4 4 5 20 6 18 7 2 8 1 9 23 11 21 13 19 15
REMARK SMILES IDX 7 17 16 18 10 19 14 20 11 21 8 22 9 23 17 25 15 27 12 29
REMARK SMILES IDX 13 30
REMARK H PARENT 1 10 23 12 21 14 19 16 9 24 17 26 15 28 13 31
REMARK Flexibility Score: inf
ROOT
ATOM      1  O   UNL     1      12.965  48.418  24.924  1.00  0.00    -0.313 OA
ENDROOT
BRANCH   1   2
ATOM      2  C   UNL     1      11.996  49.445  25.129  1.00  0.00     0.285 C 
ATOM      3  C   UNL     1      13.032  51.157  23.784  1.00  0.00     0.178 C 
ATOM      4  C   UNL     1      13.579  51.889  25.056  1.00  0.00     0.177 C 
ATOM      5  O   UNL     1      11.911  50.302  24.000  1.00  0.00    -0.341 OA
ATOM      6  C   UNL     1      13.616  50.996  26.314  1.00  0.00     0.179 C 
ATOM      7  C   UNL     1      12.289  50.217  26.429  1.00  0.00     0.202 C 
BRANCH   3   8
ATOM      8  C   UNL     1      14.109  50.495  22.896  1.00  0.00     0.191 C 
BRANCH   8   9
ATOM      9  O   UNL     1      15.099  49.871  23.660  1.00  0.00    -0.394 OA
ATOM     10  H   UNL     1      15.190  50.411  24.490  1.00  0.00     0.210 HD
ENDBRANCH   8   9
ENDBRANCH   3   8
BRANCH   4  11
ATOM     11  O   UNL     1      12.845  53.069  25.307  1.00  0.00    -0.387 OA
ATOM     12  H   UNL     1      11.935  52.805  25.605  1.00  0.00     0.211 HD
ENDBRANCH   4  11
BRANCH   6  13
ATOM     13  O   UNL     1      14.745  50.150  26.256  1.00  0.00    -0.387 OA
ATOM     14  H   UNL     1      14.445  49.228  25.973  1.00  0.00     0.211 HD
ENDBRANCH   6  13
BRANCH   7  15
ATOM     15  O   UNL     1      12.330  49.340  27.528  1.00  0.00    -0.385 OA
ATOM     16  H   UNL     1      11.409  49.293  27.902  1.00  0.00     0.211 HD
ENDBRANCH   7  15
ENDBRANCH   1   2
BRANCH   1  17
ATOM     17  C   UNL     1      12.401  47.108  24.804  1.00  0.00     0.224 C 
ATOM     18  C   UNL     1      13.126  46.341  23.664  1.00  0.00     0.208 C 
ATOM     19  O   UNL     1      11.021  47.194  24.479  1.00  0.00    -0.337 OA
ATOM     20  C   UNL     1      11.994  45.894  22.761  1.00  0.00     0.180 C 
ATOM     21  C   UNL     1      10.879  46.864  23.119  1.00  0.00     0.179 C 
BRANCH  17  22
ATOM     22  C   UNL     1      12.565  46.328  26.138  1.00  0.00     0.225 C 
BRANCH  22  23
ATOM     23  O   UNL     1      11.442  46.498  26.966  1.00  0.00    -0.391 OA
ATOM     24  H   UNL     1      11.594  47.329  27.491  1.00  0.00     0.210 HD
ENDBRANCH  22  23
ENDBRANCH  17  22
BRANCH  18  25
ATOM     25  O   UNL     1      14.026  47.178  22.982  1.00  0.00    -0.385 OA
ATOM     26  H   UNL     1      14.930  46.788  23.100  1.00  0.00     0.211 HD
ENDBRANCH  18  25
BRANCH  20  27
ATOM     27  O   UNL     1      12.336  45.979  21.399  1.00  0.00    -0.387 OA
ATOM     28  H   UNL     1      12.347  45.051  21.049  1.00  0.00     0.211 HD
ENDBRANCH  20  27
BRANCH  21  29
ATOM     29  C   UNL     1       9.493  46.255  22.873  1.00  0.00     0.191 C 
BRANCH  29  30
ATOM     30  O   UNL     1       9.264  46.120  21.497  1.00  0.00    -0.394 OA
ATOM     31  H   UNL     1       8.362  45.714  21.390  1.00  0.00     0.210 HD
ENDBRANCH  29  30
ENDBRANCH  21  29
ENDBRANCH   1  17
TORSDOF 13
ENDMDL
MODEL 4
REMARK VINA RESULT:    -3.861      6.367      8.875
REMARK INTER + INTRA:          -7.569
REMARK INTER:                  -5.986
REMARK INTRA:                  -1.583
REMARK UNBOUND:                -1.677
REMARK SMILES OC[C@H]1O[C@@H](O[C@@]2(CO)O[C@H](CO)[C@@H](O)[C@H]2O)[C@@H](O)[C@@H](O)[C@@H]1O
REMARK SMILES IDX 6 1 5 2 3 3 22 4 4 5 20 6 18 7 2 8 1 9 23 11 21 13 19 15
REMARK SMILES IDX 7 17 16 18 10 19 14 20 11 21 8 22 9 23 17 25 15 27 12 29
REMARK SMILES IDX 13 30
REMARK H PARENT 1 10 23 12 21 14 19 16 9 24 17 26 15 28 13 31
REMARK Flexibility Score: inf
ROOT
ATOM      1  O   UNL     1      11.665  52.853  30.665  1.00  0.00    -0.313 OA
ENDROOT
BRANCH   1   2
ATOM      2  C   UNL     1      12.161  52.717  31.995  1.00  0.00     0.285 C 
ATOM      3  C   UNL     1      14.271  53.840  31.684  1.00  0.00     0.178 C 
ATOM      4  C   UNL     1      15.039  52.476  31.621  1.00  0.00     0.177 C 
ATOM      5  O   UNL     1      13.006  53.805  32.341  1.00  0.00    -0.341 OA
ATOM      6  C   UNL     1      14.129  51.269  31.315  1.00  0.00     0.179 C 
ATOM      7  C   UNL     1      12.855  51.355  32.180  1.00  0.00     0.202 C 
BRANCH   3   8
ATOM      8  C   UNL     1      14.217  54.622  30.352  1.00  0.00     0.191 C 
BRANCH   8   9
ATOM      9  O   UNL     1      13.166  55.543  30.334  1.00  0.00    -0.394 OA
ATOM     10  H   UNL     1      13.444  56.267  29.712  1.00  0.00     0.210 HD
ENDBRANCH   8   9
ENDBRANCH   3   8
BRANCH   4  11
ATOM     11  O   UNL     1      15.768  52.259  32.811  1.00  0.00    -0.387 OA
ATOM     12  H   UNL     1      15.471  52.931  33.479  1.00  0.00     0.211 HD
ENDBRANCH   4  11
BRANCH   6  13
ATOM     13  O   UNL     1      13.850  51.231  29.931  1.00  0.00    -0.387 OA
ATOM     14  H   UNL     1      13.231  50.454  29.747  1.00  0.00     0.211 HD
ENDBRANCH   6  13
BRANCH   7  15
ATOM     15  O   UNL     1      11.976  50.303  31.863  1.00  0.00    -0.385 OA
ATOM     16  H   UNL     1      11.199  50.702  31.386  1.00  0.00     0.211 HD
ENDBRANCH   7  15
ENDBRANCH   1   2
BRANCH   1  17
ATOM     17  C   UNL     1      10.258  52.623  30.546  1.00  0.00     0.224 C 
ATOM     18  C   UNL     1       9.562  53.931  30.081  1.00  0.00     0.208 C 
ATOM     19  O   UNL     1       9.713  52.247  31.803  1.00  0.00    -0.337 OA
ATOM     20  C   UNL     1       8.491  54.155  31.129  1.00  0.00     0.180 C 
ATOM     21  C   UNL     1       9.009  53.353  32.312  1.00  0.00     0.179 C 
BRANCH  17  22
ATOM     22  C   UNL     1       9.983  51.495  29.512  1.00  0.00     0.225 C 
BRANCH  22  23
ATOM     23  O   UNL     1      11.182  50.990  28.983  1.00  0.00    -0.391 OA
ATOM     24  H   UNL     1      11.921  51.517  29.388  1.00  0.00     0.210 HD
ENDBRANCH  22  23
ENDBRANCH  17  22
BRANCH  18  25
ATOM     25  O   UNL     1      10.470  55.002  30.041  1.00  0.00    -0.385 OA
ATOM     26  H   UNL     1      10.521  55.304  29.098  1.00  0.00     0.211 HD
ENDBRANCH  18  25
BRANCH  20  27
ATOM     27  O   UNL     1       8.340  55.517  31.453  1.00  0.00    -0.387 OA
ATOM     28  H   UNL     1       8.061  55.553  32.404  1.00  0.00     0.211 HD
ENDBRANCH  20  27
BRANCH  21  29
ATOM     29  C   UNL     1       7.868  52.872  33.219  1.00  0.00     0.191 C 
BRANCH  29  30
ATOM     30  O   UNL     1       6.633  53.085  32.592  1.00  0.00    -0.394 OA
ATOM     31  H   UNL     1       6.519  52.360  31.920  1.00  0.00     0.210 HD
ENDBRANCH  29  30
ENDBRANCH  21  29
ENDBRANCH   1  17
TORSDOF 13
ENDMDL
MODEL 5
REMARK VINA RESULT:    -3.856      4.073      7.626
REMARK INTER + INTRA:          -7.562
REMARK INTER:                  -6.070
REMARK INTRA:                  -1.492
REMARK UNBOUND:                -1.677
REMARK SMILES OC[C@H]1O[C@@H](O[C@@]2(CO)O[C@H](CO)[C@@H](O)[C@H]2O)[C@@H](O)[C@@H](O)[C@@H]1O
REMARK SMILES IDX 6 1 5 2 3 3 22 4 4 5 20 6 18 7 2 8 1 9 23 11 21 13 19 15
REMARK SMILES IDX 7 17 16 18 10 19 14 20 11 21 8 22 9 23 17 25 15 27 12 29
REMARK SMILES IDX 13 30
REMARK H PARENT 1 10 23 12 21 14 19 16 9 24 17 26 15 28 13 31
REMARK Flexibility Score: inf
ROOT
ATOM      1  O   UNL     1      13.402  51.125  29.491  1.00  0.00    -0.313 OA
ENDROOT
BRANCH   1   2
ATOM      2  C   UNL     1      12.904  50.784  30.784  1.00  0.00     0.285 C 
ATOM      3  C   UNL     1      10.895  52.115  30.732  1.00  0.00     0.178 C 
ATOM      4  C   UNL     1      11.544  53.210  31.645  1.00  0.00     0.177 C 
ATOM      5  O   UNL     1      11.485  50.819  30.812  1.00  0.00    -0.341 OA
ATOM      6  C   UNL     1      13.085  53.147  31.684  1.00  0.00     0.179 C 
ATOM      7  C   UNL     1      13.533  51.682  31.864  1.00  0.00     0.202 C 
BRANCH   3   8
ATOM      8  C   UNL     1      10.635  52.550  29.273  1.00  0.00     0.191 C 
BRANCH   8   9
ATOM      9  O   UNL     1      10.445  51.452  28.430  1.00  0.00    -0.394 OA
ATOM     10  H   UNL     1      10.530  51.797  27.501  1.00  0.00     0.210 HD
ENDBRANCH   8   9
ENDBRANCH   3   8
BRANCH   4  11
ATOM     11  O   UNL     1      11.011  53.150  32.951  1.00  0.00    -0.387 OA
ATOM     12  H   UNL     1      10.490  52.309  33.030  1.00  0.00     0.211 HD
ENDBRANCH   4  11
BRANCH   6  13
ATOM     13  O   UNL     1      13.608  53.742  30.516  1.00  0.00    -0.387 OA
ATOM     14  H   UNL     1      13.750  54.728  30.690  1.00  0.00     0.211 HD
ENDBRANCH   6  13
BRANCH   7  15
ATOM     15  O   UNL     1      14.937  51.592  31.828  1.00  0.00    -0.385 OA
ATOM     16  H   UNL     1      15.187  51.235  30.933  1.00  0.00     0.211 HD
ENDBRANCH   7  15
ENDBRANCH   1   2
BRANCH   1  17
ATOM     17  C   UNL     1      14.361  50.196  28.978  1.00  0.00     0.224 C 
ATOM     18  C   UNL     1      13.769  49.485  27.729  1.00  0.00     0.208 C 
ATOM     19  O   UNL     1      14.662  49.209  29.954  1.00  0.00    -0.337 OA
ATOM     20  C   UNL     1      13.907  48.013  28.060  1.00  0.00     0.180 C 
ATOM     21  C   UNL     1      14.012  48.020  29.576  1.00  0.00     0.179 C 
BRANCH  17  22
ATOM     22  C   UNL     1      15.668  50.936  28.579  1.00  0.00     0.225 C 
BRANCH  22  23
ATOM     23  O   UNL     1      15.679  52.249  29.078  1.00  0.00    -0.391 OA
ATOM     24  H   UNL     1      15.530  52.187  30.059  1.00  0.00     0.210 HD
ENDBRANCH  22  23
ENDBRANCH  17  22
BRANCH  18  25
ATOM     25  O   UNL     1      12.424  49.842  27.533  1.00  0.00    -0.385 OA
ATOM     26  H   UNL     1      12.126  49.401  26.697  1.00  0.00     0.211 HD
ENDBRANCH  18  25
BRANCH  20  27
ATOM     27  O   UNL     1      12.799  47.263  27.621  1.00  0.00    -0.387 OA
ATOM     28  H   UNL     1      12.918  47.124  26.647  1.00  0.00     0.211 HD
ENDBRANCH  20  27
BRANCH  21  29
ATOM     29  C   UNL     1      14.796  46.809  30.100  1.00  0.00     0.191 C 
BRANCH  29  30
ATOM     30  O   UNL     1      16.122  47.174  30.370  1.00  0.00    -0.394 OA
ATOM     31  H   UNL     1      16.586  47.257  29.493  1.00  0.00     0.210 HD
ENDBRANCH  29  30
ENDBRANCH  21  29
ENDBRANCH   1  17
TORSDOF 13
ENDMDL
MODEL 6
REMARK VINA RESULT:    -3.844      4.708      8.648
REMARK INTER + INTRA:          -7.544
REMARK INTER:                  -5.899
REMARK INTRA:                  -1.645
REMARK UNBOUND:                -1.677
REMARK SMILES OC[C@H]1O[C@@H](O[C@@]2(CO)O[C@H](CO)[C@@H](O)[C@H]2O)[C@@H](O)[C@@H](O)[C@@H]1O
REMARK SMILES IDX 6 1 5 2 3 3 22 4 4 5 20 6 18 7 2 8 1 9 23 11 21 13 19 15
REMARK SMILES IDX 7 17 16 18 10 19 14 20 11 21 8 22 9 23 17 25 15 27 12 29
REMARK SMILES IDX 13 30
REMARK H PARENT 1 10 23 12 21 14 19 16 9 24 17 26 15 28 13 31
REMARK Flexibility Score: inf
ROOT
ATOM      1  O   UNL     1      10.532  52.694  30.174  1.00  0.00    -0.313 OA
ENDROOT
BRANCH   1   2
ATOM      2  C   UNL     1      10.323  52.037  31.423  1.00  0.00     0.285 C 
ATOM      3  C   UNL     1       7.919  51.887  31.325  1.00  0.00     0.178 C 
ATOM      4  C   UNL     1       7.758  53.089  32.316  1.00  0.00     0.177 C 
ATOM      5  O   UNL     1       9.171  51.207  31.379  1.00  0.00    -0.341 OA
ATOM      6  C   UNL     1       9.022  53.966  32.433  1.00  0.00     0.179 C 
ATOM      7  C   UNL     1      10.263  53.060  32.572  1.00  0.00     0.202 C 
BRANCH   3   8
ATOM      8  C   UNL     1       7.470  52.172  29.874  1.00  0.00     0.191 C 
BRANCH   8   9
ATOM      9  O   UNL     1       7.989  51.234  28.977  1.00  0.00    -0.394 OA
ATOM     10  H   UNL     1       7.234  50.967  28.388  1.00  0.00     0.210 HD
ENDBRANCH   8   9
ENDBRANCH   3   8
BRANCH   4  11
ATOM     11  O   UNL     1       7.351  52.634  33.590  1.00  0.00    -0.387 OA
ATOM     12  H   UNL     1       7.178  51.658  33.525  1.00  0.00     0.211 HD
ENDBRANCH   4  11
BRANCH   6  13
ATOM     13  O   UNL     1       9.097  54.831  31.320  1.00  0.00    -0.387 OA
ATOM     14  H   UNL     1       9.300  55.765  31.649  1.00  0.00     0.211 HD
ENDBRANCH   6  13
BRANCH   7  15
ATOM     15  O   UNL     1      11.435  53.838  32.605  1.00  0.00    -0.385 OA
ATOM     16  H   UNL     1      11.214  54.684  33.080  1.00  0.00     0.211 HD
ENDBRANCH   7  15
ENDBRANCH   1   2
BRANCH   1  17
ATOM     17  C   UNL     1      11.864  52.561  29.668  1.00  0.00     0.224 C 
ATOM     18  C   UNL     1      11.815  51.902  28.262  1.00  0.00     0.208 C 
ATOM     19  O   UNL     1      12.636  51.732  30.524  1.00  0.00    -0.337 OA
ATOM     20  C   UNL     1      12.746  50.715  28.393  1.00  0.00     0.180 C 
ATOM     21  C   UNL     1      12.780  50.482  29.895  1.00  0.00     0.179 C 
BRANCH  17  22
ATOM     22  C   UNL     1      12.540  53.957  29.561  1.00  0.00     0.225 C 
BRANCH  22  23
ATOM     23  O   UNL     1      11.662  54.977  29.964  1.00  0.00    -0.391 OA
ATOM     24  H   UNL     1      10.740  54.649  29.791  1.00  0.00     0.210 HD
ENDBRANCH  22  23
ENDBRANCH  17  22
BRANCH  18  25
ATOM     25  O   UNL     1      10.509  51.496  27.938  1.00  0.00    -0.385 OA
ATOM     26  H   UNL     1      10.483  51.362  26.956  1.00  0.00     0.211 HD
ENDBRANCH  18  25
BRANCH  20  27
ATOM     27  O   UNL     1      12.267  49.585  27.705  1.00  0.00    -0.387 OA
ATOM     28  H   UNL     1      12.225  49.832  26.746  1.00  0.00     0.211 HD
ENDBRANCH  20  27
BRANCH  21  29
ATOM     29  C   UNL     1      14.092  49.822  30.341  1.00  0.00     0.191 C 
BRANCH  29  30
ATOM     30  O   UNL     1      14.143  48.498  29.886  1.00  0.00    -0.394 OA
ATOM     31  H   UNL     1      13.904  48.513  28.919  1.00  0.00     0.210 HD
ENDBRANCH  29  30
ENDBRANCH  21  29
ENDBRANCH   1  17
TORSDOF 13
ENDMDL
MODEL 7
REMARK VINA RESULT:    -3.840      6.414      8.545
REMARK INTER + INTRA:          -7.537
REMARK INTER:                  -5.876
REMARK INTRA:                  -1.660
REMARK UNBOUND:                -1.677
REMARK SMILES OC[C@H]1O[C@@H](O[C@@]2(CO)O[C@H](CO)[C@@H](O)[C@H]2O)[C@@H](O)[C@@H](O)[C@@H]1O
REMARK SMILES IDX 6 1 5 2 3 3 22 4 4 5 20 6 18 7 2 8 1 9 23 11 21 13 19 15
REMARK SMILES IDX 7 17 16 18 10 19 14 20 11 21 8 22 9 23 17 25 15 27 12 29
REMARK SMILES IDX 13 30
REMARK H PARENT 1 10 23 12 21 14 19 16 9 24 17 26 15 28 13 31
REMARK Flexibility Score: inf
ROOT
ATOM      1  O   UNL     1      11.399  52.702  30.625  1.00  0.00    -0.313 OA
ENDROOT
BRANCH   1   2
ATOM      2  C   UNL     1      12.174  53.003  29.466  1.00  0.00     0.285 C 
ATOM      3  C   UNL     1      14.263  52.051  30.201  1.00  0.00     0.178 C 
ATOM      4  C   UNL     1      14.841  53.467  30.539  1.00  0.00     0.177 C 
ATOM      5  O   UNL     1      13.190  52.032  29.262  1.00  0.00    -0.341 OA
ATOM      6  C   UNL     1      13.757  54.555  30.696  1.00  0.00     0.179 C 
ATOM      7  C   UNL     1      12.738  54.433  29.545  1.00  0.00     0.202 C 
BRANCH   3   8
ATOM      8  C   UNL     1      13.985  51.150  31.425  1.00  0.00     0.191 C 
BRANCH   8   9
ATOM      9  O   UNL     1      14.483  51.709  32.605  1.00  0.00    -0.394 OA
ATOM     10  H   UNL     1      15.022  50.998  33.043  1.00  0.00     0.210 HD
ENDBRANCH   8   9
ENDBRANCH   3   8
BRANCH   4  11
ATOM     11  O   UNL     1      15.799  53.857  29.577  1.00  0.00    -0.387 OA
ATOM     12  H   UNL     1      16.699  53.642  29.937  1.00  0.00     0.211 HD
ENDBRANCH   4  11
BRANCH   6  13
ATOM     13  O   UNL     1      13.161  54.441  31.971  1.00  0.00    -0.387 OA
ATOM     14  H   UNL     1      12.318  54.998  31.985  1.00  0.00     0.211 HD
ENDBRANCH   6  13
BRANCH   7  15
ATOM     15  O   UNL     1      11.700  55.368  29.710  1.00  0.00    -0.385 OA
ATOM     16  H   UNL     1      11.326  55.236  30.623  1.00  0.00     0.211 HD
ENDBRANCH   7  15
ENDBRANCH   1   2
BRANCH   1  17
ATOM     17  C   UNL     1      10.015  52.464  30.349  1.00  0.00     0.224 C 
ATOM     18  C   UNL     1       9.157  53.545  31.062  1.00  0.00     0.208 C 
ATOM     19  O   UNL     1       9.628  51.189  30.841  1.00  0.00    -0.337 OA
ATOM     20  C   UNL     1       8.172  52.734  31.879  1.00  0.00     0.180 C 
ATOM     21  C   UNL     1       8.872  51.391  32.010  1.00  0.00     0.179 C 
BRANCH  17  22
ATOM     22  C   UNL     1       9.753  52.523  28.818  1.00  0.00     0.225 C 
BRANCH  22  23
ATOM     23  O   UNL     1       8.834  51.537  28.424  1.00  0.00    -0.391 OA
ATOM     24  H   UNL     1       7.951  51.799  28.799  1.00  0.00     0.210 HD
ENDBRANCH  22  23
ENDBRANCH  17  22
BRANCH  18  25
ATOM     25  O   UNL     1       9.952  54.363  31.882  1.00  0.00    -0.385 OA
ATOM     26  H   UNL     1       9.738  55.302  31.648  1.00  0.00     0.211 HD
ENDBRANCH  18  25
BRANCH  20  27
ATOM     27  O   UNL     1       7.923  53.312  33.139  1.00  0.00    -0.387 OA
ATOM     28  H   UNL     1       8.167  54.271  33.065  1.00  0.00     0.211 HD
ENDBRANCH  20  27
BRANCH  21  29
ATOM     29  C   UNL     1       7.872  50.241  32.189  1.00  0.00     0.191 C 
BRANCH  29  30
ATOM     30  O   UNL     1       7.091  50.457  33.333  1.00  0.00    -0.394 OA
ATOM     31  H   UNL     1       6.166  50.653  33.021  1.00  0.00     0.210 HD
ENDBRANCH  29  30
ENDBRANCH  21  29
ENDBRANCH   1  17
TORSDOF 13
ENDMDL
MODEL 8
REMARK VINA RESULT:    -3.797      4.413      7.885
REMARK INTER + INTRA:          -7.471
REMARK INTER:                  -6.042
REMARK INTRA:                  -1.429
REMARK UNBOUND:                -1.677
REMARK SMILES OC[C@H]1O[C@@H](O[C@@]2(CO)O[C@H](CO)[C@@H](O)[C@H]2O)[C@@H](O)[C@@H](O)[C@@H]1O
REMARK SMILES IDX 6 1 5 2 3 3 22 4 4 5 20 6 18 7 2 8 1 9 23 11 21 13 19 15
REMARK SMILES IDX 7 17 16 18 10 19 14 20 11 21 8 22 9 23 17 25 15 27 12 29
REMARK SMILES IDX 13 30
REMARK H PARENT 1 10 23 12 21 14 19 16 9 24 17 26 15 28 13 31
REMARK Flexibility Score: inf
ROOT
ATOM      1  O   UNL     1      12.572  51.390  30.281  1.00  0.00    -0.313 OA
ENDROOT
BRANCH   1   2
ATOM      2  C   UNL     1      12.554  52.469  31.215  1.00  0.00     0.285 C 
ATOM      3  C   UNL     1      10.272  52.234  31.956  1.00  0.00     0.178 C 
ATOM      4  C   UNL     1       9.813  53.441  31.070  1.00  0.00     0.177 C 
ATOM      5  O   UNL     1      11.659  52.205  32.285  1.00  0.00    -0.341 OA
ATOM      6  C   UNL     1      10.805  53.791  29.941  1.00  0.00     0.179 C 
ATOM      7  C   UNL     1      12.241  53.798  30.504  1.00  0.00     0.202 C 
BRANCH   3   8
ATOM      8  C   UNL     1       9.750  50.853  31.500  1.00  0.00     0.191 C 
BRANCH   8   9
ATOM      9  O   UNL     1       8.932  50.954  30.372  1.00  0.00    -0.394 OA
ATOM     10  H   UNL     1       8.445  51.816  30.460  1.00  0.00     0.210 HD
ENDBRANCH   8   9
ENDBRANCH   3   8
BRANCH   4  11
ATOM     11  O   UNL     1       9.551  54.575  31.870  1.00  0.00    -0.387 OA
ATOM     12  H   UNL     1      10.422  54.941  32.175  1.00  0.00     0.211 HD
ENDBRANCH   4  11
BRANCH   6  13
ATOM     13  O   UNL     1      10.639  52.882  28.873  1.00  0.00    -0.387 OA
ATOM     14  H   UNL     1       9.765  53.084  28.409  1.00  0.00     0.211 HD
ENDBRANCH   6  13
BRANCH   7  15
ATOM     15  O   UNL     1      13.169  54.042  29.476  1.00  0.00    -0.385 OA
ATOM     16  H   UNL     1      12.981  54.951  29.119  1.00  0.00     0.211 HD
ENDBRANCH   7  15
ENDBRANCH   1   2
BRANCH   1  17
ATOM     17  C   UNL     1      13.861  50.792  30.114  1.00  0.00     0.224 C 
ATOM     18  C   UNL     1      14.313  50.952  28.637  1.00  0.00     0.208 C 
ATOM     19  O   UNL     1      13.802  49.405  30.416  1.00  0.00    -0.337 OA
ATOM     20  C   UNL     1      14.632  49.535  28.207  1.00  0.00     0.180 C 
ATOM     21  C   UNL     1      13.841  48.699  29.200  1.00  0.00     0.179 C 
BRANCH  17  22
ATOM     22  C   UNL     1      14.897  51.475  31.049  1.00  0.00     0.225 C 
BRANCH  22  23
ATOM     23  O   UNL     1      16.084  50.728  31.122  1.00  0.00    -0.391 OA
ATOM     24  H   UNL     1      16.825  51.376  31.263  1.00  0.00     0.210 HD
ENDBRANCH  22  23
ENDBRANCH  17  22
BRANCH  18  25
ATOM     25  O   UNL     1      13.290  51.508  27.851  1.00  0.00    -0.385 OA
ATOM     26  H   UNL     1      13.624  51.536  26.918  1.00  0.00     0.211 HD
ENDBRANCH  18  25
BRANCH  20  27
ATOM     27  O   UNL     1      14.232  49.279  26.882  1.00  0.00    -0.387 OA
ATOM     28  H   UNL     1      14.157  48.294  26.793  1.00  0.00     0.211 HD
ENDBRANCH  20  27
BRANCH  21  29
ATOM     29  C   UNL     1      14.476  47.320  29.419  1.00  0.00     0.191 C 
BRANCH  29  30
ATOM     30  O   UNL     1      13.518  46.314  29.236  1.00  0.00    -0.394 OA
ATOM     31  H   UNL     1      13.937  45.457  29.518  1.00  0.00     0.210 HD
ENDBRANCH  29  30
ENDBRANCH  21  29
ENDBRANCH   1  17
TORSDOF 13
ENDMDL
MODEL 9
REMARK VINA RESULT:    -3.780      5.700      8.352
REMARK INTER + INTRA:          -7.446
REMARK INTER:                  -5.884
REMARK INTRA:                  -1.562
REMARK UNBOUND:                -1.677
REMARK SMILES OC[C@H]1O[C@@H](O[C@@]2(CO)O[C@H](CO)[C@@H](O)[C@H]2O)[C@@H](O)[C@@H](O)[C@@H]1O
REMARK SMILES IDX 6 1 5 2 3 3 22 4 4 5 20 6 18 7 2 8 1 9 23 11 21 13 19 15
REMARK SMILES IDX 7 17 16 18 10 19 14 20 11 21 8 22 9 23 17 25 15 27 12 29
REMARK SMILES IDX 13 30
REMARK H PARENT 1 10 23 12 21 14 19 16 9 24 17 26 15 28 13 31
REMARK Flexibility Score: inf
ROOT
ATOM      1  O   UNL     1      10.873  52.597  30.457  1.00  0.00    -0.313 OA
ENDROOT
BRANCH   1   2
ATOM      2  C   UNL     1      11.508  51.365  30.794  1.00  0.00     0.285 C 
ATOM      3  C   UNL     1      13.464  52.279  31.868  1.00  0.00     0.178 C 
ATOM      4  C   UNL     1      14.345  51.996  30.604  1.00  0.00     0.177 C 
ATOM      5  O   UNL     1      12.279  51.494  31.980  1.00  0.00    -0.341 OA
ATOM      6  C   UNL     1      13.525  51.783  29.315  1.00  0.00     0.179 C 
ATOM      7  C   UNL     1      12.341  50.840  29.610  1.00  0.00     0.202 C 
BRANCH   3   8
ATOM      8  C   UNL     1      13.206  53.774  32.163  1.00  0.00     0.191 C 
BRANCH   8   9
ATOM      9  O   UNL     1      12.747  54.454  31.031  1.00  0.00    -0.394 OA
ATOM     10  H   UNL     1      11.857  54.065  30.816  1.00  0.00     0.210 HD
ENDBRANCH   8   9
ENDBRANCH   3   8
BRANCH   4  11
ATOM     11  O   UNL     1      15.205  50.898  30.832  1.00  0.00    -0.387 OA
ATOM     12  H   UNL     1      14.756  50.286  31.472  1.00  0.00     0.211 HD
ENDBRANCH   4  11
BRANCH   6  13
ATOM     13  O   UNL     1      13.116  53.035  28.807  1.00  0.00    -0.387 OA
ATOM     14  H   UNL     1      13.021  53.681  29.578  1.00  0.00     0.211 HD
ENDBRANCH   6  13
BRANCH   7  15
ATOM     15  O   UNL     1      11.536  50.691  28.466  1.00  0.00    -0.385 OA
ATOM     16  H   UNL     1      11.191  51.594  28.229  1.00  0.00     0.211 HD
ENDBRANCH   7  15
ENDBRANCH   1   2
BRANCH   1  17
ATOM     17  C   UNL     1       9.444  52.523  30.432  1.00  0.00     0.224 C 
ATOM     18  C   UNL     1       8.857  53.657  31.317  1.00  0.00     0.208 C 
ATOM     19  O   UNL     1       9.008  51.276  30.955  1.00  0.00    -0.337 OA
ATOM     20  C   UNL     1       7.947  52.922  32.280  1.00  0.00     0.180 C 
ATOM     21  C   UNL     1       8.501  51.506  32.247  1.00  0.00     0.179 C 
BRANCH  17  22
ATOM     22  C   UNL     1       8.921  52.679  28.977  1.00  0.00     0.225 C 
BRANCH  22  23
ATOM     23  O   UNL     1       8.633  51.428  28.406  1.00  0.00    -0.391 OA
ATOM     24  H   UNL     1       7.643  51.363  28.338  1.00  0.00     0.210 HD
ENDBRANCH  22  23
ENDBRANCH  17  22
BRANCH  18  25
ATOM     25  O   UNL     1       9.874  54.347  31.998  1.00  0.00    -0.385 OA
ATOM     26  H   UNL     1      10.295  53.700  32.621  1.00  0.00     0.211 HD
ENDBRANCH  18  25
BRANCH  20  27
ATOM     27  O   UNL     1       7.996  53.465  33.577  1.00  0.00    -0.387 OA
ATOM     28  H   UNL     1       8.832  53.132  33.995  1.00  0.00     0.211 HD
ENDBRANCH  20  27
BRANCH  21  29
ATOM     29  C   UNL     1       7.424  50.464  32.577  1.00  0.00     0.191 C 
BRANCH  29  30
ATOM     30  O   UNL     1       6.777  50.804  33.773  1.00  0.00    -0.394 OA
ATOM     31  H   UNL     1       7.430  51.317  34.322  1.00  0.00     0.210 HD
ENDBRANCH  29  30
ENDBRANCH  21  29
ENDBRANCH   1  17
TORSDOF 13
ENDMDL
