MODEL 1
REMARK VINA RESULT:    -2.188      0.000      0.000
REMARK INTER + INTRA:          -2.188
REMARK INTER:                  -2.188
REMARK INTRA:                   0.000
REMARK UNBOUND:                 0.000
REMARK SMILES CC1=CC(=O)[C@H]2C[C@@H]1C2(C)C
REMARK SMILES IDX 1 1 2 2 3 3 4 4 5 5 6 6 7 7 8 8 9 9 10 10 11 11
REMARK H PARENT
REMARK Flexibility Score: inf
ROOT
ATOM      1  C   UNL     1      27.925  26.770  25.797  1.00  0.00     0.040 C 
ATOM      2  C   UNL     1      27.274  25.427  25.698  1.00  0.00    -0.066 C 
ATOM      3  C   UNL     1      26.501  25.092  24.627  1.00  0.00     0.047 C 
ATOM      4  C   UNL     1      25.877  23.729  24.660  1.00  0.00     0.159 C 
ATOM      5  O   UNL     1      25.111  23.318  23.750  1.00  0.00    -0.295 OA
ATOM      6  C   UNL     1      26.235  22.875  25.877  1.00  0.00     0.067 C 
ATOM      7  C   UNL     1      27.763  23.046  26.023  1.00  0.00     0.021 C 
ATOM      8  C   UNL     1      27.457  24.352  26.790  1.00  0.00     0.022 C 
ATOM      9  C   UNL     1      26.072  23.744  27.157  1.00  0.00    -0.019 C 
ATOM     10  C   UNL     1      26.124  22.899  28.455  1.00  0.00     0.012 C 
ATOM     11  C   UNL     1      24.850  24.703  27.248  1.00  0.00     0.012 C 
ENDROOT
TORSDOF 0
ENDMDL
MODEL 2
REMARK VINA RESULT:    -1.816      3.468      5.298
REMARK INTER + INTRA:          -1.816
REMARK INTER:                  -1.816
REMARK INTRA:                   0.000
REMARK UNBOUND:                 0.000
REMARK SMILES CC1=CC(=O)[C@H]2C[C@@H]1C2(C)C
REMARK SMILES IDX 1 1 2 2 3 3 4 4 5 5 6 6 7 7 8 8 9 9 10 10 11 11
REMARK H PARENT
REMARK Flexibility Score: inf
ROOT
ATOM      1  C   UNL     1      28.883  29.750  23.192  1.00  0.00     0.040 C 
ATOM      2  C   UNL     1      28.458  29.194  24.514  1.00  0.00    -0.066 C 
ATOM      3  C   UNL     1      29.093  29.545  25.667  1.00  0.00     0.047 C 
ATOM      4  C   UNL     1      28.594  28.895  26.923  1.00  0.00     0.159 C 
ATOM      5  O   UNL     1      29.124  29.107  28.045  1.00  0.00    -0.295 OA
ATOM      6  C   UNL     1      27.400  27.957  26.745  1.00  0.00     0.067 C 
ATOM      7  C   UNL     1      26.437  28.743  25.828  1.00  0.00     0.021 C 
ATOM      8  C   UNL     1      27.273  28.214  24.641  1.00  0.00     0.022 C 
ATOM      9  C   UNL     1      27.687  27.014  25.542  1.00  0.00    -0.019 C 
ATOM     10  C   UNL     1      26.679  25.839  25.460  1.00  0.00     0.012 C 
ATOM     11  C   UNL     1      29.123  26.436  25.382  1.00  0.00     0.012 C 
ENDROOT
TORSDOF 0
ENDMDL
MODEL 3
REMARK VINA RESULT:    -1.809      1.729      3.224
REMARK INTER + INTRA:          -1.809
REMARK INTER:                  -1.809
REMARK INTRA:                   0.000
REMARK UNBOUND:                 0.000
REMARK SMILES CC1=CC(=O)[C@H]2C[C@@H]1C2(C)C
REMARK SMILES IDX 1 1 2 2 3 3 4 4 5 5 6 6 7 7 8 8 9 9 10 10 11 11
REMARK H PARENT
REMARK Flexibility Score: inf
ROOT
ATOM      1  C   UNL     1      25.005  23.411  23.481  1.00  0.00     0.040 C 
ATOM      2  C   UNL     1      25.835  23.563  24.716  1.00  0.00    -0.066 C 
ATOM      3  C   UNL     1      25.289  23.436  25.957  1.00  0.00     0.047 C 
ATOM      4  C   UNL     1      26.219  23.643  27.115  1.00  0.00     0.159 C 
ATOM      5  O   UNL     1      25.826  23.591  28.310  1.00  0.00    -0.295 OA
ATOM      6  C   UNL     1      27.675  23.924  26.743  1.00  0.00     0.067 C 
ATOM      7  C   UNL     1      27.995  22.877  25.654  1.00  0.00     0.021 C 
ATOM      8  C   UNL     1      27.349  23.855  24.646  1.00  0.00     0.022 C 
ATOM      9  C   UNL     1      27.701  25.009  25.630  1.00  0.00    -0.019 C 
ATOM     10  C   UNL     1      29.124  25.575  25.390  1.00  0.00     0.012 C 
ATOM     11  C   UNL     1      26.713  26.206  25.741  1.00  0.00     0.012 C 
ENDROOT
TORSDOF 0
ENDMDL
MODEL 4
REMARK VINA RESULT:    -1.422      1.515      3.427
REMARK INTER + INTRA:          -1.422
REMARK INTER:                  -1.422
REMARK INTRA:                   0.000
REMARK UNBOUND:                 0.000
REMARK SMILES CC1=CC(=O)[C@H]2C[C@@H]1C2(C)C
REMARK SMILES IDX 1 1 2 2 3 3 4 4 5 5 6 6 7 7 8 8 9 9 10 10 11 11
REMARK H PARENT
REMARK Flexibility Score: inf
ROOT
ATOM      1  C   UNL     1      26.135  23.176  28.064  1.00  0.00     0.040 C 
ATOM      2  C   UNL     1      26.747  23.653  26.786  1.00  0.00    -0.066 C 
ATOM      3  C   UNL     1      27.618  22.875  26.084  1.00  0.00     0.047 C 
ATOM      4  C   UNL     1      28.187  23.478  24.835  1.00  0.00     0.159 C 
ATOM      5  O   UNL     1      29.032  22.876  24.122  1.00  0.00    -0.295 OA
ATOM      6  C   UNL     1      27.672  24.876  24.489  1.00  0.00     0.067 C 
ATOM      7  C   UNL     1      26.144  24.776  24.690  1.00  0.00     0.021 C 
ATOM      8  C   UNL     1      26.411  25.036  26.190  1.00  0.00     0.022 C 
ATOM      9  C   UNL     1      27.727  25.754  25.772  1.00  0.00    -0.019 C 
ATOM     10  C   UNL     1      27.507  27.258  25.467  1.00  0.00     0.012 C 
ATOM     11  C   UNL     1      28.964  25.623  26.706  1.00  0.00     0.012 C 
ENDROOT
TORSDOF 0
ENDMDL
MODEL 5
REMARK VINA RESULT:    -1.272      1.876      3.411
REMARK INTER + INTRA:          -1.272
REMARK INTER:                  -1.272
REMARK INTRA:                   0.000
REMARK UNBOUND:                 0.000
REMARK SMILES CC1=CC(=O)[C@H]2C[C@@H]1C2(C)C
REMARK SMILES IDX 1 1 2 2 3 3 4 4 5 5 6 6 7 7 8 8 9 9 10 10 11 11
REMARK H PARENT
REMARK Flexibility Score: inf
ROOT
ATOM      1  C   UNL     1      25.556  23.219  27.669  1.00  0.00     0.040 C 
ATOM      2  C   UNL     1      26.449  24.074  26.829  1.00  0.00    -0.066 C 
ATOM      3  C   UNL     1      26.159  25.384  26.591  1.00  0.00     0.047 C 
ATOM      4  C   UNL     1      27.116  26.125  25.707  1.00  0.00     0.159 C 
ATOM      5  O   UNL     1      26.936  27.328  25.382  1.00  0.00    -0.295 OA
ATOM      6  C   UNL     1      28.323  25.319  25.227  1.00  0.00     0.067 C 
ATOM      7  C   UNL     1      28.823  24.595  26.497  1.00  0.00     0.021 C 
ATOM      8  C   UNL     1      27.749  23.523  26.204  1.00  0.00     0.022 C 
ATOM      9  C   UNL     1      27.823  23.942  24.706  1.00  0.00    -0.019 C 
ATOM     10  C   UNL     1      28.921  23.169  23.932  1.00  0.00     0.012 C 
ATOM     11  C   UNL     1      26.514  23.900  23.867  1.00  0.00     0.012 C 
ENDROOT
TORSDOF 0
ENDMDL
MODEL 6
REMARK VINA RESULT:    -0.561      3.768      5.720
REMARK INTER + INTRA:          -0.561
REMARK INTER:                  -0.561
REMARK INTRA:                   0.000
REMARK UNBOUND:                 0.000
REMARK SMILES CC1=CC(=O)[C@H]2C[C@@H]1C2(C)C
REMARK SMILES IDX 1 1 2 2 3 3 4 4 5 5 6 6 7 7 8 8 9 9 10 10 11 11
REMARK H PARENT
REMARK Flexibility Score: inf
ROOT
ATOM      1  C   UNL     1      29.119  25.954  24.612  1.00  0.00     0.040 C 
ATOM      2  C   UNL     1      28.505  27.168  25.232  1.00  0.00    -0.066 C 
ATOM      3  C   UNL     1      27.383  27.081  26.000  1.00  0.00     0.047 C 
ATOM      4  C   UNL     1      26.846  28.373  26.539  1.00  0.00     0.159 C 
ATOM      5  O   UNL     1      25.794  28.429  27.228  1.00  0.00    -0.295 OA
ATOM      6  C   UNL     1      27.664  29.618  26.191  1.00  0.00     0.067 C 
ATOM      7  C   UNL     1      29.125  29.198  26.462  1.00  0.00     0.021 C 
ATOM      8  C   UNL     1      29.117  28.573  25.048  1.00  0.00     0.022 C 
ATOM      9  C   UNL     1      27.995  29.583  24.671  1.00  0.00    -0.019 C 
ATOM     10  C   UNL     1      28.563  30.932  24.160  1.00  0.00     0.012 C 
ATOM     11  C   UNL     1      26.887  29.116  23.684  1.00  0.00     0.012 C 
ENDROOT
TORSDOF 0
ENDMDL
MODEL 7
REMARK VINA RESULT:    -0.258      1.948      2.857
REMARK INTER + INTRA:          -0.258
REMARK INTER:                  -0.258
REMARK INTRA:                   0.000
REMARK UNBOUND:                 0.000
REMARK SMILES CC1=CC(=O)[C@H]2C[C@@H]1C2(C)C
REMARK SMILES IDX 1 1 2 2 3 3 4 4 5 5 6 6 7 7 8 8 9 9 10 10 11 11
REMARK H PARENT
REMARK Flexibility Score: inf
ROOT
ATOM      1  C   UNL     1      29.124  22.940  24.087  1.00  0.00     0.040 C 
ATOM      2  C   UNL     1      28.065  23.799  24.700  1.00  0.00    -0.066 C 
ATOM      3  C   UNL     1      28.329  25.074  25.099  1.00  0.00     0.047 C 
ATOM      4  C   UNL     1      27.193  25.822  25.728  1.00  0.00     0.159 C 
ATOM      5  O   UNL     1      27.322  26.992  26.173  1.00  0.00    -0.295 OA
ATOM      6  C   UNL     1      25.867  25.063  25.794  1.00  0.00     0.067 C 
ATOM      7  C   UNL     1      25.718  24.441  24.388  1.00  0.00     0.021 C 
ATOM      8  C   UNL     1      26.620  23.292  24.896  1.00  0.00     0.022 C 
ATOM      9  C   UNL     1      26.142  23.632  26.338  1.00  0.00    -0.019 C 
ATOM     10  C   UNL     1      24.838  22.885  26.718  1.00  0.00     0.012 C 
ATOM     11  C   UNL     1      27.156  23.468  27.506  1.00  0.00     0.012 C 
ENDROOT
TORSDOF 0
ENDMDL
MODEL 8
REMARK VINA RESULT:     0.639      0.984      3.106
REMARK INTER + INTRA:           0.639
REMARK INTER:                   0.639
REMARK INTRA:                   0.000
REMARK UNBOUND:                 0.000
REMARK SMILES CC1=CC(=O)[C@H]2C[C@@H]1C2(C)C
REMARK SMILES IDX 1 1 2 2 3 3 4 4 5 5 6 6 7 7 8 8 9 9 10 10 11 11
REMARK H PARENT
REMARK Flexibility Score: inf
ROOT
ATOM      1  C   UNL     1      26.072  22.876  28.581  1.00  0.00     0.040 C 
ATOM      2  C   UNL     1      26.134  23.428  27.193  1.00  0.00    -0.066 C 
ATOM      3  C   UNL     1      25.384  22.901  26.186  1.00  0.00     0.047 C 
ATOM      4  C   UNL     1      25.560  23.521  24.833  1.00  0.00     0.159 C 
ATOM      5  O   UNL     1      24.953  23.096  23.815  1.00  0.00    -0.295 OA
ATOM      6  C   UNL     1      26.529  24.703  24.775  1.00  0.00     0.067 C 
ATOM      7  C   UNL     1      26.141  25.568  25.994  1.00  0.00     0.021 C 
ATOM      8  C   UNL     1      27.036  24.629  26.836  1.00  0.00     0.022 C 
ATOM      9  C   UNL     1      27.829  24.313  25.534  1.00  0.00    -0.019 C 
ATOM     10  C   UNL     1      28.981  25.321  25.287  1.00  0.00     0.012 C 
ATOM     11  C   UNL     1      28.392  22.875  25.348  1.00  0.00     0.012 C 
ENDROOT
TORSDOF 0
ENDMDL
