MODEL 1
REMARK VINA RESULT:    -6.268      0.000      0.000
REMARK INTER + INTRA:         -10.956
REMARK INTER:                  -9.016
REMARK INTRA:                  -1.940
REMARK UNBOUND:                -1.940
REMARK SMILES O=c1c(O[C@@H]2O[C@@H](CO)[C@@H](O)[C@H](O)[C@@H]2O)c(-c2ccc(O)cc2)oc2cc(O)cc(O)c12
REMARK SMILES IDX 4 1 3 2 16 3 24 4 2 5 25 6 1 7 32 8 26 9 30 10 27 11 29 12
REMARK SMILES IDX 17 13 18 14 19 15 20 16 23 17 22 18 21 19 31 21 28 23 5 25
REMARK SMILES IDX 14 26 6 27 12 28 7 29 10 30 15 31 13 33 8 35 9 36 11 38
REMARK H PARENT 21 20 31 22 28 24 15 32 13 34 9 37 11 39
REMARK Flexibility Score: inf
ROOT
ATOM      1  O   UNL     1      13.859  36.271 123.333  1.00  0.00    -0.454 OA
ENDROOT
BRANCH   1   2
ATOM      2  C   UNL     1      13.860  37.467 124.086  1.00  0.00     0.214 A 
ATOM      3  C   UNL     1      14.687  38.587 123.855  1.00  0.00     0.180 A 
ATOM      4  O   UNL     1      14.715  39.583 124.731  1.00  0.00    -0.452 OA
ATOM      5  C   UNL     1      12.877  37.584 125.118  1.00  0.00     0.239 A 
ATOM      6  C   UNL     1      13.812  39.719 125.696  1.00  0.00     0.146 A 
ATOM      7  O   UNL     1      12.020  36.661 125.274  1.00  0.00    -0.285 OA
ATOM      8  C   UNL     1      12.811  38.748 125.918  1.00  0.00     0.111 A 
ATOM      9  C   UNL     1      13.876  40.868 126.518  1.00  0.00     0.094 A 
ATOM     10  C   UNL     1      11.740  39.063 126.795  1.00  0.00     0.134 A 
ATOM     11  C   UNL     1      12.756  41.223 127.262  1.00  0.00     0.123 A 
ATOM     12  C   UNL     1      11.745  40.289 127.493  1.00  0.00     0.093 A 
BRANCH   3  13
ATOM     13  C   UNL     1      15.426  38.803 122.597  1.00  0.00     0.021 A 
ATOM     14  C   UNL     1      16.827  38.925 122.606  1.00  0.00     0.016 A 
ATOM     15  C   UNL     1      17.563  38.790 121.424  1.00  0.00     0.047 A 
ATOM     16  C   UNL     1      16.898  38.637 120.196  1.00  0.00     0.115 A 
ATOM     17  C   UNL     1      14.764  38.691 121.365  1.00  0.00     0.016 A 
ATOM     18  C   UNL     1      15.489  38.615 120.174  1.00  0.00     0.047 A 
BRANCH  16  19
ATOM     19  O   UNL     1      17.616  38.493 119.015  1.00  0.00    -0.508 OA
ATOM     20  H   UNL     1      18.113  39.283 118.625  1.00  0.00     0.293 HD
ENDBRANCH  16  19
ENDBRANCH   3  13
BRANCH  10  21
ATOM     21  O   UNL     1      10.639  38.232 127.011  1.00  0.00    -0.507 OA
ATOM     22  H   UNL     1      10.448  37.843 127.928  1.00  0.00     0.293 HD
ENDBRANCH  10  21
BRANCH  11  23
ATOM     23  O   UNL     1      12.697  42.504 127.807  1.00  0.00    -0.508 OA
ATOM     24  H   UNL     1      12.385  43.287 127.246  1.00  0.00     0.293 HD
ENDBRANCH  11  23
ENDBRANCH   1   2
BRANCH   1  25
ATOM     25  C   UNL     1      14.762  35.132 123.382  1.00  0.00     0.339 C 
ATOM     26  C   UNL     1      14.022  33.876 123.918  1.00  0.00     0.214 C 
ATOM     27  O   UNL     1      15.284  34.868 122.085  1.00  0.00    -0.332 OA
ATOM     28  C   UNL     1      12.880  33.470 122.963  1.00  0.00     0.180 C 
ATOM     29  C   UNL     1      14.268  34.721 121.113  1.00  0.00     0.179 C 
ATOM     30  C   UNL     1      13.305  33.524 121.465  1.00  0.00     0.177 C 
BRANCH  26  31
ATOM     31  O   UNL     1      13.486  34.136 125.184  1.00  0.00    -0.384 OA
ATOM     32  H   UNL     1      13.114  33.269 125.510  1.00  0.00     0.211 HD
ENDBRANCH  26  31
BRANCH  28  33
ATOM     33  O   UNL     1      11.791  34.343 123.166  1.00  0.00    -0.387 OA
ATOM     34  H   UNL     1      11.780  35.027 122.434  1.00  0.00     0.211 HD
ENDBRANCH  28  33
BRANCH  29  35
ATOM     35  C   UNL     1      14.868  34.603 119.704  1.00  0.00     0.191 C 
BRANCH  35  36
ATOM     36  O   UNL     1      15.902  33.644 119.670  1.00  0.00    -0.394 OA
ATOM     37  H   UNL     1      16.764  34.146 119.632  1.00  0.00     0.210 HD
ENDBRANCH  35  36
ENDBRANCH  29  35
BRANCH  30  38
ATOM     38  O   UNL     1      13.936  32.307 121.151  1.00  0.00    -0.387 OA
ATOM     39  H   UNL     1      13.355  31.818 120.499  1.00  0.00     0.211 HD
ENDBRANCH  30  38
ENDBRANCH   1  25
TORSDOF 11
ENDMDL
MODEL 2
REMARK VINA RESULT:    -6.156      1.661      1.980
REMARK INTER + INTRA:         -10.795
REMARK INTER:                  -8.849
REMARK INTRA:                  -1.946
REMARK UNBOUND:                -1.940
REMARK SMILES O=c1c(O[C@@H]2O[C@@H](CO)[C@@H](O)[C@H](O)[C@@H]2O)c(-c2ccc(O)cc2)oc2cc(O)cc(O)c12
REMARK SMILES IDX 4 1 3 2 16 3 24 4 2 5 25 6 1 7 32 8 26 9 30 10 27 11 29 12
REMARK SMILES IDX 17 13 18 14 19 15 20 16 23 17 22 18 21 19 31 21 28 23 5 25
REMARK SMILES IDX 14 26 6 27 12 28 7 29 10 30 15 31 13 33 8 35 9 36 11 38
REMARK H PARENT 21 20 31 22 28 24 15 32 13 34 9 37 11 39
REMARK Flexibility Score: inf
ROOT
ATOM      1  O   UNL     1      13.372  35.541 123.671  1.00  0.00    -0.454 OA
ENDROOT
BRANCH   1   2
ATOM      2  C   UNL     1      13.080  36.510 124.657  1.00  0.00     0.214 A 
ATOM      3  C   UNL     1      13.980  37.476 125.157  1.00  0.00     0.180 A 
ATOM      4  O   UNL     1      13.641  38.221 126.202  1.00  0.00    -0.452 OA
ATOM      5  C   UNL     1      11.731  36.571 125.127  1.00  0.00     0.239 A 
ATOM      6  C   UNL     1      12.394  38.300 126.655  1.00  0.00     0.146 A 
ATOM      7  O   UNL     1      10.852  35.816 124.608  1.00  0.00    -0.285 OA
ATOM      8  C   UNL     1      11.356  37.511 126.114  1.00  0.00     0.111 A 
ATOM      9  C   UNL     1      12.122  39.197 127.714  1.00  0.00     0.094 A 
ATOM     10  C   UNL     1      10.015  37.814 126.471  1.00  0.00     0.134 A 
ATOM     11  C   UNL     1      10.804  39.577 127.948  1.00  0.00     0.123 A 
ATOM     12  C   UNL     1       9.755  38.824 127.421  1.00  0.00     0.093 A 
BRANCH   3  13
ATOM     13  C   UNL     1      15.244  37.831 124.485  1.00  0.00     0.021 A 
ATOM     14  C   UNL     1      16.347  36.962 124.539  1.00  0.00     0.016 A 
ATOM     15  C   UNL     1      17.416  37.108 123.649  1.00  0.00     0.047 A 
ATOM     16  C   UNL     1      17.445  38.196 122.759  1.00  0.00     0.115 A 
ATOM     17  C   UNL     1      15.295  38.937 123.623  1.00  0.00     0.016 A 
ATOM     18  C   UNL     1      16.386  39.124 122.772  1.00  0.00     0.047 A 
BRANCH  16  19
ATOM     19  O   UNL     1      18.495  38.349 121.862  1.00  0.00    -0.508 OA
ATOM     20  H   UNL     1      18.656  37.652 121.147  1.00  0.00     0.293 HD
ENDBRANCH  16  19
ENDBRANCH   3  13
BRANCH  10  21
ATOM     21  O   UNL     1       8.900  37.179 125.920  1.00  0.00    -0.507 OA
ATOM     22  H   UNL     1       8.032  37.682 125.772  1.00  0.00     0.293 HD
ENDBRANCH  10  21
BRANCH  11  23
ATOM     23  O   UNL     1      10.565  40.687 128.756  1.00  0.00    -0.508 OA
ATOM     24  H   UNL     1      10.419  40.576 129.751  1.00  0.00     0.293 HD
ENDBRANCH  11  23
ENDBRANCH   1   2
BRANCH   1  25
ATOM     25  C   UNL     1      14.066  34.268 123.784  1.00  0.00     0.339 C 
ATOM     26  C   UNL     1      13.068  33.090 123.630  1.00  0.00     0.214 C 
ATOM     27  O   UNL     1      15.080  34.176 122.790  1.00  0.00    -0.332 OA
ATOM     28  C   UNL     1      12.429  33.100 122.224  1.00  0.00     0.180 C 
ATOM     29  C   UNL     1      14.584  34.416 121.488  1.00  0.00     0.179 C 
ATOM     30  C   UNL     1      13.470  33.372 121.097  1.00  0.00     0.177 C 
BRANCH  26  31
ATOM     31  O   UNL     1      12.054  33.186 124.590  1.00  0.00    -0.384 OA
ATOM     32  H   UNL     1      11.589  34.052 124.416  1.00  0.00     0.211 HD
ENDBRANCH  26  31
BRANCH  28  33
ATOM     33  O   UNL     1      11.436  34.101 122.188  1.00  0.00    -0.387 OA
ATOM     34  H   UNL     1      10.559  33.699 122.462  1.00  0.00     0.211 HD
ENDBRANCH  28  33
BRANCH  29  35
ATOM     35  C   UNL     1      15.728  34.472 120.465  1.00  0.00     0.191 C 
BRANCH  35  36
ATOM     36  O   UNL     1      15.315  33.975 119.212  1.00  0.00    -0.394 OA
ATOM     37  H   UNL     1      15.777  33.100 119.079  1.00  0.00     0.210 HD
ENDBRANCH  35  36
ENDBRANCH  29  35
BRANCH  30  38
ATOM     38  O   UNL     1      14.073  32.147 120.762  1.00  0.00    -0.387 OA
ATOM     39  H   UNL     1      15.062  32.246 120.885  1.00  0.00     0.211 HD
ENDBRANCH  30  38
ENDBRANCH   1  25
TORSDOF 11
ENDMDL
MODEL 3
REMARK VINA RESULT:    -6.039      1.696      4.607
REMARK INTER + INTRA:         -10.627
REMARK INTER:                  -8.639
REMARK INTRA:                  -1.988
REMARK UNBOUND:                -1.940
REMARK SMILES O=c1c(O[C@@H]2O[C@@H](CO)[C@@H](O)[C@H](O)[C@@H]2O)c(-c2ccc(O)cc2)oc2cc(O)cc(O)c12
REMARK SMILES IDX 4 1 3 2 16 3 24 4 2 5 25 6 1 7 32 8 26 9 30 10 27 11 29 12
REMARK SMILES IDX 17 13 18 14 19 15 20 16 23 17 22 18 21 19 31 21 28 23 5 25
REMARK SMILES IDX 14 26 6 27 12 28 7 29 10 30 15 31 13 33 8 35 9 36 11 38
REMARK H PARENT 21 20 31 22 28 24 15 32 13 34 9 37 11 39
REMARK Flexibility Score: inf
ROOT
ATOM      1  O   UNL     1      14.811  37.471 122.876  1.00  0.00    -0.454 OA
ENDROOT
BRANCH   1   2
ATOM      2  C   UNL     1      13.610  37.465 123.622  1.00  0.00     0.214 A 
ATOM      3  C   UNL     1      12.540  36.558 123.456  1.00  0.00     0.180 A 
ATOM      4  O   UNL     1      11.397  36.758 124.098  1.00  0.00    -0.452 OA
ATOM      5  C   UNL     1      13.507  38.406 124.693  1.00  0.00     0.239 A 
ATOM      6  C   UNL     1      11.274  37.622 125.100  1.00  0.00     0.146 A 
ATOM      7  O   UNL     1      14.497  39.150 124.970  1.00  0.00    -0.285 OA
ATOM      8  C   UNL     1      12.338  38.466 125.486  1.00  0.00     0.111 A 
ATOM      9  C   UNL     1      10.037  37.689 125.780  1.00  0.00     0.094 A 
ATOM     10  C   UNL     1      12.229  39.186 126.705  1.00  0.00     0.134 A 
ATOM     11  C   UNL     1       9.994  38.283 127.037  1.00  0.00     0.123 A 
ATOM     12  C   UNL     1      11.034  39.117 127.452  1.00  0.00     0.093 A 
BRANCH   3  13
ATOM     13  C   UNL     1      12.663  35.286 122.719  1.00  0.00     0.021 A 
ATOM     14  C   UNL     1      12.223  35.191 121.387  1.00  0.00     0.016 A 
ATOM     15  C   UNL     1      12.629  34.126 120.576  1.00  0.00     0.047 A 
ATOM     16  C   UNL     1      13.397  33.082 121.120  1.00  0.00     0.115 A 
ATOM     17  C   UNL     1      13.395  34.224 123.269  1.00  0.00     0.016 A 
ATOM     18  C   UNL     1      13.755  33.127 122.481  1.00  0.00     0.047 A 
BRANCH  16  19
ATOM     19  O   UNL     1      13.816  32.022 120.324  1.00  0.00    -0.508 OA
ATOM     20  H   UNL     1      13.167  31.285 120.081  1.00  0.00     0.293 HD
ENDBRANCH  16  19
ENDBRANCH   3  13
BRANCH  10  21
ATOM     21  O   UNL     1      13.253  39.965 127.245  1.00  0.00    -0.507 OA
ATOM     22  H   UNL     1      13.556  40.819 126.790  1.00  0.00     0.293 HD
ENDBRANCH  10  21
BRANCH  11  23
ATOM     23  O   UNL     1       8.875  38.067 127.839  1.00  0.00    -0.508 OA
ATOM     24  H   UNL     1       8.899  37.377 128.578  1.00  0.00     0.293 HD
ENDBRANCH  11  23
ENDBRANCH   1   2
BRANCH   1  25
ATOM     25  C   UNL     1      15.177  38.234 121.694  1.00  0.00     0.339 C 
ATOM     26  C   UNL     1      16.568  38.897 121.885  1.00  0.00     0.214 C 
ATOM     27  O   UNL     1      15.198  37.385 120.552  1.00  0.00    -0.332 OA
ATOM     28  C   UNL     1      17.663  37.821 122.050  1.00  0.00     0.180 C 
ATOM     29  C   UNL     1      16.013  36.245 120.743  1.00  0.00     0.179 C 
ATOM     30  C   UNL     1      17.508  36.650 121.034  1.00  0.00     0.177 C 
BRANCH  26  31
ATOM     31  O   UNL     1      16.561  39.716 123.019  1.00  0.00    -0.384 OA
ATOM     32  H   UNL     1      17.508  39.766 123.331  1.00  0.00     0.211 HD
ENDBRANCH  26  31
BRANCH  28  33
ATOM     33  O   UNL     1      17.596  37.308 123.362  1.00  0.00    -0.387 OA
ATOM     34  H   UNL     1      18.087  37.927 123.978  1.00  0.00     0.211 HD
ENDBRANCH  28  33
BRANCH  29  35
ATOM     35  C   UNL     1      15.882  35.273 119.561  1.00  0.00     0.191 C 
BRANCH  35  36
ATOM     36  O   UNL     1      16.873  34.271 119.613  1.00  0.00    -0.394 OA
ATOM     37  H   UNL     1      16.594  33.622 120.318  1.00  0.00     0.210 HD
ENDBRANCH  35  36
ENDBRANCH  29  35
BRANCH  30  38
ATOM     38  O   UNL     1      18.132  37.033 119.834  1.00  0.00    -0.387 OA
ATOM     39  H   UNL     1      18.229  36.217 119.263  1.00  0.00     0.211 HD
ENDBRANCH  30  38
ENDBRANCH   1  25
TORSDOF 11
ENDMDL
MODEL 4
REMARK VINA RESULT:    -5.950     11.421     14.236
REMARK INTER + INTRA:         -10.500
REMARK INTER:                  -8.496
REMARK INTRA:                  -2.003
REMARK UNBOUND:                -1.940
REMARK SMILES O=c1c(O[C@@H]2O[C@@H](CO)[C@@H](O)[C@H](O)[C@@H]2O)c(-c2ccc(O)cc2)oc2cc(O)cc(O)c12
REMARK SMILES IDX 4 1 3 2 16 3 24 4 2 5 25 6 1 7 32 8 26 9 30 10 27 11 29 12
REMARK SMILES IDX 17 13 18 14 19 15 20 16 23 17 22 18 21 19 31 21 28 23 5 25
REMARK SMILES IDX 14 26 6 27 12 28 7 29 10 30 15 31 13 33 8 35 9 36 11 38
REMARK H PARENT 21 20 31 22 28 24 15 32 13 34 9 37 11 39
REMARK Flexibility Score: inf
ROOT
ATOM      1  O   UNL     1      23.216  43.973 132.671  1.00  0.00    -0.454 OA
ENDROOT
BRANCH   1   2
ATOM      2  C   UNL     1      21.976  44.204 132.032  1.00  0.00     0.214 A 
ATOM      3  C   UNL     1      21.717  44.051 130.653  1.00  0.00     0.180 A 
ATOM      4  O   UNL     1      20.561  44.461 130.146  1.00  0.00    -0.452 OA
ATOM      5  C   UNL     1      20.868  44.540 132.870  1.00  0.00     0.239 A 
ATOM      6  C   UNL     1      19.514  44.774 130.901  1.00  0.00     0.146 A 
ATOM      7  O   UNL     1      21.018  44.555 134.131  1.00  0.00    -0.285 OA
ATOM      8  C   UNL     1      19.594  44.789 132.311  1.00  0.00     0.111 A 
ATOM      9  C   UNL     1      18.300  45.107 130.259  1.00  0.00     0.094 A 
ATOM     10  C   UNL     1      18.392  44.891 133.060  1.00  0.00     0.134 A 
ATOM     11  C   UNL     1      17.119  45.065 130.994  1.00  0.00     0.123 A 
ATOM     12  C   UNL     1      17.163  45.070 132.389  1.00  0.00     0.093 A 
BRANCH   3  13
ATOM     13  C   UNL     1      22.605  43.307 129.739  1.00  0.00     0.021 A 
ATOM     14  C   UNL     1      23.460  43.995 128.861  1.00  0.00     0.016 A 
ATOM     15  C   UNL     1      24.529  43.337 128.244  1.00  0.00     0.047 A 
ATOM     16  C   UNL     1      24.695  41.952 128.415  1.00  0.00     0.115 A 
ATOM     17  C   UNL     1      22.748  41.919 129.875  1.00  0.00     0.016 A 
ATOM     18  C   UNL     1      23.778  41.243 129.216  1.00  0.00     0.047 A 
BRANCH  16  19
ATOM     19  O   UNL     1      25.757  41.286 127.817  1.00  0.00    -0.508 OA
ATOM     20  H   UNL     1      26.535  41.812 127.439  1.00  0.00     0.293 HD
ENDBRANCH  16  19
ENDBRANCH   3  13
BRANCH  10  21
ATOM     21  O   UNL     1      18.331  44.808 134.452  1.00  0.00    -0.507 OA
ATOM     22  H   UNL     1      17.478  45.032 134.953  1.00  0.00     0.293 HD
ENDBRANCH  10  21
BRANCH  11  23
ATOM     23  O   UNL     1      15.907  45.070 130.307  1.00  0.00    -0.508 OA
ATOM     24  H   UNL     1      15.265  45.846 130.404  1.00  0.00     0.293 HD
ENDBRANCH  11  23
ENDBRANCH   1   2
BRANCH   1  25
ATOM     25  C   UNL     1      24.329  44.878 132.914  1.00  0.00     0.339 C 
ATOM     26  C   UNL     1      24.805  44.768 134.387  1.00  0.00     0.214 C 
ATOM     27  O   UNL     1      25.405  44.575 132.033  1.00  0.00    -0.332 OA
ATOM     28  C   UNL     1      25.341  43.350 134.679  1.00  0.00     0.180 C 
ATOM     29  C   UNL     1      25.782  43.213 132.091  1.00  0.00     0.179 C 
ATOM     30  C   UNL     1      26.254  42.809 133.539  1.00  0.00     0.177 C 
BRANCH  26  31
ATOM     31  O   UNL     1      23.746  45.043 135.259  1.00  0.00    -0.384 OA
ATOM     32  H   UNL     1      24.121  45.632 135.972  1.00  0.00     0.211 HD
ENDBRANCH  26  31
BRANCH  28  33
ATOM     33  O   UNL     1      24.244  42.480 134.846  1.00  0.00    -0.387 OA
ATOM     34  H   UNL     1      24.070  42.359 135.826  1.00  0.00     0.211 HD
ENDBRANCH  28  33
BRANCH  29  35
ATOM     35  C   UNL     1      26.829  42.887 131.015  1.00  0.00     0.191 C 
BRANCH  35  36
ATOM     36  O   UNL     1      27.306  41.567 131.151  1.00  0.00    -0.394 OA
ATOM     37  H   UNL     1      27.868  41.376 130.349  1.00  0.00     0.210 HD
ENDBRANCH  35  36
ENDBRANCH  29  35
BRANCH  30  38
ATOM     38  O   UNL     1      27.555  43.295 133.761  1.00  0.00    -0.387 OA
ATOM     39  H   UNL     1      27.682  44.107 133.190  1.00  0.00     0.211 HD
ENDBRANCH  30  38
ENDBRANCH   1  25
TORSDOF 11
ENDMDL
MODEL 5
REMARK VINA RESULT:    -5.939      1.821      5.014
REMARK INTER + INTRA:         -10.484
REMARK INTER:                  -9.006
REMARK INTRA:                  -1.477
REMARK UNBOUND:                -1.940
REMARK SMILES O=c1c(O[C@@H]2O[C@@H](CO)[C@@H](O)[C@H](O)[C@@H]2O)c(-c2ccc(O)cc2)oc2cc(O)cc(O)c12
REMARK SMILES IDX 4 1 3 2 16 3 24 4 2 5 25 6 1 7 32 8 26 9 30 10 27 11 29 12
REMARK SMILES IDX 17 13 18 14 19 15 20 16 23 17 22 18 21 19 31 21 28 23 5 25
REMARK SMILES IDX 14 26 6 27 12 28 7 29 10 30 15 31 13 33 8 35 9 36 11 38
REMARK H PARENT 21 20 31 22 28 24 15 32 13 34 9 37 11 39
REMARK Flexibility Score: inf
ROOT
ATOM      1  O   UNL     1      15.001  37.232 122.138  1.00  0.00    -0.454 OA
ENDROOT
BRANCH   1   2
ATOM      2  C   UNL     1      13.863  37.311 122.973  1.00  0.00     0.214 A 
ATOM      3  C   UNL     1      12.757  36.435 122.946  1.00  0.00     0.180 A 
ATOM      4  O   UNL     1      11.674  36.712 123.662  1.00  0.00    -0.452 OA
ATOM      5  C   UNL     1      13.875  38.315 123.991  1.00  0.00     0.239 A 
ATOM      6  C   UNL     1      11.659  37.635 124.617  1.00  0.00     0.146 A 
ATOM      7  O   UNL     1      14.907  39.038 124.146  1.00  0.00    -0.285 OA
ATOM      8  C   UNL     1      12.776  38.462 124.867  1.00  0.00     0.111 A 
ATOM      9  C   UNL     1      10.482  37.786 125.385  1.00  0.00     0.094 A 
ATOM     10  C   UNL     1      12.786  39.254 126.046  1.00  0.00     0.134 A 
ATOM     11  C   UNL     1      10.558  38.452 126.604  1.00  0.00     0.123 A 
ATOM     12  C   UNL     1      11.653  39.271 126.887  1.00  0.00     0.093 A 
BRANCH   3  13
ATOM     13  C   UNL     1      12.780  35.120 122.279  1.00  0.00     0.021 A 
ATOM     14  C   UNL     1      12.254  34.969 120.984  1.00  0.00     0.016 A 
ATOM     15  C   UNL     1      12.564  33.843 120.214  1.00  0.00     0.047 A 
ATOM     16  C   UNL     1      13.322  32.798 120.770  1.00  0.00     0.115 A 
ATOM     17  C   UNL     1      13.502  34.058 122.844  1.00  0.00     0.016 A 
ATOM     18  C   UNL     1      13.766  32.904 122.103  1.00  0.00     0.047 A 
BRANCH  16  19
ATOM     19  O   UNL     1      13.646  31.678 120.015  1.00  0.00    -0.508 OA
ATOM     20  H   UNL     1      13.526  30.753 120.405  1.00  0.00     0.293 HD
ENDBRANCH  16  19
ENDBRANCH   3  13
BRANCH  10  21
ATOM     21  O   UNL     1      13.874  40.026 126.457  1.00  0.00    -0.507 OA
ATOM     22  H   UNL     1      13.973  40.990 126.160  1.00  0.00     0.293 HD
ENDBRANCH  10  21
BRANCH  11  23
ATOM     23  O   UNL     1       9.500  38.322 127.502  1.00  0.00    -0.508 OA
ATOM     24  H   UNL     1       8.645  37.858 127.224  1.00  0.00     0.293 HD
ENDBRANCH  11  23
ENDBRANCH   1   2
BRANCH   1  25
ATOM     25  C   UNL     1      16.246  36.502 122.316  1.00  0.00     0.339 C 
ATOM     26  C   UNL     1      16.756  35.958 120.954  1.00  0.00     0.214 C 
ATOM     27  O   UNL     1      17.229  37.351 122.897  1.00  0.00    -0.332 OA
ATOM     28  C   UNL     1      17.081  37.122 119.993  1.00  0.00     0.180 C 
ATOM     29  C   UNL     1      17.398  38.555 122.175  1.00  0.00     0.179 C 
ATOM     30  C   UNL     1      17.858  38.277 120.693  1.00  0.00     0.177 C 
BRANCH  26  31
ATOM     31  O   UNL     1      15.785  35.141 120.366  1.00  0.00    -0.384 OA
ATOM     32  H   UNL     1      14.912  35.605 120.504  1.00  0.00     0.211 HD
ENDBRANCH  26  31
BRANCH  28  33
ATOM     33  O   UNL     1      15.872  37.627 119.472  1.00  0.00    -0.387 OA
ATOM     34  H   UNL     1      15.950  38.621 119.373  1.00  0.00     0.211 HD
ENDBRANCH  28  33
BRANCH  29  35
ATOM     35  C   UNL     1      18.341  39.513 122.917  1.00  0.00     0.191 C 
BRANCH  35  36
ATOM     36  O   UNL     1      19.465  38.829 123.426  1.00  0.00    -0.394 OA
ATOM     37  H   UNL     1      19.640  39.194 124.338  1.00  0.00     0.210 HD
ENDBRANCH  35  36
ENDBRANCH  29  35
BRANCH  30  38
ATOM     38  O   UNL     1      19.225  37.947 120.681  1.00  0.00    -0.387 OA
ATOM     39  H   UNL     1      19.340  37.129 120.116  1.00  0.00     0.211 HD
ENDBRANCH  30  38
ENDBRANCH   1  25
TORSDOF 11
ENDMDL
MODEL 6
REMARK VINA RESULT:    -5.841      2.291      6.502
REMARK INTER + INTRA:         -10.342
REMARK INTER:                  -8.403
REMARK INTRA:                  -1.939
REMARK UNBOUND:                -1.940
REMARK SMILES O=c1c(O[C@@H]2O[C@@H](CO)[C@@H](O)[C@H](O)[C@@H]2O)c(-c2ccc(O)cc2)oc2cc(O)cc(O)c12
REMARK SMILES IDX 4 1 3 2 16 3 24 4 2 5 25 6 1 7 32 8 26 9 30 10 27 11 29 12
REMARK SMILES IDX 17 13 18 14 19 15 20 16 23 17 22 18 21 19 31 21 28 23 5 25
REMARK SMILES IDX 14 26 6 27 12 28 7 29 10 30 15 31 13 33 8 35 9 36 11 38
REMARK H PARENT 21 20 31 22 28 24 15 32 13 34 9 37 11 39
REMARK Flexibility Score: inf
ROOT
ATOM      1  O   UNL     1      13.235  36.209 122.707  1.00  0.00    -0.454 OA
ENDROOT
BRANCH   1   2
ATOM      2  C   UNL     1      14.536  36.618 122.336  1.00  0.00     0.214 A 
ATOM      3  C   UNL     1      15.305  37.609 122.981  1.00  0.00     0.180 A 
ATOM      4  O   UNL     1      16.443  38.024 122.439  1.00  0.00    -0.452 OA
ATOM      5  C   UNL     1      15.158  35.905 121.264  1.00  0.00     0.239 A 
ATOM      6  C   UNL     1      17.045  37.377 121.446  1.00  0.00     0.146 A 
ATOM      7  O   UNL     1      14.561  34.913 120.742  1.00  0.00    -0.285 OA
ATOM      8  C   UNL     1      16.457  36.251 120.829  1.00  0.00     0.111 A 
ATOM      9  C   UNL     1      18.302  37.850 121.003  1.00  0.00     0.094 A 
ATOM     10  C   UNL     1      17.249  35.466 119.950  1.00  0.00     0.134 A 
ATOM     11  C   UNL     1      19.111  37.000 120.256  1.00  0.00     0.123 A 
ATOM     12  C   UNL     1      18.564  35.874 119.640  1.00  0.00     0.093 A 
BRANCH   3  13
ATOM     13  C   UNL     1      15.002  38.118 124.332  1.00  0.00     0.021 A 
ATOM     14  C   UNL     1      14.814  39.494 124.548  1.00  0.00     0.016 A 
ATOM     15  C   UNL     1      14.204  39.957 125.719  1.00  0.00     0.047 A 
ATOM     16  C   UNL     1      13.869  39.052 126.741  1.00  0.00     0.115 A 
ATOM     17  C   UNL     1      14.704  37.223 125.370  1.00  0.00     0.016 A 
ATOM     18  C   UNL     1      14.149  37.682 126.567  1.00  0.00     0.047 A 
BRANCH  16  19
ATOM     19  O   UNL     1      13.255  39.495 127.906  1.00  0.00    -0.508 OA
ATOM     20  H   UNL     1      13.688  39.323 128.804  1.00  0.00     0.293 HD
ENDBRANCH  16  19
ENDBRANCH   3  13
BRANCH  10  21
ATOM     21  O   UNL     1      16.817  34.273 119.367  1.00  0.00    -0.507 OA
ATOM     22  H   UNL     1      15.865  34.170 119.032  1.00  0.00     0.293 HD
ENDBRANCH  10  21
BRANCH  11  23
ATOM     23  O   UNL     1      20.456  37.330 120.098  1.00  0.00    -0.508 OA
ATOM     24  H   UNL     1      21.017  36.876 119.389  1.00  0.00     0.293 HD
ENDBRANCH  11  23
ENDBRANCH   1   2
BRANCH   1  25
ATOM     25  C   UNL     1      11.957  36.886 122.546  1.00  0.00     0.339 C 
ATOM     26  C   UNL     1      11.070  36.131 121.519  1.00  0.00     0.214 C 
ATOM     27  O   UNL     1      11.286  36.966 123.798  1.00  0.00    -0.332 OA
ATOM     28  C   UNL     1      10.736  34.713 122.030  1.00  0.00     0.180 C 
ATOM     29  C   UNL     1      11.164  35.705 124.427  1.00  0.00     0.179 C 
ATOM     30  C   UNL     1      10.342  34.697 123.536  1.00  0.00     0.177 C 
BRANCH  26  31
ATOM     31  O   UNL     1      11.733  36.028 120.291  1.00  0.00    -0.384 OA
ATOM     32  H   UNL     1      12.657  35.715 120.501  1.00  0.00     0.211 HD
ENDBRANCH  26  31
BRANCH  28  33
ATOM     33  O   UNL     1      11.864  33.888 121.837  1.00  0.00    -0.387 OA
ATOM     34  H   UNL     1      11.780  33.080 122.424  1.00  0.00     0.211 HD
ENDBRANCH  28  33
BRANCH  29  35
ATOM     35  C   UNL     1      10.586  35.851 125.842  1.00  0.00     0.191 C 
BRANCH  35  36
ATOM     36  O   UNL     1      10.223  34.598 126.376  1.00  0.00    -0.394 OA
ATOM     37  H   UNL     1      10.701  34.502 127.247  1.00  0.00     0.210 HD
ENDBRANCH  35  36
ENDBRANCH  29  35
BRANCH  30  38
ATOM     38  O   UNL     1       8.972  35.001 123.628  1.00  0.00    -0.387 OA
ATOM     39  H   UNL     1       8.698  34.904 124.585  1.00  0.00     0.211 HD
ENDBRANCH  30  38
ENDBRANCH   1  25
TORSDOF 11
ENDMDL
MODEL 7
REMARK VINA RESULT:    -5.829      1.749      4.597
REMARK INTER + INTRA:         -10.325
REMARK INTER:                  -8.508
REMARK INTRA:                  -1.816
REMARK UNBOUND:                -1.940
REMARK SMILES O=c1c(O[C@@H]2O[C@@H](CO)[C@@H](O)[C@H](O)[C@@H]2O)c(-c2ccc(O)cc2)oc2cc(O)cc(O)c12
REMARK SMILES IDX 4 1 3 2 16 3 24 4 2 5 25 6 1 7 32 8 26 9 30 10 27 11 29 12
REMARK SMILES IDX 17 13 18 14 19 15 20 16 23 17 22 18 21 19 31 21 28 23 5 25
REMARK SMILES IDX 14 26 6 27 12 28 7 29 10 30 15 31 13 33 8 35 9 36 11 38
REMARK H PARENT 21 20 31 22 28 24 15 32 13 34 9 37 11 39
REMARK Flexibility Score: inf
ROOT
ATOM      1  O   UNL     1      14.891  38.315 123.748  1.00  0.00    -0.454 OA
ENDROOT
BRANCH   1   2
ATOM      2  C   UNL     1      13.836  38.602 124.645  1.00  0.00     0.214 A 
ATOM      3  C   UNL     1      12.790  37.722 124.997  1.00  0.00     0.180 A 
ATOM      4  O   UNL     1      11.766  38.164 125.716  1.00  0.00    -0.452 OA
ATOM      5  C   UNL     1      13.882  39.863 125.316  1.00  0.00     0.239 A 
ATOM      6  C   UNL     1      11.784  39.329 126.355  1.00  0.00     0.146 A 
ATOM      7  O   UNL     1      14.876  40.632 125.138  1.00  0.00    -0.285 OA
ATOM      8  C   UNL     1      12.866  40.229 126.228  1.00  0.00     0.111 A 
ATOM      9  C   UNL     1      10.680  39.663 127.172  1.00  0.00     0.094 A 
ATOM     10  C   UNL     1      12.939  41.335 127.115  1.00  0.00     0.134 A 
ATOM     11  C   UNL     1      10.831  40.664 128.126  1.00  0.00     0.123 A 
ATOM     12  C   UNL     1      11.893  41.564 128.034  1.00  0.00     0.093 A 
BRANCH   3  13
ATOM     13  C   UNL     1      12.833  36.269 124.745  1.00  0.00     0.021 A 
ATOM     14  C   UNL     1      11.827  35.649 123.985  1.00  0.00     0.016 A 
ATOM     15  C   UNL     1      12.018  34.368 123.456  1.00  0.00     0.047 A 
ATOM     16  C   UNL     1      13.182  33.645 123.771  1.00  0.00     0.115 A 
ATOM     17  C   UNL     1      13.974  35.530 125.090  1.00  0.00     0.016 A 
ATOM     18  C   UNL     1      14.147  34.228 124.615  1.00  0.00     0.047 A 
BRANCH  16  19
ATOM     19  O   UNL     1      13.391  32.376 123.245  1.00  0.00    -0.508 OA
ATOM     20  H   UNL     1      12.610  31.746 123.120  1.00  0.00     0.293 HD
ENDBRANCH  16  19
ENDBRANCH   3  13
BRANCH  10  21
ATOM     21  O   UNL     1      14.010  42.229 127.160  1.00  0.00    -0.507 OA
ATOM     22  H   UNL     1      14.765  42.108 127.826  1.00  0.00     0.293 HD
ENDBRANCH  10  21
BRANCH  11  23
ATOM     23  O   UNL     1       9.874  40.772 129.134  1.00  0.00    -0.508 OA
ATOM     24  H   UNL     1       9.669  41.670 129.553  1.00  0.00     0.293 HD
ENDBRANCH  11  23
ENDBRANCH   1   2
BRANCH   1  25
ATOM     25  C   UNL     1      15.093  38.737 122.371  1.00  0.00     0.339 C 
ATOM     26  C   UNL     1      16.600  38.981 122.094  1.00  0.00     0.214 C 
ATOM     27  O   UNL     1      14.591  37.748 121.480  1.00  0.00    -0.332 OA
ATOM     28  C   UNL     1      17.401  37.671 122.257  1.00  0.00     0.180 C 
ATOM     29  C   UNL     1      15.122  36.464 121.743  1.00  0.00     0.179 C 
ATOM     30  C   UNL     1      16.691  36.451 121.597  1.00  0.00     0.177 C 
BRANCH  26  31
ATOM     31  O   UNL     1      17.106  39.936 122.983  1.00  0.00    -0.384 OA
ATOM     32  H   UNL     1      17.930  40.304 122.555  1.00  0.00     0.211 HD
ENDBRANCH  26  31
BRANCH  28  33
ATOM     33  O   UNL     1      17.575  37.417 123.633  1.00  0.00    -0.387 OA
ATOM     34  H   UNL     1      17.894  38.255 124.081  1.00  0.00     0.211 HD
ENDBRANCH  28  33
BRANCH  29  35
ATOM     35  C   UNL     1      14.438  35.398 120.874  1.00  0.00     0.191 C 
BRANCH  35  36
ATOM     36  O   UNL     1      15.069  34.145 121.015  1.00  0.00    -0.394 OA
ATOM     37  H   UNL     1      14.846  33.613 120.200  1.00  0.00     0.210 HD
ENDBRANCH  35  36
ENDBRANCH  29  35
BRANCH  30  38
ATOM     38  O   UNL     1      17.035  36.437 120.233  1.00  0.00    -0.387 OA
ATOM     39  H   UNL     1      16.589  35.647 119.812  1.00  0.00     0.211 HD
ENDBRANCH  30  38
ENDBRANCH   1  25
TORSDOF 11
ENDMDL
MODEL 8
REMARK VINA RESULT:    -5.648      1.935      4.908
REMARK INTER + INTRA:         -10.064
REMARK INTER:                  -8.564
REMARK INTRA:                  -1.500
REMARK UNBOUND:                -1.940
REMARK SMILES O=c1c(O[C@@H]2O[C@@H](CO)[C@@H](O)[C@H](O)[C@@H]2O)c(-c2ccc(O)cc2)oc2cc(O)cc(O)c12
REMARK SMILES IDX 4 1 3 2 16 3 24 4 2 5 25 6 1 7 32 8 26 9 30 10 27 11 29 12
REMARK SMILES IDX 17 13 18 14 19 15 20 16 23 17 22 18 21 19 31 21 28 23 5 25
REMARK SMILES IDX 14 26 6 27 12 28 7 29 10 30 15 31 13 33 8 35 9 36 11 38
REMARK H PARENT 21 20 31 22 28 24 15 32 13 34 9 37 11 39
REMARK Flexibility Score: inf
ROOT
ATOM      1  O   UNL     1      14.434  37.927 123.396  1.00  0.00    -0.454 OA
ENDROOT
BRANCH   1   2
ATOM      2  C   UNL     1      13.615  38.609 124.324  1.00  0.00     0.214 A 
ATOM      3  C   UNL     1      12.474  38.079 124.964  1.00  0.00     0.180 A 
ATOM      4  O   UNL     1      11.690  38.869 125.685  1.00  0.00    -0.452 OA
ATOM      5  C   UNL     1      14.029  39.921 124.713  1.00  0.00     0.239 A 
ATOM      6  C   UNL     1      12.052  40.090 126.064  1.00  0.00     0.146 A 
ATOM      7  O   UNL     1      15.124  40.389 124.271  1.00  0.00    -0.285 OA
ATOM      8  C   UNL     1      13.266  40.672 125.636  1.00  0.00     0.111 A 
ATOM      9  C   UNL     1      11.183  40.814 126.912  1.00  0.00     0.094 A 
ATOM     10  C   UNL     1      13.707  41.867 126.263  1.00  0.00     0.134 A 
ATOM     11  C   UNL     1      11.687  41.903 127.617  1.00  0.00     0.123 A 
ATOM     12  C   UNL     1      12.888  42.495 127.225  1.00  0.00     0.093 A 
BRANCH   3  13
ATOM     13  C   UNL     1      12.170  36.636 125.013  1.00  0.00     0.021 A 
ATOM     14  C   UNL     1      11.209  36.081 124.151  1.00  0.00     0.016 A 
ATOM     15  C   UNL     1      11.148  34.699 123.943  1.00  0.00     0.047 A 
ATOM     16  C   UNL     1      11.982  33.841 124.681  1.00  0.00     0.115 A 
ATOM     17  C   UNL     1      12.972  35.775 125.777  1.00  0.00     0.016 A 
ATOM     18  C   UNL     1      12.877  34.390 125.620  1.00  0.00     0.047 A 
BRANCH  16  19
ATOM     19  O   UNL     1      11.940  32.467 124.480  1.00  0.00    -0.508 OA
ATOM     20  H   UNL     1      11.730  31.848 125.252  1.00  0.00     0.293 HD
ENDBRANCH  16  19
ENDBRANCH   3  13
BRANCH  10  21
ATOM     21  O   UNL     1      14.936  42.475 126.004  1.00  0.00    -0.507 OA
ATOM     22  H   UNL     1      15.450  42.950 126.738  1.00  0.00     0.293 HD
ENDBRANCH  10  21
BRANCH  11  23
ATOM     23  O   UNL     1      10.942  42.410 128.680  1.00  0.00    -0.508 OA
ATOM     24  H   UNL     1      10.956  43.399 128.891  1.00  0.00     0.293 HD
ENDBRANCH  11  23
ENDBRANCH   1   2
BRANCH   1  25
ATOM     25  C   UNL     1      15.550  37.022 123.617  1.00  0.00     0.339 C 
ATOM     26  C   UNL     1      15.581  35.920 122.523  1.00  0.00     0.214 C 
ATOM     27  O   UNL     1      16.775  37.746 123.609  1.00  0.00    -0.332 OA
ATOM     28  C   UNL     1      15.813  36.546 121.131  1.00  0.00     0.180 C 
ATOM     29  C   UNL     1      16.930  38.532 122.443  1.00  0.00     0.179 C 
ATOM     30  C   UNL     1      16.922  37.639 121.144  1.00  0.00     0.177 C 
BRANCH  26  31
ATOM     31  O   UNL     1      14.370  35.219 122.511  1.00  0.00    -0.384 OA
ATOM     32  H   UNL     1      13.896  35.499 121.678  1.00  0.00     0.211 HD
ENDBRANCH  26  31
BRANCH  28  33
ATOM     33  O   UNL     1      14.603  37.118 120.687  1.00  0.00    -0.387 OA
ATOM     34  H   UNL     1      14.185  36.510 120.008  1.00  0.00     0.211 HD
ENDBRANCH  28  33
BRANCH  29  35
ATOM     35  C   UNL     1      18.177  39.422 122.542  1.00  0.00     0.191 C 
BRANCH  35  36
ATOM     36  O   UNL     1      19.222  38.762 123.222  1.00  0.00    -0.394 OA
ATOM     37  H   UNL     1      19.379  39.262 124.071  1.00  0.00     0.210 HD
ENDBRANCH  35  36
ENDBRANCH  29  35
BRANCH  30  38
ATOM     38  O   UNL     1      18.165  36.996 121.010  1.00  0.00    -0.387 OA
ATOM     39  H   UNL     1      18.755  37.580 120.451  1.00  0.00     0.211 HD
ENDBRANCH  30  38
ENDBRANCH   1  25
TORSDOF 11
ENDMDL
MODEL 9
REMARK VINA RESULT:    -5.535      2.010      3.170
REMARK INTER + INTRA:          -9.903
REMARK INTER:                  -8.007
REMARK INTRA:                  -1.895
REMARK UNBOUND:                -1.940
REMARK SMILES O=c1c(O[C@@H]2O[C@@H](CO)[C@@H](O)[C@H](O)[C@@H]2O)c(-c2ccc(O)cc2)oc2cc(O)cc(O)c12
REMARK SMILES IDX 4 1 3 2 16 3 24 4 2 5 25 6 1 7 32 8 26 9 30 10 27 11 29 12
REMARK SMILES IDX 17 13 18 14 19 15 20 16 23 17 22 18 21 19 31 21 28 23 5 25
REMARK SMILES IDX 14 26 6 27 12 28 7 29 10 30 15 31 13 33 8 35 9 36 11 38
REMARK H PARENT 21 20 31 22 28 24 15 32 13 34 9 37 11 39
REMARK Flexibility Score: inf
ROOT
ATOM      1  O   UNL     1      12.024  37.102 125.098  1.00  0.00    -0.454 OA
ENDROOT
BRANCH   1   2
ATOM      2  C   UNL     1      12.652  38.356 125.276  1.00  0.00     0.214 A 
ATOM      3  C   UNL     1      13.999  38.654 124.980  1.00  0.00     0.180 A 
ATOM      4  O   UNL     1      14.517  39.819 125.348  1.00  0.00    -0.452 OA
ATOM      5  C   UNL     1      11.826  39.438 125.716  1.00  0.00     0.239 A 
ATOM      6  C   UNL     1      13.773  40.842 125.755  1.00  0.00     0.146 A 
ATOM      7  O   UNL     1      10.579  39.253 125.863  1.00  0.00    -0.285 OA
ATOM      8  C   UNL     1      12.376  40.724 125.920  1.00  0.00     0.111 A 
ATOM      9  C   UNL     1      14.416  42.070 126.033  1.00  0.00     0.094 A 
ATOM     10  C   UNL     1      11.612  41.904 126.119  1.00  0.00     0.134 A 
ATOM     11  C   UNL     1      13.651  43.230 126.087  1.00  0.00     0.123 A 
ATOM     12  C   UNL     1      12.266  43.148 126.241  1.00  0.00     0.093 A 
BRANCH   3  13
ATOM     13  C   UNL     1      14.850  37.800 124.130  1.00  0.00     0.021 A 
ATOM     14  C   UNL     1      14.937  38.034 122.746  1.00  0.00     0.016 A 
ATOM     15  C   UNL     1      15.971  37.474 121.990  1.00  0.00     0.047 A 
ATOM     16  C   UNL     1      16.876  36.582 122.591  1.00  0.00     0.115 A 
ATOM     17  C   UNL     1      15.730  36.879 124.717  1.00  0.00     0.016 A 
ATOM     18  C   UNL     1      16.730  36.269 123.957  1.00  0.00     0.047 A 
BRANCH  16  19
ATOM     19  O   UNL     1      17.915  36.025 121.855  1.00  0.00    -0.508 OA
ATOM     20  H   UNL     1      17.925  36.113 120.847  1.00  0.00     0.293 HD
ENDBRANCH  16  19
ENDBRANCH   3  13
BRANCH  10  21
ATOM     21  O   UNL     1      10.218  41.928 126.186  1.00  0.00    -0.507 OA
ATOM     22  H   UNL     1       9.682  41.069 126.245  1.00  0.00     0.293 HD
ENDBRANCH  10  21
BRANCH  11  23
ATOM     23  O   UNL     1      14.302  44.461 126.035  1.00  0.00    -0.508 OA
ATOM     24  H   UNL     1      14.904  44.756 126.792  1.00  0.00     0.293 HD
ENDBRANCH  11  23
ENDBRANCH   1   2
BRANCH   1  25
ATOM     25  C   UNL     1      11.960  35.951 125.985  1.00  0.00     0.339 C 
ATOM     26  C   UNL     1      10.528  35.352 125.993  1.00  0.00     0.214 C 
ATOM     27  O   UNL     1      12.897  34.963 125.570  1.00  0.00    -0.332 OA
ATOM     28  C   UNL     1      10.153  34.827 124.590  1.00  0.00     0.180 C 
ATOM     29  C   UNL     1      12.746  34.615 124.208  1.00  0.00     0.179 C 
ATOM     30  C   UNL     1      11.311  34.029 123.920  1.00  0.00     0.177 C 
BRANCH  26  31
ATOM     31  O   UNL     1       9.599  36.324 126.378  1.00  0.00    -0.384 OA
ATOM     32  H   UNL     1       8.812  36.210 125.775  1.00  0.00     0.211 HD
ENDBRANCH  26  31
BRANCH  28  33
ATOM     33  O   UNL     1       9.815  35.926 123.774  1.00  0.00    -0.387 OA
ATOM     34  H   UNL     1       8.818  35.966 123.678  1.00  0.00     0.211 HD
ENDBRANCH  28  33
BRANCH  29  35
ATOM     35  C   UNL     1      13.871  33.674 123.754  1.00  0.00     0.191 C 
BRANCH  35  36
ATOM     36  O   UNL     1      13.524  33.002 122.563  1.00  0.00    -0.394 OA
ATOM     37  H   UNL     1      12.551  33.163 122.411  1.00  0.00     0.210 HD
ENDBRANCH  35  36
ENDBRANCH  29  35
BRANCH  30  38
ATOM     38  O   UNL     1      11.246  32.702 124.382  1.00  0.00    -0.387 OA
ATOM     39  H   UNL     1      10.902  32.720 125.322  1.00  0.00     0.211 HD
ENDBRANCH  30  38
ENDBRANCH   1  25
TORSDOF 11
ENDMDL
