MODEL 1
REMARK VINA RESULT:    -3.724      0.000      0.000
REMARK INTER + INTRA:          -9.686
REMARK INTER:                  -6.989
REMARK INTRA:                  -2.697
REMARK UNBOUND:                -2.697
REMARK SMILES CCCCCCCCC=CCCCCCCCC(=O)[O-]
REMARK SMILES IDX 10 1 9 2 11 3 12 4 13 5 14 6 15 7 16 8 17 9 18 10 19 11
REMARK SMILES IDX 20 12 8 13 7 14 6 15 5 16 4 17 3 18 2 19 1 20
REMARK H PARENT
REMARK Flexibility Score: inf
ROOT
ATOM      1  C   UNL     1      48.127 -17.416 -24.692  1.00  0.00    -0.031 C 
ATOM      2  C   UNL     1      47.275 -16.777 -23.867  1.00  0.00    -0.031 C 
ENDROOT
BRANCH   1   3
ATOM      3  C   UNL     1      49.487 -17.941 -24.303  1.00  0.00     0.027 C 
BRANCH   3   4
ATOM      4  C   UNL     1      49.770 -19.303 -24.954  1.00  0.00     0.004 C 
BRANCH   4   5
ATOM      5  C   UNL     1      48.523 -19.916 -25.609  1.00  0.00     0.000 C 
BRANCH   5   6
ATOM      6  C   UNL     1      48.726 -20.226 -27.101  1.00  0.00     0.000 C 
BRANCH   6   7
ATOM      7  C   UNL     1      47.688 -19.508 -27.990  1.00  0.00     0.000 C 
BRANCH   7   8
ATOM      8  C   UNL     1      48.142 -18.118 -28.466  1.00  0.00     0.006 C 
BRANCH   8   9
ATOM      9  C   UNL     1      47.102 -17.024 -28.196  1.00  0.00     0.053 C 
BRANCH   9  10
ATOM     10  C   UNL     1      45.909 -17.207 -29.080  1.00  0.00     0.041 C 
ATOM     11  O   UNL     1      46.040 -17.198 -30.332  1.00  0.00    -0.550 OA
ATOM     12  O   UNL     1      44.644 -17.338 -28.522  1.00  0.00    -0.550 OA
ENDBRANCH   9  10
ENDBRANCH   8   9
ENDBRANCH   7   8
ENDBRANCH   6   7
ENDBRANCH   5   6
ENDBRANCH   4   5
ENDBRANCH   3   4
ENDBRANCH   1   3
BRANCH   2  13
ATOM     13  C   UNL     1      47.546 -16.447 -22.416  1.00  0.00     0.027 C 
BRANCH  13  14
ATOM     14  C   UNL     1      47.980 -14.985 -22.243  1.00  0.00     0.004 C 
BRANCH  14  15
ATOM     15  C   UNL     1      49.494 -14.795 -22.434  1.00  0.00     0.000 C 
BRANCH  15  16
ATOM     16  C   UNL     1      49.831 -13.950 -23.675  1.00  0.00     0.000 C 
BRANCH  16  17
ATOM     17  C   UNL     1      50.971 -14.547 -24.532  1.00  0.00    -0.000 C 
BRANCH  17  18
ATOM     18  C   UNL     1      50.871 -14.168 -26.023  1.00  0.00    -0.000 C 
BRANCH  18  19
ATOM     19  C   UNL     1      50.229 -15.264 -26.895  1.00  0.00    -0.003 C 
ATOM     20  C   UNL     1      51.177 -16.432 -27.168  1.00  0.00     0.004 C 
ENDBRANCH  18  19
ENDBRANCH  17  18
ENDBRANCH  16  17
ENDBRANCH  15  16
ENDBRANCH  14  15
ENDBRANCH  13  14
ENDBRANCH   2  13
TORSDOF 15
ENDMDL
MODEL 2
REMARK VINA RESULT:    -3.661     12.188     14.623
REMARK INTER + INTRA:          -9.569
REMARK INTER:                  -6.526
REMARK INTRA:                  -3.043
REMARK UNBOUND:                -2.697
REMARK SMILES CCCCCCCCC=CCCCCCCCC(=O)[O-]
REMARK SMILES IDX 10 1 9 2 11 3 12 4 13 5 14 6 15 7 16 8 17 9 18 10 19 11
REMARK SMILES IDX 20 12 8 13 7 14 6 15 5 16 4 17 3 18 2 19 1 20
REMARK H PARENT
REMARK Flexibility Score: inf
ROOT
ATOM      1  C   UNL     1      50.213 -16.050 -37.009  1.00  0.00    -0.031 C 
ATOM      2  C   UNL     1      49.918 -14.949 -37.726  1.00  0.00    -0.031 C 
ENDROOT
BRANCH   1   3
ATOM      3  C   UNL     1      49.992 -17.471 -37.466  1.00  0.00     0.027 C 
BRANCH   3   4
ATOM      4  C   UNL     1      51.324 -18.208 -37.672  1.00  0.00     0.004 C 
BRANCH   4   5
ATOM      5  C   UNL     1      51.915 -17.981 -39.071  1.00  0.00     0.000 C 
BRANCH   5   6
ATOM      6  C   UNL     1      53.436 -17.751 -39.044  1.00  0.00     0.000 C 
BRANCH   6   7
ATOM      7  C   UNL     1      53.824 -16.540 -38.169  1.00  0.00     0.000 C 
BRANCH   7   8
ATOM      8  C   UNL     1      53.684 -15.189 -38.890  1.00  0.00     0.006 C 
BRANCH   8   9
ATOM      9  C   UNL     1      53.593 -14.002 -37.924  1.00  0.00     0.053 C 
BRANCH   9  10
ATOM     10  C   UNL     1      54.641 -12.984 -38.247  1.00  0.00     0.041 C 
ATOM     11  O   UNL     1      55.414 -13.158 -39.226  1.00  0.00    -0.550 OA
ATOM     12  O   UNL     1      54.797 -11.867 -37.436  1.00  0.00    -0.550 OA
ENDBRANCH   9  10
ENDBRANCH   8   9
ENDBRANCH   7   8
ENDBRANCH   6   7
ENDBRANCH   5   6
ENDBRANCH   4   5
ENDBRANCH   3   4
ENDBRANCH   1   3
BRANCH   2  13
ATOM     13  C   UNL     1      49.285 -14.943 -39.100  1.00  0.00     0.027 C 
BRANCH  13  14
ATOM     14  C   UNL     1      50.347 -14.914 -40.208  1.00  0.00     0.004 C 
BRANCH  14  15
ATOM     15  C   UNL     1      49.787 -14.398 -41.544  1.00  0.00     0.000 C 
BRANCH  15  16
ATOM     16  C   UNL     1      50.519 -13.143 -42.047  1.00  0.00     0.000 C 
BRANCH  16  17
ATOM     17  C   UNL     1      52.019 -13.116 -41.672  1.00  0.00    -0.000 C 
BRANCH  17  18
ATOM     18  C   UNL     1      52.410 -11.892 -40.820  1.00  0.00    -0.000 C 
BRANCH  18  19
ATOM     19  C   UNL     1      51.204 -11.167 -40.194  1.00  0.00    -0.003 C 
ATOM     20  C   UNL     1      51.081 -11.417 -38.690  1.00  0.00     0.004 C 
ENDBRANCH  18  19
ENDBRANCH  17  18
ENDBRANCH  16  17
ENDBRANCH  15  16
ENDBRANCH  14  15
ENDBRANCH  13  14
ENDBRANCH   2  13
TORSDOF 15
ENDMDL
MODEL 3
REMARK VINA RESULT:    -3.661      1.161      2.796
REMARK INTER + INTRA:          -9.569
REMARK INTER:                  -6.473
REMARK INTRA:                  -3.096
REMARK UNBOUND:                -2.697
REMARK SMILES CCCCCCCCC=CCCCCCCCC(=O)[O-]
REMARK SMILES IDX 10 1 9 2 11 3 12 4 13 5 14 6 15 7 16 8 17 9 18 10 19 11
REMARK SMILES IDX 20 12 8 13 7 14 6 15 5 16 4 17 3 18 2 19 1 20
REMARK H PARENT
REMARK Flexibility Score: inf
ROOT
ATOM      1  C   UNL     1      50.336 -16.822 -26.398  1.00  0.00    -0.031 C 
ATOM      2  C   UNL     1      50.630 -15.565 -26.014  1.00  0.00    -0.031 C 
ENDROOT
BRANCH   1   3
ATOM      3  C   UNL     1      51.005 -18.070 -25.879  1.00  0.00     0.027 C 
BRANCH   3   4
ATOM      4  C   UNL     1      50.183 -18.721 -24.756  1.00  0.00     0.004 C 
BRANCH   4   5
ATOM      5  C   UNL     1      48.807 -19.206 -25.234  1.00  0.00     0.000 C 
BRANCH   5   6
ATOM      6  C   UNL     1      48.895 -20.441 -26.147  1.00  0.00     0.000 C 
BRANCH   6   7
ATOM      7  C   UNL     1      48.414 -20.138 -27.582  1.00  0.00     0.000 C 
BRANCH   7   8
ATOM      8  C   UNL     1      47.322 -19.058 -27.650  1.00  0.00     0.006 C 
BRANCH   8   9
ATOM      9  C   UNL     1      47.646 -17.941 -28.649  1.00  0.00     0.053 C 
BRANCH   9  10
ATOM     10  C   UNL     1      46.423 -17.563 -29.425  1.00  0.00     0.041 C 
ATOM     11  O   UNL     1      46.426 -17.623 -30.682  1.00  0.00    -0.550 OA
ATOM     12  O   UNL     1      45.295 -17.098 -28.761  1.00  0.00    -0.550 OA
ENDBRANCH   9  10
ENDBRANCH   8   9
ENDBRANCH   7   8
ENDBRANCH   6   7
ENDBRANCH   5   6
ENDBRANCH   4   5
ENDBRANCH   3   4
ENDBRANCH   1   3
BRANCH   2  13
ATOM     13  C   UNL     1      51.703 -15.184 -25.018  1.00  0.00     0.027 C 
BRANCH  13  14
ATOM     14  C   UNL     1      51.096 -14.677 -23.702  1.00  0.00     0.004 C 
BRANCH  14  15
ATOM     15  C   UNL     1      49.559 -14.653 -23.736  1.00  0.00     0.000 C 
BRANCH  15  16
ATOM     16  C   UNL     1      48.931 -15.527 -22.637  1.00  0.00     0.000 C 
BRANCH  16  17
ATOM     17  C   UNL     1      47.781 -16.424 -23.149  1.00  0.00    -0.000 C 
BRANCH  17  18
ATOM     18  C   UNL     1      46.758 -15.665 -24.016  1.00  0.00    -0.000 C 
BRANCH  18  19
ATOM     19  C   UNL     1      46.732 -16.127 -25.485  1.00  0.00    -0.003 C 
ATOM     20  C   UNL     1      46.980 -14.981 -26.469  1.00  0.00     0.004 C 
ENDBRANCH  18  19
ENDBRANCH  17  18
ENDBRANCH  16  17
ENDBRANCH  15  16
ENDBRANCH  14  15
ENDBRANCH  13  14
ENDBRANCH   2  13
TORSDOF 15
ENDMDL
MODEL 4
REMARK VINA RESULT:    -3.641     12.020     14.519
REMARK INTER + INTRA:          -9.530
REMARK INTER:                  -6.549
REMARK INTRA:                  -2.981
REMARK UNBOUND:                -2.697
REMARK SMILES CCCCCCCCC=CCCCCCCCC(=O)[O-]
REMARK SMILES IDX 10 1 9 2 11 3 12 4 13 5 14 6 15 7 16 8 17 9 18 10 19 11
REMARK SMILES IDX 20 12 8 13 7 14 6 15 5 16 4 17 3 18 2 19 1 20
REMARK H PARENT
REMARK Flexibility Score: inf
ROOT
ATOM      1  C   UNL     1      52.079 -12.996 -41.752  1.00  0.00    -0.031 C 
ATOM      2  C   UNL     1      52.230 -11.732 -41.311  1.00  0.00    -0.031 C 
ENDROOT
BRANCH   1   3
ATOM      3  C   UNL     1      50.763 -13.722 -41.880  1.00  0.00     0.027 C 
BRANCH   3   4
ATOM      4  C   UNL     1      50.433 -14.513 -40.605  1.00  0.00     0.004 C 
BRANCH   4   5
ATOM      5  C   UNL     1      49.058 -14.150 -40.024  1.00  0.00     0.000 C 
BRANCH   5   6
ATOM      6  C   UNL     1      49.057 -14.103 -38.487  1.00  0.00     0.000 C 
BRANCH   6   7
ATOM      7  C   UNL     1      50.355 -14.682 -37.886  1.00  0.00     0.000 C 
BRANCH   7   8
ATOM      8  C   UNL     1      50.126 -15.920 -37.004  1.00  0.00     0.006 C 
BRANCH   8   9
ATOM      9  C   UNL     1      49.938 -17.207 -37.816  1.00  0.00     0.053 C 
BRANCH   9  10
ATOM     10  C   UNL     1      51.238 -17.639 -38.419  1.00  0.00     0.041 C 
ATOM     11  O   UNL     1      52.286 -17.658 -37.721  1.00  0.00    -0.550 OA
ATOM     12  O   UNL     1      51.301 -17.975 -39.765  1.00  0.00    -0.550 OA
ENDBRANCH   9  10
ENDBRANCH   8   9
ENDBRANCH   7   8
ENDBRANCH   6   7
ENDBRANCH   5   6
ENDBRANCH   4   5
ENDBRANCH   3   4
ENDBRANCH   1   3
BRANCH   2  13
ATOM     13  C   UNL     1      51.110 -10.832 -40.837  1.00  0.00     0.027 C 
BRANCH  13  14
ATOM     14  C   UNL     1      51.423 -10.220 -39.465  1.00  0.00     0.004 C 
BRANCH  14  15
ATOM     15  C   UNL     1      51.374 -11.259 -38.333  1.00  0.00     0.000 C 
BRANCH  15  16
ATOM     16  C   UNL     1      52.579 -11.154 -37.383  1.00  0.00     0.000 C 
BRANCH  16  17
ATOM     17  C   UNL     1      53.326 -12.494 -37.188  1.00  0.00    -0.000 C 
BRANCH  17  18
ATOM     18  C   UNL     1      54.698 -12.531 -37.889  1.00  0.00    -0.000 C 
BRANCH  18  19
ATOM     19  C   UNL     1      54.723 -13.419 -39.148  1.00  0.00    -0.003 C 
ATOM     20  C   UNL     1      53.872 -14.681 -38.997  1.00  0.00     0.004 C 
ENDBRANCH  18  19
ENDBRANCH  17  18
ENDBRANCH  16  17
ENDBRANCH  15  16
ENDBRANCH  14  15
ENDBRANCH  13  14
ENDBRANCH   2  13
TORSDOF 15
ENDMDL
MODEL 5
REMARK VINA RESULT:    -3.633      2.822      5.511
REMARK INTER + INTRA:          -9.516
REMARK INTER:                  -6.663
REMARK INTRA:                  -2.853
REMARK UNBOUND:                -2.697
REMARK SMILES CCCCCCCCC=CCCCCCCCC(=O)[O-]
REMARK SMILES IDX 10 1 9 2 11 3 12 4 13 5 14 6 15 7 16 8 17 9 18 10 19 11
REMARK SMILES IDX 20 12 8 13 7 14 6 15 5 16 4 17 3 18 2 19 1 20
REMARK H PARENT
REMARK Flexibility Score: inf
ROOT
ATOM      1  C   UNL     1      46.856 -18.260 -27.953  1.00  0.00    -0.031 C 
ATOM      2  C   UNL     1      47.362 -19.494 -27.765  1.00  0.00    -0.031 C 
ENDROOT
BRANCH   1   3
ATOM      3  C   UNL     1      47.530 -16.973 -27.549  1.00  0.00     0.027 C 
BRANCH   3   4
ATOM      4  C   UNL     1      46.788 -16.290 -26.390  1.00  0.00     0.004 C 
BRANCH   4   5
ATOM      5  C   UNL     1      47.702 -16.004 -25.189  1.00  0.00     0.000 C 
BRANCH   5   6
ATOM      6  C   UNL     1      47.202 -16.661 -23.892  1.00  0.00     0.000 C 
BRANCH   6   7
ATOM      7  C   UNL     1      48.188 -16.458 -22.721  1.00  0.00     0.000 C 
BRANCH   7   8
ATOM      8  C   UNL     1      49.376 -15.547 -23.068  1.00  0.00     0.006 C 
BRANCH   8   9
ATOM      9  C   UNL     1      49.413 -14.265 -22.228  1.00  0.00     0.053 C 
BRANCH   9  10
ATOM     10  C   UNL     1      48.685 -13.160 -22.928  1.00  0.00     0.041 C 
ATOM     11  O   UNL     1      47.545 -12.802 -22.532  1.00  0.00    -0.550 OA
ATOM     12  O   UNL     1      49.246 -12.558 -24.047  1.00  0.00    -0.550 OA
ENDBRANCH   9  10
ENDBRANCH   8   9
ENDBRANCH   7   8
ENDBRANCH   6   7
ENDBRANCH   5   6
ENDBRANCH   4   5
ENDBRANCH   3   4
ENDBRANCH   1   3
BRANCH   2  13
ATOM     13  C   UNL     1      48.678 -19.806 -27.087  1.00  0.00     0.027 C 
BRANCH  13  14
ATOM     14  C   UNL     1      48.521 -19.883 -25.562  1.00  0.00     0.004 C 
BRANCH  14  15
ATOM     15  C   UNL     1      49.697 -19.231 -24.817  1.00  0.00     0.000 C 
BRANCH  15  16
ATOM     16  C   UNL     1      51.063 -19.664 -25.375  1.00  0.00     0.000 C 
BRANCH  16  17
ATOM     17  C   UNL     1      52.045 -18.487 -25.578  1.00  0.00    -0.000 C 
BRANCH  17  18
ATOM     18  C   UNL     1      51.350 -17.111 -25.582  1.00  0.00    -0.000 C 
BRANCH  18  19
ATOM     19  C   UNL     1      51.019 -16.591 -26.993  1.00  0.00    -0.003 C 
ATOM     20  C   UNL     1      50.836 -15.073 -27.035  1.00  0.00     0.004 C 
ENDBRANCH  18  19
ENDBRANCH  17  18
ENDBRANCH  16  17
ENDBRANCH  15  16
ENDBRANCH  14  15
ENDBRANCH  13  14
ENDBRANCH   2  13
TORSDOF 15
ENDMDL
MODEL 6
REMARK VINA RESULT:    -3.611      2.087      3.594
REMARK INTER + INTRA:          -9.474
REMARK INTER:                  -6.374
REMARK INTRA:                  -3.100
REMARK UNBOUND:                -2.697
REMARK SMILES CCCCCCCCC=CCCCCCCCC(=O)[O-]
REMARK SMILES IDX 10 1 9 2 11 3 12 4 13 5 14 6 15 7 16 8 17 9 18 10 19 11
REMARK SMILES IDX 20 12 8 13 7 14 6 15 5 16 4 17 3 18 2 19 1 20
REMARK H PARENT
REMARK Flexibility Score: inf
ROOT
ATOM      1  C   UNL     1      51.201 -14.713 -24.003  1.00  0.00    -0.031 C 
ATOM      2  C   UNL     1      50.320 -14.449 -23.020  1.00  0.00    -0.031 C 
ENDROOT
BRANCH   1   3
ATOM      3  C   UNL     1      50.850 -15.278 -25.358  1.00  0.00     0.027 C 
BRANCH   3   4
ATOM      4  C   UNL     1      51.184 -16.776 -25.445  1.00  0.00     0.004 C 
BRANCH   4   5
ATOM      5  C   UNL     1      49.976 -17.627 -25.864  1.00  0.00     0.000 C 
BRANCH   5   6
ATOM      6  C   UNL     1      49.857 -18.930 -25.055  1.00  0.00     0.000 C 
BRANCH   6   7
ATOM      7  C   UNL     1      48.580 -19.720 -25.410  1.00  0.00     0.000 C 
BRANCH   7   8
ATOM      8  C   UNL     1      47.966 -19.321 -26.762  1.00  0.00     0.006 C 
BRANCH   8   9
ATOM      9  C   UNL     1      48.327 -20.291 -27.893  1.00  0.00     0.053 C 
BRANCH   9  10
ATOM     10  C   UNL     1      49.196 -19.613 -28.906  1.00  0.00     0.041 C 
ATOM     11  O   UNL     1      50.447 -19.600 -28.761  1.00  0.00    -0.550 OA
ATOM     12  O   UNL     1      48.621 -18.954 -29.984  1.00  0.00    -0.550 OA
ENDBRANCH   9  10
ENDBRANCH   8   9
ENDBRANCH   7   8
ENDBRANCH   6   7
ENDBRANCH   5   6
ENDBRANCH   4   5
ENDBRANCH   3   4
ENDBRANCH   1   3
BRANCH   2  13
ATOM     13  C   UNL     1      48.830 -14.702 -23.089  1.00  0.00     0.027 C 
BRANCH  13  14
ATOM     14  C   UNL     1      48.479 -16.127 -22.636  1.00  0.00     0.004 C 
BRANCH  14  15
ATOM     15  C   UNL     1      47.360 -16.754 -23.485  1.00  0.00     0.000 C 
BRANCH  15  16
ATOM     16  C   UNL     1      46.590 -15.710 -24.310  1.00  0.00     0.000 C 
BRANCH  16  17
ATOM     17  C   UNL     1      46.455 -16.086 -25.804  1.00  0.00    -0.000 C 
BRANCH  17  18
ATOM     18  C   UNL     1      47.374 -15.258 -26.724  1.00  0.00    -0.000 C 
BRANCH  18  19
ATOM     19  C   UNL     1      47.028 -13.758 -26.752  1.00  0.00    -0.003 C 
ATOM     20  C   UNL     1      48.195 -12.874 -26.311  1.00  0.00     0.004 C 
ENDBRANCH  18  19
ENDBRANCH  17  18
ENDBRANCH  16  17
ENDBRANCH  15  16
ENDBRANCH  14  15
ENDBRANCH  13  14
ENDBRANCH   2  13
TORSDOF 15
ENDMDL
MODEL 7
REMARK VINA RESULT:    -3.594      2.478      4.901
REMARK INTER + INTRA:          -9.443
REMARK INTER:                  -6.719
REMARK INTRA:                  -2.724
REMARK UNBOUND:                -2.697
REMARK SMILES CCCCCCCCC=CCCCCCCCC(=O)[O-]
REMARK SMILES IDX 10 1 9 2 11 3 12 4 13 5 14 6 15 7 16 8 17 9 18 10 19 11
REMARK SMILES IDX 20 12 8 13 7 14 6 15 5 16 4 17 3 18 2 19 1 20
REMARK H PARENT
REMARK Flexibility Score: inf
ROOT
ATOM      1  C   UNL     1      47.570 -16.847 -24.275  1.00  0.00    -0.031 C 
ATOM      2  C   UNL     1      48.329 -17.465 -25.200  1.00  0.00    -0.031 C 
ENDROOT
BRANCH   1   3
ATOM      3  C   UNL     1      47.926 -16.696 -22.817  1.00  0.00     0.027 C 
BRANCH   3   4
ATOM      4  C   UNL     1      47.273 -15.447 -22.206  1.00  0.00     0.004 C 
BRANCH   4   5
ATOM      5  C   UNL     1      48.258 -14.277 -22.060  1.00  0.00     0.000 C 
BRANCH   5   6
ATOM      6  C   UNL     1      49.719 -14.697 -22.289  1.00  0.00     0.000 C 
BRANCH   6   7
ATOM      7  C   UNL     1      50.279 -14.149 -23.619  1.00  0.00     0.000 C 
BRANCH   7   8
ATOM      8  C   UNL     1      49.299 -13.229 -24.367  1.00  0.00     0.006 C 
BRANCH   8   9
ATOM      9  C   UNL     1      49.213 -13.538 -25.866  1.00  0.00     0.053 C 
BRANCH   9  10
ATOM     10  C   UNL     1      47.824 -13.300 -26.370  1.00  0.00     0.041 C 
ATOM     11  O   UNL     1      47.105 -14.269 -26.729  1.00  0.00    -0.550 OA
ATOM     12  O   UNL     1      47.343 -12.003 -26.490  1.00  0.00    -0.550 OA
ENDBRANCH   9  10
ENDBRANCH   8   9
ENDBRANCH   7   8
ENDBRANCH   6   7
ENDBRANCH   5   6
ENDBRANCH   4   5
ENDBRANCH   3   4
ENDBRANCH   1   3
BRANCH   2  13
ATOM     13  C   UNL     1      49.654 -18.144 -24.933  1.00  0.00     0.027 C 
BRANCH  13  14
ATOM     14  C   UNL     1      50.834 -17.194 -25.185  1.00  0.00     0.004 C 
BRANCH  14  15
ATOM     15  C   UNL     1      50.917 -16.737 -26.651  1.00  0.00     0.000 C 
BRANCH  15  16
ATOM     16  C   UNL     1      52.328 -16.269 -27.044  1.00  0.00     0.000 C 
BRANCH  16  17
ATOM     17  C   UNL     1      52.381 -14.791 -27.496  1.00  0.00    -0.000 C 
BRANCH  17  18
ATOM     18  C   UNL     1      53.024 -13.859 -26.451  1.00  0.00    -0.000 C 
BRANCH  18  19
ATOM     19  C   UNL     1      53.581 -14.602 -25.222  1.00  0.00    -0.003 C 
ATOM     20  C   UNL     1      55.110 -14.634 -25.195  1.00  0.00     0.004 C 
ENDBRANCH  18  19
ENDBRANCH  17  18
ENDBRANCH  16  17
ENDBRANCH  15  16
ENDBRANCH  14  15
ENDBRANCH  13  14
ENDBRANCH   2  13
TORSDOF 15
ENDMDL
MODEL 8
REMARK VINA RESULT:    -3.587      1.882      3.714
REMARK INTER + INTRA:          -9.429
REMARK INTER:                  -6.423
REMARK INTRA:                  -3.006
REMARK UNBOUND:                -2.697
REMARK SMILES CCCCCCCCC=CCCCCCCCC(=O)[O-]
REMARK SMILES IDX 10 1 9 2 11 3 12 4 13 5 14 6 15 7 16 8 17 9 18 10 19 11
REMARK SMILES IDX 20 12 8 13 7 14 6 15 5 16 4 17 3 18 2 19 1 20
REMARK H PARENT
REMARK Flexibility Score: inf
ROOT
ATOM      1  C   UNL     1      49.826 -15.448 -26.627  1.00  0.00    -0.031 C 
ATOM      2  C   UNL     1      48.533 -15.527 -26.995  1.00  0.00    -0.031 C 
ENDROOT
BRANCH   1   3
ATOM      3  C   UNL     1      50.480 -16.290 -25.560  1.00  0.00     0.027 C 
BRANCH   3   4
ATOM      4  C   UNL     1      51.440 -17.323 -26.171  1.00  0.00     0.004 C 
BRANCH   4   5
ATOM      5  C   UNL     1      50.972 -18.769 -25.950  1.00  0.00     0.000 C 
BRANCH   5   6
ATOM      6  C   UNL     1      49.867 -18.880 -24.886  1.00  0.00     0.000 C 
BRANCH   6   7
ATOM      7  C   UNL     1      48.696 -19.770 -25.355  1.00  0.00     0.000 C 
BRANCH   7   8
ATOM      8  C   UNL     1      48.845 -20.272 -26.800  1.00  0.00     0.006 C 
BRANCH   8   9
ATOM      9  C   UNL     1      47.713 -19.798 -27.718  1.00  0.00     0.053 C 
BRANCH   9  10
ATOM     10  C   UNL     1      47.736 -20.554 -29.010  1.00  0.00     0.041 C 
ATOM     11  O   UNL     1      46.694 -21.122 -29.430  1.00  0.00    -0.550 OA
ATOM     12  O   UNL     1      48.921 -20.673 -29.724  1.00  0.00    -0.550 OA
ENDBRANCH   9  10
ENDBRANCH   8   9
ENDBRANCH   7   8
ENDBRANCH   6   7
ENDBRANCH   5   6
ENDBRANCH   4   5
ENDBRANCH   3   4
ENDBRANCH   1   3
BRANCH   2  13
ATOM     13  C   UNL     1      47.504 -16.450 -26.381  1.00  0.00     0.027 C 
BRANCH  13  14
ATOM     14  C   UNL     1      46.333 -15.664 -25.775  1.00  0.00     0.004 C 
BRANCH  14  15
ATOM     15  C   UNL     1      46.459 -15.504 -24.251  1.00  0.00     0.000 C 
BRANCH  15  16
ATOM     16  C   UNL     1      47.231 -16.662 -23.597  1.00  0.00     0.000 C 
BRANCH  16  17
ATOM     17  C   UNL     1      48.413 -16.193 -22.718  1.00  0.00    -0.000 C 
BRANCH  17  18
ATOM     18  C   UNL     1      48.336 -14.699 -22.344  1.00  0.00    -0.000 C 
BRANCH  18  19
ATOM     19  C   UNL     1      49.544 -13.879 -22.831  1.00  0.00    -0.003 C 
ATOM     20  C   UNL     1      49.177 -12.888 -23.937  1.00  0.00     0.004 C 
ENDBRANCH  18  19
ENDBRANCH  17  18
ENDBRANCH  16  17
ENDBRANCH  15  16
ENDBRANCH  14  15
ENDBRANCH  13  14
ENDBRANCH   2  13
TORSDOF 15
ENDMDL
MODEL 9
REMARK VINA RESULT:    -3.567      3.010      4.607
REMARK INTER + INTRA:          -9.391
REMARK INTER:                  -6.158
REMARK INTRA:                  -3.233
REMARK UNBOUND:                -2.697
REMARK SMILES CCCCCCCCC=CCCCCCCCC(=O)[O-]
REMARK SMILES IDX 10 1 9 2 11 3 12 4 13 5 14 6 15 7 16 8 17 9 18 10 19 11
REMARK SMILES IDX 20 12 8 13 7 14 6 15 5 16 4 17 3 18 2 19 1 20
REMARK H PARENT
REMARK Flexibility Score: inf
ROOT
ATOM      1  C   UNL     1      49.806 -15.056 -25.421  1.00  0.00    -0.031 C 
ATOM      2  C   UNL     1      49.678 -15.536 -24.170  1.00  0.00    -0.031 C 
ENDROOT
BRANCH   1   3
ATOM      3  C   UNL     1      49.421 -15.793 -26.680  1.00  0.00     0.027 C 
BRANCH   3   4
ATOM      4  C   UNL     1      47.938 -15.585 -27.022  1.00  0.00     0.004 C 
BRANCH   4   5
ATOM      5  C   UNL     1      47.187 -16.909 -27.230  1.00  0.00     0.000 C 
BRANCH   5   6
ATOM      6  C   UNL     1      48.127 -18.080 -27.560  1.00  0.00     0.000 C 
BRANCH   6   7
ATOM      7  C   UNL     1      48.004 -19.231 -26.538  1.00  0.00     0.000 C 
BRANCH   7   8
ATOM      8  C   UNL     1      49.277 -20.083 -26.416  1.00  0.00     0.006 C 
BRANCH   8   9
ATOM      9  C   UNL     1      50.552 -19.310 -26.770  1.00  0.00     0.053 C 
BRANCH   9  10
ATOM     10  C   UNL     1      51.367 -19.053 -25.541  1.00  0.00     0.041 C 
ATOM     11  O   UNL     1      51.231 -19.785 -24.526  1.00  0.00    -0.550 OA
ATOM     12  O   UNL     1      52.241 -17.974 -25.500  1.00  0.00    -0.550 OA
ENDBRANCH   9  10
ENDBRANCH   8   9
ENDBRANCH   7   8
ENDBRANCH   6   7
ENDBRANCH   5   6
ENDBRANCH   4   5
ENDBRANCH   3   4
ENDBRANCH   1   3
BRANCH   2  13
ATOM     13  C   UNL     1      49.155 -16.909 -23.809  1.00  0.00     0.027 C 
BRANCH  13  14
ATOM     14  C   UNL     1      47.648 -16.880 -23.521  1.00  0.00     0.004 C 
BRANCH  14  15
ATOM     15  C   UNL     1      47.322 -16.225 -22.169  1.00  0.00     0.000 C 
BRANCH  15  16
ATOM     16  C   UNL     1      46.441 -14.973 -22.317  1.00  0.00     0.000 C 
BRANCH  16  17
ATOM     17  C   UNL     1      46.110 -14.625 -23.786  1.00  0.00    -0.000 C 
BRANCH  17  18
ATOM     18  C   UNL     1      46.481 -13.178 -24.167  1.00  0.00    -0.000 C 
BRANCH  18  19
ATOM     19  C   UNL     1      47.415 -12.495 -23.151  1.00  0.00    -0.003 C 
ATOM     20  C   UNL     1      48.674 -11.919 -23.801  1.00  0.00     0.004 C 
ENDBRANCH  18  19
ENDBRANCH  17  18
ENDBRANCH  16  17
ENDBRANCH  15  16
ENDBRANCH  14  15
ENDBRANCH  13  14
ENDBRANCH   2  13
TORSDOF 15
ENDMDL
