MODEL 1
REMARK VINA RESULT:    -4.016      0.000      0.000
REMARK INTER + INTRA:          -4.267
REMARK INTER:                  -4.250
REMARK INTRA:                  -0.017
REMARK UNBOUND:                -0.017
REMARK SMILES O=C([O-])c1cccnc1
REMARK SMILES IDX 4 1 5 2 9 3 6 4 8 5 7 6 2 7 1 8 3 9
REMARK H PARENT
REMARK Flexibility Score: inf
ROOT
ATOM      1  C   UNL     1      28.783  45.089  -0.008  1.00  0.00     0.016 A 
ATOM      2  C   UNL     1      29.162  45.726   1.186  1.00  0.00     0.013 A 
ATOM      3  C   UNL     1      29.527  43.978  -0.439  1.00  0.00     0.120 A 
ATOM      4  C   UNL     1      30.254  45.252   1.915  1.00  0.00     0.021 A 
ATOM      5  N   UNL     1      30.587  43.537   0.291  1.00  0.00    -0.264 NA
ATOM      6  C   UNL     1      30.962  44.144   1.447  1.00  0.00     0.111 A 
ENDROOT
BRANCH   1   7
ATOM      7  C   UNL     1      27.627  45.581  -0.789  1.00  0.00     0.073 C 
ATOM      8  O   UNL     1      26.571  44.900  -0.869  1.00  0.00    -0.545 OA
ATOM      9  O   UNL     1      27.693  46.805  -1.447  1.00  0.00    -0.545 OA
ENDBRANCH   1   7
TORSDOF 1
ENDMDL
MODEL 2
REMARK VINA RESULT:    -3.849     14.673     15.800
REMARK INTER + INTRA:          -4.090
REMARK INTER:                  -4.072
REMARK INTRA:                  -0.019
REMARK UNBOUND:                -0.017
REMARK SMILES O=C([O-])c1cccnc1
REMARK SMILES IDX 4 1 5 2 9 3 6 4 8 5 7 6 2 7 1 8 3 9
REMARK H PARENT
REMARK Flexibility Score: inf
ROOT
ATOM      1  C   UNL     1      25.325  57.279  -9.003  1.00  0.00     0.016 A 
ATOM      2  C   UNL     1      25.988  56.147  -8.500  1.00  0.00     0.013 A 
ATOM      3  C   UNL     1      23.929  57.354  -8.860  1.00  0.00     0.120 A 
ATOM      4  C   UNL     1      25.263  55.132  -7.875  1.00  0.00     0.021 A 
ATOM      5  N   UNL     1      23.246  56.350  -8.247  1.00  0.00    -0.264 NA
ATOM      6  C   UNL     1      23.878  55.251  -7.758  1.00  0.00     0.111 A 
ENDROOT
BRANCH   1   7
ATOM      7  C   UNL     1      26.082  58.363  -9.667  1.00  0.00     0.073 C 
ATOM      8  O   UNL     1      25.914  59.563  -9.325  1.00  0.00    -0.545 OA
ATOM      9  O   UNL     1      26.991  58.069 -10.677  1.00  0.00    -0.545 OA
ENDBRANCH   1   7
TORSDOF 1
ENDMDL
MODEL 3
REMARK VINA RESULT:    -3.820      3.005      4.487
REMARK INTER + INTRA:          -4.060
REMARK INTER:                  -4.043
REMARK INTRA:                  -0.017
REMARK UNBOUND:                -0.017
REMARK SMILES O=C([O-])c1cccnc1
REMARK SMILES IDX 4 1 5 2 9 3 6 4 8 5 7 6 2 7 1 8 3 9
REMARK H PARENT
REMARK Flexibility Score: inf
ROOT
ATOM      1  C   UNL     1      27.212  45.950  -0.770  1.00  0.00     0.016 A 
ATOM      2  C   UNL     1      27.350  47.215  -1.364  1.00  0.00     0.013 A 
ATOM      3  C   UNL     1      25.944  45.342  -0.778  1.00  0.00     0.120 A 
ATOM      4  C   UNL     1      26.246  47.839  -1.947  1.00  0.00     0.021 A 
ATOM      5  N   UNL     1      24.884  45.972  -1.353  1.00  0.00    -0.264 NA
ATOM      6  C   UNL     1      25.007  47.195  -1.930  1.00  0.00     0.111 A 
ENDROOT
BRANCH   1   7
ATOM      7  C   UNL     1      28.374  45.278  -0.149  1.00  0.00     0.073 C 
ATOM      8  O   UNL     1      28.881  44.255  -0.681  1.00  0.00    -0.545 OA
ATOM      9  O   UNL     1      28.923  45.768   1.030  1.00  0.00    -0.545 OA
ENDBRANCH   1   7
TORSDOF 1
ENDMDL
MODEL 4
REMARK VINA RESULT:    -3.819      3.290      4.094
REMARK INTER + INTRA:          -4.059
REMARK INTER:                  -4.039
REMARK INTRA:                  -0.020
REMARK UNBOUND:                -0.017
REMARK SMILES O=C([O-])c1cccnc1
REMARK SMILES IDX 4 1 5 2 9 3 6 4 8 5 7 6 2 7 1 8 3 9
REMARK H PARENT
REMARK Flexibility Score: inf
ROOT
ATOM      1  C   UNL     1      30.936  45.197   2.102  1.00  0.00     0.016 A 
ATOM      2  C   UNL     1      29.670  45.577   1.624  1.00  0.00     0.013 A 
ATOM      3  C   UNL     1      31.609  44.148   1.452  1.00  0.00     0.120 A 
ATOM      4  C   UNL     1      29.111  44.920   0.527  1.00  0.00     0.021 A 
ATOM      5  N   UNL     1      31.040  43.525   0.385  1.00  0.00    -0.264 NA
ATOM      6  C   UNL     1      29.818  43.884  -0.086  1.00  0.00     0.111 A 
ENDROOT
BRANCH   1   7
ATOM      7  C   UNL     1      31.540  45.886   3.263  1.00  0.00     0.073 C 
ATOM      8  O   UNL     1      32.190  45.237   4.125  1.00  0.00    -0.545 OA
ATOM      9  O   UNL     1      31.398  47.260   3.418  1.00  0.00    -0.545 OA
ENDBRANCH   1   7
TORSDOF 1
ENDMDL
MODEL 5
REMARK VINA RESULT:    -3.698     18.006     18.367
REMARK INTER + INTRA:          -3.931
REMARK INTER:                  -3.912
REMARK INTRA:                  -0.019
REMARK UNBOUND:                -0.017
REMARK SMILES O=C([O-])c1cccnc1
REMARK SMILES IDX 4 1 5 2 9 3 6 4 8 5 7 6 2 7 1 8 3 9
REMARK H PARENT
REMARK Flexibility Score: inf
ROOT
ATOM      1  C   UNL     1      29.285  58.892 -11.579  1.00  0.00     0.016 A 
ATOM      2  C   UNL     1      29.369  58.114 -12.746  1.00  0.00     0.013 A 
ATOM      3  C   UNL     1      30.479  59.335 -10.984  1.00  0.00     0.120 A 
ATOM      4  C   UNL     1      30.616  57.799 -13.289  1.00  0.00     0.021 A 
ATOM      5  N   UNL     1      31.681  59.012 -11.533  1.00  0.00    -0.264 NA
ATOM      6  C   UNL     1      31.773  58.261 -12.661  1.00  0.00     0.111 A 
ENDROOT
BRANCH   1   7
ATOM      7  C   UNL     1      27.970  59.234 -10.995  1.00  0.00     0.073 C 
ATOM      8  O   UNL     1      27.706  60.419 -10.661  1.00  0.00    -0.545 OA
ATOM      9  O   UNL     1      27.007  58.249 -10.807  1.00  0.00    -0.545 OA
ENDBRANCH   1   7
TORSDOF 1
ENDMDL
MODEL 6
REMARK VINA RESULT:    -3.696      3.252      3.996
REMARK INTER + INTRA:          -3.929
REMARK INTER:                  -3.907
REMARK INTRA:                  -0.022
REMARK UNBOUND:                -0.017
REMARK SMILES O=C([O-])c1cccnc1
REMARK SMILES IDX 4 1 5 2 9 3 6 4 8 5 7 6 2 7 1 8 3 9
REMARK H PARENT
REMARK Flexibility Score: inf
ROOT
ATOM      1  C   UNL     1      31.398  45.715   2.341  1.00  0.00     0.016 A 
ATOM      2  C   UNL     1      31.118  46.614   3.383  1.00  0.00     0.013 A 
ATOM      3  C   UNL     1      32.743  45.463   2.018  1.00  0.00     0.120 A 
ATOM      4  C   UNL     1      32.162  47.233   4.072  1.00  0.00     0.021 A 
ATOM      5  N   UNL     1      33.741  46.080   2.706  1.00  0.00    -0.264 NA
ATOM      6  C   UNL     1      33.481  46.951   3.715  1.00  0.00     0.111 A 
ENDROOT
BRANCH   1   7
ATOM      7  C   UNL     1      30.301  45.052   1.603  1.00  0.00     0.073 C 
ATOM      8  O   UNL     1      29.189  45.625   1.458  1.00  0.00    -0.545 OA
ATOM      9  O   UNL     1      30.484  43.786   1.059  1.00  0.00    -0.545 OA
ENDBRANCH   1   7
TORSDOF 1
ENDMDL
MODEL 7
REMARK VINA RESULT:    -3.662     11.703     13.081
REMARK INTER + INTRA:          -3.893
REMARK INTER:                  -3.870
REMARK INTRA:                  -0.023
REMARK UNBOUND:                -0.017
REMARK SMILES O=C([O-])c1cccnc1
REMARK SMILES IDX 4 1 5 2 9 3 6 4 8 5 7 6 2 7 1 8 3 9
REMARK H PARENT
REMARK Flexibility Score: inf
ROOT
ATOM      1  C   UNL     1      16.747  44.263   0.805  1.00  0.00     0.016 A 
ATOM      2  C   UNL     1      15.771  44.264   1.816  1.00  0.00     0.013 A 
ATOM      3  C   UNL     1      16.487  44.980  -0.375  1.00  0.00     0.120 A 
ATOM      4  C   UNL     1      14.580  44.969   1.638  1.00  0.00     0.021 A 
ATOM      5  N   UNL     1      15.317  45.659  -0.523  1.00  0.00    -0.264 NA
ATOM      6  C   UNL     1      14.368  45.668   0.449  1.00  0.00     0.111 A 
ENDROOT
BRANCH   1   7
ATOM      7  C   UNL     1      18.014  43.520   0.982  1.00  0.00     0.073 C 
ATOM      8  O   UNL     1      18.749  43.264  -0.008  1.00  0.00    -0.545 OA
ATOM      9  O   UNL     1      18.409  43.095   2.245  1.00  0.00    -0.545 OA
ENDBRANCH   1   7
TORSDOF 1
ENDMDL
MODEL 8
REMARK VINA RESULT:    -3.656     10.977     11.824
REMARK INTER + INTRA:          -3.887
REMARK INTER:                  -3.866
REMARK INTRA:                  -0.021
REMARK UNBOUND:                -0.017
REMARK SMILES O=C([O-])c1cccnc1
REMARK SMILES IDX 4 1 5 2 9 3 6 4 8 5 7 6 2 7 1 8 3 9
REMARK H PARENT
REMARK Flexibility Score: inf
ROOT
ATOM      1  C   UNL     1      17.136  44.021   0.549  1.00  0.00     0.016 A 
ATOM      2  C   UNL     1      17.468  43.853   1.903  1.00  0.00     0.013 A 
ATOM      3  C   UNL     1      17.812  43.244  -0.408  1.00  0.00     0.120 A 
ATOM      4  C   UNL     1      18.447  42.929   2.274  1.00  0.00     0.021 A 
ATOM      5  N   UNL     1      18.762  42.351  -0.019  1.00  0.00    -0.264 NA
ATOM      6  C   UNL     1      19.090  42.179   1.288  1.00  0.00     0.111 A 
ENDROOT
BRANCH   1   7
ATOM      7  C   UNL     1      16.100  44.997   0.143  1.00  0.00     0.073 C 
ATOM      8  O   UNL     1      16.201  45.622  -0.946  1.00  0.00    -0.545 OA
ATOM      9  O   UNL     1      15.001  45.236   0.960  1.00  0.00    -0.545 OA
ENDBRANCH   1   7
TORSDOF 1
ENDMDL
MODEL 9
REMARK VINA RESULT:    -3.628     18.282     18.751
REMARK INTER + INTRA:          -3.857
REMARK INTER:                  -3.838
REMARK INTRA:                  -0.020
REMARK UNBOUND:                -0.017
REMARK SMILES O=C([O-])c1cccnc1
REMARK SMILES IDX 4 1 5 2 9 3 6 4 8 5 7 6 2 7 1 8 3 9
REMARK H PARENT
REMARK Flexibility Score: inf
ROOT
ATOM      1  C   UNL     1      31.028  58.366 -12.605  1.00  0.00     0.016 A 
ATOM      2  C   UNL     1      29.624  58.387 -12.602  1.00  0.00     0.013 A 
ATOM      3  C   UNL     1      31.708  58.960 -11.527  1.00  0.00     0.120 A 
ATOM      4  C   UNL     1      28.935  58.985 -11.546  1.00  0.00     0.021 A 
ATOM      5  N   UNL     1      31.012  59.537 -10.510  1.00  0.00    -0.264 NA
ATOM      6  C   UNL     1      29.654  59.562 -10.498  1.00  0.00     0.111 A 
ENDROOT
BRANCH   1   7
ATOM      7  C   UNL     1      31.770  57.735 -13.718  1.00  0.00     0.073 C 
ATOM      8  O   UNL     1      31.445  56.593 -14.137  1.00  0.00    -0.545 OA
ATOM      9  O   UNL     1      32.837  58.396 -14.316  1.00  0.00    -0.545 OA
ENDBRANCH   1   7
TORSDOF 1
ENDMDL
