MODEL 1
REMARK VINA RESULT:    -3.584      0.000      0.000
REMARK INTER + INTRA:          -4.539
REMARK INTER:                  -4.423
REMARK INTRA:                  -0.116
REMARK UNBOUND:                -0.116
REMARK SMILES CCCCCC(=O)[O-]
REMARK SMILES IDX 4 1 5 2 6 3 7 4 8 5 3 6 2 7 1 8
REMARK H PARENT
REMARK Flexibility Score: inf
ROOT
ATOM      1  C   UNL     1       6.902  13.454  23.212  1.00  0.00     0.006 C 
ENDROOT
BRANCH   1   2
ATOM      2  C   UNL     1       7.639  14.294  22.162  1.00  0.00     0.053 C 
BRANCH   2   3
ATOM      3  C   UNL     1       9.093  13.940  22.137  1.00  0.00     0.041 C 
ATOM      4  O   UNL     1       9.857  14.338  23.055  1.00  0.00    -0.550 OA
ATOM      5  O   UNL     1       9.595  13.129  21.127  1.00  0.00    -0.550 OA
ENDBRANCH   2   3
ENDBRANCH   1   2
BRANCH   1   6
ATOM      6  C   UNL     1       7.093  11.945  23.004  1.00  0.00     0.000 C 
BRANCH   6   7
ATOM      7  C   UNL     1       6.167  11.376  21.917  1.00  0.00    -0.003 C 
ATOM      8  C   UNL     1       4.914  10.760  22.531  1.00  0.00     0.004 C 
ENDBRANCH   6   7
ENDBRANCH   1   6
TORSDOF 4
ENDMDL
MODEL 2
REMARK VINA RESULT:    -3.502      0.997      1.320
REMARK INTER + INTRA:          -4.438
REMARK INTER:                  -4.360
REMARK INTRA:                  -0.077
REMARK UNBOUND:                -0.116
REMARK SMILES CCCCCC(=O)[O-]
REMARK SMILES IDX 4 1 5 2 6 3 7 4 8 5 3 6 2 7 1 8
REMARK H PARENT
REMARK Flexibility Score: inf
ROOT
ATOM      1  C   UNL     1       7.539  13.003  21.897  1.00  0.00     0.006 C 
ENDROOT
BRANCH   1   2
ATOM      2  C   UNL     1       8.080  14.400  22.226  1.00  0.00     0.053 C 
BRANCH   2   3
ATOM      3  C   UNL     1       9.575  14.382  22.284  1.00  0.00     0.041 C 
ATOM      4  O   UNL     1      10.193  13.286  22.311  1.00  0.00    -0.550 OA
ATOM      5  O   UNL     1      10.287  15.574  22.259  1.00  0.00    -0.550 OA
ENDBRANCH   2   3
ENDBRANCH   1   2
BRANCH   1   6
ATOM      6  C   UNL     1       6.622  12.449  22.998  1.00  0.00     0.000 C 
BRANCH   6   7
ATOM      7  C   UNL     1       6.269  10.969  22.785  1.00  0.00    -0.003 C 
ATOM      8  C   UNL     1       4.796  10.802  22.427  1.00  0.00     0.004 C 
ENDBRANCH   6   7
ENDBRANCH   1   6
TORSDOF 4
ENDMDL
MODEL 3
REMARK VINA RESULT:    -3.396      2.024      2.509
REMARK INTER + INTRA:          -4.307
REMARK INTER:                  -4.140
REMARK INTRA:                  -0.167
REMARK UNBOUND:                -0.116
REMARK SMILES CCCCCC(=O)[O-]
REMARK SMILES IDX 4 1 5 2 6 3 7 4 8 5 3 6 2 7 1 8
REMARK H PARENT
REMARK Flexibility Score: inf
ROOT
ATOM      1  C   UNL     1       7.494  13.010  21.608  1.00  0.00     0.006 C 
ENDROOT
BRANCH   1   2
ATOM      2  C   UNL     1       8.901  12.432  21.414  1.00  0.00     0.053 C 
BRANCH   2   3
ATOM      3  C   UNL     1       8.989  11.694  20.115  1.00  0.00     0.041 C 
ATOM      4  O   UNL     1       8.286  10.668  19.922  1.00  0.00    -0.550 OA
ATOM      5  O   UNL     1       9.809  12.168  19.099  1.00  0.00    -0.550 OA
ENDBRANCH   2   3
ENDBRANCH   1   2
BRANCH   1   6
ATOM      6  C   UNL     1       6.844  12.556  22.924  1.00  0.00     0.000 C 
BRANCH   6   7
ATOM      7  C   UNL     1       6.467  11.067  22.914  1.00  0.00    -0.003 C 
ATOM      8  C   UNL     1       5.012  10.871  22.502  1.00  0.00     0.004 C 
ENDBRANCH   6   7
ENDBRANCH   1   6
TORSDOF 4
ENDMDL
MODEL 4
REMARK VINA RESULT:    -3.359      1.113      1.215
REMARK INTER + INTRA:          -4.260
REMARK INTER:                  -4.157
REMARK INTRA:                  -0.104
REMARK UNBOUND:                -0.116
REMARK SMILES CCCCCC(=O)[O-]
REMARK SMILES IDX 4 1 5 2 6 3 7 4 8 5 3 6 2 7 1 8
REMARK H PARENT
REMARK Flexibility Score: inf
ROOT
ATOM      1  C   UNL     1       7.914  12.651  21.491  1.00  0.00     0.006 C 
ENDROOT
BRANCH   1   2
ATOM      2  C   UNL     1       8.117  13.959  22.266  1.00  0.00     0.053 C 
BRANCH   2   3
ATOM      3  C   UNL     1       9.563  14.346  22.267  1.00  0.00     0.041 C 
ATOM      4  O   UNL     1       9.893  15.560  22.288  1.00  0.00    -0.550 OA
ATOM      5  O   UNL     1      10.545  13.365  22.297  1.00  0.00    -0.550 OA
ENDBRANCH   2   3
ENDBRANCH   1   2
BRANCH   1   6
ATOM      6  C   UNL     1       7.411  11.506  22.384  1.00  0.00     0.000 C 
BRANCH   6   7
ATOM      7  C   UNL     1       6.023  11.788  22.980  1.00  0.00    -0.003 C 
ATOM      8  C   UNL     1       4.997  10.774  22.485  1.00  0.00     0.004 C 
ENDBRANCH   6   7
ENDBRANCH   1   6
TORSDOF 4
ENDMDL
MODEL 5
REMARK VINA RESULT:    -3.322      7.405      8.134
REMARK INTER + INTRA:          -4.214
REMARK INTER:                  -3.968
REMARK INTRA:                  -0.247
REMARK UNBOUND:                -0.116
REMARK SMILES CCCCCC(=O)[O-]
REMARK SMILES IDX 4 1 5 2 6 3 7 4 8 5 3 6 2 7 1 8
REMARK H PARENT
REMARK Flexibility Score: inf
ROOT
ATOM      1  C   UNL     1      12.766  17.083  24.718  1.00  0.00     0.006 C 
ENDROOT
BRANCH   1   2
ATOM      2  C   UNL     1      14.146  17.374  24.116  1.00  0.00     0.053 C 
BRANCH   2   3
ATOM      3  C   UNL     1      14.007  18.097  22.814  1.00  0.00     0.041 C 
ATOM      4  O   UNL     1      13.937  19.354  22.792  1.00  0.00    -0.550 OA
ATOM      5  O   UNL     1      14.004  17.387  21.620  1.00  0.00    -0.550 OA
ENDBRANCH   2   3
ENDBRANCH   1   2
BRANCH   1   6
ATOM      6  C   UNL     1      12.562  17.757  26.083  1.00  0.00     0.000 C 
BRANCH   6   7
ATOM      7  C   UNL     1      12.090  19.214  25.958  1.00  0.00    -0.003 C 
ATOM      8  C   UNL     1      10.985  19.346  24.916  1.00  0.00     0.004 C 
ENDBRANCH   6   7
ENDBRANCH   1   6
TORSDOF 4
ENDMDL
MODEL 6
REMARK VINA RESULT:    -3.292      7.999      8.739
REMARK INTER + INTRA:          -4.178
REMARK INTER:                  -3.959
REMARK INTRA:                  -0.219
REMARK UNBOUND:                -0.116
REMARK SMILES CCCCCC(=O)[O-]
REMARK SMILES IDX 4 1 5 2 6 3 7 4 8 5 3 6 2 7 1 8
REMARK H PARENT
REMARK Flexibility Score: inf
ROOT
ATOM      1  C   UNL     1      13.910  17.422  24.143  1.00  0.00     0.006 C 
ENDROOT
BRANCH   1   2
ATOM      2  C   UNL     1      14.688  18.739  24.037  1.00  0.00     0.053 C 
BRANCH   2   3
ATOM      3  C   UNL     1      14.486  19.358  22.690  1.00  0.00     0.041 C 
ATOM      4  O   UNL     1      15.473  19.582  21.941  1.00  0.00    -0.550 OA
ATOM      5  O   UNL     1      13.203  19.643  22.240  1.00  0.00    -0.550 OA
ENDBRANCH   2   3
ENDBRANCH   1   2
BRANCH   1   6
ATOM      6  C   UNL     1      12.894  17.426  25.295  1.00  0.00     0.000 C 
BRANCH   6   7
ATOM      7  C   UNL     1      12.489  18.845  25.721  1.00  0.00    -0.003 C 
ATOM      8  C   UNL     1      11.150  19.241  25.108  1.00  0.00     0.004 C 
ENDBRANCH   6   7
ENDBRANCH   1   6
TORSDOF 4
ENDMDL
MODEL 7
REMARK VINA RESULT:    -3.209      7.581      8.832
REMARK INTER + INTRA:          -4.075
REMARK INTER:                  -3.822
REMARK INTRA:                  -0.253
REMARK UNBOUND:                -0.116
REMARK SMILES CCCCCC(=O)[O-]
REMARK SMILES IDX 4 1 5 2 6 3 7 4 8 5 3 6 2 7 1 8
REMARK H PARENT
REMARK Flexibility Score: inf
ROOT
ATOM      1  C   UNL     1      13.873  17.276  24.113  1.00  0.00     0.006 C 
ENDROOT
BRANCH   1   2
ATOM      2  C   UNL     1      12.947  17.145  25.329  1.00  0.00     0.053 C 
BRANCH   2   3
ATOM      3  C   UNL     1      11.920  18.233  25.323  1.00  0.00     0.041 C 
ATOM      4  O   UNL     1      11.896  19.085  26.249  1.00  0.00    -0.550 OA
ATOM      5  O   UNL     1      11.022  18.337  24.269  1.00  0.00    -0.550 OA
ENDBRANCH   2   3
ENDBRANCH   1   2
BRANCH   1   6
ATOM      6  C   UNL     1      14.598  18.630  24.065  1.00  0.00     0.000 C 
BRANCH   6   7
ATOM      7  C   UNL     1      14.580  19.260  22.664  1.00  0.00    -0.003 C 
ATOM      8  C   UNL     1      13.505  20.337  22.561  1.00  0.00     0.004 C 
ENDBRANCH   6   7
ENDBRANCH   1   6
TORSDOF 4
ENDMDL
MODEL 8
REMARK VINA RESULT:    -3.168      2.532      3.948
REMARK INTER + INTRA:          -4.025
REMARK INTER:                  -3.805
REMARK INTRA:                  -0.221
REMARK UNBOUND:                -0.116
REMARK SMILES CCCCCC(=O)[O-]
REMARK SMILES IDX 4 1 5 2 6 3 7 4 8 5 3 6 2 7 1 8
REMARK H PARENT
REMARK Flexibility Score: inf
ROOT
ATOM      1  C   UNL     1       7.367  13.381  22.005  1.00  0.00     0.006 C 
ENDROOT
BRANCH   1   2
ATOM      2  C   UNL     1       6.625  12.631  23.118  1.00  0.00     0.053 C 
BRANCH   2   3
ATOM      3  C   UNL     1       6.225  11.266  22.653  1.00  0.00     0.041 C 
ATOM      4  O   UNL     1       5.008  10.951  22.588  1.00  0.00    -0.550 OA
ATOM      5  O   UNL     1       7.193  10.359  22.241  1.00  0.00    -0.550 OA
ENDBRANCH   2   3
ENDBRANCH   1   2
BRANCH   1   6
ATOM      6  C   UNL     1       8.719  13.941  22.469  1.00  0.00     0.000 C 
BRANCH   6   7
ATOM      7  C   UNL     1       9.890  12.996  22.156  1.00  0.00    -0.003 C 
ATOM      8  C   UNL     1       9.757  12.403  20.757  1.00  0.00     0.004 C 
ENDBRANCH   6   7
ENDBRANCH   1   6
TORSDOF 4
ENDMDL
MODEL 9
REMARK VINA RESULT:    -3.167      6.195      7.872
REMARK INTER + INTRA:          -4.024
REMARK INTER:                  -3.845
REMARK INTRA:                  -0.179
REMARK UNBOUND:                -0.116
REMARK SMILES CCCCCC(=O)[O-]
REMARK SMILES IDX 4 1 5 2 6 3 7 4 8 5 3 6 2 7 1 8
REMARK H PARENT
REMARK Flexibility Score: inf
ROOT
ATOM      1  C   UNL     1      13.248  18.600  24.994  1.00  0.00     0.006 C 
ENDROOT
BRANCH   1   2
ATOM      2  C   UNL     1      14.391  18.142  24.079  1.00  0.00     0.053 C 
BRANCH   2   3
ATOM      3  C   UNL     1      14.188  18.660  22.690  1.00  0.00     0.041 C 
ATOM      4  O   UNL     1      13.145  18.366  22.050  1.00  0.00    -0.550 OA
ATOM      5  O   UNL     1      15.128  19.510  22.121  1.00  0.00    -0.550 OA
ENDBRANCH   2   3
ENDBRANCH   1   2
BRANCH   1   6
ATOM      6  C   UNL     1      12.587  17.435  25.744  1.00  0.00     0.000 C 
BRANCH   6   7
ATOM      7  C   UNL     1      12.789  16.086  25.037  1.00  0.00    -0.003 C 
ATOM      8  C   UNL     1      11.450  15.441  24.691  1.00  0.00     0.004 C 
ENDBRANCH   6   7
ENDBRANCH   1   6
TORSDOF 4
ENDMDL
