MODEL 1
REMARK VINA RESULT:    -4.467      0.000      0.000
REMARK INTER + INTRA:          -7.137
REMARK INTER:                  -6.817
REMARK INTRA:                  -0.320
REMARK UNBOUND:                -0.320
REMARK SMILES O=C([O-])CCCCCCCCC(=O)[O-]
REMARK SMILES IDX 7 1 6 2 5 3 4 4 2 5 1 6 3 7 8 8 9 9 10 10 11 11 12 12 13 13
REMARK SMILES IDX 14 14
REMARK H PARENT
REMARK Flexibility Score: inf
ROOT
ATOM      1  C   UNL     1       4.247 -36.669  20.047  1.00  0.00     0.000 C 
ENDROOT
BRANCH   1   2
ATOM      2  C   UNL     1       5.734 -36.316  20.213  1.00  0.00     0.000 C 
BRANCH   2   3
ATOM      3  C   UNL     1       6.021 -35.549  21.515  1.00  0.00     0.006 C 
BRANCH   3   4
ATOM      4  C   UNL     1       5.874 -36.439  22.756  1.00  0.00     0.053 C 
BRANCH   4   5
ATOM      5  C   UNL     1       5.812 -35.631  24.016  1.00  0.00     0.041 C 
ATOM      6  O   UNL     1       5.973 -34.383  23.978  1.00  0.00    -0.550 OA
ATOM      7  O   UNL     1       5.550 -36.254  25.230  1.00  0.00    -0.550 OA
ENDBRANCH   4   5
ENDBRANCH   3   4
ENDBRANCH   2   3
ENDBRANCH   1   2
BRANCH   1   8
ATOM      8  C   UNL     1       3.978 -37.523  18.795  1.00  0.00     0.000 C 
BRANCH   8   9
ATOM      9  C   UNL     1       2.478 -37.734  18.535  1.00  0.00     0.000 C 
BRANCH   9  10
ATOM     10  C   UNL     1       2.032 -37.197  17.164  1.00  0.00     0.006 C 
BRANCH  10  11
ATOM     11  C   UNL     1       3.215 -36.682  16.332  1.00  0.00     0.053 C 
BRANCH  11  12
ATOM     12  C   UNL     1       3.154 -37.168  14.915  1.00  0.00     0.041 C 
ATOM     13  O   UNL     1       2.246 -36.760  14.145  1.00  0.00    -0.550 OA
ATOM     14  O   UNL     1       4.117 -38.047  14.439  1.00  0.00    -0.550 OA
ENDBRANCH  11  12
ENDBRANCH  10  11
ENDBRANCH   9  10
ENDBRANCH   8   9
ENDBRANCH   1   8
TORSDOF 9
ENDMDL
MODEL 2
REMARK VINA RESULT:    -4.370      0.819      7.777
REMARK INTER + INTRA:          -6.988
REMARK INTER:                  -6.690
REMARK INTRA:                  -0.299
REMARK UNBOUND:                -0.320
REMARK SMILES O=C([O-])CCCCCCCCC(=O)[O-]
REMARK SMILES IDX 7 1 6 2 5 3 4 4 2 5 1 6 3 7 8 8 9 9 10 10 11 11 12 12 13 13
REMARK SMILES IDX 14 14
REMARK H PARENT
REMARK Flexibility Score: inf
ROOT
ATOM      1  C   UNL     1       3.431 -37.771  19.251  1.00  0.00     0.000 C 
ENDROOT
BRANCH   1   2
ATOM      2  C   UNL     1       3.511 -37.088  17.876  1.00  0.00     0.000 C 
BRANCH   2   3
ATOM      3  C   UNL     1       2.313 -37.430  16.973  1.00  0.00     0.006 C 
BRANCH   3   4
ATOM      4  C   UNL     1       2.387 -36.714  15.618  1.00  0.00     0.053 C 
BRANCH   4   5
ATOM      5  C   UNL     1       3.445 -37.302  14.735  1.00  0.00     0.041 C 
ATOM      6  O   UNL     1       4.024 -36.587  13.875  1.00  0.00    -0.550 OA
ATOM      7  O   UNL     1       3.810 -38.634  14.880  1.00  0.00    -0.550 OA
ENDBRANCH   4   5
ENDBRANCH   3   4
ENDBRANCH   2   3
ENDBRANCH   1   2
BRANCH   1   8
ATOM      8  C   UNL     1       4.658 -37.474  20.131  1.00  0.00     0.000 C 
BRANCH   8   9
ATOM      9  C   UNL     1       4.962 -35.970  20.233  1.00  0.00     0.000 C 
BRANCH   9  10
ATOM     10  C   UNL     1       6.073 -35.657  21.250  1.00  0.00     0.006 C 
BRANCH  10  11
ATOM     11  C   UNL     1       5.971 -36.534  22.506  1.00  0.00     0.053 C 
BRANCH  11  12
ATOM     12  C   UNL     1       5.928 -35.711  23.759  1.00  0.00     0.041 C 
ATOM     13  O   UNL     1       5.975 -34.456  23.693  1.00  0.00    -0.550 OA
ATOM     14  O   UNL     1       5.805 -36.332  24.995  1.00  0.00    -0.550 OA
ENDBRANCH  11  12
ENDBRANCH  10  11
ENDBRANCH   9  10
ENDBRANCH   8   9
ENDBRANCH   1   8
TORSDOF 9
ENDMDL
MODEL 3
REMARK VINA RESULT:    -4.226      0.583      7.964
REMARK INTER + INTRA:          -6.768
REMARK INTER:                  -6.431
REMARK INTRA:                  -0.337
REMARK UNBOUND:                -0.320
REMARK SMILES O=C([O-])CCCCCCCCC(=O)[O-]
REMARK SMILES IDX 7 1 6 2 5 3 4 4 2 5 1 6 3 7 8 8 9 9 10 10 11 11 12 12 13 13
REMARK SMILES IDX 14 14
REMARK H PARENT
REMARK Flexibility Score: inf
ROOT
ATOM      1  C   UNL     1       3.404 -37.492  19.770  1.00  0.00     0.000 C 
ENDROOT
BRANCH   1   2
ATOM      2  C   UNL     1       2.559 -37.663  18.497  1.00  0.00     0.000 C 
BRANCH   2   3
ATOM      3  C   UNL     1       3.384 -37.493  17.210  1.00  0.00     0.006 C 
BRANCH   3   4
ATOM      4  C   UNL     1       2.701 -36.556  16.204  1.00  0.00     0.053 C 
BRANCH   4   5
ATOM      5  C   UNL     1       2.880 -37.029  14.794  1.00  0.00     0.041 C 
ATOM      6  O   UNL     1       2.051 -36.700  13.904  1.00  0.00    -0.550 OA
ATOM      7  O   UNL     1       3.978 -37.810  14.456  1.00  0.00    -0.550 OA
ENDBRANCH   4   5
ENDBRANCH   3   4
ENDBRANCH   2   3
ENDBRANCH   1   2
BRANCH   1   8
ATOM      8  C   UNL     1       4.378 -36.304  19.678  1.00  0.00     0.000 C 
BRANCH   8   9
ATOM      9  C   UNL     1       5.706 -36.571  20.406  1.00  0.00     0.000 C 
BRANCH   9  10
ATOM     10  C   UNL     1       5.924 -35.632  21.604  1.00  0.00     0.006 C 
BRANCH  10  11
ATOM     11  C   UNL     1       5.877 -36.381  22.944  1.00  0.00     0.053 C 
BRANCH  11  12
ATOM     12  C   UNL     1       6.033 -35.452  24.109  1.00  0.00     0.041 C 
ATOM     13  O   UNL     1       6.125 -35.912  25.277  1.00  0.00    -0.550 OA
ATOM     14  O   UNL     1       6.106 -34.081  23.902  1.00  0.00    -0.550 OA
ENDBRANCH  11  12
ENDBRANCH  10  11
ENDBRANCH   9  10
ENDBRANCH   8   9
ENDBRANCH   1   8
TORSDOF 9
ENDMDL
MODEL 4
REMARK VINA RESULT:    -3.620      1.561      2.444
REMARK INTER + INTRA:          -5.845
REMARK INTER:                  -5.335
REMARK INTRA:                  -0.509
REMARK UNBOUND:                -0.320
REMARK SMILES O=C([O-])CCCCCCCCC(=O)[O-]
REMARK SMILES IDX 7 1 6 2 5 3 4 4 2 5 1 6 3 7 8 8 9 9 10 10 11 11 12 12 13 13
REMARK SMILES IDX 14 14
REMARK H PARENT
REMARK Flexibility Score: inf
ROOT
ATOM      1  C   UNL     1       4.294 -35.587  21.452  1.00  0.00     0.000 C 
ENDROOT
BRANCH   1   2
ATOM      2  C   UNL     1       4.760 -34.817  22.698  1.00  0.00     0.000 C 
BRANCH   2   3
ATOM      3  C   UNL     1       6.125 -35.301  23.219  1.00  0.00     0.006 C 
BRANCH   3   4
ATOM      4  C   UNL     1       6.069 -35.711  24.696  1.00  0.00     0.053 C 
BRANCH   4   5
ATOM      5  C   UNL     1       5.452 -37.065  24.874  1.00  0.00     0.041 C 
ATOM      6  O   UNL     1       5.722 -37.996  24.070  1.00  0.00    -0.550 OA
ATOM      7  O   UNL     1       4.600 -37.305  25.944  1.00  0.00    -0.550 OA
ENDBRANCH   4   5
ENDBRANCH   3   4
ENDBRANCH   2   3
ENDBRANCH   1   2
BRANCH   1   8
ATOM      8  C   UNL     1       5.383 -36.519  20.890  1.00  0.00     0.000 C 
BRANCH   8   9
ATOM      9  C   UNL     1       4.840 -37.491  19.831  1.00  0.00     0.000 C 
BRANCH   9  10
ATOM     10  C   UNL     1       3.800 -36.838  18.904  1.00  0.00     0.006 C 
BRANCH  10  11
ATOM     11  C   UNL     1       3.068 -37.872  18.036  1.00  0.00     0.053 C 
BRANCH  11  12
ATOM     12  C   UNL     1       2.823 -37.362  16.648  1.00  0.00     0.041 C 
ATOM     13  O   UNL     1       3.475 -37.830  15.678  1.00  0.00    -0.550 OA
ATOM     14  O   UNL     1       1.855 -36.393  16.423  1.00  0.00    -0.550 OA
ENDBRANCH  11  12
ENDBRANCH  10  11
ENDBRANCH   9  10
ENDBRANCH   8   9
ENDBRANCH   1   8
TORSDOF 9
ENDMDL
MODEL 5
REMARK VINA RESULT:    -3.531      2.138      7.322
REMARK INTER + INTRA:          -5.708
REMARK INTER:                  -5.513
REMARK INTRA:                  -0.195
REMARK UNBOUND:                -0.320
REMARK SMILES O=C([O-])CCCCCCCCC(=O)[O-]
REMARK SMILES IDX 7 1 6 2 5 3 4 4 2 5 1 6 3 7 8 8 9 9 10 10 11 11 12 12 13 13
REMARK SMILES IDX 14 14
REMARK H PARENT
REMARK Flexibility Score: inf
ROOT
ATOM      1  C   UNL     1       2.119 -37.881  18.392  1.00  0.00     0.000 C 
ENDROOT
BRANCH   1   2
ATOM      2  C   UNL     1       2.948 -37.651  17.117  1.00  0.00     0.000 C 
BRANCH   2   3
ATOM      3  C   UNL     1       2.370 -36.537  16.227  1.00  0.00     0.006 C 
BRANCH   3   4
ATOM      4  C   UNL     1       2.429 -36.898  14.737  1.00  0.00     0.053 C 
BRANCH   4   5
ATOM      5  C   UNL     1       3.752 -37.491  14.360  1.00  0.00     0.041 C 
ATOM      6  O   UNL     1       4.659 -36.764  13.875  1.00  0.00    -0.550 OA
ATOM      7  O   UNL     1       3.993 -38.843  14.570  1.00  0.00    -0.550 OA
ENDBRANCH   4   5
ENDBRANCH   3   4
ENDBRANCH   2   3
ENDBRANCH   1   2
BRANCH   1   8
ATOM      8  C   UNL     1       2.883 -37.496  19.671  1.00  0.00     0.000 C 
BRANCH   8   9
ATOM      9  C   UNL     1       4.179 -36.724  19.374  1.00  0.00     0.000 C 
BRANCH   9  10
ATOM     10  C   UNL     1       5.327 -37.105  20.324  1.00  0.00     0.006 C 
BRANCH  10  11
ATOM     11  C   UNL     1       5.549 -38.624  20.383  1.00  0.00     0.053 C 
BRANCH  11  12
ATOM     12  C   UNL     1       5.663 -39.116  21.794  1.00  0.00     0.041 C 
ATOM     13  O   UNL     1       5.702 -40.351  22.032  1.00  0.00    -0.550 OA
ATOM     14  O   UNL     1       5.756 -38.210  22.842  1.00  0.00    -0.550 OA
ENDBRANCH  11  12
ENDBRANCH  10  11
ENDBRANCH   9  10
ENDBRANCH   8   9
ENDBRANCH   1   8
TORSDOF 9
ENDMDL
MODEL 6
REMARK VINA RESULT:    -3.303      1.533      7.281
REMARK INTER + INTRA:          -5.360
REMARK INTER:                  -5.420
REMARK INTRA:                   0.060
REMARK UNBOUND:                -0.320
REMARK SMILES O=C([O-])CCCCCCCCC(=O)[O-]
REMARK SMILES IDX 7 1 6 2 5 3 4 4 2 5 1 6 3 7 8 8 9 9 10 10 11 11 12 12 13 13
REMARK SMILES IDX 14 14
REMARK H PARENT
REMARK Flexibility Score: inf
ROOT
ATOM      1  C   UNL     1       1.698 -37.530  17.942  1.00  0.00     0.000 C 
ENDROOT
BRANCH   1   2
ATOM      2  C   UNL     1       2.699 -37.246  16.810  1.00  0.00     0.000 C 
BRANCH   2   3
ATOM      3  C   UNL     1       2.113 -36.340  15.713  1.00  0.00     0.006 C 
BRANCH   3   4
ATOM      4  C   UNL     1       2.417 -36.867  14.305  1.00  0.00     0.053 C 
BRANCH   4   5
ATOM      5  C   UNL     1       3.752 -37.544  14.240  1.00  0.00     0.041 C 
ATOM      6  O   UNL     1       4.773 -36.901  13.876  1.00  0.00    -0.550 OA
ATOM      7  O   UNL     1       3.874 -38.878  14.608  1.00  0.00    -0.550 OA
ENDBRANCH   4   5
ENDBRANCH   3   4
ENDBRANCH   2   3
ENDBRANCH   1   2
BRANCH   1   8
ATOM      8  C   UNL     1       2.359 -38.194  19.163  1.00  0.00     0.000 C 
BRANCH   8   9
ATOM      9  C   UNL     1       3.191 -37.205  19.995  1.00  0.00     0.000 C 
BRANCH   9  10
ATOM     10  C   UNL     1       4.677 -37.197  19.597  1.00  0.00     0.006 C 
BRANCH  10  11
ATOM     11  C   UNL     1       5.432 -36.006  20.204  1.00  0.00     0.053 C 
BRANCH  11  12
ATOM     12  C   UNL     1       5.793 -36.246  21.638  1.00  0.00     0.041 C 
ATOM     13  O   UNL     1       6.100 -35.280  22.384  1.00  0.00    -0.550 OA
ATOM     14  O   UNL     1       5.761 -37.533  22.158  1.00  0.00    -0.550 OA
ENDBRANCH  11  12
ENDBRANCH  10  11
ENDBRANCH   9  10
ENDBRANCH   8   9
ENDBRANCH   1   8
TORSDOF 9
ENDMDL
MODEL 7
REMARK VINA RESULT:    -2.532      1.239      1.644
REMARK INTER + INTRA:          -4.184
REMARK INTER:                  -3.947
REMARK INTRA:                  -0.237
REMARK UNBOUND:                -0.320
REMARK SMILES O=C([O-])CCCCCCCCC(=O)[O-]
REMARK SMILES IDX 7 1 6 2 5 3 4 4 2 5 1 6 3 7 8 8 9 9 10 10 11 11 12 12 13 13
REMARK SMILES IDX 14 14
REMARK H PARENT
REMARK Flexibility Score: inf
ROOT
ATOM      1  C   UNL     1       5.121 -35.975  20.422  1.00  0.00     0.000 C 
ENDROOT
BRANCH   1   2
ATOM      2  C   UNL     1       6.094 -35.689  21.577  1.00  0.00     0.000 C 
BRANCH   2   3
ATOM      3  C   UNL     1       5.386 -35.140  22.828  1.00  0.00     0.006 C 
BRANCH   3   4
ATOM      4  C   UNL     1       6.125 -35.509  24.120  1.00  0.00     0.053 C 
BRANCH   4   5
ATOM      5  C   UNL     1       5.644 -36.811  24.684  1.00  0.00     0.041 C 
ATOM      6  O   UNL     1       5.069 -36.844  25.804  1.00  0.00    -0.550 OA
ATOM      7  O   UNL     1       5.806 -37.985  23.958  1.00  0.00    -0.550 OA
ENDBRANCH   4   5
ENDBRANCH   3   4
ENDBRANCH   2   3
ENDBRANCH   1   2
BRANCH   1   8
ATOM      8  C   UNL     1       5.020 -37.475  20.091  1.00  0.00     0.000 C 
BRANCH   8   9
ATOM      9  C   UNL     1       3.771 -37.815  19.263  1.00  0.00     0.000 C 
BRANCH   9  10
ATOM     10  C   UNL     1       3.626 -36.926  18.015  1.00  0.00     0.006 C 
BRANCH  10  11
ATOM     11  C   UNL     1       2.647 -37.520  16.992  1.00  0.00     0.053 C 
BRANCH  11  12
ATOM     12  C   UNL     1       3.133 -37.344  15.586  1.00  0.00     0.041 C 
ATOM     13  O   UNL     1       2.968 -36.247  14.992  1.00  0.00    -0.550 OA
ATOM     14  O   UNL     1       3.796 -38.381  14.943  1.00  0.00    -0.550 OA
ENDBRANCH  11  12
ENDBRANCH  10  11
ENDBRANCH   9  10
ENDBRANCH   8   9
ENDBRANCH   1   8
TORSDOF 9
ENDMDL
MODEL 8
REMARK VINA RESULT:    -2.093      2.611      3.850
REMARK INTER + INTRA:          -3.514
REMARK INTER:                  -4.271
REMARK INTRA:                   0.757
REMARK UNBOUND:                -0.320
REMARK SMILES O=C([O-])CCCCCCCCC(=O)[O-]
REMARK SMILES IDX 7 1 6 2 5 3 4 4 2 5 1 6 3 7 8 8 9 9 10 10 11 11 12 12 13 13
REMARK SMILES IDX 14 14
REMARK H PARENT
REMARK Flexibility Score: inf
ROOT
ATOM      1  C   UNL     1       5.295 -35.225  22.563  1.00  0.00     0.000 C 
ENDROOT
BRANCH   1   2
ATOM      2  C   UNL     1       6.080 -35.639  23.819  1.00  0.00     0.000 C 
BRANCH   2   3
ATOM      3  C   UNL     1       5.978 -37.146  24.113  1.00  0.00     0.006 C 
BRANCH   3   4
ATOM      4  C   UNL     1       5.803 -37.975  22.834  1.00  0.00     0.053 C 
BRANCH   4   5
ATOM      5  C   UNL     1       5.490 -39.408  23.139  1.00  0.00     0.041 C 
ATOM      6  O   UNL     1       5.132 -39.747  24.298  1.00  0.00    -0.550 OA
ATOM      7  O   UNL     1       5.567 -40.366  22.135  1.00  0.00    -0.550 OA
ENDBRANCH   4   5
ENDBRANCH   3   4
ENDBRANCH   2   3
ENDBRANCH   1   2
BRANCH   1   8
ATOM      8  C   UNL     1       5.776 -35.958  21.298  1.00  0.00     0.000 C 
BRANCH   8   9
ATOM      9  C   UNL     1       5.298 -35.277  20.004  1.00  0.00     0.000 C 
BRANCH   9  10
ATOM     10  C   UNL     1       4.786 -36.283  18.959  1.00  0.00     0.006 C 
BRANCH  10  11
ATOM     11  C   UNL     1       3.866 -37.345  19.579  1.00  0.00     0.053 C 
BRANCH  11  12
ATOM     12  C   UNL     1       2.774 -37.755  18.638  1.00  0.00     0.041 C 
ATOM     13  O   UNL     1       1.662 -38.137  19.087  1.00  0.00    -0.550 OA
ATOM     14  O   UNL     1       2.976 -37.687  17.266  1.00  0.00    -0.550 OA
ENDBRANCH  11  12
ENDBRANCH  10  11
ENDBRANCH   9  10
ENDBRANCH   8   9
ENDBRANCH   1   8
TORSDOF 9
ENDMDL
