MODEL 1
REMARK VINA RESULT:    -5.928      0.000      0.000
REMARK INTER + INTRA:          -6.492
REMARK INTER:                  -6.448
REMARK INTRA:                  -0.044
REMARK UNBOUND:                -0.044
REMARK SMILES COc1cc2ccc(=O)oc2cc1O
REMARK SMILES IDX 3 1 13 2 12 3 11 4 5 5 4 6 6 7 7 8 8 9 9 10 10 11 2 12 1 13
REMARK SMILES IDX 14 14
REMARK H PARENT 14 15
REMARK Flexibility Score: inf
ROOT
ATOM      1  C   UNL     1     -35.184  -5.717 -15.237  1.00  0.00     0.161 A 
ATOM      2  C   UNL     1     -35.523  -5.246 -13.953  1.00  0.00     0.161 A 
ATOM      3  C   UNL     1     -36.634  -5.769 -13.282  1.00  0.00     0.098 A 
ATOM      4  C   UNL     1     -37.419  -6.761 -13.876  1.00  0.00     0.142 A 
ATOM      5  C   UNL     1     -37.087  -7.238 -15.161  1.00  0.00     0.022 A 
ATOM      6  C   UNL     1     -35.975  -6.718 -15.837  1.00  0.00     0.062 A 
ATOM      7  C   UNL     1     -37.891  -8.232 -15.729  1.00  0.00     0.019 A 
ATOM      8  C   UNL     1     -38.988  -8.717 -15.017  1.00  0.00     0.094 A 
ATOM      9  C   UNL     1     -39.255  -8.195 -13.747  1.00  0.00     0.336 A 
ATOM     10  O   UNL     1     -40.239  -8.621 -13.087  1.00  0.00    -0.246 OA
ATOM     11  O   UNL     1     -38.474  -7.250 -13.229  1.00  0.00    -0.423 OA
ENDROOT
BRANCH   1  12
ATOM     12  O   UNL     1     -34.062  -5.172 -15.883  1.00  0.00    -0.493 OA
ATOM     13  C   UNL     1     -33.431  -5.742 -17.024  1.00  0.00     0.278 C 
ENDBRANCH   1  12
BRANCH   2  14
ATOM     14  O   UNL     1     -34.766  -4.257 -13.327  1.00  0.00    -0.504 OA
ATOM     15  H   UNL     1     -35.129  -3.328 -13.153  1.00  0.00     0.293 HD
ENDBRANCH   2  14
TORSDOF 2
ENDMDL
MODEL 2
REMARK VINA RESULT:    -5.915      3.528      5.780
REMARK INTER + INTRA:          -6.478
REMARK INTER:                  -6.422
REMARK INTRA:                  -0.055
REMARK UNBOUND:                -0.044
REMARK SMILES COc1cc2ccc(=O)oc2cc1O
REMARK SMILES IDX 3 1 13 2 12 3 11 4 5 5 4 6 6 7 7 8 8 9 9 10 10 11 2 12 1 13
REMARK SMILES IDX 14 14
REMARK H PARENT 14 15
REMARK Flexibility Score: inf
ROOT
ATOM      1  C   UNL     1     -32.050  -2.979 -18.659  1.00  0.00     0.161 A 
ATOM      2  C   UNL     1     -33.113  -2.795 -19.565  1.00  0.00     0.161 A 
ATOM      3  C   UNL     1     -34.351  -3.406 -19.332  1.00  0.00     0.098 A 
ATOM      4  C   UNL     1     -34.545  -4.204 -18.202  1.00  0.00     0.142 A 
ATOM      5  C   UNL     1     -33.486  -4.395 -17.291  1.00  0.00     0.022 A 
ATOM      6  C   UNL     1     -32.246  -3.784 -17.519  1.00  0.00     0.062 A 
ATOM      7  C   UNL     1     -33.711  -5.200 -16.169  1.00  0.00     0.019 A 
ATOM      8  C   UNL     1     -34.964  -5.786 -15.985  1.00  0.00     0.094 A 
ATOM      9  C   UNL     1     -35.966  -5.551 -16.933  1.00  0.00     0.336 A 
ATOM     10  O   UNL     1     -37.103  -6.071 -16.785  1.00  0.00    -0.246 OA
ATOM     11  O   UNL     1     -35.725  -4.782 -17.992  1.00  0.00    -0.423 OA
ENDROOT
BRANCH   1  12
ATOM     12  O   UNL     1     -30.822  -2.350 -18.922  1.00  0.00    -0.493 OA
ATOM     13  C   UNL     1     -29.575  -3.028 -19.033  1.00  0.00     0.278 C 
ENDBRANCH   1  12
BRANCH   2  14
ATOM     14  O   UNL     1     -32.959  -2.005 -20.704  1.00  0.00    -0.504 OA
ATOM     15  H   UNL     1     -33.708  -1.872 -21.373  1.00  0.00     0.293 HD
ENDBRANCH   2  14
TORSDOF 2
ENDMDL
MODEL 3
REMARK VINA RESULT:    -5.913      1.489      5.344
REMARK INTER + INTRA:          -6.476
REMARK INTER:                  -6.419
REMARK INTRA:                  -0.057
REMARK UNBOUND:                -0.044
REMARK SMILES COc1cc2ccc(=O)oc2cc1O
REMARK SMILES IDX 3 1 13 2 12 3 11 4 5 5 4 6 6 7 7 8 8 9 9 10 10 11 2 12 1 13
REMARK SMILES IDX 14 14
REMARK H PARENT 14 15
REMARK Flexibility Score: inf
ROOT
ATOM      1  C   UNL     1     -38.809  -7.209 -13.560  1.00  0.00     0.161 A 
ATOM      2  C   UNL     1     -38.775  -8.028 -14.706  1.00  0.00     0.161 A 
ATOM      3  C   UNL     1     -37.752  -7.876 -15.649  1.00  0.00     0.098 A 
ATOM      4  C   UNL     1     -36.757  -6.913 -15.467  1.00  0.00     0.142 A 
ATOM      5  C   UNL     1     -36.783  -6.089 -14.323  1.00  0.00     0.022 A 
ATOM      6  C   UNL     1     -37.804  -6.237 -13.375  1.00  0.00     0.062 A 
ATOM      7  C   UNL     1     -35.773  -5.134 -14.168  1.00  0.00     0.019 A 
ATOM      8  C   UNL     1     -34.778  -5.025 -15.139  1.00  0.00     0.094 A 
ATOM      9  C   UNL     1     -34.817  -5.877 -16.248  1.00  0.00     0.336 A 
ATOM     10  O   UNL     1     -33.928  -5.795 -17.135  1.00  0.00    -0.246 OA
ATOM     11  O   UNL     1     -35.790  -6.777 -16.371  1.00  0.00    -0.423 OA
ENDROOT
BRANCH   1  12
ATOM     12  O   UNL     1     -39.848  -7.387 -12.632  1.00  0.00    -0.493 OA
ATOM     13  C   UNL     1     -40.773  -6.375 -12.250  1.00  0.00     0.278 C 
ENDBRANCH   1  12
BRANCH   2  14
ATOM     14  O   UNL     1     -39.750  -9.000 -14.924  1.00  0.00    -0.504 OA
ATOM     15  H   UNL     1     -39.797  -9.534 -15.784  1.00  0.00     0.293 HD
ENDBRANCH   2  14
TORSDOF 2
ENDMDL
MODEL 4
REMARK VINA RESULT:    -5.854      4.973      6.083
REMARK INTER + INTRA:          -6.411
REMARK INTER:                  -6.357
REMARK INTRA:                  -0.054
REMARK UNBOUND:                -0.044
REMARK SMILES COc1cc2ccc(=O)oc2cc1O
REMARK SMILES IDX 3 1 13 2 12 3 11 4 5 5 4 6 6 7 7 8 8 9 9 10 10 11 2 12 1 13
REMARK SMILES IDX 14 14
REMARK H PARENT 14 15
REMARK Flexibility Score: inf
ROOT
ATOM      1  C   UNL     1     -31.093  -5.167 -16.832  1.00  0.00     0.161 A 
ATOM      2  C   UNL     1     -30.889  -3.873 -17.351  1.00  0.00     0.161 A 
ATOM      3  C   UNL     1     -31.969  -3.138 -17.854  1.00  0.00     0.098 A 
ATOM      4  C   UNL     1     -33.257  -3.678 -17.850  1.00  0.00     0.142 A 
ATOM      5  C   UNL     1     -33.470  -4.973 -17.333  1.00  0.00     0.022 A 
ATOM      6  C   UNL     1     -32.393  -5.712 -16.826  1.00  0.00     0.062 A 
ATOM      7  C   UNL     1     -34.772  -5.487 -17.342  1.00  0.00     0.019 A 
ATOM      8  C   UNL     1     -35.811  -4.713 -17.857  1.00  0.00     0.094 A 
ATOM      9  C   UNL     1     -35.523  -3.437 -18.353  1.00  0.00     0.336 A 
ATOM     10  O   UNL     1     -36.447  -2.722 -18.821  1.00  0.00    -0.246 OA
ATOM     11  O   UNL     1     -34.276  -2.972 -18.333  1.00  0.00    -0.423 OA
ENDROOT
BRANCH   1  12
ATOM     12  O   UNL     1     -29.989  -5.876 -16.332  1.00  0.00    -0.493 OA
ATOM     13  C   UNL     1     -29.626  -7.193 -16.733  1.00  0.00     0.278 C 
ENDBRANCH   1  12
BRANCH   2  14
ATOM     14  O   UNL     1     -29.619  -3.298 -17.373  1.00  0.00    -0.504 OA
ATOM     15  H   UNL     1     -28.795  -3.820 -17.647  1.00  0.00     0.293 HD
ENDBRANCH   2  14
TORSDOF 2
ENDMDL
MODEL 5
REMARK VINA RESULT:    -5.827      3.397      5.570
REMARK INTER + INTRA:          -6.382
REMARK INTER:                  -6.317
REMARK INTRA:                  -0.064
REMARK UNBOUND:                -0.044
REMARK SMILES COc1cc2ccc(=O)oc2cc1O
REMARK SMILES IDX 3 1 13 2 12 3 11 4 5 5 4 6 6 7 7 8 8 9 9 10 10 11 2 12 1 13
REMARK SMILES IDX 14 14
REMARK H PARENT 14 15
REMARK Flexibility Score: inf
ROOT
ATOM      1  C   UNL     1     -32.044  -2.827 -18.686  1.00  0.00     0.161 A 
ATOM      2  C   UNL     1     -31.372  -3.366 -17.572  1.00  0.00     0.161 A 
ATOM      3  C   UNL     1     -32.016  -4.288 -16.738  1.00  0.00     0.098 A 
ATOM      4  C   UNL     1     -33.330  -4.682 -17.000  1.00  0.00     0.142 A 
ATOM      5  C   UNL     1     -34.012  -4.147 -18.113  1.00  0.00     0.022 A 
ATOM      6  C   UNL     1     -33.371  -3.225 -18.952  1.00  0.00     0.062 A 
ATOM      7  C   UNL     1     -35.327  -4.562 -18.350  1.00  0.00     0.019 A 
ATOM      8  C   UNL     1     -35.922  -5.482 -17.487  1.00  0.00     0.094 A 
ATOM      9  C   UNL     1     -35.183  -5.968 -16.403  1.00  0.00     0.336 A 
ATOM     10  O   UNL     1     -35.701  -6.800 -15.613  1.00  0.00    -0.246 OA
ATOM     11  O   UNL     1     -33.933  -5.558 -16.200  1.00  0.00    -0.423 OA
ENDROOT
BRANCH   1  12
ATOM     12  O   UNL     1     -31.369  -1.906 -19.503  1.00  0.00    -0.493 OA
ATOM     13  C   UNL     1     -30.693  -2.240 -20.710  1.00  0.00     0.278 C 
ENDBRANCH   1  12
BRANCH   2  14
ATOM     14  O   UNL     1     -30.060  -2.998 -17.276  1.00  0.00    -0.504 OA
ATOM     15  H   UNL     1     -29.677  -3.068 -16.341  1.00  0.00     0.293 HD
ENDBRANCH   2  14
TORSDOF 2
ENDMDL
MODEL 6
REMARK VINA RESULT:    -5.767      2.948      4.858
REMARK INTER + INTRA:          -6.317
REMARK INTER:                  -6.273
REMARK INTRA:                  -0.044
REMARK UNBOUND:                -0.044
REMARK SMILES COc1cc2ccc(=O)oc2cc1O
REMARK SMILES IDX 3 1 13 2 12 3 11 4 5 5 4 6 6 7 7 8 8 9 9 10 10 11 2 12 1 13
REMARK SMILES IDX 14 14
REMARK H PARENT 14 15
REMARK Flexibility Score: inf
ROOT
ATOM      1  C   UNL     1     -38.432  -7.903 -13.842  1.00  0.00     0.161 A 
ATOM      2  C   UNL     1     -39.710  -8.175 -13.313  1.00  0.00     0.161 A 
ATOM      3  C   UNL     1     -40.414  -7.178 -12.628  1.00  0.00     0.098 A 
ATOM      4  C   UNL     1     -39.861  -5.906 -12.461  1.00  0.00     0.142 A 
ATOM      5  C   UNL     1     -38.583  -5.626 -12.986  1.00  0.00     0.022 A 
ATOM      6  C   UNL     1     -37.873  -6.620 -13.674  1.00  0.00     0.062 A 
ATOM      7  C   UNL     1     -38.055  -4.343 -12.803  1.00  0.00     0.019 A 
ATOM      8  C   UNL     1     -38.800  -3.388 -12.112  1.00  0.00     0.094 A 
ATOM      9  C   UNL     1     -40.060  -3.739 -11.618  1.00  0.00     0.336 A 
ATOM     10  O   UNL     1     -40.749  -2.891 -10.992  1.00  0.00    -0.246 OA
ATOM     11  O   UNL     1     -40.539  -4.967 -11.807  1.00  0.00    -0.423 OA
ENDROOT
BRANCH   1  12
ATOM     12  O   UNL     1     -37.752  -8.925 -14.525  1.00  0.00    -0.493 OA
ATOM     13  C   UNL     1     -36.670  -8.713 -15.424  1.00  0.00     0.278 C 
ENDBRANCH   1  12
BRANCH   2  14
ATOM     14  O   UNL     1     -40.296  -9.431 -13.459  1.00  0.00    -0.504 OA
ATOM     15  H   UNL     1     -40.863  -9.850 -12.731  1.00  0.00     0.293 HD
ENDBRANCH   2  14
TORSDOF 2
ENDMDL
MODEL 7
REMARK VINA RESULT:    -5.740      2.108      3.348
REMARK INTER + INTRA:          -6.287
REMARK INTER:                  -6.223
REMARK INTRA:                  -0.064
REMARK UNBOUND:                -0.044
REMARK SMILES COc1cc2ccc(=O)oc2cc1O
REMARK SMILES IDX 3 1 13 2 12 3 11 4 5 5 4 6 6 7 7 8 8 9 9 10 10 11 2 12 1 13
REMARK SMILES IDX 14 14
REMARK H PARENT 14 15
REMARK Flexibility Score: inf
ROOT
ATOM      1  C   UNL     1     -37.279  -3.984 -12.868  1.00  0.00     0.161 A 
ATOM      2  C   UNL     1     -36.251  -4.881 -13.222  1.00  0.00     0.161 A 
ATOM      3  C   UNL     1     -36.539  -6.235 -13.428  1.00  0.00     0.098 A 
ATOM      4  C   UNL     1     -37.844  -6.712 -13.285  1.00  0.00     0.142 A 
ATOM      5  C   UNL     1     -38.878  -5.822 -12.930  1.00  0.00     0.022 A 
ATOM      6  C   UNL     1     -38.596  -4.465 -12.724  1.00  0.00     0.062 A 
ATOM      7  C   UNL     1     -40.175  -6.329 -12.795  1.00  0.00     0.019 A 
ATOM      8  C   UNL     1     -40.406  -7.688 -13.011  1.00  0.00     0.094 A 
ATOM      9  C   UNL     1     -39.329  -8.510 -13.360  1.00  0.00     0.336 A 
ATOM     10  O   UNL     1     -39.517  -9.739 -13.560  1.00  0.00    -0.246 OA
ATOM     11  O   UNL     1     -38.105  -8.002 -13.482  1.00  0.00    -0.423 OA
ENDROOT
BRANCH   1  12
ATOM     12  O   UNL     1     -36.957  -2.631 -12.670  1.00  0.00    -0.493 OA
ATOM     13  C   UNL     1     -36.856  -2.003 -11.397  1.00  0.00     0.278 C 
ENDBRANCH   1  12
BRANCH   2  14
ATOM     14  O   UNL     1     -34.936  -4.444 -13.374  1.00  0.00    -0.504 OA
ATOM     15  H   UNL     1     -34.410  -4.601 -14.226  1.00  0.00     0.293 HD
ENDBRANCH   2  14
TORSDOF 2
ENDMDL
MODEL 8
REMARK VINA RESULT:    -5.644      2.839      6.715
REMARK INTER + INTRA:          -6.182
REMARK INTER:                  -6.134
REMARK INTRA:                  -0.049
REMARK UNBOUND:                -0.044
REMARK SMILES COc1cc2ccc(=O)oc2cc1O
REMARK SMILES IDX 3 1 13 2 12 3 11 4 5 5 4 6 6 7 7 8 8 9 9 10 10 11 2 12 1 13
REMARK SMILES IDX 14 14
REMARK H PARENT 14 15
REMARK Flexibility Score: inf
ROOT
ATOM      1  C   UNL     1     -35.805  -5.800 -16.760  1.00  0.00     0.161 A 
ATOM      2  C   UNL     1     -36.147  -5.076 -17.920  1.00  0.00     0.161 A 
ATOM      3  C   UNL     1     -35.211  -4.229 -18.523  1.00  0.00     0.098 A 
ATOM      4  C   UNL     1     -33.929  -4.090 -17.983  1.00  0.00     0.142 A 
ATOM      5  C   UNL     1     -33.578  -4.809 -16.822  1.00  0.00     0.022 A 
ATOM      6  C   UNL     1     -34.512  -5.660 -16.215  1.00  0.00     0.062 A 
ATOM      7  C   UNL     1     -32.288  -4.649 -16.306  1.00  0.00     0.019 A 
ATOM      8  C   UNL     1     -31.395  -3.790 -16.946  1.00  0.00     0.094 A 
ATOM      9  C   UNL     1     -31.815  -3.110 -18.094  1.00  0.00     0.336 A 
ATOM     10  O   UNL     1     -31.023  -2.331 -18.687  1.00  0.00    -0.246 OA
ATOM     11  O   UNL     1     -33.048  -3.280 -18.564  1.00  0.00    -0.423 OA
ENDROOT
BRANCH   1  12
ATOM     12  O   UNL     1     -36.767  -6.643 -16.180  1.00  0.00    -0.493 OA
ATOM     13  C   UNL     1     -36.496  -7.939 -15.660  1.00  0.00     0.278 C 
ENDBRANCH   1  12
BRANCH   2  14
ATOM     14  O   UNL     1     -37.415  -5.188 -18.489  1.00  0.00    -0.504 OA
ATOM     15  H   UNL     1     -38.159  -4.534 -18.281  1.00  0.00     0.293 HD
ENDBRANCH   2  14
TORSDOF 2
ENDMDL
MODEL 9
REMARK VINA RESULT:    -5.630      3.850      7.711
REMARK INTER + INTRA:          -6.168
REMARK INTER:                  -6.103
REMARK INTRA:                  -0.064
REMARK UNBOUND:                -0.044
REMARK SMILES COc1cc2ccc(=O)oc2cc1O
REMARK SMILES IDX 3 1 13 2 12 3 11 4 5 5 4 6 6 7 7 8 8 9 9 10 10 11 2 12 1 13
REMARK SMILES IDX 14 14
REMARK H PARENT 14 15
REMARK Flexibility Score: inf
ROOT
ATOM      1  C   UNL     1     -34.099  -4.543 -16.305  1.00  0.00     0.161 A 
ATOM      2  C   UNL     1     -34.882  -4.154 -17.410  1.00  0.00     0.161 A 
ATOM      3  C   UNL     1     -34.281  -3.560 -18.526  1.00  0.00     0.098 A 
ATOM      4  C   UNL     1     -32.900  -3.346 -18.556  1.00  0.00     0.142 A 
ATOM      5  C   UNL     1     -32.109  -3.731 -17.455  1.00  0.00     0.022 A 
ATOM      6  C   UNL     1     -32.706  -4.328 -16.336  1.00  0.00     0.062 A 
ATOM      7  C   UNL     1     -30.730  -3.504 -17.515  1.00  0.00     0.019 A 
ATOM      8  C   UNL     1     -30.182  -2.908 -18.651  1.00  0.00     0.094 A 
ATOM      9  C   UNL     1     -31.030  -2.552 -19.704  1.00  0.00     0.336 A 
ATOM     10  O   UNL     1     -30.556  -2.014 -20.739  1.00  0.00    -0.246 OA
ATOM     11  O   UNL     1     -32.339  -2.779 -19.621  1.00  0.00    -0.423 OA
ENDROOT
BRANCH   1  12
ATOM     12  O   UNL     1     -34.734  -5.137 -15.202  1.00  0.00    -0.493 OA
ATOM     13  C   UNL     1     -35.133  -4.440 -14.028  1.00  0.00     0.278 C 
ENDBRANCH   1  12
BRANCH   2  14
ATOM     14  O   UNL     1     -36.262  -4.351 -17.418  1.00  0.00    -0.504 OA
ATOM     15  H   UNL     1     -36.891  -3.749 -17.937  1.00  0.00     0.293 HD
ENDBRANCH   2  14
TORSDOF 2
ENDMDL
