MODEL 1
REMARK VINA RESULT:    -5.329      0.000      0.000
REMARK INTER + INTRA:          -5.329
REMARK INTER:                  -5.329
REMARK INTRA:                   0.000
REMARK UNBOUND:                 0.000
REMARK SMILES C=C1CCC[C@]2(C)CC(=O)C(=C(C)C)C[C@@H]12
REMARK SMILES IDX 13 1 12 2 11 3 15 4 16 5 2 6 1 7 3 8 4 9 5 10 6 11 8 12 9 13
REMARK SMILES IDX 10 14 7 15 14 16
REMARK H PARENT
REMARK Flexibility Score: inf
ROOT
ATOM      1  C   UNL     1     -23.509  -6.247  10.004  1.00  0.00     0.039 C 
ATOM      2  C   UNL     1     -22.108  -5.935   9.532  1.00  0.00    -0.070 C 
ATOM      3  C   UNL     1     -21.561  -4.691   9.671  1.00  0.00    -0.006 C 
ATOM      4  C   UNL     1     -20.126  -4.413   9.244  1.00  0.00     0.047 C 
ATOM      5  C   UNL     1     -19.454  -3.264  10.044  1.00  0.00     0.025 C 
ATOM      6  C   UNL     1     -18.052  -2.884   9.560  1.00  0.00    -0.073 C 
ATOM      7  C   UNL     1     -17.366  -3.575   8.631  1.00  0.00     0.008 C 
ATOM      8  C   UNL     1     -17.389  -1.676  10.180  1.00  0.00     0.031 C 
ATOM      9  C   UNL     1     -18.190  -1.145  11.372  1.00  0.00     0.005 C 
ATOM     10  C   UNL     1     -19.654  -0.859  10.999  1.00  0.00     0.008 C 
ATOM     11  C   UNL     1     -20.349  -1.982  10.137  1.00  0.00    -0.018 C 
ATOM     12  C   UNL     1     -21.687  -2.370  10.814  1.00  0.00     0.088 C 
ATOM     13  C   UNL     1     -22.361  -3.517  10.121  1.00  0.00     0.159 C 
ATOM     14  O   UNL     1     -23.603  -3.453   9.919  1.00  0.00    -0.295 OA
ATOM     15  C   UNL     1     -20.639  -1.405   8.724  1.00  0.00     0.012 C 
ATOM     16  C   UNL     1     -21.319  -7.077   8.931  1.00  0.00     0.039 C 
ENDROOT
TORSDOF 0
ENDMDL
MODEL 2
REMARK VINA RESULT:    -5.306      1.906      2.846
REMARK INTER + INTRA:          -5.306
REMARK INTER:                  -5.306
REMARK INTRA:                   0.000
REMARK UNBOUND:                 0.000
REMARK SMILES C=C1CCC[C@]2(C)CC(=O)C(=C(C)C)C[C@@H]12
REMARK SMILES IDX 13 1 12 2 11 3 15 4 16 5 2 6 1 7 3 8 4 9 5 10 6 11 8 12 9 13
REMARK SMILES IDX 10 14 7 15 14 16
REMARK H PARENT
REMARK Flexibility Score: inf
ROOT
ATOM      1  C   UNL     1     -24.125  -2.047  10.895  1.00  0.00     0.039 C 
ATOM      2  C   UNL     1     -22.758  -2.479  10.415  1.00  0.00    -0.070 C 
ATOM      3  C   UNL     1     -21.652  -1.699  10.593  1.00  0.00    -0.006 C 
ATOM      4  C   UNL     1     -20.274  -2.180  10.156  1.00  0.00     0.047 C 
ATOM      5  C   UNL     1     -19.114  -1.573  10.989  1.00  0.00     0.025 C 
ATOM      6  C   UNL     1     -17.712  -1.947  10.499  1.00  0.00    -0.073 C 
ATOM      7  C   UNL     1     -17.472  -2.854   9.534  1.00  0.00     0.008 C 
ATOM      8  C   UNL     1     -16.527  -1.277  11.156  1.00  0.00     0.031 C 
ATOM      9  C   UNL     1     -16.950  -0.459  12.378  1.00  0.00     0.005 C 
ATOM     10  C   UNL     1     -18.057   0.553  12.038  1.00  0.00     0.008 C 
ATOM     11  C   UNL     1     -19.224  -0.018  11.145  1.00  0.00    -0.018 C 
ATOM     12  C   UNL     1     -20.576   0.309  11.826  1.00  0.00     0.088 C 
ATOM     13  C   UNL     1     -21.739  -0.301  11.100  1.00  0.00     0.159 C 
ATOM     14  O   UNL     1     -22.770   0.400  10.918  1.00  0.00    -0.295 OA
ATOM     15  C   UNL     1     -19.166   0.683   9.759  1.00  0.00     0.012 C 
ATOM     16  C   UNL     1     -22.664  -3.839   9.759  1.00  0.00     0.039 C 
ENDROOT
TORSDOF 0
ENDMDL
MODEL 3
REMARK VINA RESULT:    -5.165      1.890      5.406
REMARK INTER + INTRA:          -5.165
REMARK INTER:                  -5.165
REMARK INTRA:                   0.000
REMARK UNBOUND:                 0.000
REMARK SMILES C=C1CCC[C@]2(C)CC(=O)C(=C(C)C)C[C@@H]12
REMARK SMILES IDX 13 1 12 2 11 3 15 4 16 5 2 6 1 7 3 8 4 9 5 10 6 11 8 12 9 13
REMARK SMILES IDX 10 14 7 15 14 16
REMARK H PARENT
REMARK Flexibility Score: inf
ROOT
ATOM      1  C   UNL     1     -17.000  -1.250  11.068  1.00  0.00     0.039 C 
ATOM      2  C   UNL     1     -18.498  -1.316  10.875  1.00  0.00    -0.070 C 
ATOM      3  C   UNL     1     -19.094  -2.350  10.212  1.00  0.00    -0.006 C 
ATOM      4  C   UNL     1     -20.610  -2.429  10.081  1.00  0.00     0.047 C 
ATOM      5  C   UNL     1     -21.145  -3.880   9.953  1.00  0.00     0.025 C 
ATOM      6  C   UNL     1     -22.653  -3.984   9.703  1.00  0.00    -0.073 C 
ATOM      7  C   UNL     1     -23.495  -2.935   9.750  1.00  0.00     0.008 C 
ATOM      8  C   UNL     1     -23.232  -5.350   9.413  1.00  0.00     0.031 C 
ATOM      9  C   UNL     1     -22.197  -6.457   9.627  1.00  0.00     0.005 C 
ATOM     10  C   UNL     1     -20.911  -6.204   8.823  1.00  0.00     0.008 C 
ATOM     11  C   UNL     1     -20.371  -4.724   8.885  1.00  0.00    -0.018 C 
ATOM     12  C   UNL     1     -18.875  -4.759   9.284  1.00  0.00     0.088 C 
ATOM     13  C   UNL     1     -18.308  -3.383   9.480  1.00  0.00     0.159 C 
ATOM     14  O   UNL     1     -17.172  -3.125   9.000  1.00  0.00    -0.295 OA
ATOM     15  C   UNL     1     -20.510  -4.093   7.473  1.00  0.00     0.012 C 
ATOM     16  C   UNL     1     -19.315  -0.197  11.482  1.00  0.00     0.039 C 
ENDROOT
TORSDOF 0
ENDMDL
MODEL 4
REMARK VINA RESULT:    -4.993      2.531      3.695
REMARK INTER + INTRA:          -4.993
REMARK INTER:                  -4.993
REMARK INTRA:                   0.000
REMARK UNBOUND:                 0.000
REMARK SMILES C=C1CCC[C@]2(C)CC(=O)C(=C(C)C)C[C@@H]12
REMARK SMILES IDX 13 1 12 2 11 3 15 4 16 5 2 6 1 7 3 8 4 9 5 10 6 11 8 12 9 13
REMARK SMILES IDX 10 14 7 15 14 16
REMARK H PARENT
REMARK Flexibility Score: inf
ROOT
ATOM      1  C   UNL     1     -19.549  -5.106   6.649  1.00  0.00     0.039 C 
ATOM      2  C   UNL     1     -20.316  -3.881   7.091  1.00  0.00    -0.070 C 
ATOM      3  C   UNL     1     -20.032  -3.237   8.262  1.00  0.00    -0.006 C 
ATOM      4  C   UNL     1     -20.776  -1.969   8.660  1.00  0.00     0.047 C 
ATOM      5  C   UNL     1     -19.944  -1.023   9.566  1.00  0.00     0.025 C 
ATOM      6  C   UNL     1     -20.705   0.204  10.078  1.00  0.00    -0.073 C 
ATOM      7  C   UNL     1     -21.938   0.548   9.663  1.00  0.00     0.008 C 
ATOM      8  C   UNL     1     -20.020   1.095  11.088  1.00  0.00     0.031 C 
ATOM      9  C   UNL     1     -18.552   0.706  11.277  1.00  0.00     0.005 C 
ATOM     10  C   UNL     1     -18.392  -0.781  11.633  1.00  0.00     0.008 C 
ATOM     11  C   UNL     1     -19.268  -1.766  10.768  1.00  0.00    -0.018 C 
ATOM     12  C   UNL     1     -18.350  -2.876  10.199  1.00  0.00     0.088 C 
ATOM     13  C   UNL     1     -19.083  -3.795   9.266  1.00  0.00     0.159 C 
ATOM     14  O   UNL     1     -18.888  -5.036   9.366  1.00  0.00    -0.295 OA
ATOM     15  C   UNL     1     -20.337  -2.410  11.692  1.00  0.00     0.012 C 
ATOM     16  C   UNL     1     -21.393  -3.375   6.158  1.00  0.00     0.039 C 
ENDROOT
TORSDOF 0
ENDMDL
MODEL 5
REMARK VINA RESULT:    -4.939      2.231      4.880
REMARK INTER + INTRA:          -4.939
REMARK INTER:                  -4.939
REMARK INTRA:                   0.000
REMARK UNBOUND:                 0.000
REMARK SMILES C=C1CCC[C@]2(C)CC(=O)C(=C(C)C)C[C@@H]12
REMARK SMILES IDX 13 1 12 2 11 3 15 4 16 5 2 6 1 7 3 8 4 9 5 10 6 11 8 12 9 13
REMARK SMILES IDX 10 14 7 15 14 16
REMARK H PARENT
REMARK Flexibility Score: inf
ROOT
ATOM      1  C   UNL     1     -18.278   1.287  11.722  1.00  0.00     0.039 C 
ATOM      2  C   UNL     1     -18.155  -0.192  11.435  1.00  0.00    -0.070 C 
ATOM      3  C   UNL     1     -19.057  -0.850  10.649  1.00  0.00    -0.006 C 
ATOM      4  C   UNL     1     -18.881  -2.328  10.323  1.00  0.00     0.047 C 
ATOM      5  C   UNL     1     -19.510  -2.741   8.965  1.00  0.00     0.025 C 
ATOM      6  C   UNL     1     -19.451  -4.241   8.663  1.00  0.00    -0.073 C 
ATOM      7  C   UNL     1     -18.774  -5.130   9.413  1.00  0.00     0.008 C 
ATOM      8  C   UNL     1     -20.175  -4.749   7.438  1.00  0.00     0.031 C 
ATOM      9  C   UNL     1     -20.692  -3.597   6.573  1.00  0.00     0.005 C 
ATOM     10  C   UNL     1     -21.560  -2.618   7.379  1.00  0.00     0.008 C 
ATOM     11  C   UNL     1     -20.977  -2.222   8.789  1.00  0.00    -0.018 C 
ATOM     12  C   UNL     1     -20.964  -0.677   8.905  1.00  0.00     0.088 C 
ATOM     13  C   UNL     1     -20.315  -0.209  10.174  1.00  0.00     0.159 C 
ATOM     14  O   UNL     1     -20.866   0.717  10.827  1.00  0.00    -0.295 OA
ATOM     15  C   UNL     1     -21.907  -2.810   9.886  1.00  0.00     0.012 C 
ATOM     16  C   UNL     1     -16.962  -0.906  12.030  1.00  0.00     0.039 C 
ENDROOT
TORSDOF 0
ENDMDL
MODEL 6
REMARK VINA RESULT:    -4.799      2.386      4.096
REMARK INTER + INTRA:          -4.799
REMARK INTER:                  -4.799
REMARK INTRA:                   0.000
REMARK UNBOUND:                 0.000
REMARK SMILES C=C1CCC[C@]2(C)CC(=O)C(=C(C)C)C[C@@H]12
REMARK SMILES IDX 13 1 12 2 11 3 15 4 16 5 2 6 1 7 3 8 4 9 5 10 6 11 8 12 9 13
REMARK SMILES IDX 10 14 7 15 14 16
REMARK H PARENT
REMARK Flexibility Score: inf
ROOT
ATOM      1  C   UNL     1     -22.730  -1.474   5.997  1.00  0.00     0.039 C 
ATOM      2  C   UNL     1     -22.238  -0.648   7.163  1.00  0.00    -0.070 C 
ATOM      3  C   UNL     1     -21.394  -1.163   8.105  1.00  0.00    -0.006 C 
ATOM      4  C   UNL     1     -20.862  -0.296   9.240  1.00  0.00     0.047 C 
ATOM      5  C   UNL     1     -19.479  -0.756   9.772  1.00  0.00     0.025 C 
ATOM      6  C   UNL     1     -18.971   0.024  10.989  1.00  0.00    -0.073 C 
ATOM      7  C   UNL     1     -19.572   1.126  11.476  1.00  0.00     0.008 C 
ATOM      8  C   UNL     1     -17.708  -0.456  11.665  1.00  0.00     0.031 C 
ATOM      9  C   UNL     1     -17.025  -1.564  10.860  1.00  0.00     0.005 C 
ATOM     10  C   UNL     1     -17.983  -2.727  10.555  1.00  0.00     0.008 C 
ATOM     11  C   UNL     1     -19.417  -2.293  10.065  1.00  0.00    -0.018 C 
ATOM     12  C   UNL     1     -19.745  -3.052   8.756  1.00  0.00     0.088 C 
ATOM     13  C   UNL     1     -21.048  -2.611   8.156  1.00  0.00     0.159 C 
ATOM     14  O   UNL     1     -21.838  -3.490   7.718  1.00  0.00    -0.295 OA
ATOM     15  C   UNL     1     -20.448  -2.690  11.158  1.00  0.00     0.012 C 
ATOM     16  C   UNL     1     -22.694   0.793   7.221  1.00  0.00     0.039 C 
ENDROOT
TORSDOF 0
ENDMDL
MODEL 7
REMARK VINA RESULT:    -4.798      1.927      5.560
REMARK INTER + INTRA:          -4.798
REMARK INTER:                  -4.798
REMARK INTRA:                   0.000
REMARK UNBOUND:                 0.000
REMARK SMILES C=C1CCC[C@]2(C)CC(=O)C(=C(C)C)C[C@@H]12
REMARK SMILES IDX 13 1 12 2 11 3 15 4 16 5 2 6 1 7 3 8 4 9 5 10 6 11 8 12 9 13
REMARK SMILES IDX 10 14 7 15 14 16
REMARK H PARENT
REMARK Flexibility Score: inf
ROOT
ATOM      1  C   UNL     1     -17.462  -2.116  10.094  1.00  0.00     0.039 C 
ATOM      2  C   UNL     1     -18.970  -2.223  10.094  1.00  0.00    -0.070 C 
ATOM      3  C   UNL     1     -19.614  -3.328   9.615  1.00  0.00    -0.006 C 
ATOM      4  C   UNL     1     -21.131  -3.441   9.681  1.00  0.00     0.047 C 
ATOM      5  C   UNL     1     -21.639  -4.906   9.761  1.00  0.00     0.025 C 
ATOM      6  C   UNL     1     -23.162  -5.058   9.711  1.00  0.00    -0.073 C 
ATOM      7  C   UNL     1     -24.021  -4.022   9.760  1.00  0.00     0.008 C 
ATOM      8  C   UNL     1     -23.735  -6.454   9.629  1.00  0.00     0.031 C 
ATOM      9  C   UNL     1     -22.652  -7.518   9.819  1.00  0.00     0.005 C 
ATOM     10  C   UNL     1     -21.481  -7.328   8.841  1.00  0.00     0.008 C 
ATOM     11  C   UNL     1     -20.978  -5.841   8.692  1.00  0.00    -0.018 C 
ATOM     12  C   UNL     1     -19.444  -5.813   8.904  1.00  0.00     0.088 C 
ATOM     13  C   UNL     1     -18.895  -4.416   8.894  1.00  0.00     0.159 C 
ATOM     14  O   UNL     1     -17.834  -4.190   8.254  1.00  0.00    -0.295 OA
ATOM     15  C   UNL     1     -21.305  -5.355   7.254  1.00  0.00     0.012 C 
ATOM     16  C   UNL     1     -19.737  -1.062  10.687  1.00  0.00     0.039 C 
ENDROOT
TORSDOF 0
ENDMDL
MODEL 8
REMARK VINA RESULT:    -4.736      2.051      4.770
REMARK INTER + INTRA:          -4.736
REMARK INTER:                  -4.736
REMARK INTRA:                   0.000
REMARK UNBOUND:                 0.000
REMARK SMILES C=C1CCC[C@]2(C)CC(=O)C(=C(C)C)C[C@@H]12
REMARK SMILES IDX 13 1 12 2 11 3 15 4 16 5 2 6 1 7 3 8 4 9 5 10 6 11 8 12 9 13
REMARK SMILES IDX 10 14 7 15 14 16
REMARK H PARENT
REMARK Flexibility Score: inf
ROOT
ATOM      1  C   UNL     1     -17.777  -3.686   9.045  1.00  0.00     0.039 C 
ATOM      2  C   UNL     1     -18.289  -2.518   9.856  1.00  0.00    -0.070 C 
ATOM      3  C   UNL     1     -19.624  -2.271  10.002  1.00  0.00    -0.006 C 
ATOM      4  C   UNL     1     -20.119  -1.125  10.874  1.00  0.00     0.047 C 
ATOM      5  C   UNL     1     -21.526  -1.372  11.480  1.00  0.00     0.025 C 
ATOM      6  C   UNL     1     -22.101  -0.190  12.266  1.00  0.00    -0.073 C 
ATOM      7  C   UNL     1     -21.403   0.922  12.563  1.00  0.00     0.008 C 
ATOM      8  C   UNL     1     -23.526  -0.288  12.758  1.00  0.00     0.031 C 
ATOM      9  C   UNL     1     -24.098  -1.692  12.546  1.00  0.00     0.005 C 
ATOM     10  C   UNL     1     -23.971  -2.150  11.084  1.00  0.00     0.008 C 
ATOM     11  C   UNL     1     -22.571  -1.861  10.420  1.00  0.00    -0.018 C 
ATOM     12  C   UNL     1     -22.043  -3.172   9.785  1.00  0.00     0.088 C 
ATOM     13  C   UNL     1     -20.658  -3.015   9.230  1.00  0.00     0.159 C 
ATOM     14  O   UNL     1     -20.403  -3.509   8.099  1.00  0.00    -0.295 OA
ATOM     15  C   UNL     1     -22.768  -0.796   9.306  1.00  0.00     0.012 C 
ATOM     16  C   UNL     1     -17.251  -1.651  10.535  1.00  0.00     0.039 C 
ENDROOT
TORSDOF 0
ENDMDL
MODEL 9
REMARK VINA RESULT:    -4.709      2.120      4.734
REMARK INTER + INTRA:          -4.709
REMARK INTER:                  -4.709
REMARK INTRA:                   0.000
REMARK UNBOUND:                 0.000
REMARK SMILES C=C1CCC[C@]2(C)CC(=O)C(=C(C)C)C[C@@H]12
REMARK SMILES IDX 13 1 12 2 11 3 15 4 16 5 2 6 1 7 3 8 4 9 5 10 6 11 8 12 9 13
REMARK SMILES IDX 10 14 7 15 14 16
REMARK H PARENT
REMARK Flexibility Score: inf
ROOT
ATOM      1  C   UNL     1     -18.972  -0.841  11.514  1.00  0.00     0.039 C 
ATOM      2  C   UNL     1     -18.470  -1.787  10.447  1.00  0.00    -0.070 C 
ATOM      3  C   UNL     1     -19.298  -2.682   9.831  1.00  0.00    -0.006 C 
ATOM      4  C   UNL     1     -18.786  -3.584   8.715  1.00  0.00     0.047 C 
ATOM      5  C   UNL     1     -19.887  -4.000   7.703  1.00  0.00     0.025 C 
ATOM      6  C   UNL     1     -19.429  -4.999   6.636  1.00  0.00    -0.073 C 
ATOM      7  C   UNL     1     -18.148  -5.378   6.465  1.00  0.00     0.008 C 
ATOM      8  C   UNL     1     -20.472  -5.575   5.706  1.00  0.00     0.031 C 
ATOM      9  C   UNL     1     -21.823  -4.875   5.875  1.00  0.00     0.005 C 
ATOM     10  C   UNL     1     -22.298  -4.887   7.337  1.00  0.00     0.008 C 
ATOM     11  C   UNL     1     -21.189  -4.525   8.397  1.00  0.00    -0.018 C 
ATOM     12  C   UNL     1     -21.732  -3.407   9.321  1.00  0.00     0.088 C 
ATOM     13  C   UNL     1     -20.695  -2.918  10.290  1.00  0.00     0.159 C 
ATOM     14  O   UNL     1     -21.032  -2.732  11.490  1.00  0.00    -0.295 OA
ATOM     15  C   UNL     1     -20.891  -5.791   9.247  1.00  0.00     0.012 C 
ATOM     16  C   UNL     1     -17.012  -1.671  10.062  1.00  0.00     0.039 C 
ENDROOT
TORSDOF 0
ENDMDL
