MODEL 1
REMARK VINA RESULT:    -4.312      0.000      0.000
REMARK INTER + INTRA:          -9.308
REMARK INTER:                  -8.093
REMARK INTRA:                  -1.214
REMARK UNBOUND:                -1.214
REMARK SMILES O=C([O-])CCCCCCCCCCCCCCC(=O)[O-]
REMARK SMILES IDX 10 1 9 2 8 3 7 4 6 5 5 6 4 7 2 8 1 9 3 10 11 11 12 12 13 13
REMARK SMILES IDX 14 14 15 15 16 16 17 17 18 18 19 19 20 20
REMARK H PARENT
REMARK Flexibility Score: inf
ROOT
ATOM      1  C   UNL     1     -43.014  27.933  -0.242  1.00  0.00     0.000 C 
ENDROOT
BRANCH   1   2
ATOM      2  C   UNL     1     -44.415  28.571  -0.318  1.00  0.00     0.000 C 
BRANCH   2   3
ATOM      3  C   UNL     1     -45.518  27.665  -0.901  1.00  0.00     0.000 C 
BRANCH   3   4
ATOM      4  C   UNL     1     -45.027  26.305  -1.430  1.00  0.00     0.000 C 
BRANCH   4   5
ATOM      5  C   UNL     1     -45.903  25.756  -2.565  1.00  0.00     0.000 C 
BRANCH   5   6
ATOM      6  C   UNL     1     -46.375  26.887  -3.490  1.00  0.00     0.006 C 
BRANCH   6   7
ATOM      7  C   UNL     1     -46.798  26.371  -4.872  1.00  0.00     0.053 C 
BRANCH   7   8
ATOM      8  C   UNL     1     -45.896  26.879  -5.955  1.00  0.00     0.041 C 
ATOM      9  O   UNL     1     -45.404  26.079  -6.795  1.00  0.00    -0.550 OA
ATOM     10  O   UNL     1     -45.572  28.228  -6.017  1.00  0.00    -0.550 OA
ENDBRANCH   7   8
ENDBRANCH   6   7
ENDBRANCH   5   6
ENDBRANCH   4   5
ENDBRANCH   3   4
ENDBRANCH   2   3
ENDBRANCH   1   2
BRANCH   1  11
ATOM     11  C   UNL     1     -42.611  27.414   1.151  1.00  0.00     0.000 C 
BRANCH  11  12
ATOM     12  C   UNL     1     -43.357  28.126   2.289  1.00  0.00     0.000 C 
BRANCH  12  13
ATOM     13  C   UNL     1     -44.136  27.121   3.148  1.00  0.00     0.000 C 
BRANCH  13  14
ATOM     14  C   UNL     1     -45.560  27.596   3.482  1.00  0.00     0.000 C 
BRANCH  14  15
ATOM     15  C   UNL     1     -45.836  27.709   4.996  1.00  0.00     0.000 C 
BRANCH  15  16
ATOM     16  C   UNL     1     -44.717  27.072   5.840  1.00  0.00     0.006 C 
BRANCH  16  17
ATOM     17  C   UNL     1     -44.271  27.979   6.995  1.00  0.00     0.053 C 
BRANCH  17  18
ATOM     18  C   UNL     1     -42.919  28.573   6.743  1.00  0.00     0.041 C 
ATOM     19  O   UNL     1     -42.680  29.167   5.658  1.00  0.00    -0.550 OA
ATOM     20  O   UNL     1     -41.913  28.442   7.691  1.00  0.00    -0.550 OA
ENDBRANCH  17  18
ENDBRANCH  16  17
ENDBRANCH  15  16
ENDBRANCH  14  15
ENDBRANCH  13  14
ENDBRANCH  12  13
ENDBRANCH  11  12
ENDBRANCH   1  11
TORSDOF 15
ENDMDL
MODEL 2
REMARK VINA RESULT:    -4.294      2.035      9.609
REMARK INTER + INTRA:          -9.274
REMARK INTER:                  -8.289
REMARK INTRA:                  -0.985
REMARK UNBOUND:                -1.214
REMARK SMILES O=C([O-])CCCCCCCCCCCCCCC(=O)[O-]
REMARK SMILES IDX 10 1 9 2 8 3 7 4 6 5 5 6 4 7 2 8 1 9 3 10 11 11 12 12 13 13
REMARK SMILES IDX 14 14 15 15 16 16 17 17 18 18 19 19 20 20
REMARK H PARENT
REMARK Flexibility Score: inf
ROOT
ATOM      1  C   UNL     1     -44.110  27.365   0.334  1.00  0.00     0.000 C 
ENDROOT
BRANCH   1   2
ATOM      2  C   UNL     1     -42.673  27.906   0.463  1.00  0.00     0.000 C 
BRANCH   2   3
ATOM      3  C   UNL     1     -42.566  29.389   0.872  1.00  0.00     0.000 C 
BRANCH   3   4
ATOM      4  C   UNL     1     -43.425  29.792   2.084  1.00  0.00     0.000 C 
BRANCH   4   5
ATOM      5  C   UNL     1     -42.749  29.473   3.426  1.00  0.00     0.000 C 
BRANCH   5   6
ATOM      6  C   UNL     1     -43.788  29.369   4.552  1.00  0.00     0.006 C 
BRANCH   6   7
ATOM      7  C   UNL     1     -43.983  27.924   5.031  1.00  0.00     0.053 C 
BRANCH   7   8
ATOM      8  C   UNL     1     -44.738  27.103   4.030  1.00  0.00     0.041 C 
ATOM      9  O   UNL     1     -45.917  27.414   3.717  1.00  0.00    -0.550 OA
ATOM     10  O   UNL     1     -44.151  25.976   3.470  1.00  0.00    -0.550 OA
ENDBRANCH   7   8
ENDBRANCH   6   7
ENDBRANCH   5   6
ENDBRANCH   4   5
ENDBRANCH   3   4
ENDBRANCH   2   3
ENDBRANCH   1   2
BRANCH   1  11
ATOM     11  C   UNL     1     -44.454  26.753  -1.037  1.00  0.00     0.000 C 
BRANCH  11  12
ATOM     12  C   UNL     1     -45.922  26.969  -1.434  1.00  0.00     0.000 C 
BRANCH  12  13
ATOM     13  C   UNL     1     -46.427  25.818  -2.314  1.00  0.00     0.000 C 
BRANCH  13  14
ATOM     14  C   UNL     1     -46.916  26.289  -3.694  1.00  0.00     0.000 C 
BRANCH  14  15
ATOM     15  C   UNL     1     -46.438  27.709  -4.068  1.00  0.00     0.000 C 
BRANCH  15  16
ATOM     16  C   UNL     1     -46.054  27.819  -5.554  1.00  0.00     0.006 C 
BRANCH  16  17
ATOM     17  C   UNL     1     -45.982  26.448  -6.241  1.00  0.00     0.053 C 
BRANCH  17  18
ATOM     18  C   UNL     1     -46.495  26.504  -7.647  1.00  0.00     0.041 C 
ATOM     19  O   UNL     1     -46.864  27.601  -8.144  1.00  0.00    -0.550 OA
ATOM     20  O   UNL     1     -46.599  25.340  -8.397  1.00  0.00    -0.550 OA
ENDBRANCH  17  18
ENDBRANCH  16  17
ENDBRANCH  15  16
ENDBRANCH  14  15
ENDBRANCH  13  14
ENDBRANCH  12  13
ENDBRANCH  11  12
ENDBRANCH   1  11
TORSDOF 15
ENDMDL
MODEL 3
REMARK VINA RESULT:    -4.289      1.380      2.071
REMARK INTER + INTRA:          -9.265
REMARK INTER:                  -8.123
REMARK INTRA:                  -1.142
REMARK UNBOUND:                -1.214
REMARK SMILES O=C([O-])CCCCCCCCCCCCCCC(=O)[O-]
REMARK SMILES IDX 10 1 9 2 8 3 7 4 6 5 5 6 4 7 2 8 1 9 3 10 11 11 12 12 13 13
REMARK SMILES IDX 14 14 15 15 16 16 17 17 18 18 19 19 20 20
REMARK H PARENT
REMARK Flexibility Score: inf
ROOT
ATOM      1  C   UNL     1     -43.767  27.128   0.017  1.00  0.00     0.000 C 
ENDROOT
BRANCH   1   2
ATOM      2  C   UNL     1     -45.043  27.165  -0.847  1.00  0.00     0.000 C 
BRANCH   2   3
ATOM      3  C   UNL     1     -45.268  25.925  -1.737  1.00  0.00     0.000 C 
BRANCH   3   4
ATOM      4  C   UNL     1     -46.233  26.140  -2.917  1.00  0.00     0.000 C 
BRANCH   4   5
ATOM      5  C   UNL     1     -46.359  27.616  -3.323  1.00  0.00     0.000 C 
BRANCH   5   6
ATOM      6  C   UNL     1     -46.420  27.762  -4.850  1.00  0.00     0.006 C 
BRANCH   6   7
ATOM      7  C   UNL     1     -46.235  26.419  -5.570  1.00  0.00     0.053 C 
BRANCH   7   8
ATOM      8  C   UNL     1     -45.832  26.606  -7.001  1.00  0.00     0.041 C 
ATOM      9  O   UNL     1     -45.150  27.608  -7.340  1.00  0.00    -0.550 OA
ATOM     10  O   UNL     1     -46.238  25.691  -7.964  1.00  0.00    -0.550 OA
ENDBRANCH   7   8
ENDBRANCH   6   7
ENDBRANCH   5   6
ENDBRANCH   4   5
ENDBRANCH   3   4
ENDBRANCH   2   3
ENDBRANCH   1   2
BRANCH   1  11
ATOM     11  C   UNL     1     -42.767  28.267  -0.254  1.00  0.00     0.000 C 
BRANCH  11  12
ATOM     12  C   UNL     1     -42.567  29.185   0.962  1.00  0.00     0.000 C 
BRANCH  12  13
ATOM     13  C   UNL     1     -43.818  30.036   1.219  1.00  0.00     0.000 C 
BRANCH  13  14
ATOM     14  C   UNL     1     -44.237  30.052   2.699  1.00  0.00     0.000 C 
BRANCH  14  15
ATOM     15  C   UNL     1     -44.957  28.764   3.152  1.00  0.00     0.000 C 
BRANCH  15  16
ATOM     16  C   UNL     1     -44.079  27.902   4.076  1.00  0.00     0.006 C 
BRANCH  16  17
ATOM     17  C   UNL     1     -43.274  28.749   5.071  1.00  0.00     0.053 C 
BRANCH  17  18
ATOM     18  C   UNL     1     -42.956  27.986   6.321  1.00  0.00     0.041 C 
ATOM     19  O   UNL     1     -42.082  28.415   7.120  1.00  0.00    -0.550 OA
ATOM     20  O   UNL     1     -43.601  26.785   6.587  1.00  0.00    -0.550 OA
ENDBRANCH  17  18
ENDBRANCH  16  17
ENDBRANCH  15  16
ENDBRANCH  14  15
ENDBRANCH  13  14
ENDBRANCH  12  13
ENDBRANCH  11  12
ENDBRANCH   1  11
TORSDOF 15
ENDMDL
MODEL 4
REMARK VINA RESULT:    -4.207      1.808      2.416
REMARK INTER + INTRA:          -9.111
REMARK INTER:                  -8.012
REMARK INTRA:                  -1.099
REMARK UNBOUND:                -1.214
REMARK SMILES O=C([O-])CCCCCCCCCCCCCCC(=O)[O-]
REMARK SMILES IDX 10 1 9 2 8 3 7 4 6 5 5 6 4 7 2 8 1 9 3 10 11 11 12 12 13 13
REMARK SMILES IDX 14 14 15 15 16 16 17 17 18 18 19 19 20 20
REMARK H PARENT
REMARK Flexibility Score: inf
ROOT
ATOM      1  C   UNL     1     -43.386  27.460   0.251  1.00  0.00     0.000 C 
ENDROOT
BRANCH   1   2
ATOM      2  C   UNL     1     -44.526  27.098  -0.721  1.00  0.00     0.000 C 
BRANCH   2   3
ATOM      3  C   UNL     1     -45.470  28.262  -1.087  1.00  0.00     0.000 C 
BRANCH   3   4
ATOM      4  C   UNL     1     -46.033  28.215  -2.519  1.00  0.00     0.000 C 
BRANCH   4   5
ATOM      5  C   UNL     1     -46.627  26.845  -2.881  1.00  0.00     0.000 C 
BRANCH   5   6
ATOM      6  C   UNL     1     -46.148  26.390  -4.268  1.00  0.00     0.006 C 
BRANCH   6   7
ATOM      7  C   UNL     1     -46.569  27.363  -5.377  1.00  0.00     0.053 C 
BRANCH   7   8
ATOM      8  C   UNL     1     -45.667  27.270  -6.570  1.00  0.00     0.041 C 
ATOM      9  O   UNL     1     -45.314  26.144  -7.010  1.00  0.00    -0.550 OA
ATOM     10  O   UNL     1     -45.190  28.426  -7.174  1.00  0.00    -0.550 OA
ENDBRANCH   7   8
ENDBRANCH   6   7
ENDBRANCH   5   6
ENDBRANCH   4   5
ENDBRANCH   3   4
ENDBRANCH   2   3
ENDBRANCH   1   2
BRANCH   1  11
ATOM     11  C   UNL     1     -42.550  28.688  -0.156  1.00  0.00     0.000 C 
BRANCH  11  12
ATOM     12  C   UNL     1     -42.586  29.807   0.894  1.00  0.00     0.000 C 
BRANCH  12  13
ATOM     13  C   UNL     1     -43.378  29.372   2.135  1.00  0.00     0.000 C 
BRANCH  13  14
ATOM     14  C   UNL     1     -42.630  29.649   3.450  1.00  0.00     0.000 C 
BRANCH  14  15
ATOM     15  C   UNL     1     -43.523  29.536   4.704  1.00  0.00     0.000 C 
BRANCH  15  16
ATOM     16  C   UNL     1     -43.190  28.292   5.546  1.00  0.00     0.006 C 
BRANCH  16  17
ATOM     17  C   UNL     1     -44.404  27.371   5.730  1.00  0.00     0.053 C 
BRANCH  17  18
ATOM     18  C   UNL     1     -45.022  26.997   4.418  1.00  0.00     0.041 C 
ATOM     19  O   UNL     1     -46.213  27.317   4.164  1.00  0.00    -0.550 OA
ATOM     20  O   UNL     1     -44.294  26.264   3.489  1.00  0.00    -0.550 OA
ENDBRANCH  17  18
ENDBRANCH  16  17
ENDBRANCH  15  16
ENDBRANCH  14  15
ENDBRANCH  13  14
ENDBRANCH  12  13
ENDBRANCH  11  12
ENDBRANCH   1  11
TORSDOF 15
ENDMDL
MODEL 5
REMARK VINA RESULT:    -4.194      1.806      9.445
REMARK INTER + INTRA:          -9.086
REMARK INTER:                  -8.054
REMARK INTRA:                  -1.032
REMARK UNBOUND:                -1.214
REMARK SMILES O=C([O-])CCCCCCCCCCCCCCC(=O)[O-]
REMARK SMILES IDX 10 1 9 2 8 3 7 4 6 5 5 6 4 7 2 8 1 9 3 10 11 11 12 12 13 13
REMARK SMILES IDX 14 14 15 15 16 16 17 17 18 18 19 19 20 20
REMARK H PARENT
REMARK Flexibility Score: inf
ROOT
ATOM      1  C   UNL     1     -42.667  27.854   0.267  1.00  0.00     0.000 C 
ENDROOT
BRANCH   1   2
ATOM      2  C   UNL     1     -42.782  29.389   0.194  1.00  0.00     0.000 C 
BRANCH   2   3
ATOM      3  C   UNL     1     -42.591  30.125   1.536  1.00  0.00     0.000 C 
BRANCH   3   4
ATOM      4  C   UNL     1     -43.739  29.941   2.546  1.00  0.00     0.000 C 
BRANCH   4   5
ATOM      5  C   UNL     1     -43.315  29.151   3.792  1.00  0.00     0.000 C 
BRANCH   5   6
ATOM      6  C   UNL     1     -44.050  27.804   3.864  1.00  0.00     0.006 C 
BRANCH   6   7
ATOM      7  C   UNL     1     -44.345  27.379   5.308  1.00  0.00     0.053 C 
BRANCH   7   8
ATOM      8  C   UNL     1     -45.816  27.266   5.566  1.00  0.00     0.041 C 
ATOM      9  O   UNL     1     -46.623  27.196   4.603  1.00  0.00    -0.550 OA
ATOM     10  O   UNL     1     -46.297  27.273   6.869  1.00  0.00    -0.550 OA
ENDBRANCH   7   8
ENDBRANCH   6   7
ENDBRANCH   5   6
ENDBRANCH   4   5
ENDBRANCH   3   4
ENDBRANCH   2   3
ENDBRANCH   1   2
BRANCH   1  11
ATOM     11  C   UNL     1     -44.009  27.100   0.228  1.00  0.00     0.000 C 
BRANCH  11  12
ATOM     12  C   UNL     1     -44.771  27.309  -1.089  1.00  0.00     0.000 C 
BRANCH  12  13
ATOM     13  C   UNL     1     -45.282  25.974  -1.646  1.00  0.00     0.000 C 
BRANCH  13  14
ATOM     14  C   UNL     1     -46.275  26.149  -2.807  1.00  0.00     0.000 C 
BRANCH  14  15
ATOM     15  C   UNL     1     -46.412  27.609  -3.289  1.00  0.00     0.000 C 
BRANCH  15  16
ATOM     16  C   UNL     1     -46.746  27.698  -4.789  1.00  0.00     0.006 C 
BRANCH  16  17
ATOM     17  C   UNL     1     -46.280  26.457  -5.563  1.00  0.00     0.053 C 
BRANCH  17  18
ATOM     18  C   UNL     1     -45.751  26.814  -6.918  1.00  0.00     0.041 C 
ATOM     19  O   UNL     1     -45.816  25.984  -7.863  1.00  0.00    -0.550 OA
ATOM     20  O   UNL     1     -45.154  28.050  -7.129  1.00  0.00    -0.550 OA
ENDBRANCH  17  18
ENDBRANCH  16  17
ENDBRANCH  15  16
ENDBRANCH  14  15
ENDBRANCH  13  14
ENDBRANCH  12  13
ENDBRANCH  11  12
ENDBRANCH   1  11
TORSDOF 15
ENDMDL
MODEL 6
REMARK VINA RESULT:    -4.186      1.067     10.194
REMARK INTER + INTRA:          -9.071
REMARK INTER:                  -8.251
REMARK INTRA:                  -0.820
REMARK UNBOUND:                -1.214
REMARK SMILES O=C([O-])CCCCCCCCCCCCCCC(=O)[O-]
REMARK SMILES IDX 10 1 9 2 8 3 7 4 6 5 5 6 4 7 2 8 1 9 3 10 11 11 12 12 13 13
REMARK SMILES IDX 14 14 15 15 16 16 17 17 18 18 19 19 20 20
REMARK H PARENT
REMARK Flexibility Score: inf
ROOT
ATOM      1  C   UNL     1     -43.231  27.595  -0.176  1.00  0.00     0.000 C 
ENDROOT
BRANCH   1   2
ATOM      2  C   UNL     1     -42.693  27.613   1.268  1.00  0.00     0.000 C 
BRANCH   2   3
ATOM      3  C   UNL     1     -43.721  28.014   2.346  1.00  0.00     0.000 C 
BRANCH   3   4
ATOM      4  C   UNL     1     -44.195  26.862   3.250  1.00  0.00     0.000 C 
BRANCH   4   5
ATOM      5  C   UNL     1     -44.970  27.352   4.482  1.00  0.00     0.000 C 
BRANCH   5   6
ATOM      6  C   UNL     1     -44.056  28.150   5.423  1.00  0.00     0.006 C 
BRANCH   6   7
ATOM      7  C   UNL     1     -43.579  27.313   6.618  1.00  0.00     0.053 C 
BRANCH   7   8
ATOM      8  C   UNL     1     -43.055  28.175   7.726  1.00  0.00     0.041 C 
ATOM      9  O   UNL     1     -41.851  28.543   7.725  1.00  0.00    -0.550 OA
ATOM     10  O   UNL     1     -43.887  28.541   8.776  1.00  0.00    -0.550 OA
ENDBRANCH   7   8
ENDBRANCH   6   7
ENDBRANCH   5   6
ENDBRANCH   4   5
ENDBRANCH   3   4
ENDBRANCH   2   3
ENDBRANCH   1   2
BRANCH   1  11
ATOM     11  C   UNL     1     -44.620  28.233  -0.359  1.00  0.00     0.000 C 
BRANCH  11  12
ATOM     12  C   UNL     1     -45.717  27.197  -0.646  1.00  0.00     0.000 C 
BRANCH  12  13
ATOM     13  C   UNL     1     -45.219  26.128  -1.627  1.00  0.00     0.000 C 
BRANCH  13  14
ATOM     14  C   UNL     1     -45.974  26.146  -2.967  1.00  0.00     0.000 C 
BRANCH  14  15
ATOM     15  C   UNL     1     -46.311  27.567  -3.468  1.00  0.00     0.000 C 
BRANCH  15  16
ATOM     16  C   UNL     1     -46.867  27.561  -4.903  1.00  0.00     0.006 C 
BRANCH  16  17
ATOM     17  C   UNL     1     -45.849  28.086  -5.924  1.00  0.00     0.053 C 
BRANCH  17  18
ATOM     18  C   UNL     1     -45.853  27.272  -7.181  1.00  0.00     0.041 C 
ATOM     19  O   UNL     1     -46.512  27.657  -8.183  1.00  0.00    -0.550 OA
ATOM     20  O   UNL     1     -45.157  26.072  -7.236  1.00  0.00    -0.550 OA
ENDBRANCH  17  18
ENDBRANCH  16  17
ENDBRANCH  15  16
ENDBRANCH  14  15
ENDBRANCH  13  14
ENDBRANCH  12  13
ENDBRANCH  11  12
ENDBRANCH   1  11
TORSDOF 15
ENDMDL
MODEL 7
REMARK VINA RESULT:    -4.169      1.798      2.521
REMARK INTER + INTRA:          -9.038
REMARK INTER:                  -7.202
REMARK INTRA:                  -1.837
REMARK UNBOUND:                -1.214
REMARK SMILES O=C([O-])CCCCCCCCCCCCCCC(=O)[O-]
REMARK SMILES IDX 10 1 9 2 8 3 7 4 6 5 5 6 4 7 2 8 1 9 3 10 11 11 12 12 13 13
REMARK SMILES IDX 14 14 15 15 16 16 17 17 18 18 19 19 20 20
REMARK H PARENT
REMARK Flexibility Score: inf
ROOT
ATOM      1  C   UNL     1     -42.432  28.227   0.159  1.00  0.00     0.000 C 
ENDROOT
BRANCH   1   2
ATOM      2  C   UNL     1     -42.908  29.683   0.322  1.00  0.00     0.000 C 
BRANCH   2   3
ATOM      3  C   UNL     1     -44.127  30.075  -0.536  1.00  0.00     0.000 C 
BRANCH   3   4
ATOM      4  C   UNL     1     -45.487  29.961   0.178  1.00  0.00     0.000 C 
BRANCH   4   5
ATOM      5  C   UNL     1     -46.131  28.577   0.016  1.00  0.00     0.000 C 
BRANCH   5   6
ATOM      6  C   UNL     1     -45.993  28.074  -1.428  1.00  0.00     0.006 C 
BRANCH   6   7
ATOM      7  C   UNL     1     -45.276  26.719  -1.506  1.00  0.00     0.053 C 
BRANCH   7   8
ATOM      8  C   UNL     1     -46.142  25.666  -2.126  1.00  0.00     0.041 C 
ATOM      9  O   UNL     1     -46.178  24.507  -1.635  1.00  0.00    -0.550 OA
ATOM     10  O   UNL     1     -46.882  25.954  -3.265  1.00  0.00    -0.550 OA
ENDBRANCH   7   8
ENDBRANCH   6   7
ENDBRANCH   5   6
ENDBRANCH   4   5
ENDBRANCH   3   4
ENDBRANCH   2   3
ENDBRANCH   1   2
BRANCH   1  11
ATOM     11  C   UNL     1     -42.870  27.270   1.283  1.00  0.00     0.000 C 
BRANCH  11  12
ATOM     12  C   UNL     1     -43.384  28.011   2.527  1.00  0.00     0.000 C 
BRANCH  12  13
ATOM     13  C   UNL     1     -44.471  27.195   3.241  1.00  0.00     0.000 C 
BRANCH  13  14
ATOM     14  C   UNL     1     -45.423  28.068   4.075  1.00  0.00     0.000 C 
BRANCH  14  15
ATOM     15  C   UNL     1     -45.824  27.432   5.423  1.00  0.00     0.000 C 
BRANCH  15  16
ATOM     16  C   UNL     1     -45.263  28.214   6.624  1.00  0.00     0.006 C 
BRANCH  16  17
ATOM     17  C   UNL     1     -43.992  27.571   7.195  1.00  0.00     0.053 C 
BRANCH  17  18
ATOM     18  C   UNL     1     -42.782  28.422   6.956  1.00  0.00     0.041 C 
ATOM     19  O   UNL     1     -42.563  28.904   5.813  1.00  0.00    -0.550 OA
ATOM     20  O   UNL     1     -41.880  28.655   7.985  1.00  0.00    -0.550 OA
ENDBRANCH  17  18
ENDBRANCH  16  17
ENDBRANCH  15  16
ENDBRANCH  14  15
ENDBRANCH  13  14
ENDBRANCH  12  13
ENDBRANCH  11  12
ENDBRANCH   1  11
TORSDOF 15
ENDMDL
MODEL 8
REMARK VINA RESULT:    -4.112      2.505      8.585
REMARK INTER + INTRA:          -8.933
REMARK INTER:                  -7.123
REMARK INTRA:                  -1.810
REMARK UNBOUND:                -1.214
REMARK SMILES O=C([O-])CCCCCCCCCCCCCCC(=O)[O-]
REMARK SMILES IDX 10 1 9 2 8 3 7 4 6 5 5 6 4 7 2 8 1 9 3 10 11 11 12 12 13 13
REMARK SMILES IDX 14 14 15 15 16 16 17 17 18 18 19 19 20 20
REMARK H PARENT
REMARK Flexibility Score: inf
ROOT
ATOM      1  C   UNL     1     -43.286  27.164   1.988  1.00  0.00     0.000 C 
ENDROOT
BRANCH   1   2
ATOM      2  C   UNL     1     -44.522  27.549   2.824  1.00  0.00     0.000 C 
BRANCH   2   3
ATOM      3  C   UNL     1     -44.435  28.917   3.531  1.00  0.00     0.000 C 
BRANCH   3   4
ATOM      4  C   UNL     1     -43.125  29.167   4.301  1.00  0.00     0.000 C 
BRANCH   4   5
ATOM      5  C   UNL     1     -43.333  29.260   5.819  1.00  0.00     0.000 C 
BRANCH   5   6
ATOM      6  C   UNL     1     -42.799  28.004   6.524  1.00  0.00     0.006 C 
BRANCH   6   7
ATOM      7  C   UNL     1     -43.776  26.824   6.429  1.00  0.00     0.053 C 
BRANCH   7   8
ATOM      8  C   UNL     1     -45.153  27.205   6.879  1.00  0.00     0.041 C 
ATOM      9  O   UNL     1     -45.360  27.529   8.078  1.00  0.00    -0.550 OA
ATOM     10  O   UNL     1     -46.213  27.169   5.983  1.00  0.00    -0.550 OA
ENDBRANCH   7   8
ENDBRANCH   6   7
ENDBRANCH   5   6
ENDBRANCH   4   5
ENDBRANCH   3   4
ENDBRANCH   2   3
ENDBRANCH   1   2
BRANCH   1  11
ATOM     11  C   UNL     1     -43.505  27.168   0.464  1.00  0.00     0.000 C 
BRANCH  11  12
ATOM     12  C   UNL     1     -42.726  28.284  -0.247  1.00  0.00     0.000 C 
BRANCH  12  13
ATOM     13  C   UNL     1     -43.462  29.626  -0.132  1.00  0.00     0.000 C 
BRANCH  13  14
ATOM     14  C   UNL     1     -44.983  29.493  -0.320  1.00  0.00     0.000 C 
BRANCH  14  15
ATOM     15  C   UNL     1     -45.425  29.480  -1.799  1.00  0.00     0.000 C 
BRANCH  15  16
ATOM     16  C   UNL     1     -46.519  28.432  -2.069  1.00  0.00     0.006 C 
BRANCH  16  17
ATOM     17  C   UNL     1     -45.936  27.078  -2.497  1.00  0.00     0.053 C 
BRANCH  17  18
ATOM     18  C   UNL     1     -46.201  26.012  -1.478  1.00  0.00     0.041 C 
ATOM     19  O   UNL     1     -45.830  24.827  -1.690  1.00  0.00    -0.550 OA
ATOM     20  O   UNL     1     -46.887  26.320  -0.310  1.00  0.00    -0.550 OA
ENDBRANCH  17  18
ENDBRANCH  16  17
ENDBRANCH  15  16
ENDBRANCH  14  15
ENDBRANCH  13  14
ENDBRANCH  12  13
ENDBRANCH  11  12
ENDBRANCH   1  11
TORSDOF 15
ENDMDL
MODEL 9
REMARK VINA RESULT:    -4.044      1.906      3.309
REMARK INTER + INTRA:          -8.805
REMARK INTER:                  -8.072
REMARK INTRA:                  -0.733
REMARK UNBOUND:                -1.214
REMARK SMILES O=C([O-])CCCCCCCCCCCCCCC(=O)[O-]
REMARK SMILES IDX 10 1 9 2 8 3 7 4 6 5 5 6 4 7 2 8 1 9 3 10 11 11 12 12 13 13
REMARK SMILES IDX 14 14 15 15 16 16 17 17 18 18 19 19 20 20
REMARK H PARENT
REMARK Flexibility Score: inf
ROOT
ATOM      1  C   UNL     1     -44.877  26.302  -1.425  1.00  0.00     0.000 C 
ENDROOT
BRANCH   1   2
ATOM      2  C   UNL     1     -46.294  26.327  -2.029  1.00  0.00     0.000 C 
BRANCH   2   3
ATOM      3  C   UNL     1     -46.369  26.767  -3.506  1.00  0.00     0.000 C 
BRANCH   3   4
ATOM      4  C   UNL     1     -46.346  28.291  -3.731  1.00  0.00     0.000 C 
BRANCH   4   5
ATOM      5  C   UNL     1     -46.782  28.690  -5.148  1.00  0.00     0.000 C 
BRANCH   5   6
ATOM      6  C   UNL     1     -45.579  28.723  -6.102  1.00  0.00     0.006 C 
BRANCH   6   7
ATOM      7  C   UNL     1     -45.976  28.406  -7.550  1.00  0.00     0.053 C 
BRANCH   7   8
ATOM      8  C   UNL     1     -46.053  26.930  -7.796  1.00  0.00     0.041 C 
ATOM      9  O   UNL     1     -46.861  26.472  -8.645  1.00  0.00    -0.550 OA
ATOM     10  O   UNL     1     -45.257  26.060  -7.062  1.00  0.00    -0.550 OA
ENDBRANCH   7   8
ENDBRANCH   6   7
ENDBRANCH   5   6
ENDBRANCH   4   5
ENDBRANCH   3   4
ENDBRANCH   2   3
ENDBRANCH   1   2
BRANCH   1  11
ATOM     11  C   UNL     1     -44.458  27.592  -0.696  1.00  0.00     0.000 C 
BRANCH  11  12
ATOM     12  C   UNL     1     -43.273  27.379   0.258  1.00  0.00     0.000 C 
BRANCH  12  13
ATOM     13  C   UNL     1     -42.546  28.701   0.534  1.00  0.00     0.000 C 
BRANCH  13  14
ATOM     14  C   UNL     1     -43.503  29.844   0.913  1.00  0.00     0.000 C 
BRANCH  14  15
ATOM     15  C   UNL     1     -43.836  29.898   2.420  1.00  0.00     0.000 C 
BRANCH  15  16
ATOM     16  C   UNL     1     -43.014  28.883   3.233  1.00  0.00     0.006 C 
BRANCH  16  17
ATOM     17  C   UNL     1     -43.708  28.488   4.544  1.00  0.00     0.053 C 
BRANCH  17  18
ATOM     18  C   UNL     1     -44.649  27.339   4.350  1.00  0.00     0.041 C 
ATOM     19  O   UNL     1     -45.625  27.180   5.130  1.00  0.00    -0.550 OA
ATOM     20  O   UNL     1     -44.428  26.423   3.330  1.00  0.00    -0.550 OA
ENDBRANCH  17  18
ENDBRANCH  16  17
ENDBRANCH  15  16
ENDBRANCH  14  15
ENDBRANCH  13  14
ENDBRANCH  12  13
ENDBRANCH  11  12
ENDBRANCH   1  11
TORSDOF 15
ENDMDL
