MODEL 1
REMARK VINA RESULT:    -3.146      0.000      0.000
REMARK INTER + INTRA:          -3.896
REMARK INTER:                  -3.606
REMARK INTRA:                  -0.290
REMARK UNBOUND:                -0.290
REMARK SMILES O=C1C[C@@H](c2ccc(O)cc2)Oc2cc(O)cc(O)c21
REMARK SMILES IDX 3 1 4 2 12 3 13 4 14 5 15 6 17 7 18 8 20 9 2 10 1 11 5 12
REMARK SMILES IDX 6 13 11 14 7 15 10 16 8 17 9 18 19 20 16 22
REMARK H PARENT 9 19 19 21 16 23
REMARK Flexibility Score: inf
ROOT
ATOM      1  C   UNL     1       6.533  -5.646 -14.299  1.00  0.00     0.131 C 
ATOM      2  C   UNL     1       5.152  -5.026 -14.559  1.00  0.00     0.211 C 
ATOM      3  O   UNL     1       4.233  -5.395 -13.527  1.00  0.00    -0.484 OA
ATOM      4  C   UNL     1       4.602  -5.471 -12.177  1.00  0.00     0.138 A 
ATOM      5  C   UNL     1       3.601  -5.563 -11.207  1.00  0.00     0.093 A 
ATOM      6  C   UNL     1       3.937  -5.625  -9.852  1.00  0.00     0.123 A 
ATOM      7  C   UNL     1       5.280  -5.624  -9.469  1.00  0.00     0.093 A 
ATOM      8  C   UNL     1       6.301  -5.573 -10.428  1.00  0.00     0.133 A 
ATOM      9  C   UNL     1       5.962  -5.461 -11.802  1.00  0.00     0.102 A 
ATOM     10  C   UNL     1       6.957  -5.329 -12.896  1.00  0.00     0.174 C 
ATOM     11  O   UNL     1       8.125  -4.910 -12.683  1.00  0.00    -0.294 OA
ENDROOT
BRANCH   2  12
ATOM     12  C   UNL     1       4.620  -5.454 -15.905  1.00  0.00    -0.007 A 
ATOM     13  C   UNL     1       5.327  -6.381 -16.692  1.00  0.00     0.011 A 
ATOM     14  C   UNL     1       3.438  -4.887 -16.411  1.00  0.00     0.011 A 
ATOM     15  C   UNL     1       4.845  -6.752 -17.951  1.00  0.00     0.046 A 
ATOM     16  C   UNL     1       2.959  -5.259 -17.671  1.00  0.00     0.046 A 
ATOM     17  C   UNL     1       3.659  -6.193 -18.443  1.00  0.00     0.115 A 
BRANCH  17  18
ATOM     18  O   UNL     1       3.169  -6.554 -19.697  1.00  0.00    -0.508 OA
ATOM     19  H   UNL     1       3.752  -6.514 -20.524  1.00  0.00     0.293 HD
ENDBRANCH  17  18
ENDBRANCH   2  12
BRANCH   8  20
ATOM     20  O   UNL     1       7.616  -5.670  -9.971  1.00  0.00    -0.507 OA
ATOM     21  H   UNL     1       7.874  -5.704  -8.995  1.00  0.00     0.293 HD
ENDBRANCH   8  20
BRANCH   6  22
ATOM     22  O   UNL     1       2.945  -5.696  -8.876  1.00  0.00    -0.508 OA
ATOM     23  H   UNL     1       3.133  -6.077  -7.956  1.00  0.00     0.293 HD
ENDBRANCH   6  22
TORSDOF 4
ENDMDL
