MODEL 1
REMARK VINA RESULT:    -4.415      0.000      0.000
REMARK INTER + INTRA:          -5.452
REMARK INTER:                  -5.319
REMARK INTRA:                  -0.133
REMARK UNBOUND:                -0.133
REMARK SMILES NC(=O)C[C@H]([NH3+])C(=O)[O-]
REMARK SMILES IDX 4 1 5 2 6 3 7 7 8 8 9 9 2 10 3 11 1 12
REMARK H PARENT 6 4 6 5 6 6 1 13 1 14
REMARK Flexibility Score: inf
ROOT
ATOM      1  C   UNL     1     156.763 166.788 231.813  1.00  0.00     0.171 C 
ENDROOT
BRANCH   1   2
ATOM      2  C   UNL     1     156.883 166.572 230.291  1.00  0.00     0.237 C 
BRANCH   2   3
ATOM      3  N   UNL     1     155.607 166.830 229.610  1.00  0.00    -0.350 N 
ATOM      4  H   UNL     1     154.910 166.081 229.831  1.00  0.00     0.345 HD
ATOM      5  H   UNL     1     155.224 167.756 229.906  1.00  0.00     0.345 HD
ATOM      6  H   UNL     1     155.758 166.863 228.575  1.00  0.00     0.345 HD
ENDBRANCH   2   3
BRANCH   2   7
ATOM      7  C   UNL     1     157.341 165.166 230.015  1.00  0.00     0.100 C 
ATOM      8  O   UNL     1     158.531 164.943 229.668  1.00  0.00    -0.544 OA
ATOM      9  O   UNL     1     156.460 164.100 230.158  1.00  0.00    -0.544 OA
ENDBRANCH   2   7
ENDBRANCH   1   2
BRANCH   1  10
ATOM     10  C   UNL     1     157.887 167.630 232.346  1.00  0.00     0.223 C 
ATOM     11  O   UNL     1     158.040 167.752 233.590  1.00  0.00    -0.275 OA
ATOM     12  N   UNL     1     158.804 168.263 231.454  1.00  0.00    -0.369 N 
ATOM     13  H   UNL     1     158.707 168.153 230.420  1.00  0.00     0.159 HD
ATOM     14  H   UNL     1     159.590 168.839 231.828  1.00  0.00     0.159 HD
ENDBRANCH   1  10
TORSDOF 4
ENDMDL
MODEL 2
REMARK VINA RESULT:    -4.411     14.419     15.500
REMARK INTER + INTRA:          -5.447
REMARK INTER:                  -5.307
REMARK INTRA:                  -0.139
REMARK UNBOUND:                -0.133
REMARK SMILES NC(=O)C[C@H]([NH3+])C(=O)[O-]
REMARK SMILES IDX 4 1 5 2 6 3 7 7 8 8 9 9 2 10 3 11 1 12
REMARK H PARENT 6 4 6 5 6 6 1 13 1 14
REMARK Flexibility Score: inf
ROOT
ATOM      1  C   UNL     1     161.334 151.100 231.334  1.00  0.00     0.171 C 
ENDROOT
BRANCH   1   2
ATOM      2  C   UNL     1     161.046 151.496 229.871  1.00  0.00     0.237 C 
BRANCH   2   3
ATOM      3  N   UNL     1     162.195 151.211 229.002  1.00  0.00    -0.350 N 
ATOM      4  H   UNL     1     162.603 150.272 229.221  1.00  0.00     0.345 HD
ATOM      5  H   UNL     1     161.901 151.234 228.000  1.00  0.00     0.345 HD
ATOM      6  H   UNL     1     162.931 151.943 229.136  1.00  0.00     0.345 HD
ENDBRANCH   2   3
BRANCH   2   7
ATOM      7  C   UNL     1     160.697 152.959 229.804  1.00  0.00     0.100 C 
ATOM      8  O   UNL     1     159.517 153.318 229.548  1.00  0.00    -0.544 OA
ATOM      9  O   UNL     1     161.669 153.923 230.040  1.00  0.00    -0.544 OA
ENDBRANCH   2   7
ENDBRANCH   1   2
BRANCH   1  10
ATOM     10  C   UNL     1     160.127 150.499 231.995  1.00  0.00     0.223 C 
ATOM     11  O   UNL     1     160.048 150.480 233.252  1.00  0.00    -0.275 OA
ATOM     12  N   UNL     1     159.053 149.981 231.210  1.00  0.00    -0.369 N 
ATOM     13  H   UNL     1     159.091 150.010 230.167  1.00  0.00     0.159 HD
ATOM     14  H   UNL     1     158.211 149.573 231.673  1.00  0.00     0.159 HD
ENDBRANCH   1  10
TORSDOF 4
ENDMDL
MODEL 3
REMARK VINA RESULT:    -4.407      1.227      3.683
REMARK INTER + INTRA:          -5.442
REMARK INTER:                  -5.350
REMARK INTRA:                  -0.091
REMARK UNBOUND:                -0.133
REMARK SMILES NC(=O)C[C@H]([NH3+])C(=O)[O-]
REMARK SMILES IDX 4 1 5 2 6 3 7 7 8 8 9 9 2 10 3 11 1 12
REMARK H PARENT 6 4 6 5 6 6 1 13 1 14
REMARK Flexibility Score: inf
ROOT
ATOM      1  C   UNL     1     157.701 166.585 230.325  1.00  0.00     0.171 C 
ENDROOT
BRANCH   1   2
ATOM      2  C   UNL     1     157.770 167.585 231.496  1.00  0.00     0.237 C 
BRANCH   2   3
ATOM      3  N   UNL     1     159.019 168.358 231.469  1.00  0.00    -0.350 N 
ATOM      4  H   UNL     1     159.276 168.683 232.430  1.00  0.00     0.345 HD
ATOM      5  H   UNL     1     159.795 167.772 231.084  1.00  0.00     0.345 HD
ATOM      6  H   UNL     1     158.907 169.190 230.845  1.00  0.00     0.345 HD
ENDBRANCH   2   3
BRANCH   2   7
ATOM      7  C   UNL     1     157.649 166.844 232.800  1.00  0.00     0.100 C 
ATOM      8  O   UNL     1     157.254 167.444 233.835  1.00  0.00    -0.544 OA
ATOM      9  O   UNL     1     157.955 165.490 232.870  1.00  0.00    -0.544 OA
ENDBRANCH   2   7
ENDBRANCH   1   2
BRANCH   1  10
ATOM     10  C   UNL     1     156.295 166.124 230.069  1.00  0.00     0.223 C 
ATOM     11  O   UNL     1     156.013 164.899 230.163  1.00  0.00    -0.275 OA
ATOM     12  N   UNL     1     155.269 167.065 229.756  1.00  0.00    -0.369 N 
ATOM     13  H   UNL     1     155.480 168.086 229.697  1.00  0.00     0.159 HD
ATOM     14  H   UNL     1     154.290 166.742 229.589  1.00  0.00     0.159 HD
ENDBRANCH   1  10
TORSDOF 4
ENDMDL
MODEL 4
REMARK VINA RESULT:    -4.377     10.227     11.926
REMARK INTER + INTRA:          -5.407
REMARK INTER:                  -5.121
REMARK INTRA:                  -0.285
REMARK UNBOUND:                -0.133
REMARK SMILES NC(=O)C[C@H]([NH3+])C(=O)[O-]
REMARK SMILES IDX 4 1 5 2 6 3 7 7 8 8 9 9 2 10 3 11 1 12
REMARK H PARENT 6 4 6 5 6 6 1 13 1 14
REMARK Flexibility Score: inf
ROOT
ATOM      1  C   UNL     1     159.394 162.034 219.870  1.00  0.00     0.171 C 
ENDROOT
BRANCH   1   2
ATOM      2  C   UNL     1     158.929 162.669 221.196  1.00  0.00     0.237 C 
BRANCH   2   3
ATOM      3  N   UNL     1     157.674 163.412 221.025  1.00  0.00    -0.350 N 
ATOM      4  H   UNL     1     157.767 164.130 220.268  1.00  0.00     0.345 HD
ATOM      5  H   UNL     1     156.898 162.755 220.783  1.00  0.00     0.345 HD
ATOM      6  H   UNL     1     157.420 163.890 221.920  1.00  0.00     0.345 HD
ENDBRANCH   2   3
BRANCH   2   7
ATOM      7  C   UNL     1     160.003 163.584 221.721  1.00  0.00     0.100 C 
ATOM      8  O   UNL     1     161.136 163.123 222.023  1.00  0.00    -0.544 OA
ATOM      9  O   UNL     1     159.759 164.945 221.861  1.00  0.00    -0.544 OA
ENDBRANCH   2   7
ENDBRANCH   1   2
BRANCH   1  10
ATOM     10  C   UNL     1     158.233 161.687 218.983  1.00  0.00     0.223 C 
ATOM     11  O   UNL     1     157.326 160.925 219.411  1.00  0.00    -0.275 OA
ATOM     12  N   UNL     1     158.131 162.243 217.672  1.00  0.00    -0.369 N 
ATOM     13  H   UNL     1     158.861 162.896 217.310  1.00  0.00     0.159 HD
ATOM     14  H   UNL     1     157.317 162.008 217.062  1.00  0.00     0.159 HD
ENDBRANCH   1  10
TORSDOF 4
ENDMDL
MODEL 5
REMARK VINA RESULT:    -4.316     15.021     15.606
REMARK INTER + INTRA:          -5.332
REMARK INTER:                  -5.212
REMARK INTRA:                  -0.120
REMARK UNBOUND:                -0.133
REMARK SMILES NC(=O)C[C@H]([NH3+])C(=O)[O-]
REMARK SMILES IDX 4 1 5 2 6 3 7 7 8 8 9 9 2 10 3 11 1 12
REMARK H PARENT 6 4 6 5 6 6 1 13 1 14
REMARK Flexibility Score: inf
ROOT
ATOM      1  C   UNL     1     160.435 151.933 230.532  1.00  0.00     0.171 C 
ENDROOT
BRANCH   1   2
ATOM      2  C   UNL     1     160.429 150.788 231.566  1.00  0.00     0.237 C 
BRANCH   2   3
ATOM      3  N   UNL     1     159.243 149.935 231.416  1.00  0.00    -0.350 N 
ATOM      4  H   UNL     1     159.344 149.300 230.590  1.00  0.00     0.345 HD
ATOM      5  H   UNL     1     159.103 149.361 232.278  1.00  0.00     0.345 HD
ATOM      6  H   UNL     1     158.392 150.531 231.286  1.00  0.00     0.345 HD
ENDBRANCH   2   3
BRANCH   2   7
ATOM      7  C   UNL     1     160.480 151.363 232.956  1.00  0.00     0.100 C 
ATOM      8  O   UNL     1     160.646 150.606 233.948  1.00  0.00    -0.544 OA
ATOM      9  O   UNL     1     160.362 152.734 233.153  1.00  0.00    -0.544 OA
ENDBRANCH   2   7
ENDBRANCH   1   2
BRANCH   1  10
ATOM     10  C   UNL     1     161.825 152.258 230.070  1.00  0.00     0.223 C 
ATOM     11  O   UNL     1     162.236 153.448 230.114  1.00  0.00    -0.275 OA
ATOM     12  N   UNL     1     162.697 151.224 229.613  1.00  0.00    -0.369 N 
ATOM     13  H   UNL     1     162.382 150.229 229.591  1.00  0.00     0.159 HD
ATOM     14  H   UNL     1     163.668 151.453 229.302  1.00  0.00     0.159 HD
ENDBRANCH   1  10
TORSDOF 4
ENDMDL
MODEL 6
REMARK VINA RESULT:    -4.316      1.925      3.769
REMARK INTER + INTRA:          -5.332
REMARK INTER:                  -5.257
REMARK INTRA:                  -0.075
REMARK UNBOUND:                -0.133
REMARK SMILES NC(=O)C[C@H]([NH3+])C(=O)[O-]
REMARK SMILES IDX 4 1 5 2 6 3 7 7 8 8 9 9 2 10 3 11 1 12
REMARK H PARENT 6 4 6 5 6 6 1 13 1 14
REMARK Flexibility Score: inf
ROOT
ATOM      1  C   UNL     1     157.201 165.040 230.021  1.00  0.00     0.171 C 
ENDROOT
BRANCH   1   2
ATOM      2  C   UNL     1     156.486 166.284 230.587  1.00  0.00     0.237 C 
BRANCH   2   3
ATOM      3  N   UNL     1     155.663 166.941 229.563  1.00  0.00    -0.350 N 
ATOM      4  H   UNL     1     155.650 166.380 228.680  1.00  0.00     0.345 HD
ATOM      5  H   UNL     1     154.685 167.060 229.911  1.00  0.00     0.345 HD
ATOM      6  H   UNL     1     156.047 167.893 229.357  1.00  0.00     0.345 HD
ENDBRANCH   2   3
BRANCH   2   7
ATOM      7  C   UNL     1     157.505 167.249 231.129  1.00  0.00     0.100 C 
ATOM      8  O   UNL     1     157.344 167.768 232.265  1.00  0.00    -0.544 OA
ATOM      9  O   UNL     1     158.639 167.562 230.390  1.00  0.00    -0.544 OA
ENDBRANCH   2   7
ENDBRANCH   1   2
BRANCH   1  10
ATOM     10  C   UNL     1     156.640 163.769 230.590  1.00  0.00     0.223 C 
ATOM     11  O   UNL     1     156.727 163.547 231.827  1.00  0.00    -0.275 OA
ATOM     12  N   UNL     1     155.978 162.828 229.745  1.00  0.00    -0.369 N 
ATOM     13  H   UNL     1     155.876 163.007 228.722  1.00  0.00     0.159 HD
ATOM     14  H   UNL     1     155.580 161.949 230.146  1.00  0.00     0.159 HD
ENDBRANCH   1  10
TORSDOF 4
ENDMDL
MODEL 7
REMARK VINA RESULT:    -4.303     15.115     15.688
REMARK INTER + INTRA:          -5.317
REMARK INTER:                  -5.046
REMARK INTRA:                  -0.271
REMARK UNBOUND:                -0.133
REMARK SMILES NC(=O)C[C@H]([NH3+])C(=O)[O-]
REMARK SMILES IDX 4 1 5 2 6 3 7 7 8 8 9 9 2 10 3 11 1 12
REMARK H PARENT 6 4 6 5 6 6 1 13 1 14
REMARK Flexibility Score: inf
ROOT
ATOM      1  C   UNL     1     158.813 156.450 219.938  1.00  0.00     0.171 C 
ENDROOT
BRANCH   1   2
ATOM      2  C   UNL     1     159.212 155.577 221.145  1.00  0.00     0.237 C 
BRANCH   2   3
ATOM      3  N   UNL     1     160.377 154.737 220.837  1.00  0.00    -0.350 N 
ATOM      4  H   UNL     1     160.117 153.723 220.844  1.00  0.00     0.345 HD
ATOM      5  H   UNL     1     160.762 154.987 219.898  1.00  0.00     0.345 HD
ATOM      6  H   UNL     1     161.130 154.901 221.545  1.00  0.00     0.345 HD
ENDBRANCH   2   3
BRANCH   2   7
ATOM      7  C   UNL     1     158.048 154.716 221.553  1.00  0.00     0.100 C 
ATOM      8  O   UNL     1     156.907 155.227 221.711  1.00  0.00    -0.544 OA
ATOM      9  O   UNL     1     158.217 153.350 221.741  1.00  0.00    -0.544 OA
ENDBRANCH   2   7
ENDBRANCH   1   2
BRANCH   1  10
ATOM     10  C   UNL     1     159.927 156.559 218.937  1.00  0.00     0.223 C 
ATOM     11  O   UNL     1     161.008 157.118 219.265  1.00  0.00    -0.275 OA
ATOM     12  N   UNL     1     159.785 156.003 217.630  1.00  0.00    -0.369 N 
ATOM     13  H   UNL     1     158.906 155.516 217.349  1.00  0.00     0.159 HD
ATOM     14  H   UNL     1     160.567 156.072 216.941  1.00  0.00     0.159 HD
ENDBRANCH   1  10
TORSDOF 4
ENDMDL
MODEL 8
REMARK VINA RESULT:    -4.266     13.661     14.604
REMARK INTER + INTRA:          -5.272
REMARK INTER:                  -5.197
REMARK INTRA:                  -0.075
REMARK UNBOUND:                -0.133
REMARK SMILES NC(=O)C[C@H]([NH3+])C(=O)[O-]
REMARK SMILES IDX 4 1 5 2 6 3 7 7 8 8 9 9 2 10 3 11 1 12
REMARK H PARENT 6 4 6 5 6 6 1 13 1 14
REMARK Flexibility Score: inf
ROOT
ATOM      1  C   UNL     1     161.027 153.150 229.920  1.00  0.00     0.171 C 
ENDROOT
BRANCH   1   2
ATOM      2  C   UNL     1     161.706 151.932 230.578  1.00  0.00     0.237 C 
BRANCH   2   3
ATOM      3  N   UNL     1     162.621 151.259 229.646  1.00  0.00    -0.350 N 
ATOM      4  H   UNL     1     162.505 150.220 229.696  1.00  0.00     0.345 HD
ATOM      5  H   UNL     1     162.437 151.580 228.669  1.00  0.00     0.345 HD
ATOM      6  H   UNL     1     163.611 151.504 229.883  1.00  0.00     0.345 HD
ENDBRANCH   2   3
BRANCH   2   7
ATOM      7  C   UNL     1     160.657 150.967 231.059  1.00  0.00     0.100 C 
ATOM      8  O   UNL     1     160.780 150.402 232.178  1.00  0.00    -0.544 OA
ATOM      9  O   UNL     1     159.535 150.705 230.281  1.00  0.00    -0.544 OA
ENDBRANCH   2   7
ENDBRANCH   1   2
BRANCH   1  10
ATOM     10  C   UNL     1     161.545 154.444 230.477  1.00  0.00     0.223 C 
ATOM     11  O   UNL     1     161.490 154.657 231.717  1.00  0.00    -0.275 OA
ATOM     12  N   UNL     1     162.131 155.420 229.616  1.00  0.00    -0.369 N 
ATOM     13  H   UNL     1     162.206 155.251 228.589  1.00  0.00     0.159 HD
ATOM     14  H   UNL     1     162.500 156.315 230.009  1.00  0.00     0.159 HD
ENDBRANCH   1  10
TORSDOF 4
ENDMDL
MODEL 9
REMARK VINA RESULT:    -4.253      2.083      2.895
REMARK INTER + INTRA:          -5.257
REMARK INTER:                  -5.076
REMARK INTRA:                  -0.181
REMARK UNBOUND:                -0.133
REMARK SMILES NC(=O)C[C@H]([NH3+])C(=O)[O-]
REMARK SMILES IDX 4 1 5 2 6 3 7 7 8 8 9 9 2 10 3 11 1 12
REMARK H PARENT 6 4 6 5 6 6 1 13 1 14
REMARK Flexibility Score: inf
ROOT
ATOM      1  C   UNL     1     158.028 166.008 229.613  1.00  0.00     0.171 C 
ENDROOT
BRANCH   1   2
ATOM      2  C   UNL     1     158.435 164.930 230.638  1.00  0.00     0.237 C 
BRANCH   2   3
ATOM      3  N   UNL     1     159.421 163.999 230.074  1.00  0.00    -0.350 N 
ATOM      4  H   UNL     1     159.991 164.466 229.331  1.00  0.00     0.345 HD
ATOM      5  H   UNL     1     160.057 163.650 230.827  1.00  0.00     0.345 HD
ATOM      6  H   UNL     1     158.932 163.172 229.661  1.00  0.00     0.345 HD
ENDBRANCH   2   3
BRANCH   2   7
ATOM      7  C   UNL     1     157.214 164.177 231.091  1.00  0.00     0.100 C 
ATOM      8  O   UNL     1     157.013 163.975 232.318  1.00  0.00    -0.544 OA
ATOM      9  O   UNL     1     156.289 163.715 230.162  1.00  0.00    -0.544 OA
ENDBRANCH   2   7
ENDBRANCH   1   2
BRANCH   1  10
ATOM     10  C   UNL     1     156.979 166.931 230.163  1.00  0.00     0.223 C 
ATOM     11  O   UNL     1     157.268 167.709 231.112  1.00  0.00    -0.275 OA
ATOM     12  N   UNL     1     155.669 166.959 229.597  1.00  0.00    -0.369 N 
ATOM     13  H   UNL     1     155.420 166.339 228.796  1.00  0.00     0.159 HD
ATOM     14  H   UNL     1     154.946 167.611 229.976  1.00  0.00     0.159 HD
ENDBRANCH   1  10
TORSDOF 4
ENDMDL
