MODEL 1
REMARK VINA RESULT:    -6.452      0.000      0.000
REMARK INTER + INTRA:          -7.865
REMARK INTER:                  -7.584
REMARK INTRA:                  -0.281
REMARK UNBOUND:                -0.281
REMARK SMILES O=c1c(O)c(-c2ccc(O)cc2)oc2cc(O)cc(O)c12
REMARK SMILES IDX 5 1 3 2 2 3 1 4 21 5 19 6 18 7 16 8 15 9 14 10 13 11 6 12
REMARK SMILES IDX 7 13 8 14 9 15 12 16 11 17 10 18 4 20 20 22 17 24
REMARK H PARENT 10 19 4 21 20 23 17 25
REMARK Flexibility Score: inf
ROOT
ATOM      1  C   UNL     1      22.118 -21.096 -11.510  1.00  0.00     0.180 A 
ATOM      2  C   UNL     1      21.256 -20.256 -12.237  1.00  0.00     0.208 A 
ATOM      3  C   UNL     1      21.201 -18.891 -11.910  1.00  0.00     0.238 A 
ATOM      4  O   UNL     1      20.388 -18.155 -12.527  1.00  0.00    -0.285 OA
ATOM      5  C   UNL     1      22.018 -18.381 -10.874  1.00  0.00     0.111 A 
ATOM      6  C   UNL     1      22.074 -17.008 -10.487  1.00  0.00     0.134 A 
ATOM      7  C   UNL     1      22.821 -16.637  -9.362  1.00  0.00     0.093 A 
ATOM      8  C   UNL     1      23.567 -17.579  -8.651  1.00  0.00     0.123 A 
ATOM      9  C   UNL     1      23.567 -18.911  -9.057  1.00  0.00     0.094 A 
ATOM     10  C   UNL     1      22.803 -19.318 -10.153  1.00  0.00     0.146 A 
ATOM     11  O   UNL     1      22.823 -20.599 -10.501  1.00  0.00    -0.452 OA
ENDROOT
BRANCH   1  12
ATOM     12  C   UNL     1      22.250 -22.540 -11.811  1.00  0.00     0.021 A 
ATOM     13  C   UNL     1      21.360 -23.453 -11.223  1.00  0.00     0.016 A 
ATOM     14  C   UNL     1      21.481 -24.823 -11.476  1.00  0.00     0.047 A 
ATOM     15  C   UNL     1      22.499 -25.299 -12.307  1.00  0.00     0.115 A 
ATOM     16  C   UNL     1      23.285 -23.025 -12.631  1.00  0.00     0.016 A 
ATOM     17  C   UNL     1      23.403 -24.397 -12.882  1.00  0.00     0.047 A 
BRANCH  15  18
ATOM     18  O   UNL     1      22.607 -26.666 -12.551  1.00  0.00    -0.508 OA
ATOM     19  H   UNL     1      21.808 -27.216 -12.842  1.00  0.00     0.293 HD
ENDBRANCH  15  18
ENDBRANCH   1  12
BRANCH   2  20
ATOM     20  O   UNL     1      20.440 -20.785 -13.241  1.00  0.00    -0.502 OA
ATOM     21  H   UNL     1      20.790 -21.009 -14.164  1.00  0.00     0.293 HD
ENDBRANCH   2  20
BRANCH   6  22
ATOM     22  O   UNL     1      21.439 -15.974 -11.183  1.00  0.00    -0.507 OA
ATOM     23  H   UNL     1      21.916 -15.273 -11.729  1.00  0.00     0.293 HD
ENDBRANCH   6  22
BRANCH   8  24
ATOM     24  O   UNL     1      24.321 -17.199  -7.543  1.00  0.00    -0.508 OA
ATOM     25  H   UNL     1      24.797 -17.884  -6.965  1.00  0.00     0.293 HD
ENDBRANCH   8  24
TORSDOF 5
ENDMDL
MODEL 2
REMARK VINA RESULT:    -6.443      1.634      3.600
REMARK INTER + INTRA:          -7.854
REMARK INTER:                  -7.567
REMARK INTRA:                  -0.287
REMARK UNBOUND:                -0.281
REMARK SMILES O=c1c(O)c(-c2ccc(O)cc2)oc2cc(O)cc(O)c12
REMARK SMILES IDX 5 1 3 2 2 3 1 4 21 5 19 6 18 7 16 8 15 9 14 10 13 11 6 12
REMARK SMILES IDX 7 13 8 14 9 15 12 16 11 17 10 18 4 20 20 22 17 24
REMARK H PARENT 10 19 4 21 20 23 17 25
REMARK Flexibility Score: inf
ROOT
ATOM      1  C   UNL     1      22.781 -19.425 -10.851  1.00  0.00     0.180 A 
ATOM      2  C   UNL     1      23.450 -18.998  -9.691  1.00  0.00     0.208 A 
ATOM      3  C   UNL     1      23.374 -17.645  -9.321  1.00  0.00     0.238 A 
ATOM      4  O   UNL     1      24.019 -17.258  -8.312  1.00  0.00    -0.285 OA
ATOM      5  C   UNL     1      22.618 -16.742 -10.105  1.00  0.00     0.111 A 
ATOM      6  C   UNL     1      22.439 -15.358  -9.800  1.00  0.00     0.134 A 
ATOM      7  C   UNL     1      21.779 -14.529 -10.716  1.00  0.00     0.093 A 
ATOM      8  C   UNL     1      21.236 -15.047 -11.894  1.00  0.00     0.123 A 
ATOM      9  C   UNL     1      21.353 -16.407 -12.171  1.00  0.00     0.094 A 
ATOM     10  C   UNL     1      22.037 -17.252 -11.294  1.00  0.00     0.146 A 
ATOM     11  O   UNL     1      22.135 -18.540 -11.601  1.00  0.00    -0.452 OA
ENDROOT
BRANCH   1  12
ATOM     12  C   UNL     1      22.793 -20.839 -11.292  1.00  0.00     0.021 A 
ATOM     13  C   UNL     1      23.828 -21.294 -12.127  1.00  0.00     0.016 A 
ATOM     14  C   UNL     1      23.846 -22.619 -12.573  1.00  0.00     0.047 A 
ATOM     15  C   UNL     1      22.826 -23.501 -12.205  1.00  0.00     0.115 A 
ATOM     16  C   UNL     1      21.758 -21.725 -10.940  1.00  0.00     0.016 A 
ATOM     17  C   UNL     1      21.780 -23.050 -11.389  1.00  0.00     0.047 A 
BRANCH  15  18
ATOM     18  O   UNL     1      22.858 -24.818 -12.656  1.00  0.00    -0.508 OA
ATOM     19  H   UNL     1      22.788 -25.041 -13.641  1.00  0.00     0.293 HD
ENDBRANCH  15  18
ENDBRANCH   1  12
BRANCH   2  20
ATOM     20  O   UNL     1      24.209 -19.902  -8.944  1.00  0.00    -0.502 OA
ATOM     21  H   UNL     1      24.295 -19.839  -7.936  1.00  0.00     0.293 HD
ENDBRANCH   2  20
BRANCH   6  22
ATOM     22  O   UNL     1      22.863 -14.759  -8.610  1.00  0.00    -0.507 OA
ATOM     23  H   UNL     1      22.483 -13.907  -8.229  1.00  0.00     0.293 HD
ENDBRANCH   6  22
BRANCH   8  24
ATOM     24  O   UNL     1      20.567 -14.219 -12.792  1.00  0.00    -0.508 OA
ATOM     25  H   UNL     1      20.240 -13.298 -12.522  1.00  0.00     0.293 HD
ENDBRANCH   8  24
TORSDOF 5
ENDMDL
MODEL 3
REMARK VINA RESULT:    -6.359      2.293      3.361
REMARK INTER + INTRA:          -7.755
REMARK INTER:                  -7.466
REMARK INTRA:                  -0.289
REMARK UNBOUND:                -0.281
REMARK SMILES O=c1c(O)c(-c2ccc(O)cc2)oc2cc(O)cc(O)c12
REMARK SMILES IDX 5 1 3 2 2 3 1 4 21 5 19 6 18 7 16 8 15 9 14 10 13 11 6 12
REMARK SMILES IDX 7 13 8 14 9 15 12 16 11 17 10 18 4 20 20 22 17 24
REMARK H PARENT 10 19 4 21 20 23 17 25
REMARK Flexibility Score: inf
ROOT
ATOM      1  C   UNL     1      22.429 -20.009 -12.044  1.00  0.00     0.180 A 
ATOM      2  C   UNL     1      23.363 -20.436 -11.083  1.00  0.00     0.208 A 
ATOM      3  C   UNL     1      23.752 -19.545 -10.069  1.00  0.00     0.238 A 
ATOM      4  O   UNL     1      24.628 -19.915  -9.245  1.00  0.00    -0.285 OA
ATOM      5  C   UNL     1      23.191 -18.247 -10.019  1.00  0.00     0.111 A 
ATOM      6  C   UNL     1      23.482 -17.277  -9.012  1.00  0.00     0.134 A 
ATOM      7  C   UNL     1      22.969 -15.980  -9.134  1.00  0.00     0.093 A 
ATOM      8  C   UNL     1      22.123 -15.636 -10.192  1.00  0.00     0.123 A 
ATOM      9  C   UNL     1      21.786 -16.593 -11.146  1.00  0.00     0.094 A 
ATOM     10  C   UNL     1      22.310 -17.885 -11.071  1.00  0.00     0.146 A 
ATOM     11  O   UNL     1      21.971 -18.764 -12.007  1.00  0.00    -0.452 OA
ENDROOT
BRANCH   1  12
ATOM     12  C   UNL     1      21.951 -20.898 -13.127  1.00  0.00     0.021 A 
ATOM     13  C   UNL     1      20.847 -21.736 -12.898  1.00  0.00     0.016 A 
ATOM     14  C   UNL     1      20.394 -22.599 -13.900  1.00  0.00     0.047 A 
ATOM     15  C   UNL     1      21.045 -22.648 -15.136  1.00  0.00     0.115 A 
ATOM     16  C   UNL     1      22.615 -20.965 -14.366  1.00  0.00     0.016 A 
ATOM     17  C   UNL     1      22.158 -21.830 -15.366  1.00  0.00     0.047 A 
BRANCH  15  18
ATOM     18  O   UNL     1      20.581 -23.512 -16.125  1.00  0.00    -0.508 OA
ATOM     19  H   UNL     1      20.606 -23.257 -17.105  1.00  0.00     0.293 HD
ENDBRANCH  15  18
ENDBRANCH   1  12
BRANCH   2  20
ATOM     20  O   UNL     1      23.921 -21.714 -11.165  1.00  0.00    -0.502 OA
ATOM     21  H   UNL     1      23.596 -22.488 -10.598  1.00  0.00     0.293 HD
ENDBRANCH   2  20
BRANCH   6  22
ATOM     22  O   UNL     1      24.241 -17.543  -7.868  1.00  0.00    -0.507 OA
ATOM     23  H   UNL     1      23.856 -17.772  -6.964  1.00  0.00     0.293 HD
ENDBRANCH   6  22
BRANCH   8  24
ATOM     24  O   UNL     1      21.604 -14.348 -10.297  1.00  0.00    -0.508 OA
ATOM     25  H   UNL     1      21.555 -13.729  -9.495  1.00  0.00     0.293 HD
ENDBRANCH   8  24
TORSDOF 5
ENDMDL
MODEL 4
REMARK VINA RESULT:    -6.217      1.874      1.986
REMARK INTER + INTRA:          -7.588
REMARK INTER:                  -7.288
REMARK INTRA:                  -0.300
REMARK UNBOUND:                -0.281
REMARK SMILES O=c1c(O)c(-c2ccc(O)cc2)oc2cc(O)cc(O)c12
REMARK SMILES IDX 5 1 3 2 2 3 1 4 21 5 19 6 18 7 16 8 15 9 14 10 13 11 6 12
REMARK SMILES IDX 7 13 8 14 9 15 12 16 11 17 10 18 4 20 20 22 17 24
REMARK H PARENT 10 19 4 21 20 23 17 25
REMARK Flexibility Score: inf
ROOT
ATOM      1  C   UNL     1      21.761 -19.665 -12.658  1.00  0.00     0.180 A 
ATOM      2  C   UNL     1      21.056 -18.541 -13.126  1.00  0.00     0.208 A 
ATOM      3  C   UNL     1      21.153 -17.334 -12.416  1.00  0.00     0.238 A 
ATOM      4  O   UNL     1      20.476 -16.347 -12.808  1.00  0.00    -0.285 OA
ATOM      5  C   UNL     1      21.964 -17.259 -11.259  1.00  0.00     0.111 A 
ATOM      6  C   UNL     1      22.167 -16.075 -10.487  1.00  0.00     0.134 A 
ATOM      7  C   UNL     1      22.887 -16.149  -9.288  1.00  0.00     0.093 A 
ATOM      8  C   UNL     1      23.465 -17.349  -8.867  1.00  0.00     0.123 A 
ATOM      9  C   UNL     1      23.323 -18.495  -9.644  1.00  0.00     0.094 A 
ATOM     10  C   UNL     1      22.581 -18.462 -10.827  1.00  0.00     0.146 A 
ATOM     11  O   UNL     1      22.461 -19.580 -11.534  1.00  0.00    -0.452 OA
ENDROOT
BRANCH   1  12
ATOM     12  C   UNL     1      21.729 -20.965 -13.365  1.00  0.00     0.021 A 
ATOM     13  C   UNL     1      20.790 -21.938 -12.983  1.00  0.00     0.016 A 
ATOM     14  C   UNL     1      20.757 -23.181 -13.622  1.00  0.00     0.047 A 
ATOM     15  C   UNL     1      21.670 -23.474 -14.639  1.00  0.00     0.115 A 
ATOM     16  C   UNL     1      22.657 -21.272 -14.377  1.00  0.00     0.016 A 
ATOM     17  C   UNL     1      22.622 -22.518 -15.014  1.00  0.00     0.047 A 
BRANCH  15  18
ATOM     18  O   UNL     1      21.625 -24.716 -15.268  1.00  0.00    -0.508 OA
ATOM     19  H   UNL     1      20.992 -24.897 -16.038  1.00  0.00     0.293 HD
ENDBRANCH  15  18
ENDBRANCH   1  12
BRANCH   2  20
ATOM     20  O   UNL     1      20.242 -18.643 -14.257  1.00  0.00    -0.502 OA
ATOM     21  H   UNL     1      19.548 -19.373 -14.365  1.00  0.00     0.293 HD
ENDBRANCH   2  20
BRANCH   6  22
ATOM     22  O   UNL     1      21.710 -14.809 -10.864  1.00  0.00    -0.507 OA
ATOM     23  H   UNL     1      20.763 -14.484 -10.749  1.00  0.00     0.293 HD
ENDBRANCH   6  22
BRANCH   8  24
ATOM     24  O   UNL     1      24.193 -17.410  -7.681  1.00  0.00    -0.508 OA
ATOM     25  H   UNL     1      25.166 -17.127  -7.640  1.00  0.00     0.293 HD
ENDBRANCH   8  24
TORSDOF 5
ENDMDL
MODEL 5
REMARK VINA RESULT:    -6.180      1.651      1.768
REMARK INTER + INTRA:          -7.545
REMARK INTER:                  -7.246
REMARK INTRA:                  -0.299
REMARK UNBOUND:                -0.281
REMARK SMILES O=c1c(O)c(-c2ccc(O)cc2)oc2cc(O)cc(O)c12
REMARK SMILES IDX 5 1 3 2 2 3 1 4 21 5 19 6 18 7 16 8 15 9 14 10 13 11 6 12
REMARK SMILES IDX 7 13 8 14 9 15 12 16 11 17 10 18 4 20 20 22 17 24
REMARK H PARENT 10 19 4 21 20 23 17 25
REMARK Flexibility Score: inf
ROOT
ATOM      1  C   UNL     1      23.432 -21.623 -12.480  1.00  0.00     0.180 A 
ATOM      2  C   UNL     1      23.109 -20.720 -13.509  1.00  0.00     0.208 A 
ATOM      3  C   UNL     1      23.067 -19.346 -13.220  1.00  0.00     0.238 A 
ATOM      4  O   UNL     1      22.725 -18.548 -14.131  1.00  0.00    -0.285 OA
ATOM      5  C   UNL     1      23.363 -18.892 -11.914  1.00  0.00     0.111 A 
ATOM      6  C   UNL     1      23.391 -17.519 -11.519  1.00  0.00     0.134 A 
ATOM      7  C   UNL     1      23.568 -17.192 -10.169  1.00  0.00     0.093 A 
ATOM      8  C   UNL     1      23.784 -18.184  -9.210  1.00  0.00     0.123 A 
ATOM      9  C   UNL     1      23.819 -19.522  -9.595  1.00  0.00     0.094 A 
ATOM     10  C   UNL     1      23.609 -19.882 -10.928  1.00  0.00     0.146 A 
ATOM     11  O   UNL     1      23.640 -21.170 -11.250  1.00  0.00    -0.452 OA
ENDROOT
BRANCH   1  12
ATOM     12  C   UNL     1      23.521 -23.083 -12.712  1.00  0.00     0.021 A 
ATOM     13  C   UNL     1      22.409 -23.896 -12.437  1.00  0.00     0.016 A 
ATOM     14  C   UNL     1      22.479 -25.279 -12.627  1.00  0.00     0.047 A 
ATOM     15  C   UNL     1      23.662 -25.869 -13.081  1.00  0.00     0.115 A 
ATOM     16  C   UNL     1      24.715 -23.683 -13.150  1.00  0.00     0.016 A 
ATOM     17  C   UNL     1      24.781 -25.068 -13.339  1.00  0.00     0.047 A 
BRANCH  15  18
ATOM     18  O   UNL     1      23.717 -27.248 -13.267  1.00  0.00    -0.508 OA
ATOM     19  H   UNL     1      23.221 -27.885 -12.655  1.00  0.00     0.293 HD
ENDBRANCH  15  18
ENDBRANCH   1  12
BRANCH   2  20
ATOM     20  O   UNL     1      22.798 -21.192 -14.786  1.00  0.00    -0.502 OA
ATOM     21  H   UNL     1      22.885 -22.168 -15.043  1.00  0.00     0.293 HD
ENDBRANCH   2  20
BRANCH   6  22
ATOM     22  O   UNL     1      23.276 -16.449 -12.411  1.00  0.00    -0.507 OA
ATOM     23  H   UNL     1      23.971 -15.728 -12.536  1.00  0.00     0.293 HD
ENDBRANCH   6  22
BRANCH   8  24
ATOM     24  O   UNL     1      23.976 -17.849  -7.872  1.00  0.00    -0.508 OA
ATOM     25  H   UNL     1      24.616 -18.369  -7.281  1.00  0.00     0.293 HD
ENDBRANCH   8  24
TORSDOF 5
ENDMDL
MODEL 6
REMARK VINA RESULT:    -6.150      1.655      6.524
REMARK INTER + INTRA:          -7.510
REMARK INTER:                  -7.283
REMARK INTRA:                  -0.227
REMARK UNBOUND:                -0.281
REMARK SMILES O=c1c(O)c(-c2ccc(O)cc2)oc2cc(O)cc(O)c12
REMARK SMILES IDX 5 1 3 2 2 3 1 4 21 5 19 6 18 7 16 8 15 9 14 10 13 11 6 12
REMARK SMILES IDX 7 13 8 14 9 15 12 16 11 17 10 18 4 20 20 22 17 24
REMARK H PARENT 10 19 4 21 20 23 17 25
REMARK Flexibility Score: inf
ROOT
ATOM      1  C   UNL     1      22.240 -19.592 -11.464  1.00  0.00     0.180 A 
ATOM      2  C   UNL     1      21.990 -19.501 -12.845  1.00  0.00     0.208 A 
ATOM      3  C   UNL     1      21.572 -20.648 -13.538  1.00  0.00     0.238 A 
ATOM      4  O   UNL     1      21.402 -20.573 -14.782  1.00  0.00    -0.285 OA
ATOM      5  C   UNL     1      21.393 -21.866 -12.841  1.00  0.00     0.111 A 
ATOM      6  C   UNL     1      20.933 -23.080 -13.435  1.00  0.00     0.134 A 
ATOM      7  C   UNL     1      20.918 -24.258 -12.677  1.00  0.00     0.093 A 
ATOM      8  C   UNL     1      21.284 -24.252 -11.329  1.00  0.00     0.123 A 
ATOM      9  C   UNL     1      21.677 -23.060 -10.725  1.00  0.00     0.094 A 
ATOM     10  C   UNL     1      21.737 -21.876 -11.464  1.00  0.00     0.146 A 
ATOM     11  O   UNL     1      22.127 -20.764 -10.852  1.00  0.00    -0.452 OA
ENDROOT
BRANCH   1  12
ATOM     12  C   UNL     1      22.660 -18.422 -10.660  1.00  0.00     0.021 A 
ATOM     13  C   UNL     1      23.967 -18.367 -10.148  1.00  0.00     0.016 A 
ATOM     14  C   UNL     1      24.377 -17.281  -9.368  1.00  0.00     0.047 A 
ATOM     15  C   UNL     1      23.484 -16.246  -9.076  1.00  0.00     0.115 A 
ATOM     16  C   UNL     1      21.760 -17.387 -10.348  1.00  0.00     0.016 A 
ATOM     17  C   UNL     1      22.173 -16.303  -9.566  1.00  0.00     0.047 A 
BRANCH  15  18
ATOM     18  O   UNL     1      23.907 -15.171  -8.299  1.00  0.00    -0.508 OA
ATOM     19  H   UNL     1      23.949 -15.233  -7.289  1.00  0.00     0.293 HD
ENDBRANCH  15  18
ENDBRANCH   1  12
BRANCH   2  20
ATOM     20  O   UNL     1      22.195 -18.293 -13.517  1.00  0.00    -0.502 OA
ATOM     21  H   UNL     1      21.617 -17.998 -14.295  1.00  0.00     0.293 HD
ENDBRANCH   2  20
BRANCH   6  22
ATOM     22  O   UNL     1      20.459 -23.176 -14.747  1.00  0.00    -0.507 OA
ATOM     23  H   UNL     1      19.940 -23.959 -15.114  1.00  0.00     0.293 HD
ENDBRANCH   6  22
BRANCH   8  24
ATOM     24  O   UNL     1      21.251 -25.424 -10.578  1.00  0.00    -0.508 OA
ATOM     25  H   UNL     1      20.900 -26.293 -10.967  1.00  0.00     0.293 HD
ENDBRANCH   8  24
TORSDOF 5
ENDMDL
MODEL 7
REMARK VINA RESULT:    -6.122      2.399      3.437
REMARK INTER + INTRA:          -7.478
REMARK INTER:                  -7.217
REMARK INTRA:                  -0.261
REMARK UNBOUND:                -0.281
REMARK SMILES O=c1c(O)c(-c2ccc(O)cc2)oc2cc(O)cc(O)c12
REMARK SMILES IDX 5 1 3 2 2 3 1 4 21 5 19 6 18 7 16 8 15 9 14 10 13 11 6 12
REMARK SMILES IDX 7 13 8 14 9 15 12 16 11 17 10 18 4 20 20 22 17 24
REMARK H PARENT 10 19 4 21 20 23 17 25
REMARK Flexibility Score: inf
ROOT
ATOM      1  C   UNL     1      23.874 -23.064 -13.112  1.00  0.00     0.180 A 
ATOM      2  C   UNL     1      22.561 -22.832 -13.557  1.00  0.00     0.208 A 
ATOM      3  C   UNL     1      21.833 -21.767 -13.002  1.00  0.00     0.238 A 
ATOM      4  O   UNL     1      20.640 -21.598 -13.365  1.00  0.00    -0.285 OA
ATOM      5  C   UNL     1      22.431 -20.940 -12.023  1.00  0.00     0.111 A 
ATOM      6  C   UNL     1      21.800 -19.807 -11.423  1.00  0.00     0.134 A 
ATOM      7  C   UNL     1      22.438 -19.139 -10.371  1.00  0.00     0.093 A 
ATOM      8  C   UNL     1      23.711 -19.521  -9.941  1.00  0.00     0.123 A 
ATOM      9  C   UNL     1      24.359 -20.586 -10.560  1.00  0.00     0.094 A 
ATOM     10  C   UNL     1      23.734 -21.295 -11.589  1.00  0.00     0.146 A 
ATOM     11  O   UNL     1      24.383 -22.311 -12.145  1.00  0.00    -0.452 OA
ENDROOT
BRANCH   1  12
ATOM     12  C   UNL     1      24.713 -24.151 -13.667  1.00  0.00     0.021 A 
ATOM     13  C   UNL     1      24.551 -25.463 -13.189  1.00  0.00     0.016 A 
ATOM     14  C   UNL     1      25.349 -26.500 -13.683  1.00  0.00     0.047 A 
ATOM     15  C   UNL     1      26.326 -26.239 -14.647  1.00  0.00     0.115 A 
ATOM     16  C   UNL     1      25.711 -23.891 -14.624  1.00  0.00     0.016 A 
ATOM     17  C   UNL     1      26.507 -24.931 -15.115  1.00  0.00     0.047 A 
BRANCH  15  18
ATOM     18  O   UNL     1      27.112 -27.282 -15.131  1.00  0.00    -0.508 OA
ATOM     19  H   UNL     1      26.733 -28.211 -15.265  1.00  0.00     0.293 HD
ENDBRANCH  15  18
ENDBRANCH   1  12
BRANCH   2  20
ATOM     20  O   UNL     1      21.981 -23.675 -14.509  1.00  0.00    -0.502 OA
ATOM     21  H   UNL     1      21.532 -24.548 -14.261  1.00  0.00     0.293 HD
ENDBRANCH   2  20
BRANCH   6  22
ATOM     22  O   UNL     1      20.570 -19.288 -11.839  1.00  0.00    -0.507 OA
ATOM     23  H   UNL     1      20.460 -18.524 -12.488  1.00  0.00     0.293 HD
ENDBRANCH   6  22
BRANCH   8  24
ATOM     24  O   UNL     1      24.344 -18.840  -8.904  1.00  0.00    -0.508 OA
ATOM     25  H   UNL     1      24.078 -18.981  -7.936  1.00  0.00     0.293 HD
ENDBRANCH   8  24
TORSDOF 5
ENDMDL
MODEL 8
REMARK VINA RESULT:    -6.117      1.713      6.522
REMARK INTER + INTRA:          -7.472
REMARK INTER:                  -7.183
REMARK INTRA:                  -0.289
REMARK UNBOUND:                -0.281
REMARK SMILES O=c1c(O)c(-c2ccc(O)cc2)oc2cc(O)cc(O)c12
REMARK SMILES IDX 5 1 3 2 2 3 1 4 21 5 19 6 18 7 16 8 15 9 14 10 13 11 6 12
REMARK SMILES IDX 7 13 8 14 9 15 12 16 11 17 10 18 4 20 20 22 17 24
REMARK H PARENT 10 19 4 21 20 23 17 25
REMARK Flexibility Score: inf
ROOT
ATOM      1  C   UNL     1      22.405 -20.104 -11.449  1.00  0.00     0.180 A 
ATOM      2  C   UNL     1      22.429 -20.025 -12.852  1.00  0.00     0.208 A 
ATOM      3  C   UNL     1      22.073 -21.157 -13.604  1.00  0.00     0.238 A 
ATOM      4  O   UNL     1      22.148 -21.096 -14.858  1.00  0.00    -0.285 OA
ATOM      5  C   UNL     1      21.684 -22.346 -12.944  1.00  0.00     0.111 A 
ATOM      6  C   UNL     1      21.264 -23.540 -13.606  1.00  0.00     0.134 A 
ATOM      7  C   UNL     1      21.026 -24.698 -12.855  1.00  0.00     0.093 A 
ATOM      8  C   UNL     1      21.130 -24.688 -11.462  1.00  0.00     0.123 A 
ATOM      9  C   UNL     1      21.480 -23.513 -10.804  1.00  0.00     0.094 A 
ATOM     10  C   UNL     1      21.758 -22.351 -11.527  1.00  0.00     0.146 A 
ATOM     11  O   UNL     1      22.099 -21.254 -10.860  1.00  0.00    -0.452 OA
ENDROOT
BRANCH   1  12
ATOM     12  C   UNL     1      22.742 -18.947 -10.589  1.00  0.00     0.021 A 
ATOM     13  C   UNL     1      21.740 -18.022 -10.250  1.00  0.00     0.016 A 
ATOM     14  C   UNL     1      22.042 -16.910  -9.458  1.00  0.00     0.047 A 
ATOM     15  C   UNL     1      23.348 -16.699  -9.007  1.00  0.00     0.115 A 
ATOM     16  C   UNL     1      24.059 -18.720 -10.148  1.00  0.00     0.016 A 
ATOM     17  C   UNL     1      24.357 -17.606  -9.356  1.00  0.00     0.047 A 
BRANCH  15  18
ATOM     18  O   UNL     1      23.633 -15.588  -8.218  1.00  0.00    -0.508 OA
ATOM     19  H   UNL     1      24.186 -14.816  -8.571  1.00  0.00     0.293 HD
ENDBRANCH  15  18
ENDBRANCH   1  12
BRANCH   2  20
ATOM     20  O   UNL     1      22.838 -18.848 -13.483  1.00  0.00    -0.502 OA
ATOM     21  H   UNL     1      23.649 -18.321 -13.181  1.00  0.00     0.293 HD
ENDBRANCH   2  20
BRANCH   6  22
ATOM     22  O   UNL     1      21.042 -23.632 -14.983  1.00  0.00    -0.507 OA
ATOM     23  H   UNL     1      21.766 -23.597 -15.685  1.00  0.00     0.293 HD
ENDBRANCH   6  22
BRANCH   8  24
ATOM     24  O   UNL     1      20.875 -25.841 -10.722  1.00  0.00    -0.508 OA
ATOM     25  H   UNL     1      21.464 -26.663 -10.802  1.00  0.00     0.293 HD
ENDBRANCH   8  24
TORSDOF 5
ENDMDL
MODEL 9
REMARK VINA RESULT:    -6.059      1.443      2.148
REMARK INTER + INTRA:          -7.403
REMARK INTER:                  -7.133
REMARK INTRA:                  -0.270
REMARK UNBOUND:                -0.281
REMARK SMILES O=c1c(O)c(-c2ccc(O)cc2)oc2cc(O)cc(O)c12
REMARK SMILES IDX 5 1 3 2 2 3 1 4 21 5 19 6 18 7 16 8 15 9 14 10 13 11 6 12
REMARK SMILES IDX 7 13 8 14 9 15 12 16 11 17 10 18 4 20 20 22 17 24
REMARK H PARENT 10 19 4 21 20 23 17 25
REMARK Flexibility Score: inf
ROOT
ATOM      1  C   UNL     1      22.004 -19.368 -11.747  1.00  0.00     0.180 A 
ATOM      2  C   UNL     1      21.162 -18.652 -12.617  1.00  0.00     0.208 A 
ATOM      3  C   UNL     1      21.079 -17.256 -12.487  1.00  0.00     0.238 A 
ATOM      4  O   UNL     1      20.283 -16.627 -13.233  1.00  0.00    -0.285 OA
ATOM      5  C   UNL     1      21.846 -16.593 -11.501  1.00  0.00     0.111 A 
ATOM      6  C   UNL     1      21.870 -15.178 -11.307  1.00  0.00     0.134 A 
ATOM      7  C   UNL     1      22.566 -14.642 -10.217  1.00  0.00     0.093 A 
ATOM      8  C   UNL     1      23.293 -15.464  -9.352  1.00  0.00     0.123 A 
ATOM      9  C   UNL     1      23.325 -16.839  -9.568  1.00  0.00     0.094 A 
ATOM     10  C   UNL     1      22.612 -17.407 -10.626  1.00  0.00     0.146 A 
ATOM     11  O   UNL     1      22.660 -18.724 -10.791  1.00  0.00    -0.452 OA
ENDROOT
BRANCH   1  12
ATOM     12  C   UNL     1      22.165 -20.837 -11.839  1.00  0.00     0.021 A 
ATOM     13  C   UNL     1      23.237 -21.371 -12.573  1.00  0.00     0.016 A 
ATOM     14  C   UNL     1      23.394 -22.755 -12.691  1.00  0.00     0.047 A 
ATOM     15  C   UNL     1      22.477 -23.622 -12.092  1.00  0.00     0.115 A 
ATOM     16  C   UNL     1      21.233 -21.714 -11.253  1.00  0.00     0.016 A 
ATOM     17  C   UNL     1      21.394 -23.098 -11.374  1.00  0.00     0.047 A 
BRANCH  15  18
ATOM     18  O   UNL     1      22.648 -24.999 -12.217  1.00  0.00    -0.508 OA
ATOM     19  H   UNL     1      23.464 -25.467 -11.843  1.00  0.00     0.293 HD
ENDBRANCH  15  18
ENDBRANCH   1  12
BRANCH   2  20
ATOM     20  O   UNL     1      20.395 -19.329 -13.569  1.00  0.00    -0.502 OA
ATOM     21  H   UNL     1      19.613 -19.920 -13.317  1.00  0.00     0.293 HD
ENDBRANCH   2  20
BRANCH   6  22
ATOM     22  O   UNL     1      21.253 -14.263 -12.165  1.00  0.00    -0.507 OA
ATOM     23  H   UNL     1      20.778 -13.426 -11.865  1.00  0.00     0.293 HD
ENDBRANCH   6  22
BRANCH   8  24
ATOM     24  O   UNL     1      23.996 -14.921  -8.279  1.00  0.00    -0.508 OA
ATOM     25  H   UNL     1      24.162 -13.923  -8.204  1.00  0.00     0.293 HD
ENDBRANCH   8  24
TORSDOF 5
ENDMDL
