MODEL 1
REMARK VINA RESULT:    10.152      0.000      0.000
REMARK INTER + INTRA:          12.700
REMARK INTER:                  12.229
REMARK INTRA:                   0.471
REMARK UNBOUND:                 0.471
REMARK SMILES O=c1c(O)c(-c2ccc(O)c(O)c2)oc2cc(O)cc(O)c12
REMARK SMILES IDX 5 1 3 2 2 3 1 4 22 5 20 6 19 7 17 8 16 9 15 10 14 11 6 12
REMARK SMILES IDX 7 13 8 14 9 15 13 16 11 17 10 18 12 20 4 22 21 24 18 26
REMARK H PARENT 10 19 12 21 4 23 21 25 18 27
REMARK Flexibility Score: inf
ROOT
ATOM      1  C   UNL     1     -18.748 -13.971  13.387  1.00  0.00     0.180 A 
ATOM      2  C   UNL     1     -18.933 -15.334  13.098  1.00  0.00     0.208 A 
ATOM      3  C   UNL     1     -18.885 -15.759  11.760  1.00  0.00     0.238 A 
ATOM      4  O   UNL     1     -18.997 -16.988  11.512  1.00  0.00    -0.285 OA
ATOM      5  C   UNL     1     -18.670 -14.814  10.728  1.00  0.00     0.111 A 
ATOM      6  C   UNL     1     -18.642 -15.127   9.335  1.00  0.00     0.134 A 
ATOM      7  C   UNL     1     -18.291 -14.134   8.412  1.00  0.00     0.093 A 
ATOM      8  C   UNL     1     -18.031 -12.826   8.825  1.00  0.00     0.123 A 
ATOM      9  C   UNL     1     -18.113 -12.497  10.176  1.00  0.00     0.094 A 
ATOM     10  C   UNL     1     -18.425 -13.473  11.124  1.00  0.00     0.146 A 
ATOM     11  O   UNL     1     -18.483 -13.119  12.403  1.00  0.00    -0.452 OA
ENDROOT
BRANCH   1  12
ATOM     12  C   UNL     1     -18.810 -13.444  14.769  1.00  0.00     0.025 A 
ATOM     13  C   UNL     1     -18.973 -14.299  15.873  1.00  0.00     0.016 A 
ATOM     14  C   UNL     1     -19.052 -13.777  17.167  1.00  0.00     0.051 A 
ATOM     15  C   UNL     1     -18.985 -12.394  17.375  1.00  0.00     0.157 A 
ATOM     16  C   UNL     1     -18.764 -12.056  14.983  1.00  0.00     0.062 A 
ATOM     17  C   UNL     1     -18.843 -11.529  16.278  1.00  0.00     0.158 A 
BRANCH  15  18
ATOM     18  O   UNL     1     -19.064 -11.875  18.668  1.00  0.00    -0.504 OA
ATOM     19  H   UNL     1     -18.959 -12.467  19.484  1.00  0.00     0.293 HD
ENDBRANCH  15  18
BRANCH  17  20
ATOM     20  O   UNL     1     -18.781 -10.147  16.451  1.00  0.00    -0.504 OA
ATOM     21  H   UNL     1     -19.351  -9.511  15.908  1.00  0.00     0.293 HD
ENDBRANCH  17  20
ENDBRANCH   1  12
BRANCH   2  22
ATOM     22  O   UNL     1     -19.123 -16.253  14.133  1.00  0.00    -0.502 OA
ATOM     23  H   UNL     1     -18.945 -16.025  15.103  1.00  0.00     0.293 HD
ENDBRANCH   2  22
BRANCH   6  24
ATOM     24  O   UNL     1     -18.976 -16.378   8.811  1.00  0.00    -0.507 OA
ATOM     25  H   UNL     1     -18.317 -17.119   8.628  1.00  0.00     0.293 HD
ENDBRANCH   6  24
BRANCH   8  26
ATOM     26  O   UNL     1     -17.697 -11.841   7.897  1.00  0.00    -0.508 OA
ATOM     27  H   UNL     1     -18.009 -10.883   8.005  1.00  0.00     0.293 HD
ENDBRANCH   8  26
TORSDOF 6
ENDMDL
MODEL 2
REMARK VINA RESULT:    11.804      0.693      1.468
REMARK INTER + INTRA:          14.690
REMARK INTER:                  14.184
REMARK INTRA:                   0.506
REMARK UNBOUND:                 0.471
REMARK SMILES O=c1c(O)c(-c2ccc(O)c(O)c2)oc2cc(O)cc(O)c12
REMARK SMILES IDX 5 1 3 2 2 3 1 4 22 5 20 6 19 7 17 8 16 9 15 10 14 11 6 12
REMARK SMILES IDX 7 13 8 14 9 15 13 16 11 17 10 18 12 20 4 22 21 24 18 26
REMARK H PARENT 10 19 12 21 4 23 21 25 18 27
REMARK Flexibility Score: inf
ROOT
ATOM      1  C   UNL     1     -18.703 -13.896  13.526  1.00  0.00     0.180 A 
ATOM      2  C   UNL     1     -18.878 -15.285  13.400  1.00  0.00     0.208 A 
ATOM      3  C   UNL     1     -18.762 -15.874  12.130  1.00  0.00     0.238 A 
ATOM      4  O   UNL     1     -18.865 -17.125  12.032  1.00  0.00    -0.285 OA
ATOM      5  C   UNL     1     -18.490 -15.065  11.001  1.00  0.00     0.111 A 
ATOM      6  C   UNL     1     -18.391 -15.549   9.662  1.00  0.00     0.134 A 
ATOM      7  C   UNL     1     -17.989 -14.679   8.641  1.00  0.00     0.093 A 
ATOM      8  C   UNL     1     -17.746 -13.328   8.900  1.00  0.00     0.123 A 
ATOM      9  C   UNL     1     -17.898 -12.833  10.193  1.00  0.00     0.094 A 
ATOM     10  C   UNL     1     -18.262 -13.685  11.239  1.00  0.00     0.146 A 
ATOM     11  O   UNL     1     -18.385 -13.174  12.459  1.00  0.00    -0.452 OA
ENDROOT
BRANCH   1  12
ATOM     12  C   UNL     1     -18.835 -13.201  14.827  1.00  0.00     0.025 A 
ATOM     13  C   UNL     1     -18.900 -11.800  14.905  1.00  0.00     0.016 A 
ATOM     14  C   UNL     1     -19.000 -11.165  16.146  1.00  0.00     0.051 A 
ATOM     15  C   UNL     1     -19.023 -11.919  17.326  1.00  0.00     0.157 A 
ATOM     16  C   UNL     1     -18.838 -13.952  16.014  1.00  0.00     0.062 A 
ATOM     17  C   UNL     1     -18.939 -13.319  17.259  1.00  0.00     0.158 A 
BRANCH  15  18
ATOM     18  O   UNL     1     -19.125 -11.283  18.563  1.00  0.00    -0.504 OA
ATOM     19  H   UNL     1     -19.902 -10.670  18.782  1.00  0.00     0.293 HD
ENDBRANCH  15  18
BRANCH  17  20
ATOM     20  O   UNL     1     -18.952 -14.099  18.415  1.00  0.00    -0.504 OA
ATOM     21  H   UNL     1     -19.695 -14.759  18.611  1.00  0.00     0.293 HD
ENDBRANCH  17  20
ENDBRANCH   1  12
BRANCH   2  22
ATOM     22  O   UNL     1     -19.124 -16.069  14.531  1.00  0.00    -0.502 OA
ATOM     23  H   UNL     1     -18.457 -16.159  15.287  1.00  0.00     0.293 HD
ENDBRANCH   2  22
BRANCH   6  24
ATOM     24  O   UNL     1     -18.701 -16.858   9.281  1.00  0.00    -0.507 OA
ATOM     25  H   UNL     1     -18.585 -17.670   9.868  1.00  0.00     0.293 HD
ENDBRANCH   6  24
BRANCH   8  26
ATOM     26  O   UNL     1     -17.361 -12.466   7.875  1.00  0.00    -0.508 OA
ATOM     27  H   UNL     1     -16.429 -12.071   7.837  1.00  0.00     0.293 HD
ENDBRANCH   8  26
TORSDOF 6
ENDMDL
MODEL 3
REMARK VINA RESULT:    12.306      1.189      6.571
REMARK INTER + INTRA:          15.296
REMARK INTER:                  14.895
REMARK INTRA:                   0.401
REMARK UNBOUND:                 0.471
REMARK SMILES O=c1c(O)c(-c2ccc(O)c(O)c2)oc2cc(O)cc(O)c12
REMARK SMILES IDX 5 1 3 2 2 3 1 4 22 5 20 6 19 7 17 8 16 9 15 10 14 11 6 12
REMARK SMILES IDX 7 13 8 14 9 15 13 16 11 17 10 18 12 20 4 22 21 24 18 26
REMARK H PARENT 10 19 12 21 4 23 21 25 18 27
REMARK Flexibility Score: inf
ROOT
ATOM      1  C   UNL     1     -18.834 -13.997  13.177  1.00  0.00     0.180 A 
ATOM      2  C   UNL     1     -18.924 -14.839  14.299  1.00  0.00     0.208 A 
ATOM      3  C   UNL     1     -18.989 -14.266  15.578  1.00  0.00     0.238 A 
ATOM      4  O   UNL     1     -19.125 -15.023  16.575  1.00  0.00    -0.285 OA
ATOM      5  C   UNL     1     -18.947 -12.858  15.722  1.00  0.00     0.111 A 
ATOM      6  C   UNL     1     -18.966 -12.169  16.972  1.00  0.00     0.134 A 
ATOM      7  C   UNL     1     -19.052 -10.772  16.990  1.00  0.00     0.093 A 
ATOM      8  C   UNL     1     -19.054 -10.035  15.803  1.00  0.00     0.123 A 
ATOM      9  C   UNL     1     -18.975 -10.695  14.579  1.00  0.00     0.094 A 
ATOM     10  C   UNL     1     -18.926 -12.090  14.528  1.00  0.00     0.146 A 
ATOM     11  O   UNL     1     -18.863 -12.680  13.340  1.00  0.00    -0.452 OA
ENDROOT
BRANCH   1  12
ATOM     12  C   UNL     1     -18.736 -14.529  11.799  1.00  0.00     0.025 A 
ATOM     13  C   UNL     1     -19.110 -15.849  11.495  1.00  0.00     0.016 A 
ATOM     14  C   UNL     1     -18.986 -16.337  10.191  1.00  0.00     0.051 A 
ATOM     15  C   UNL     1     -18.475 -15.518   9.176  1.00  0.00     0.157 A 
ATOM     16  C   UNL     1     -18.204 -13.719  10.782  1.00  0.00     0.062 A 
ATOM     17  C   UNL     1     -18.079 -14.204   9.474  1.00  0.00     0.158 A 
BRANCH  15  18
ATOM     18  O   UNL     1     -18.353 -16.006   7.875  1.00  0.00    -0.504 OA
ATOM     19  H   UNL     1     -19.003 -15.737   7.146  1.00  0.00     0.293 HD
ENDBRANCH  15  18
BRANCH  17  20
ATOM     20  O   UNL     1     -17.559 -13.366   8.489  1.00  0.00    -0.504 OA
ATOM     21  H   UNL     1     -17.775 -13.491   7.507  1.00  0.00     0.293 HD
ENDBRANCH  17  20
ENDBRANCH   1  12
BRANCH   2  22
ATOM     22  O   UNL     1     -18.986 -16.226  14.134  1.00  0.00    -0.502 OA
ATOM     23  H   UNL     1     -18.181 -16.826  14.261  1.00  0.00     0.293 HD
ENDBRANCH   2  22
BRANCH   6  24
ATOM     24  O   UNL     1     -18.875 -12.805  18.214  1.00  0.00    -0.507 OA
ATOM     25  H   UNL     1     -18.012 -12.993  18.702  1.00  0.00     0.293 HD
ENDBRANCH   6  24
BRANCH   8  26
ATOM     26  O   UNL     1     -19.124  -8.644  15.830  1.00  0.00    -0.508 OA
ATOM     27  H   UNL     1     -19.149  -8.131  16.704  1.00  0.00     0.293 HD
ENDBRANCH   8  26
TORSDOF 6
ENDMDL
