MODEL 1
REMARK VINA RESULT:    -6.601      0.000      0.000
REMARK INTER + INTRA:         -10.379
REMARK INTER:                  -9.303
REMARK INTRA:                  -1.076
REMARK UNBOUND:                -1.076
REMARK SMILES O=c1cc(-c2ccc(O)c(O)c2)oc2cc(O)c([C@@H]3O[C@H](CO)[C@H](O)[C@@H](O)[C@H]3O)c(O)c12
REMARK SMILES IDX 4 1 3 2 2 3 1 4 32 5 14 6 13 7 15 8 16 9 18 10 30 11 5 12
REMARK SMILES IDX 6 13 7 14 8 15 12 16 10 17 9 18 11 20 31 22 17 24 19 26
REMARK SMILES IDX 28 27 20 28 26 29 21 30 24 31 29 32 27 34 22 36 23 37 25 39
REMARK H PARENT 9 19 11 21 31 23 17 25 29 33 27 35 23 38 25 40
REMARK Flexibility Score: inf
ROOT
ATOM      1  C   UNL     1      -0.941  -5.406  10.253  1.00  0.00     0.138 A 
ATOM      2  C   UNL     1      -1.223  -4.609  11.368  1.00  0.00     0.100 A 
ATOM      3  C   UNL     1      -2.552  -4.327  11.694  1.00  0.00     0.197 A 
ATOM      4  O   UNL     1      -2.780  -3.518  12.642  1.00  0.00    -0.289 OA
ATOM      5  C   UNL     1      -3.597  -4.910  10.937  1.00  0.00     0.107 A 
ATOM      6  C   UNL     1      -3.221  -5.671   9.804  1.00  0.00     0.146 A 
ATOM      7  O   UNL     1      -1.941  -5.878   9.515  1.00  0.00    -0.456 OA
ATOM      8  C   UNL     1      -4.190  -6.242   8.991  1.00  0.00     0.094 A 
ATOM      9  C   UNL     1      -5.550  -6.069   9.257  1.00  0.00     0.128 A 
ATOM     10  C   UNL     1      -5.964  -5.240  10.329  1.00  0.00     0.068 A 
ATOM     11  C   UNL     1      -4.981  -4.739  11.226  1.00  0.00     0.140 A 
ENDROOT
BRANCH   1  12
ATOM     12  C   UNL     1       0.452  -5.716   9.860  1.00  0.00     0.021 A 
ATOM     13  C   UNL     1       1.535  -5.434  10.713  1.00  0.00     0.016 A 
ATOM     14  C   UNL     1       2.837  -5.759  10.332  1.00  0.00     0.051 A 
ATOM     15  C   UNL     1       3.078  -6.373   9.094  1.00  0.00     0.157 A 
ATOM     16  C   UNL     1       0.698  -6.348   8.628  1.00  0.00     0.062 A 
ATOM     17  C   UNL     1       2.003  -6.667   8.240  1.00  0.00     0.158 A 
BRANCH  15  18
ATOM     18  O   UNL     1       4.379  -6.692   8.710  1.00  0.00    -0.504 OA
ATOM     19  H   UNL     1       4.664  -7.650   8.560  1.00  0.00     0.293 HD
ENDBRANCH  15  18
BRANCH  17  20
ATOM     20  O   UNL     1       2.216  -7.277   7.001  1.00  0.00    -0.504 OA
ATOM     21  H   UNL     1       3.131  -7.594   6.701  1.00  0.00     0.293 HD
ENDBRANCH  17  20
ENDBRANCH   1  12
BRANCH  11  22
ATOM     22  O   UNL     1      -5.411  -4.141  12.419  1.00  0.00    -0.506 OA
ATOM     23  H   UNL     1      -5.411  -3.140  12.568  1.00  0.00     0.293 HD
ENDBRANCH  11  22
BRANCH   9  24
ATOM     24  O   UNL     1      -6.479  -6.753   8.470  1.00  0.00    -0.507 OA
ATOM     25  H   UNL     1      -6.790  -7.688   8.700  1.00  0.00     0.293 HD
ENDBRANCH   9  24
BRANCH  10  26
ATOM     26  C   UNL     1      -7.444  -5.005  10.643  1.00  0.00     0.188 C 
ATOM     27  C   UNL     1      -7.941  -5.685  11.955  1.00  0.00     0.179 C 
ATOM     28  O   UNL     1      -7.691  -3.611  10.676  1.00  0.00    -0.362 OA
ATOM     29  C   UNL     1      -9.441  -5.384  12.175  1.00  0.00     0.177 C 
ATOM     30  C   UNL     1      -9.089  -3.359  10.705  1.00  0.00     0.176 C 
ATOM     31  C   UNL     1      -9.700  -3.870  12.033  1.00  0.00     0.177 C 
BRANCH  27  32
ATOM     32  O   UNL     1      -7.702  -7.071  11.952  1.00  0.00    -0.387 OA
ATOM     33  H   UNL     1      -8.527  -7.539  12.220  1.00  0.00     0.211 HD
ENDBRANCH  27  32
BRANCH  29  34
ATOM     34  O   UNL     1     -10.228  -6.069  11.232  1.00  0.00    -0.387 OA
ATOM     35  H   UNL     1     -10.101  -5.620  10.355  1.00  0.00     0.211 HD
ENDBRANCH  29  34
BRANCH  30  36
ATOM     36  C   UNL     1      -9.329  -1.857  10.508  1.00  0.00     0.191 C 
BRANCH  36  37
ATOM     37  O   UNL     1      -8.316  -1.121  11.148  1.00  0.00    -0.394 OA
ATOM     38  H   UNL     1      -8.254  -0.244  10.680  1.00  0.00     0.210 HD
ENDBRANCH  36  37
ENDBRANCH  30  36
BRANCH  31  39
ATOM     39  O   UNL     1      -9.131  -3.188  13.123  1.00  0.00    -0.388 OA
ATOM     40  H   UNL     1      -8.964  -3.867  13.832  1.00  0.00     0.211 HD
ENDBRANCH  31  39
ENDBRANCH  10  26
TORSDOF 11
ENDMDL
MODEL 2
REMARK VINA RESULT:    -6.036      1.120      2.135
REMARK INTER + INTRA:          -9.582
REMARK INTER:                  -8.849
REMARK INTRA:                  -0.734
REMARK UNBOUND:                -1.076
REMARK SMILES O=c1cc(-c2ccc(O)c(O)c2)oc2cc(O)c([C@@H]3O[C@H](CO)[C@H](O)[C@@H](O)[C@H]3O)c(O)c12
REMARK SMILES IDX 4 1 3 2 2 3 1 4 32 5 14 6 13 7 15 8 16 9 18 10 30 11 5 12
REMARK SMILES IDX 6 13 7 14 8 15 12 16 10 17 9 18 11 20 31 22 17 24 19 26
REMARK SMILES IDX 28 27 20 28 26 29 21 30 24 31 29 32 27 34 22 36 23 37 25 39
REMARK H PARENT 9 19 11 21 31 23 17 25 29 33 27 35 23 38 25 40
REMARK Flexibility Score: inf
ROOT
ATOM      1  C   UNL     1      -1.140  -5.253  10.551  1.00  0.00     0.138 A 
ATOM      2  C   UNL     1      -1.358  -4.509  11.715  1.00  0.00     0.100 A 
ATOM      3  C   UNL     1      -2.663  -4.175  12.085  1.00  0.00     0.197 A 
ATOM      4  O   UNL     1      -2.829  -3.412  13.083  1.00  0.00    -0.289 OA
ATOM      5  C   UNL     1      -3.753  -4.655  11.318  1.00  0.00     0.107 A 
ATOM      6  C   UNL     1      -3.439  -5.368  10.135  1.00  0.00     0.146 A 
ATOM      7  O   UNL     1      -2.178  -5.626   9.808  1.00  0.00    -0.456 OA
ATOM      8  C   UNL     1      -4.453  -5.836   9.311  1.00  0.00     0.094 A 
ATOM      9  C   UNL     1      -5.796  -5.607   9.615  1.00  0.00     0.128 A 
ATOM     10  C   UNL     1      -6.145  -4.821  10.743  1.00  0.00     0.068 A 
ATOM     11  C   UNL     1      -5.119  -4.428  11.646  1.00  0.00     0.140 A 
ENDROOT
BRANCH   1  12
ATOM     12  C   UNL     1       0.226  -5.615  10.111  1.00  0.00     0.021 A 
ATOM     13  C   UNL     1       1.342  -5.417  10.946  1.00  0.00     0.016 A 
ATOM     14  C   UNL     1       2.617  -5.790  10.521  1.00  0.00     0.051 A 
ATOM     15  C   UNL     1       2.798  -6.367   9.255  1.00  0.00     0.157 A 
ATOM     16  C   UNL     1       0.412  -6.210   8.852  1.00  0.00     0.062 A 
ATOM     17  C   UNL     1       1.690  -6.576   8.419  1.00  0.00     0.158 A 
BRANCH  15  18
ATOM     18  O   UNL     1       4.073  -6.733   8.826  1.00  0.00    -0.504 OA
ATOM     19  H   UNL     1       4.411  -7.679   8.928  1.00  0.00     0.293 HD
ENDBRANCH  15  18
BRANCH  17  20
ATOM     20  O   UNL     1       1.843  -7.148   7.153  1.00  0.00    -0.504 OA
ATOM     21  H   UNL     1       1.863  -6.593   6.304  1.00  0.00     0.293 HD
ENDBRANCH  17  20
ENDBRANCH   1  12
BRANCH  11  22
ATOM     22  O   UNL     1      -5.494  -3.878  12.881  1.00  0.00    -0.506 OA
ATOM     23  H   UNL     1      -6.066  -3.048  12.966  1.00  0.00     0.293 HD
ENDBRANCH  11  22
BRANCH   9  24
ATOM     24  O   UNL     1      -6.775  -6.191   8.810  1.00  0.00    -0.507 OA
ATOM     25  H   UNL     1      -6.865  -5.967   7.828  1.00  0.00     0.293 HD
ENDBRANCH   9  24
BRANCH  10  26
ATOM     26  C   UNL     1      -7.604  -4.525  11.100  1.00  0.00     0.188 C 
ATOM     27  C   UNL     1      -8.018  -3.031  10.936  1.00  0.00     0.179 C 
ATOM     28  O   UNL     1      -8.444  -5.366  10.331  1.00  0.00    -0.362 OA
ATOM     29  C   UNL     1      -9.504  -2.846  11.320  1.00  0.00     0.177 C 
ATOM     30  C   UNL     1      -9.778  -5.306  10.817  1.00  0.00     0.176 C 
ATOM     31  C   UNL     1     -10.370  -3.893  10.590  1.00  0.00     0.177 C 
BRANCH  27  32
ATOM     32  O   UNL     1      -7.194  -2.172  11.684  1.00  0.00    -0.387 OA
ATOM     33  H   UNL     1      -6.256  -2.311  11.414  1.00  0.00     0.211 HD
ENDBRANCH  27  32
BRANCH  29  34
ATOM     34  O   UNL     1      -9.680  -2.997  12.707  1.00  0.00    -0.387 OA
ATOM     35  H   UNL     1     -10.554  -3.446  12.850  1.00  0.00     0.211 HD
ENDBRANCH  29  34
BRANCH  30  36
ATOM     36  C   UNL     1     -10.611  -6.391  10.121  1.00  0.00     0.191 C 
BRANCH  36  37
ATOM     37  O   UNL     1     -10.039  -6.710   8.876  1.00  0.00    -0.394 OA
ATOM     38  H   UNL     1     -10.714  -7.244   8.375  1.00  0.00     0.210 HD
ENDBRANCH  36  37
ENDBRANCH  30  36
BRANCH  31  39
ATOM     39  O   UNL     1     -10.414  -3.599   9.217  1.00  0.00    -0.388 OA
ATOM     40  H   UNL     1     -11.366  -3.417   8.992  1.00  0.00     0.211 HD
ENDBRANCH  31  39
ENDBRANCH  10  26
TORSDOF 11
ENDMDL
MODEL 3
REMARK VINA RESULT:    -5.945      4.567      5.583
REMARK INTER + INTRA:          -9.454
REMARK INTER:                  -8.603
REMARK INTRA:                  -0.850
REMARK UNBOUND:                -1.076
REMARK SMILES O=c1cc(-c2ccc(O)c(O)c2)oc2cc(O)c([C@@H]3O[C@H](CO)[C@H](O)[C@@H](O)[C@H]3O)c(O)c12
REMARK SMILES IDX 4 1 3 2 2 3 1 4 32 5 14 6 13 7 15 8 16 9 18 10 30 11 5 12
REMARK SMILES IDX 6 13 7 14 8 15 12 16 10 17 9 18 11 20 31 22 17 24 19 26
REMARK SMILES IDX 28 27 20 28 26 29 21 30 24 31 29 32 27 34 22 36 23 37 25 39
REMARK H PARENT 9 19 11 21 31 23 17 25 29 33 27 35 23 38 25 40
REMARK Flexibility Score: inf
ROOT
ATOM      1  C   UNL     1      -3.117  -0.226  11.075  1.00  0.00     0.138 A 
ATOM      2  C   UNL     1      -2.993  -1.299  11.964  1.00  0.00     0.100 A 
ATOM      3  C   UNL     1      -4.105  -2.099  12.238  1.00  0.00     0.197 A 
ATOM      4  O   UNL     1      -3.997  -2.997  13.125  1.00  0.00    -0.289 OA
ATOM      5  C   UNL     1      -5.324  -1.859  11.557  1.00  0.00     0.107 A 
ATOM      6  C   UNL     1      -5.370  -0.730  10.704  1.00  0.00     0.146 A 
ATOM      7  O   UNL     1      -4.293   0.022  10.508  1.00  0.00    -0.456 OA
ATOM      8  C   UNL     1      -6.542  -0.408  10.033  1.00  0.00     0.094 A 
ATOM      9  C   UNL     1      -7.699  -1.173  10.190  1.00  0.00     0.128 A 
ATOM     10  C   UNL     1      -7.715  -2.257  11.104  1.00  0.00     0.068 A 
ATOM     11  C   UNL     1      -6.494  -2.655  11.714  1.00  0.00     0.140 A 
ENDROOT
BRANCH   1  12
ATOM     12  C   UNL     1      -1.970   0.658  10.769  1.00  0.00     0.021 A 
ATOM     13  C   UNL     1      -1.657   1.762  11.585  1.00  0.00     0.016 A 
ATOM     14  C   UNL     1      -0.555   2.566  11.292  1.00  0.00     0.051 A 
ATOM     15  C   UNL     1       0.252   2.281  10.180  1.00  0.00     0.157 A 
ATOM     16  C   UNL     1      -1.147   0.367   9.667  1.00  0.00     0.062 A 
ATOM     17  C   UNL     1      -0.048   1.178   9.366  1.00  0.00     0.158 A 
BRANCH  15  18
ATOM     18  O   UNL     1       1.348   3.088   9.883  1.00  0.00    -0.504 OA
ATOM     19  H   UNL     1       2.132   2.737   9.351  1.00  0.00     0.293 HD
ENDBRANCH  15  18
BRANCH  17  20
ATOM     20  O   UNL     1       0.739   0.872   8.252  1.00  0.00    -0.504 OA
ATOM     21  H   UNL     1       1.482   0.182   8.285  1.00  0.00     0.293 HD
ENDBRANCH  17  20
ENDBRANCH   1  12
BRANCH  11  22
ATOM     22  O   UNL     1      -6.463  -3.873  12.409  1.00  0.00    -0.506 OA
ATOM     23  H   UNL     1      -7.053  -4.071  13.206  1.00  0.00     0.293 HD
ENDBRANCH  11  22
BRANCH   9  24
ATOM     24  O   UNL     1      -8.816  -0.868   9.410  1.00  0.00    -0.507 OA
ATOM     25  H   UNL     1      -9.537  -1.551   9.219  1.00  0.00     0.293 HD
ENDBRANCH   9  24
BRANCH  10  26
ATOM     26  C   UNL     1      -8.968  -3.108  11.325  1.00  0.00     0.188 C 
ATOM     27  C   UNL     1     -10.214  -2.306  11.808  1.00  0.00     0.179 C 
ATOM     28  O   UNL     1      -9.259  -3.815  10.133  1.00  0.00    -0.362 OA
ATOM     29  C   UNL     1     -11.419  -3.257  11.997  1.00  0.00     0.177 C 
ATOM     30  C   UNL     1     -10.251  -4.803  10.376  1.00  0.00     0.176 C 
ATOM     31  C   UNL     1     -11.598  -4.133  10.740  1.00  0.00     0.177 C 
BRANCH  27  32
ATOM     32  O   UNL     1      -9.952  -1.587  12.988  1.00  0.00    -0.387 OA
ATOM     33  H   UNL     1      -9.145  -1.958  13.417  1.00  0.00     0.211 HD
ENDBRANCH  27  32
BRANCH  29  34
ATOM     34  O   UNL     1     -11.219  -4.094  13.110  1.00  0.00    -0.387 OA
ATOM     35  H   UNL     1     -10.361  -3.829  13.533  1.00  0.00     0.211 HD
ENDBRANCH  29  34
BRANCH  30  36
ATOM     36  C   UNL     1     -10.376  -5.698   9.136  1.00  0.00     0.191 C 
BRANCH  36  37
ATOM     37  O   UNL     1      -9.098  -6.032   8.654  1.00  0.00    -0.394 OA
ATOM     38  H   UNL     1      -8.514  -5.239   8.806  1.00  0.00     0.210 HD
ENDBRANCH  36  37
ENDBRANCH  30  36
BRANCH  31  39
ATOM     39  O   UNL     1     -12.053  -3.342   9.672  1.00  0.00    -0.388 OA
ATOM     40  H   UNL     1     -12.460  -2.526  10.071  1.00  0.00     0.211 HD
ENDBRANCH  31  39
ENDBRANCH  10  26
TORSDOF 11
ENDMDL
MODEL 4
REMARK VINA RESULT:    -5.804      4.986      6.485
REMARK INTER + INTRA:          -9.256
REMARK INTER:                  -8.354
REMARK INTRA:                  -0.902
REMARK UNBOUND:                -1.076
REMARK SMILES O=c1cc(-c2ccc(O)c(O)c2)oc2cc(O)c([C@@H]3O[C@H](CO)[C@H](O)[C@@H](O)[C@H]3O)c(O)c12
REMARK SMILES IDX 4 1 3 2 2 3 1 4 32 5 14 6 13 7 15 8 16 9 18 10 30 11 5 12
REMARK SMILES IDX 6 13 7 14 8 15 12 16 10 17 9 18 11 20 31 22 17 24 19 26
REMARK SMILES IDX 28 27 20 28 26 29 21 30 24 31 29 32 27 34 22 36 23 37 25 39
REMARK H PARENT 9 19 11 21 31 23 17 25 29 33 27 35 23 38 25 40
REMARK Flexibility Score: inf
ROOT
ATOM      1  C   UNL     1      -2.809   1.661  11.088  1.00  0.00     0.138 A 
ATOM      2  C   UNL     1      -3.932   2.239  11.690  1.00  0.00     0.100 A 
ATOM      3  C   UNL     1      -5.023   1.434  12.029  1.00  0.00     0.197 A 
ATOM      4  O   UNL     1      -6.068   1.994  12.474  1.00  0.00    -0.289 OA
ATOM      5  C   UNL     1      -4.949   0.034  11.827  1.00  0.00     0.107 A 
ATOM      6  C   UNL     1      -3.792  -0.460  11.177  1.00  0.00     0.146 A 
ATOM      7  O   UNL     1      -2.798   0.355  10.840  1.00  0.00    -0.456 OA
ATOM      8  C   UNL     1      -3.665  -1.816  10.909  1.00  0.00     0.094 A 
ATOM      9  C   UNL     1      -4.672  -2.719  11.256  1.00  0.00     0.128 A 
ATOM     10  C   UNL     1      -5.882  -2.249  11.826  1.00  0.00     0.068 A 
ATOM     11  C   UNL     1      -5.976  -0.880  12.197  1.00  0.00     0.140 A 
ENDROOT
BRANCH   1  12
ATOM     12  C   UNL     1      -1.639   2.477  10.696  1.00  0.00     0.021 A 
ATOM     13  C   UNL     1      -1.618   3.871  10.891  1.00  0.00     0.016 A 
ATOM     14  C   UNL     1      -0.493   4.617  10.538  1.00  0.00     0.051 A 
ATOM     15  C   UNL     1       0.630   3.982   9.986  1.00  0.00     0.157 A 
ATOM     16  C   UNL     1      -0.504   1.845  10.159  1.00  0.00     0.062 A 
ATOM     17  C   UNL     1       0.622   2.591   9.796  1.00  0.00     0.158 A 
BRANCH  15  18
ATOM     18  O   UNL     1       1.751   4.727   9.626  1.00  0.00    -0.504 OA
ATOM     19  H   UNL     1       2.687   4.385   9.792  1.00  0.00     0.293 HD
ENDBRANCH  15  18
BRANCH  17  20
ATOM     20  O   UNL     1       1.727   1.935   9.247  1.00  0.00    -0.504 OA
ATOM     21  H   UNL     1       2.580   2.423   8.997  1.00  0.00     0.293 HD
ENDBRANCH  17  20
ENDBRANCH   1  12
BRANCH  11  22
ATOM     22  O   UNL     1      -7.064  -0.477  12.987  1.00  0.00    -0.506 OA
ATOM     23  H   UNL     1      -7.845  -1.082  13.202  1.00  0.00     0.293 HD
ENDBRANCH  11  22
BRANCH   9  24
ATOM     24  O   UNL     1      -4.446  -4.082  11.060  1.00  0.00    -0.507 OA
ATOM     25  H   UNL     1      -4.088  -4.446  10.187  1.00  0.00     0.293 HD
ENDBRANCH   9  24
BRANCH  10  26
ATOM     26  C   UNL     1      -7.021  -3.201  12.200  1.00  0.00     0.188 C 
ATOM     27  C   UNL     1      -8.258  -3.129  11.254  1.00  0.00     0.179 C 
ATOM     28  O   UNL     1      -6.513  -4.521  12.263  1.00  0.00    -0.362 OA
ATOM     29  C   UNL     1      -9.342  -4.128  11.719  1.00  0.00     0.177 C 
ATOM     30  C   UNL     1      -7.471  -5.389  12.855  1.00  0.00     0.176 C 
ATOM     31  C   UNL     1      -8.715  -5.519  11.942  1.00  0.00     0.177 C 
BRANCH  27  32
ATOM     32  O   UNL     1      -8.778  -1.826  11.166  1.00  0.00    -0.387 OA
ATOM     33  H   UNL     1      -8.354  -1.264  11.856  1.00  0.00     0.211 HD
ENDBRANCH  27  32
BRANCH  29  34
ATOM     34  O   UNL     1      -9.930  -3.696  12.922  1.00  0.00    -0.387 OA
ATOM     35  H   UNL     1     -10.276  -2.778  12.772  1.00  0.00     0.211 HD
ENDBRANCH  29  34
BRANCH  30  36
ATOM     36  C   UNL     1      -6.813  -6.749  13.120  1.00  0.00     0.191 C 
BRANCH  36  37
ATOM     37  O   UNL     1      -5.691  -6.910  12.287  1.00  0.00    -0.394 OA
ATOM     38  H   UNL     1      -4.951  -7.251  12.861  1.00  0.00     0.210 HD
ENDBRANCH  36  37
ENDBRANCH  30  36
BRANCH  31  39
ATOM     39  O   UNL     1      -8.354  -6.080  10.705  1.00  0.00    -0.388 OA
ATOM     40  H   UNL     1      -8.965  -6.850  10.549  1.00  0.00     0.211 HD
ENDBRANCH  31  39
ENDBRANCH  10  26
TORSDOF 11
ENDMDL
MODEL 5
REMARK VINA RESULT:    -5.791      4.492      9.531
REMARK INTER + INTRA:          -9.237
REMARK INTER:                  -8.107
REMARK INTRA:                  -1.130
REMARK UNBOUND:                -1.076
REMARK SMILES O=c1cc(-c2ccc(O)c(O)c2)oc2cc(O)c([C@@H]3O[C@H](CO)[C@H](O)[C@@H](O)[C@H]3O)c(O)c12
REMARK SMILES IDX 4 1 3 2 2 3 1 4 32 5 14 6 13 7 15 8 16 9 18 10 30 11 5 12
REMARK SMILES IDX 6 13 7 14 8 15 12 16 10 17 9 18 11 20 31 22 17 24 19 26
REMARK SMILES IDX 28 27 20 28 26 29 21 30 24 31 29 32 27 34 22 36 23 37 25 39
REMARK H PARENT 9 19 11 21 31 23 17 25 29 33 27 35 23 38 25 40
REMARK Flexibility Score: inf
ROOT
ATOM      1  C   UNL     1      -7.325  -3.256  11.116  1.00  0.00     0.138 A 
ATOM      2  C   UNL     1      -6.094  -3.793  11.510  1.00  0.00     0.100 A 
ATOM      3  C   UNL     1      -4.940  -3.013  11.411  1.00  0.00     0.197 A 
ATOM      4  O   UNL     1      -3.824  -3.554  11.673  1.00  0.00    -0.289 OA
ATOM      5  C   UNL     1      -5.039  -1.666  10.983  1.00  0.00     0.107 A 
ATOM      6  C   UNL     1      -6.316  -1.218  10.568  1.00  0.00     0.146 A 
ATOM      7  O   UNL     1      -7.377  -2.013  10.646  1.00  0.00    -0.456 OA
ATOM      8  C   UNL     1      -6.485   0.078  10.099  1.00  0.00     0.094 A 
ATOM      9  C   UNL     1      -5.407   0.960  10.011  1.00  0.00     0.128 A 
ATOM     10  C   UNL     1      -4.099   0.519  10.333  1.00  0.00     0.068 A 
ATOM     11  C   UNL     1      -3.935  -0.770  10.911  1.00  0.00     0.140 A 
ENDROOT
BRANCH   1  12
ATOM     12  C   UNL     1      -8.571  -4.051  11.186  1.00  0.00     0.021 A 
ATOM     13  C   UNL     1      -9.544  -3.804  12.174  1.00  0.00     0.016 A 
ATOM     14  C   UNL     1     -10.723  -4.549  12.205  1.00  0.00     0.051 A 
ATOM     15  C   UNL     1     -10.950  -5.551  11.250  1.00  0.00     0.157 A 
ATOM     16  C   UNL     1      -8.813  -5.044  10.222  1.00  0.00     0.062 A 
ATOM     17  C   UNL     1      -9.990  -5.799  10.256  1.00  0.00     0.158 A 
BRANCH  15  18
ATOM     18  O   UNL     1     -12.125  -6.301  11.285  1.00  0.00    -0.504 OA
ATOM     19  H   UNL     1     -13.019  -5.888  11.060  1.00  0.00     0.293 HD
ENDBRANCH  15  18
BRANCH  17  20
ATOM     20  O   UNL     1     -10.192  -6.791   9.294  1.00  0.00    -0.504 OA
ATOM     21  H   UNL     1     -10.515  -7.723   9.533  1.00  0.00     0.293 HD
ENDBRANCH  17  20
ENDBRANCH   1  12
BRANCH  11  22
ATOM     22  O   UNL     1      -2.687  -1.099  11.461  1.00  0.00    -0.506 OA
ATOM     23  H   UNL     1      -2.316  -2.040  11.467  1.00  0.00     0.293 HD
ENDBRANCH  11  22
BRANCH   9  24
ATOM     24  O   UNL     1      -5.652   2.282   9.634  1.00  0.00    -0.507 OA
ATOM     25  H   UNL     1      -5.137   3.056  10.033  1.00  0.00     0.293 HD
ENDBRANCH   9  24
BRANCH  10  26
ATOM     26  C   UNL     1      -2.885   1.447  10.229  1.00  0.00     0.188 C 
ATOM     27  C   UNL     1      -2.600   2.281  11.514  1.00  0.00     0.179 C 
ATOM     28  O   UNL     1      -1.751   0.680   9.866  1.00  0.00    -0.362 OA
ATOM     29  C   UNL     1      -1.358   3.178  11.301  1.00  0.00     0.177 C 
ATOM     30  C   UNL     1      -0.673   1.534   9.509  1.00  0.00     0.176 C 
ATOM     31  C   UNL     1      -0.192   2.337  10.743  1.00  0.00     0.177 C 
BRANCH  27  32
ATOM     32  O   UNL     1      -3.713   3.047  11.901  1.00  0.00    -0.387 OA
ATOM     33  H   UNL     1      -3.422   3.731  12.550  1.00  0.00     0.211 HD
ENDBRANCH  27  32
BRANCH  29  34
ATOM     34  O   UNL     1      -1.646   4.214  10.396  1.00  0.00    -0.387 OA
ATOM     35  H   UNL     1      -2.429   4.712  10.750  1.00  0.00     0.211 HD
ENDBRANCH  29  34
BRANCH  30  36
ATOM     36  C   UNL     1       0.454   0.687   8.905  1.00  0.00     0.191 C 
BRANCH  36  37
ATOM     37  O   UNL     1       1.693   1.322   9.110  1.00  0.00    -0.394 OA
ATOM     38  H   UNL     1       2.383   0.604   9.148  1.00  0.00     0.210 HD
ENDBRANCH  36  37
ENDBRANCH  30  36
BRANCH  31  39
ATOM     39  O   UNL     1       0.281   1.463  11.737  1.00  0.00    -0.388 OA
ATOM     40  H   UNL     1       0.303   1.980  12.588  1.00  0.00     0.211 HD
ENDBRANCH  31  39
ENDBRANCH  10  26
TORSDOF 11
ENDMDL
MODEL 6
REMARK VINA RESULT:    -5.772      6.248      7.916
REMARK INTER + INTRA:          -9.210
REMARK INTER:                  -8.423
REMARK INTRA:                  -0.786
REMARK UNBOUND:                -1.076
REMARK SMILES O=c1cc(-c2ccc(O)c(O)c2)oc2cc(O)c([C@@H]3O[C@H](CO)[C@H](O)[C@@H](O)[C@H]3O)c(O)c12
REMARK SMILES IDX 4 1 3 2 2 3 1 4 32 5 14 6 13 7 15 8 16 9 18 10 30 11 5 12
REMARK SMILES IDX 6 13 7 14 8 15 12 16 10 17 9 18 11 20 31 22 17 24 19 26
REMARK SMILES IDX 28 27 20 28 26 29 21 30 24 31 29 32 27 34 22 36 23 37 25 39
REMARK H PARENT 9 19 11 21 31 23 17 25 29 33 27 35 23 38 25 40
REMARK Flexibility Score: inf
ROOT
ATOM      1  C   UNL     1      -2.843   3.519  10.671  1.00  0.00     0.138 A 
ATOM      2  C   UNL     1      -4.097   3.985  11.081  1.00  0.00     0.100 A 
ATOM      3  C   UNL     1      -5.104   3.069  11.394  1.00  0.00     0.197 A 
ATOM      4  O   UNL     1      -6.260   3.513  11.659  1.00  0.00    -0.289 OA
ATOM      5  C   UNL     1      -4.821   1.681  11.364  1.00  0.00     0.107 A 
ATOM      6  C   UNL     1      -3.539   1.298  10.902  1.00  0.00     0.146 A 
ATOM      7  O   UNL     1      -2.629   2.210  10.579  1.00  0.00    -0.456 OA
ATOM      8  C   UNL     1      -3.202  -0.045  10.807  1.00  0.00     0.094 A 
ATOM      9  C   UNL     1      -4.114  -1.045  11.148  1.00  0.00     0.128 A 
ATOM     10  C   UNL     1      -5.436  -0.701  11.530  1.00  0.00     0.068 A 
ATOM     11  C   UNL     1      -5.755   0.670  11.729  1.00  0.00     0.140 A 
ENDROOT
BRANCH   1  12
ATOM     12  C   UNL     1      -1.753   4.453  10.312  1.00  0.00     0.021 A 
ATOM     13  C   UNL     1      -2.020   5.786   9.946  1.00  0.00     0.016 A 
ATOM     14  C   UNL     1      -0.974   6.656   9.637  1.00  0.00     0.051 A 
ATOM     15  C   UNL     1       0.355   6.210   9.690  1.00  0.00     0.157 A 
ATOM     16  C   UNL     1      -0.419   4.018  10.381  1.00  0.00     0.062 A 
ATOM     17  C   UNL     1       0.631   4.885  10.063  1.00  0.00     0.158 A 
BRANCH  15  18
ATOM     18  O   UNL     1       1.399   7.077   9.375  1.00  0.00    -0.504 OA
ATOM     19  H   UNL     1       1.812   7.681  10.072  1.00  0.00     0.293 HD
ENDBRANCH  15  18
BRANCH  17  20
ATOM     20  O   UNL     1       1.946   4.415  10.123  1.00  0.00    -0.504 OA
ATOM     21  H   UNL     1       2.366   4.086  10.986  1.00  0.00     0.293 HD
ENDBRANCH  17  20
ENDBRANCH   1  12
BRANCH  11  22
ATOM     22  O   UNL     1      -6.973   0.987  12.348  1.00  0.00    -0.506 OA
ATOM     23  H   UNL     1      -7.832   1.134  11.836  1.00  0.00     0.293 HD
ENDBRANCH  11  22
BRANCH   9  24
ATOM     24  O   UNL     1      -3.688  -2.374  11.137  1.00  0.00    -0.507 OA
ATOM     25  H   UNL     1      -2.774  -2.640  10.793  1.00  0.00     0.293 HD
ENDBRANCH   9  24
BRANCH  10  26
ATOM     26  C   UNL     1      -6.475  -1.766  11.890  1.00  0.00     0.188 C 
ATOM     27  C   UNL     1      -7.626  -1.921  10.850  1.00  0.00     0.179 C 
ATOM     28  O   UNL     1      -5.814  -3.002  12.094  1.00  0.00    -0.362 OA
ATOM     29  C   UNL     1      -8.613  -3.019  11.309  1.00  0.00     0.177 C 
ATOM     30  C   UNL     1      -6.702  -3.945  12.678  1.00  0.00     0.176 C 
ATOM     31  C   UNL     1      -7.838  -4.298  11.687  1.00  0.00     0.177 C 
BRANCH  27  32
ATOM     32  O   UNL     1      -8.296  -0.706  10.622  1.00  0.00    -0.387 OA
ATOM     33  H   UNL     1      -8.130  -0.101  11.383  1.00  0.00     0.211 HD
ENDBRANCH  27  32
BRANCH  29  34
ATOM     34  O   UNL     1      -9.349  -2.587  12.427  1.00  0.00    -0.387 OA
ATOM     35  H   UNL     1      -8.968  -1.718  12.718  1.00  0.00     0.211 HD
ENDBRANCH  29  34
BRANCH  30  36
ATOM     36  C   UNL     1      -5.905  -5.187  13.097  1.00  0.00     0.191 C 
BRANCH  36  37
ATOM     37  O   UNL     1      -4.649  -5.188  12.463  1.00  0.00    -0.394 OA
ATOM     38  H   UNL     1      -3.994  -5.555  13.117  1.00  0.00     0.210 HD
ENDBRANCH  36  37
ENDBRANCH  30  36
BRANCH  31  39
ATOM     39  O   UNL     1      -7.306  -4.890  10.528  1.00  0.00    -0.388 OA
ATOM     40  H   UNL     1      -7.546  -5.855  10.563  1.00  0.00     0.211 HD
ENDBRANCH  31  39
ENDBRANCH  10  26
TORSDOF 11
ENDMDL
MODEL 7
REMARK VINA RESULT:    -5.673      4.828      6.163
REMARK INTER + INTRA:          -9.070
REMARK INTER:                  -7.911
REMARK INTRA:                  -1.159
REMARK UNBOUND:                -1.076
REMARK SMILES O=c1cc(-c2ccc(O)c(O)c2)oc2cc(O)c([C@@H]3O[C@H](CO)[C@H](O)[C@@H](O)[C@H]3O)c(O)c12
REMARK SMILES IDX 4 1 3 2 2 3 1 4 32 5 14 6 13 7 15 8 16 9 18 10 30 11 5 12
REMARK SMILES IDX 6 13 7 14 8 15 12 16 10 17 9 18 11 20 31 22 17 24 19 26
REMARK SMILES IDX 28 27 20 28 26 29 21 30 24 31 29 32 27 34 22 36 23 37 25 39
REMARK H PARENT 9 19 11 21 31 23 17 25 29 33 27 35 23 38 25 40
REMARK Flexibility Score: inf
ROOT
ATOM      1  C   UNL     1      -3.290   1.288  10.934  1.00  0.00     0.138 A 
ATOM      2  C   UNL     1      -4.159   2.083  11.689  1.00  0.00     0.100 A 
ATOM      3  C   UNL     1      -5.421   1.590  12.029  1.00  0.00     0.197 A 
ATOM      4  O   UNL     1      -6.230   2.366  12.621  1.00  0.00    -0.289 OA
ATOM      5  C   UNL     1      -5.778   0.268  11.668  1.00  0.00     0.107 A 
ATOM      6  C   UNL     1      -4.853  -0.450  10.872  1.00  0.00     0.146 A 
ATOM      7  O   UNL     1      -3.680   0.079  10.544  1.00  0.00    -0.456 OA
ATOM      8  C   UNL     1      -5.148  -1.738  10.447  1.00  0.00     0.094 A 
ATOM      9  C   UNL     1      -6.360  -2.348  10.776  1.00  0.00     0.128 A 
ATOM     10  C   UNL     1      -7.346  -1.627  11.495  1.00  0.00     0.068 A 
ATOM     11  C   UNL     1      -7.011  -0.350  12.023  1.00  0.00     0.140 A 
ENDROOT
BRANCH   1  12
ATOM     12  C   UNL     1      -1.950   1.775  10.536  1.00  0.00     0.021 A 
ATOM     13  C   UNL     1      -1.384   2.925  11.119  1.00  0.00     0.016 A 
ATOM     14  C   UNL     1      -0.109   3.350  10.747  1.00  0.00     0.051 A 
ATOM     15  C   UNL     1       0.623   2.634   9.788  1.00  0.00     0.157 A 
ATOM     16  C   UNL     1      -1.205   1.051   9.589  1.00  0.00     0.062 A 
ATOM     17  C   UNL     1       0.071   1.481   9.208  1.00  0.00     0.158 A 
BRANCH  15  18
ATOM     18  O   UNL     1       1.894   3.062   9.411  1.00  0.00    -0.504 OA
ATOM     19  H   UNL     1       2.503   2.479   8.855  1.00  0.00     0.293 HD
ENDBRANCH  15  18
BRANCH  17  20
ATOM     20  O   UNL     1       0.778   0.750   8.250  1.00  0.00    -0.504 OA
ATOM     21  H   UNL     1       0.393   0.537   7.336  1.00  0.00     0.293 HD
ENDBRANCH  17  20
ENDBRANCH   1  12
BRANCH  11  22
ATOM     22  O   UNL     1      -7.889   0.243  12.942  1.00  0.00    -0.506 OA
ATOM     23  H   UNL     1      -8.607   0.903  12.674  1.00  0.00     0.293 HD
ENDBRANCH  11  22
BRANCH   9  24
ATOM     24  O   UNL     1      -6.560  -3.681  10.413  1.00  0.00    -0.507 OA
ATOM     25  H   UNL     1      -5.797  -4.344  10.369  1.00  0.00     0.293 HD
ENDBRANCH   9  24
BRANCH  10  26
ATOM     26  C   UNL     1      -8.697  -2.250  11.858  1.00  0.00     0.188 C 
ATOM     27  C   UNL     1      -9.821  -2.008  10.806  1.00  0.00     0.179 C 
ATOM     28  O   UNL     1      -8.516  -3.635  12.090  1.00  0.00    -0.362 OA
ATOM     29  C   UNL     1     -11.136  -2.677  11.268  1.00  0.00     0.177 C 
ATOM     30  C   UNL     1      -9.685  -4.192  12.676  1.00  0.00     0.176 C 
ATOM     31  C   UNL     1     -10.865  -4.140  11.676  1.00  0.00     0.177 C 
BRANCH  27  32
ATOM     32  O   UNL     1     -10.017  -0.639  10.551  1.00  0.00    -0.387 OA
ATOM     33  H   UNL     1      -9.761  -0.446   9.618  1.00  0.00     0.211 HD
ENDBRANCH  27  32
BRANCH  29  34
ATOM     34  O   UNL     1     -11.680  -1.992  12.369  1.00  0.00    -0.387 OA
ATOM     35  H   UNL     1     -10.970  -1.925  13.060  1.00  0.00     0.211 HD
ENDBRANCH  29  34
BRANCH  30  36
ATOM     36  C   UNL     1      -9.381  -5.627  13.125  1.00  0.00     0.191 C 
BRANCH  36  37
ATOM     37  O   UNL     1      -8.693  -6.313  12.107  1.00  0.00    -0.394 OA
ATOM     38  H   UNL     1      -8.039  -5.672  11.716  1.00  0.00     0.210 HD
ENDBRANCH  36  37
ENDBRANCH  30  36
BRANCH  31  39
ATOM     39  O   UNL     1     -10.569  -4.903  10.534  1.00  0.00    -0.388 OA
ATOM     40  H   UNL     1     -10.296  -5.806  10.853  1.00  0.00     0.211 HD
ENDBRANCH  31  39
ENDBRANCH  10  26
TORSDOF 11
ENDMDL
MODEL 8
REMARK VINA RESULT:    -5.589      4.686      9.183
REMARK INTER + INTRA:          -8.951
REMARK INTER:                  -7.787
REMARK INTRA:                  -1.164
REMARK UNBOUND:                -1.076
REMARK SMILES O=c1cc(-c2ccc(O)c(O)c2)oc2cc(O)c([C@@H]3O[C@H](CO)[C@H](O)[C@@H](O)[C@H]3O)c(O)c12
REMARK SMILES IDX 4 1 3 2 2 3 1 4 32 5 14 6 13 7 15 8 16 9 18 10 30 11 5 12
REMARK SMILES IDX 6 13 7 14 8 15 12 16 10 17 9 18 11 20 31 22 17 24 19 26
REMARK SMILES IDX 28 27 20 28 26 29 21 30 24 31 29 32 27 34 22 36 23 37 25 39
REMARK H PARENT 9 19 11 21 31 23 17 25 29 33 27 35 23 38 25 40
REMARK Flexibility Score: inf
ROOT
ATOM      1  C   UNL     1      -7.402  -3.707  11.405  1.00  0.00     0.138 A 
ATOM      2  C   UNL     1      -6.382  -4.146  12.257  1.00  0.00     0.100 A 
ATOM      3  C   UNL     1      -5.232  -3.368  12.412  1.00  0.00     0.197 A 
ATOM      4  O   UNL     1      -4.279  -3.835  13.103  1.00  0.00    -0.289 OA
ATOM      5  C   UNL     1      -5.144  -2.112  11.763  1.00  0.00     0.107 A 
ATOM      6  C   UNL     1      -6.204  -1.765  10.891  1.00  0.00     0.146 A 
ATOM      7  O   UNL     1      -7.259  -2.560  10.749  1.00  0.00    -0.456 OA
ATOM      8  C   UNL     1      -6.169  -0.568  10.190  1.00  0.00     0.094 A 
ATOM      9  C   UNL     1      -5.092   0.312  10.313  1.00  0.00     0.128 A 
ATOM     10  C   UNL     1      -3.973  -0.043  11.107  1.00  0.00     0.068 A 
ATOM     11  C   UNL     1      -4.047  -1.216  11.907  1.00  0.00     0.140 A 
ENDROOT
BRANCH   1  12
ATOM     12  C   UNL     1      -8.630  -4.506  11.197  1.00  0.00     0.021 A 
ATOM     13  C   UNL     1      -9.672  -4.509  12.143  1.00  0.00     0.016 A 
ATOM     14  C   UNL     1     -10.832  -5.249  11.913  1.00  0.00     0.051 A 
ATOM     15  C   UNL     1     -10.970  -5.998  10.734  1.00  0.00     0.157 A 
ATOM     16  C   UNL     1      -8.781  -5.244  10.010  1.00  0.00     0.062 A 
ATOM     17  C   UNL     1      -9.939  -5.995   9.781  1.00  0.00     0.158 A 
BRANCH  15  18
ATOM     18  O   UNL     1     -12.125  -6.744  10.508  1.00  0.00    -0.504 OA
ATOM     19  H   UNL     1     -12.097  -7.752  10.446  1.00  0.00     0.293 HD
ENDBRANCH  15  18
BRANCH  17  20
ATOM     20  O   UNL     1     -10.050  -6.733   8.600  1.00  0.00    -0.504 OA
ATOM     21  H   UNL     1     -10.654  -7.543   8.520  1.00  0.00     0.293 HD
ENDBRANCH  17  20
ENDBRANCH   1  12
BRANCH  11  22
ATOM     22  O   UNL     1      -3.054  -1.425  12.876  1.00  0.00    -0.506 OA
ATOM     23  H   UNL     1      -3.204  -1.970  13.714  1.00  0.00     0.293 HD
ENDBRANCH  11  22
BRANCH   9  24
ATOM     24  O   UNL     1      -5.159   1.548   9.669  1.00  0.00    -0.507 OA
ATOM     25  H   UNL     1      -5.340   2.406  10.175  1.00  0.00     0.293 HD
ENDBRANCH   9  24
BRANCH  10  26
ATOM     26  C   UNL     1      -2.761   0.881  11.252  1.00  0.00     0.188 C 
ATOM     27  C   UNL     1      -1.684   0.710  10.138  1.00  0.00     0.179 C 
ATOM     28  O   UNL     1      -3.211   2.222  11.313  1.00  0.00    -0.362 OA
ATOM     29  C   UNL     1      -0.510   1.687  10.379  1.00  0.00     0.177 C 
ATOM     30  C   UNL     1      -2.148   3.080  11.705  1.00  0.00     0.176 C 
ATOM     31  C   UNL     1      -1.052   3.112  10.611  1.00  0.00     0.177 C 
BRANCH  27  32
ATOM     32  O   UNL     1      -1.224  -0.616  10.051  1.00  0.00    -0.387 OA
ATOM     33  H   UNL     1      -1.252  -1.026  10.947  1.00  0.00     0.211 HD
ENDBRANCH  27  32
BRANCH  29  34
ATOM     34  O   UNL     1       0.238   1.296  11.504  1.00  0.00    -0.387 OA
ATOM     35  H   UNL     1       0.999   1.928  11.592  1.00  0.00     0.211 HD
ENDBRANCH  29  34
BRANCH  30  36
ATOM     36  C   UNL     1      -2.714   4.478  11.984  1.00  0.00     0.191 C 
BRANCH  36  37
ATOM     37  O   UNL     1      -3.672   4.812  11.010  1.00  0.00    -0.394 OA
ATOM     38  H   UNL     1      -3.519   4.206  10.234  1.00  0.00     0.210 HD
ENDBRANCH  36  37
ENDBRANCH  30  36
BRANCH  31  39
ATOM     39  O   UNL     1      -1.577   3.621   9.411  1.00  0.00    -0.388 OA
ATOM     40  H   UNL     1      -0.861   4.173   8.995  1.00  0.00     0.211 HD
ENDBRANCH  31  39
ENDBRANCH  10  26
TORSDOF 11
ENDMDL
MODEL 9
REMARK VINA RESULT:    -5.219      6.111      9.447
REMARK INTER + INTRA:          -8.430
REMARK INTER:                  -7.188
REMARK INTRA:                  -1.243
REMARK UNBOUND:                -1.076
REMARK SMILES O=c1cc(-c2ccc(O)c(O)c2)oc2cc(O)c([C@@H]3O[C@H](CO)[C@H](O)[C@@H](O)[C@H]3O)c(O)c12
REMARK SMILES IDX 4 1 3 2 2 3 1 4 32 5 14 6 13 7 15 8 16 9 18 10 30 11 5 12
REMARK SMILES IDX 6 13 7 14 8 15 12 16 10 17 9 18 11 20 31 22 17 24 19 26
REMARK SMILES IDX 28 27 20 28 26 29 21 30 24 31 29 32 27 34 22 36 23 37 25 39
REMARK H PARENT 9 19 11 21 31 23 17 25 29 33 27 35 23 38 25 40
REMARK Flexibility Score: inf
ROOT
ATOM      1  C   UNL     1      -5.629  -2.094  11.588  1.00  0.00     0.138 A 
ATOM      2  C   UNL     1      -6.513  -1.208  10.963  1.00  0.00     0.100 A 
ATOM      3  C   UNL     1      -6.131   0.120  10.763  1.00  0.00     0.197 A 
ATOM      4  O   UNL     1      -6.986   0.928  10.292  1.00  0.00    -0.289 OA
ATOM      5  C   UNL     1      -4.827   0.536  11.129  1.00  0.00     0.107 A 
ATOM      6  C   UNL     1      -4.013  -0.415  11.790  1.00  0.00     0.146 A 
ATOM      7  O   UNL     1      -4.440  -1.657  11.990  1.00  0.00    -0.456 OA
ATOM      8  C   UNL     1      -2.737  -0.070  12.215  1.00  0.00     0.094 A 
ATOM      9  C   UNL     1      -2.233   1.216  12.016  1.00  0.00     0.128 A 
ATOM     10  C   UNL     1      -3.052   2.219  11.438  1.00  0.00     0.068 A 
ATOM     11  C   UNL     1      -4.317   1.847  10.909  1.00  0.00     0.140 A 
ENDROOT
BRANCH   1  12
ATOM     12  C   UNL     1      -5.998  -3.506  11.836  1.00  0.00     0.021 A 
ATOM     13  C   UNL     1      -5.384  -4.256  12.857  1.00  0.00     0.016 A 
ATOM     14  C   UNL     1      -5.767  -5.577  13.090  1.00  0.00     0.051 A 
ATOM     15  C   UNL     1      -6.770  -6.170  12.308  1.00  0.00     0.157 A 
ATOM     16  C   UNL     1      -7.015  -4.099  11.068  1.00  0.00     0.062 A 
ATOM     17  C   UNL     1      -7.394  -5.427  11.293  1.00  0.00     0.158 A 
BRANCH  15  18
ATOM     18  O   UNL     1      -7.148  -7.492  12.535  1.00  0.00    -0.504 OA
ATOM     19  H   UNL     1      -6.780  -8.248  11.976  1.00  0.00     0.293 HD
ENDBRANCH  15  18
BRANCH  17  20
ATOM     20  O   UNL     1      -8.395  -5.993  10.500  1.00  0.00    -0.504 OA
ATOM     21  H   UNL     1      -8.523  -6.996  10.420  1.00  0.00     0.293 HD
ENDBRANCH  17  20
ENDBRANCH   1  12
BRANCH  11  22
ATOM     22  O   UNL     1      -5.007   2.777  10.117  1.00  0.00    -0.506 OA
ATOM     23  H   UNL     1      -5.872   3.215  10.404  1.00  0.00     0.293 HD
ENDBRANCH  11  22
BRANCH   9  24
ATOM     24  O   UNL     1      -0.907   1.478  12.366  1.00  0.00    -0.507 OA
ATOM     25  H   UNL     1      -0.146   0.884  12.063  1.00  0.00     0.293 HD
ENDBRANCH   9  24
BRANCH  10  26
ATOM     26  C   UNL     1      -2.547   3.648  11.223  1.00  0.00     0.188 C 
ATOM     27  C   UNL     1      -1.941   3.912   9.811  1.00  0.00     0.179 C 
ATOM     28  O   UNL     1      -3.602   4.553  11.493  1.00  0.00    -0.362 OA
ATOM     29  C   UNL     1      -1.466   5.379   9.702  1.00  0.00     0.177 C 
ATOM     30  C   UNL     1      -3.106   5.884  11.556  1.00  0.00     0.176 C 
ATOM     31  C   UNL     1      -2.587   6.331  10.168  1.00  0.00     0.177 C 
BRANCH  27  32
ATOM     32  O   UNL     1      -0.894   3.021   9.514  1.00  0.00    -0.387 OA
ATOM     33  H   UNL     1      -0.383   2.840  10.337  1.00  0.00     0.211 HD
ENDBRANCH  27  32
BRANCH  29  34
ATOM     34  O   UNL     1      -0.328   5.593  10.500  1.00  0.00    -0.387 OA
ATOM     35  H   UNL     1       0.435   5.772   9.890  1.00  0.00     0.211 HD
ENDBRANCH  29  34
BRANCH  30  36
ATOM     36  C   UNL     1      -4.217   6.806  12.074  1.00  0.00     0.191 C 
BRANCH  36  37
ATOM     37  O   UNL     1      -5.452   6.428  11.517  1.00  0.00    -0.394 OA
ATOM     38  H   UNL     1      -5.269   6.119  10.588  1.00  0.00     0.210 HD
ENDBRANCH  36  37
ENDBRANCH  30  36
BRANCH  31  39
ATOM     39  O   UNL     1      -3.636   6.322   9.232  1.00  0.00    -0.388 OA
ATOM     40  H   UNL     1      -3.266   6.686   8.382  1.00  0.00     0.211 HD
ENDBRANCH  31  39
ENDBRANCH  10  26
TORSDOF 11
ENDMDL
