MODEL 1
REMARK VINA RESULT:    -4.241      0.000      0.000
REMARK INTER + INTRA:          -6.311
REMARK INTER:                  -5.729
REMARK INTRA:                  -0.582
REMARK UNBOUND:                -0.582
REMARK SMILES CCCCCCC=CC(=O)[O-]
REMARK SMILES IDX 5 1 6 2 7 3 8 4 9 5 10 6 11 7 4 8 3 9 2 10 1 11
REMARK H PARENT
REMARK Flexibility Score: inf
ROOT
ATOM      1  C   UNL     1     -19.816 -20.653   9.963  1.00  0.00     0.004 C 
ENDROOT
BRANCH   1   2
ATOM      2  C   UNL     1     -18.930 -21.074  11.146  1.00  0.00     0.027 C 
BRANCH   2   3
ATOM      3  C   UNL     1     -19.727 -21.747  12.228  1.00  0.00    -0.025 C 
ATOM      4  C   UNL     1     -19.455 -22.995  12.626  1.00  0.00     0.020 C 
BRANCH   4   5
ATOM      5  C   UNL     1     -20.201 -23.656  13.709  1.00  0.00     0.064 C 
ATOM      6  O   UNL     1     -19.618 -24.058  14.751  1.00  0.00    -0.545 OA
ATOM      7  O   UNL     1     -21.571 -23.839  13.579  1.00  0.00    -0.545 OA
ENDBRANCH   4   5
ENDBRANCH   2   3
ENDBRANCH   1   2
BRANCH   1   8
ATOM      8  C   UNL     1     -20.167 -21.796   8.993  1.00  0.00     0.000 C 
BRANCH   8   9
ATOM      9  C   UNL     1     -21.567 -21.640   8.373  1.00  0.00    -0.000 C 
BRANCH   9  10
ATOM     10  C   UNL     1     -22.558 -22.696   8.887  1.00  0.00    -0.003 C 
ATOM     11  C   UNL     1     -21.918 -23.690   9.855  1.00  0.00     0.004 C 
ENDBRANCH   9  10
ENDBRANCH   8   9
ENDBRANCH   1   8
TORSDOF 6
ENDMDL
MODEL 2
REMARK VINA RESULT:    -4.215      9.883     11.407
REMARK INTER + INTRA:          -6.276
REMARK INTER:                  -6.064
REMARK INTRA:                  -0.212
REMARK UNBOUND:                -0.582
REMARK SMILES CCCCCCC=CC(=O)[O-]
REMARK SMILES IDX 5 1 6 2 7 3 8 4 9 5 10 6 11 7 4 8 3 9 2 10 1 11
REMARK H PARENT
REMARK Flexibility Score: inf
ROOT
ATOM      1  C   UNL     1     -23.997 -29.414   3.499  1.00  0.00     0.004 C 
ENDROOT
BRANCH   1   2
ATOM      2  C   UNL     1     -24.229 -28.202   4.415  1.00  0.00     0.027 C 
BRANCH   2   3
ATOM      3  C   UNL     1     -25.558 -28.277   5.113  1.00  0.00    -0.025 C 
ATOM      4  C   UNL     1     -25.849 -29.268   5.963  1.00  0.00     0.020 C 
BRANCH   4   5
ATOM      5  C   UNL     1     -27.131 -29.337   6.682  1.00  0.00     0.064 C 
ATOM      6  O   UNL     1     -27.170 -29.431   7.938  1.00  0.00    -0.545 OA
ATOM      7  O   UNL     1     -28.319 -29.298   5.964  1.00  0.00    -0.545 OA
ENDBRANCH   4   5
ENDBRANCH   2   3
ENDBRANCH   1   2
BRANCH   1   8
ATOM      8  C   UNL     1     -22.881 -30.364   3.971  1.00  0.00     0.000 C 
BRANCH   8   9
ATOM      9  C   UNL     1     -22.286 -31.198   2.823  1.00  0.00    -0.000 C 
BRANCH   9  10
ATOM     10  C   UNL     1     -22.327 -32.707   3.111  1.00  0.00    -0.003 C 
ATOM     11  C   UNL     1     -22.501 -33.548   1.848  1.00  0.00     0.004 C 
ENDBRANCH   9  10
ENDBRANCH   8   9
ENDBRANCH   1   8
TORSDOF 6
ENDMDL
MODEL 3
REMARK VINA RESULT:    -4.182      6.642      8.862
REMARK INTER + INTRA:          -6.231
REMARK INTER:                  -5.522
REMARK INTRA:                  -0.709
REMARK UNBOUND:                -0.582
REMARK SMILES CCCCCCC=CC(=O)[O-]
REMARK SMILES IDX 5 1 6 2 7 3 8 4 9 5 10 6 11 7 4 8 3 9 2 10 1 11
REMARK H PARENT
REMARK Flexibility Score: inf
ROOT
ATOM      1  C   UNL     1     -23.703 -26.776  18.892  1.00  0.00     0.004 C 
ENDROOT
BRANCH   1   2
ATOM      2  C   UNL     1     -23.017 -28.149  18.975  1.00  0.00     0.027 C 
BRANCH   2   3
ATOM      3  C   UNL     1     -23.009 -28.849  17.645  1.00  0.00    -0.025 C 
ATOM      4  C   UNL     1     -21.896 -29.405  17.152  1.00  0.00     0.020 C 
BRANCH   4   5
ATOM      5  C   UNL     1     -21.877 -30.126  15.869  1.00  0.00     0.064 C 
ATOM      6  O   UNL     1     -21.248 -29.672  14.877  1.00  0.00    -0.545 OA
ATOM      7  O   UNL     1     -22.564 -31.327  15.752  1.00  0.00    -0.545 OA
ENDBRANCH   4   5
ENDBRANCH   2   3
ENDBRANCH   1   2
BRANCH   1   8
ATOM      8  C   UNL     1     -24.505 -26.543  17.599  1.00  0.00     0.000 C 
BRANCH   8   9
ATOM      9  C   UNL     1     -23.970 -25.360  16.773  1.00  0.00    -0.000 C 
BRANCH   9  10
ATOM     10  C   UNL     1     -23.178 -25.817  15.538  1.00  0.00    -0.003 C 
ATOM     11  C   UNL     1     -21.673 -25.893  15.792  1.00  0.00     0.004 C 
ENDBRANCH   9  10
ENDBRANCH   8   9
ENDBRANCH   1   8
TORSDOF 6
ENDMDL
MODEL 4
REMARK VINA RESULT:    -4.182      3.465      5.267
REMARK INTER + INTRA:          -6.231
REMARK INTER:                  -6.027
REMARK INTRA:                  -0.203
REMARK UNBOUND:                -0.582
REMARK SMILES CCCCCCC=CC(=O)[O-]
REMARK SMILES IDX 5 1 6 2 7 3 8 4 9 5 10 6 11 7 4 8 3 9 2 10 1 11
REMARK H PARENT
REMARK Flexibility Score: inf
ROOT
ATOM      1  C   UNL     1     -19.484 -24.084  14.408  1.00  0.00     0.004 C 
ENDROOT
BRANCH   1   2
ATOM      2  C   UNL     1     -18.833 -25.428  14.045  1.00  0.00     0.027 C 
BRANCH   2   3
ATOM      3  C   UNL     1     -17.899 -25.904  15.123  1.00  0.00    -0.025 C 
ATOM      4  C   UNL     1     -16.571 -25.843  14.978  1.00  0.00     0.020 C 
BRANCH   4   5
ATOM      5  C   UNL     1     -15.642 -26.271  16.036  1.00  0.00     0.064 C 
ATOM      6  O   UNL     1     -15.609 -27.468  16.428  1.00  0.00    -0.545 OA
ATOM      7  O   UNL     1     -14.790 -25.339  16.613  1.00  0.00    -0.545 OA
ENDBRANCH   4   5
ENDBRANCH   2   3
ENDBRANCH   1   2
BRANCH   1   8
ATOM      8  C   UNL     1     -20.130 -23.348  13.220  1.00  0.00     0.000 C 
BRANCH   8   9
ATOM      9  C   UNL     1     -19.102 -22.914  12.161  1.00  0.00    -0.000 C 
BRANCH   9  10
ATOM     10  C   UNL     1     -19.303 -21.458  11.710  1.00  0.00    -0.003 C 
ATOM     11  C   UNL     1     -19.467 -21.323  10.197  1.00  0.00     0.004 C 
ENDBRANCH   9  10
ENDBRANCH   8   9
ENDBRANCH   1   8
TORSDOF 6
ENDMDL
MODEL 5
REMARK VINA RESULT:    -4.152      9.897     11.217
REMARK INTER + INTRA:          -6.190
REMARK INTER:                  -5.555
REMARK INTRA:                  -0.635
REMARK UNBOUND:                -0.582
REMARK SMILES CCCCCCC=CC(=O)[O-]
REMARK SMILES IDX 5 1 6 2 7 3 8 4 9 5 10 6 11 7 4 8 3 9 2 10 1 11
REMARK H PARENT
REMARK Flexibility Score: inf
ROOT
ATOM      1  C   UNL     1     -21.328 -24.575   0.512  1.00  0.00     0.004 C 
ENDROOT
BRANCH   1   2
ATOM      2  C   UNL     1     -20.771 -25.422  -0.643  1.00  0.00     0.027 C 
BRANCH   2   3
ATOM      3  C   UNL     1     -19.488 -26.108  -0.264  1.00  0.00    -0.025 C 
ATOM      4  C   UNL     1     -19.231 -26.464   0.999  1.00  0.00     0.020 C 
BRANCH   4   5
ATOM      5  C   UNL     1     -17.997 -27.168   1.382  1.00  0.00     0.064 C 
ATOM      6  O   UNL     1     -17.668 -28.253   0.832  1.00  0.00    -0.545 OA
ATOM      7  O   UNL     1     -17.181 -26.628   2.368  1.00  0.00    -0.545 OA
ENDBRANCH   4   5
ENDBRANCH   2   3
ENDBRANCH   1   2
BRANCH   1   8
ATOM      8  C   UNL     1     -22.739 -24.982   0.976  1.00  0.00     0.000 C 
BRANCH   8   9
ATOM      9  C   UNL     1     -22.833 -25.163   2.501  1.00  0.00    -0.000 C 
BRANCH   9  10
ATOM     10  C   UNL     1     -22.244 -26.502   2.971  1.00  0.00    -0.003 C 
ATOM     11  C   UNL     1     -22.600 -27.665   2.046  1.00  0.00     0.004 C 
ENDBRANCH   9  10
ENDBRANCH   8   9
ENDBRANCH   1   8
TORSDOF 6
ENDMDL
MODEL 6
REMARK VINA RESULT:    -4.141      6.751      8.861
REMARK INTER + INTRA:          -6.176
REMARK INTER:                  -5.764
REMARK INTRA:                  -0.411
REMARK UNBOUND:                -0.582
REMARK SMILES CCCCCCC=CC(=O)[O-]
REMARK SMILES IDX 5 1 6 2 7 3 8 4 9 5 10 6 11 7 4 8 3 9 2 10 1 11
REMARK H PARENT
REMARK Flexibility Score: inf
ROOT
ATOM      1  C   UNL     1     -27.747 -28.731   7.878  1.00  0.00     0.004 C 
ENDROOT
BRANCH   1   2
ATOM      2  C   UNL     1     -26.607 -28.425   8.863  1.00  0.00     0.027 C 
BRANCH   2   3
ATOM      3  C   UNL     1     -26.646 -26.999   9.337  1.00  0.00    -0.025 C 
ATOM      4  C   UNL     1     -25.707 -26.116   8.981  1.00  0.00     0.020 C 
BRANCH   4   5
ATOM      5  C   UNL     1     -25.748 -24.708   9.405  1.00  0.00     0.064 C 
ATOM      6  O   UNL     1     -24.702 -24.008   9.445  1.00  0.00    -0.545 OA
ATOM      7  O   UNL     1     -26.963 -24.141   9.768  1.00  0.00    -0.545 OA
ENDBRANCH   4   5
ENDBRANCH   2   3
ENDBRANCH   1   2
BRANCH   1   8
ATOM      8  C   UNL     1     -27.305 -29.474   6.605  1.00  0.00     0.000 C 
BRANCH   8   9
ATOM      9  C   UNL     1     -25.791 -29.367   6.350  1.00  0.00    -0.000 C 
BRANCH   9  10
ATOM     10  C   UNL     1     -25.457 -28.401   5.202  1.00  0.00    -0.003 C 
ATOM     11  C   UNL     1     -24.501 -29.007   4.175  1.00  0.00     0.004 C 
ENDBRANCH   9  10
ENDBRANCH   8   9
ENDBRANCH   1   8
TORSDOF 6
ENDMDL
MODEL 7
REMARK VINA RESULT:    -4.140      3.600      5.371
REMARK INTER + INTRA:          -6.174
REMARK INTER:                  -5.831
REMARK INTRA:                  -0.342
REMARK UNBOUND:                -0.582
REMARK SMILES CCCCCCC=CC(=O)[O-]
REMARK SMILES IDX 5 1 6 2 7 3 8 4 9 5 10 6 11 7 4 8 3 9 2 10 1 11
REMARK H PARENT
REMARK Flexibility Score: inf
ROOT
ATOM      1  C   UNL     1     -19.495 -21.082  10.061  1.00  0.00     0.004 C 
ENDROOT
BRANCH   1   2
ATOM      2  C   UNL     1     -19.990 -22.340   9.330  1.00  0.00     0.027 C 
BRANCH   2   3
ATOM      3  C   UNL     1     -21.358 -22.140   8.739  1.00  0.00    -0.025 C 
ATOM      4  C   UNL     1     -21.735 -20.963   8.227  1.00  0.00     0.020 C 
BRANCH   4   5
ATOM      5  C   UNL     1     -23.057 -20.759   7.613  1.00  0.00     0.064 C 
ATOM      6  O   UNL     1     -23.613 -19.629   7.624  1.00  0.00    -0.545 OA
ATOM      7  O   UNL     1     -23.701 -21.832   7.010  1.00  0.00    -0.545 OA
ENDBRANCH   4   5
ENDBRANCH   2   3
ENDBRANCH   1   2
BRANCH   1   8
ATOM      8  C   UNL     1     -19.362 -21.244  11.586  1.00  0.00     0.000 C 
BRANCH   8   9
ATOM      9  C   UNL     1     -19.171 -22.710  12.013  1.00  0.00    -0.000 C 
BRANCH   9  10
ATOM     10  C   UNL     1     -20.190 -23.149  13.078  1.00  0.00    -0.003 C 
ATOM     11  C   UNL     1     -19.565 -23.998  14.183  1.00  0.00     0.004 C 
ENDBRANCH   9  10
ENDBRANCH   8   9
ENDBRANCH   1   8
TORSDOF 6
ENDMDL
MODEL 8
REMARK VINA RESULT:    -4.114      1.855      3.143
REMARK INTER + INTRA:          -6.138
REMARK INTER:                  -5.816
REMARK INTRA:                  -0.322
REMARK UNBOUND:                -0.582
REMARK SMILES CCCCCCC=CC(=O)[O-]
REMARK SMILES IDX 5 1 6 2 7 3 8 4 9 5 10 6 11 7 4 8 3 9 2 10 1 11
REMARK H PARENT
REMARK Flexibility Score: inf
ROOT
ATOM      1  C   UNL     1     -19.304 -22.727  11.844  1.00  0.00     0.004 C 
ENDROOT
BRANCH   1   2
ATOM      2  C   UNL     1     -20.211 -23.135  13.016  1.00  0.00     0.027 C 
BRANCH   2   3
ATOM      3  C   UNL     1     -19.470 -23.949  14.039  1.00  0.00    -0.025 C 
ATOM      4  C   UNL     1     -18.615 -24.914  13.681  1.00  0.00     0.020 C 
BRANCH   4   5
ATOM      5  C   UNL     1     -17.853 -25.697  14.668  1.00  0.00     0.064 C 
ATOM      6  O   UNL     1     -18.403 -26.143  15.710  1.00  0.00    -0.545 OA
ATOM      7  O   UNL     1     -16.506 -25.948  14.445  1.00  0.00    -0.545 OA
ENDBRANCH   4   5
ENDBRANCH   2   3
ENDBRANCH   1   2
BRANCH   1   8
ATOM      8  C   UNL     1     -19.195 -21.208  11.623  1.00  0.00     0.000 C 
BRANCH   8   9
ATOM      9  C   UNL     1     -19.521 -20.793  10.178  1.00  0.00    -0.000 C 
BRANCH   9  10
ATOM     10  C   UNL     1     -19.900 -21.992   9.294  1.00  0.00    -0.003 C 
ATOM     11  C   UNL     1     -21.285 -21.851   8.663  1.00  0.00     0.004 C 
ENDBRANCH   9  10
ENDBRANCH   8   9
ENDBRANCH   1   8
TORSDOF 6
ENDMDL
MODEL 9
REMARK VINA RESULT:    -4.034      3.565      6.182
REMARK INTER + INTRA:          -6.030
REMARK INTER:                  -5.803
REMARK INTRA:                  -0.227
REMARK UNBOUND:                -0.582
REMARK SMILES CCCCCCC=CC(=O)[O-]
REMARK SMILES IDX 5 1 6 2 7 3 8 4 9 5 10 6 11 7 4 8 3 9 2 10 1 11
REMARK H PARENT
REMARK Flexibility Score: inf
ROOT
ATOM      1  C   UNL     1     -18.347 -24.569  12.840  1.00  0.00     0.004 C 
ENDROOT
BRANCH   1   2
ATOM      2  C   UNL     1     -19.574 -23.866  13.443  1.00  0.00     0.027 C 
BRANCH   2   3
ATOM      3  C   UNL     1     -19.853 -22.553  12.768  1.00  0.00    -0.025 C 
ATOM      4  C   UNL     1     -19.126 -22.132  11.727  1.00  0.00     0.020 C 
BRANCH   4   5
ATOM      5  C   UNL     1     -19.408 -20.866  11.030  1.00  0.00     0.064 C 
ATOM      6  O   UNL     1     -19.672 -20.845   9.799  1.00  0.00    -0.545 OA
ATOM      7  O   UNL     1     -19.382 -19.675  11.744  1.00  0.00    -0.545 OA
ENDBRANCH   4   5
ENDBRANCH   2   3
ENDBRANCH   1   2
BRANCH   1   8
ATOM      8  C   UNL     1     -17.969 -25.893  13.529  1.00  0.00     0.000 C 
BRANCH   8   9
ATOM      9  C   UNL     1     -17.577 -25.702  15.005  1.00  0.00    -0.000 C 
BRANCH   9  10
ATOM     10  C   UNL     1     -16.153 -26.200  15.302  1.00  0.00    -0.003 C 
ATOM     11  C   UNL     1     -15.592 -25.646  16.611  1.00  0.00     0.004 C 
ENDBRANCH   9  10
ENDBRANCH   8   9
ENDBRANCH   1   8
TORSDOF 6
ENDMDL
