MODEL 1
REMARK VINA RESULT:    -4.003      0.000      0.000
REMARK INTER + INTRA:          -4.530
REMARK INTER:                  -4.705
REMARK INTRA:                   0.174
REMARK UNBOUND:                 0.174
REMARK SMILES O=c1c(O)c(-c2ccc(O)c(O)c2)oc2cc(O)ccc12
REMARK SMILES IDX 5 1 3 2 2 3 1 4 21 5 15 6 14 7 16 8 17 9 19 10 20 11 6 12
REMARK SMILES IDX 7 13 8 14 9 15 13 16 11 17 10 18 12 20 4 22 18 24
REMARK H PARENT 10 19 12 21 4 23 18 25
REMARK Flexibility Score: inf
ROOT
ATOM      1  C   UNL     1     -11.309 -16.164  31.626  1.00  0.00     0.180 A 
ATOM      2  C   UNL     1     -10.744 -17.433  31.380  1.00  0.00     0.208 A 
ATOM      3  C   UNL     1     -10.897 -18.005  30.108  1.00  0.00     0.235 A 
ATOM      4  O   UNL     1     -10.409 -19.143  29.867  1.00  0.00    -0.285 OA
ATOM      5  C   UNL     1     -11.586 -17.298  29.110  1.00  0.00     0.069 A 
ATOM      6  C   UNL     1     -12.101 -16.022  29.429  1.00  0.00     0.142 A 
ATOM      7  O   UNL     1     -11.942 -15.519  30.648  1.00  0.00    -0.452 OA
ATOM      8  C   UNL     1     -12.785 -15.282  28.459  1.00  0.00     0.094 A 
ATOM      9  C   UNL     1     -12.963 -15.802  27.169  1.00  0.00     0.119 A 
ATOM     10  C   UNL     1     -12.454 -17.066  26.853  1.00  0.00     0.047 A 
ATOM     11  C   UNL     1     -11.768 -17.813  27.813  1.00  0.00     0.020 A 
ENDROOT
BRANCH   1  12
ATOM     12  C   UNL     1     -11.208 -15.500  32.947  1.00  0.00     0.025 A 
ATOM     13  C   UNL     1      -9.999 -15.554  33.656  1.00  0.00     0.016 A 
ATOM     14  C   UNL     1      -9.875 -14.918  34.894  1.00  0.00     0.051 A 
ATOM     15  C   UNL     1     -10.954 -14.204  35.433  1.00  0.00     0.157 A 
ATOM     16  C   UNL     1     -12.283 -14.766  33.481  1.00  0.00     0.062 A 
ATOM     17  C   UNL     1     -12.162 -14.125  34.720  1.00  0.00     0.158 A 
BRANCH  15  18
ATOM     18  O   UNL     1     -10.829 -13.573  36.669  1.00  0.00    -0.504 OA
ATOM     19  H   UNL     1     -11.481 -13.751  37.424  1.00  0.00     0.293 HD
ENDBRANCH  15  18
BRANCH  17  20
ATOM     20  O   UNL     1     -13.250 -13.411  35.221  1.00  0.00    -0.504 OA
ATOM     21  H   UNL     1     -14.183 -13.806  35.255  1.00  0.00     0.293 HD
ENDBRANCH  17  20
ENDBRANCH   1  12
BRANCH   2  22
ATOM     22  O   UNL     1     -10.022 -18.091  32.378  1.00  0.00    -0.502 OA
ATOM     23  H   UNL     1     -10.392 -18.891  32.876  1.00  0.00     0.293 HD
ENDBRANCH   2  22
BRANCH   9  24
ATOM     24  O   UNL     1     -13.643 -15.072  26.197  1.00  0.00    -0.508 OA
ATOM     25  H   UNL     1     -14.471 -15.438  25.742  1.00  0.00     0.293 HD
ENDBRANCH   9  24
TORSDOF 5
ENDMDL
MODEL 2
REMARK VINA RESULT:    -2.772      1.626      2.138
REMARK INTER + INTRA:          -3.083
REMARK INTER:                  -2.771
REMARK INTRA:                  -0.313
REMARK UNBOUND:                 0.174
REMARK SMILES O=c1c(O)c(-c2ccc(O)c(O)c2)oc2cc(O)ccc12
REMARK SMILES IDX 5 1 3 2 2 3 1 4 21 5 15 6 14 7 16 8 17 9 19 10 20 11 6 12
REMARK SMILES IDX 7 13 8 14 9 15 13 16 11 17 10 18 12 20 4 22 18 24
REMARK H PARENT 10 19 12 21 4 23 18 25
REMARK Flexibility Score: inf
ROOT
ATOM      1  C   UNL     1     -11.993 -16.611  31.146  1.00  0.00     0.180 A 
ATOM      2  C   UNL     1     -12.382 -17.967  31.123  1.00  0.00     0.208 A 
ATOM      3  C   UNL     1     -12.321 -18.667  29.909  1.00  0.00     0.235 A 
ATOM      4  O   UNL     1     -12.674 -19.878  29.862  1.00  0.00    -0.285 OA
ATOM      5  C   UNL     1     -11.857 -18.013  28.757  1.00  0.00     0.069 A 
ATOM      6  C   UNL     1     -11.463 -16.662  28.867  1.00  0.00     0.142 A 
ATOM      7  O   UNL     1     -11.544 -16.032  30.033  1.00  0.00    -0.452 OA
ATOM      8  C   UNL     1     -10.986 -15.979  27.744  1.00  0.00     0.094 A 
ATOM      9  C   UNL     1     -10.899 -16.630  26.505  1.00  0.00     0.119 A 
ATOM     10  C   UNL     1     -11.290 -17.969  26.394  1.00  0.00     0.047 A 
ATOM     11  C   UNL     1     -11.766 -18.661  27.510  1.00  0.00     0.020 A 
ENDROOT
BRANCH   1  12
ATOM     12  C   UNL     1     -12.045 -15.798  32.382  1.00  0.00     0.025 A 
ATOM     13  C   UNL     1     -13.249 -15.177  32.749  1.00  0.00     0.016 A 
ATOM     14  C   UNL     1     -13.327 -14.421  33.922  1.00  0.00     0.051 A 
ATOM     15  C   UNL     1     -12.207 -14.290  34.754  1.00  0.00     0.157 A 
ATOM     16  C   UNL     1     -10.929 -15.681  33.230  1.00  0.00     0.062 A 
ATOM     17  C   UNL     1     -11.004 -14.927  34.407  1.00  0.00     0.158 A 
BRANCH  15  18
ATOM     18  O   UNL     1     -12.286 -13.534  35.922  1.00  0.00    -0.504 OA
ATOM     19  H   UNL     1     -12.960 -13.747  36.647  1.00  0.00     0.293 HD
ENDBRANCH  15  18
BRANCH  17  20
ATOM     20  O   UNL     1      -9.875 -14.828  35.221  1.00  0.00    -0.504 OA
ATOM     21  H   UNL     1      -9.885 -14.317  36.095  1.00  0.00     0.293 HD
ENDBRANCH  17  20
ENDBRANCH   1  12
BRANCH   2  22
ATOM     22  O   UNL     1     -12.793 -18.604  32.297  1.00  0.00    -0.502 OA
ATOM     23  H   UNL     1     -12.227 -19.306  32.758  1.00  0.00     0.293 HD
ENDBRANCH   2  22
BRANCH   9  24
ATOM     24  O   UNL     1     -10.425 -15.957  25.381  1.00  0.00    -0.508 OA
ATOM     25  H   UNL     1      -9.451 -16.004  25.107  1.00  0.00     0.293 HD
ENDBRANCH   9  24
TORSDOF 5
ENDMDL
MODEL 3
REMARK VINA RESULT:    -2.430      1.713      2.561
REMARK INTER + INTRA:          -2.682
REMARK INTER:                  -2.456
REMARK INTRA:                  -0.226
REMARK UNBOUND:                 0.174
REMARK SMILES O=c1c(O)c(-c2ccc(O)c(O)c2)oc2cc(O)ccc12
REMARK SMILES IDX 5 1 3 2 2 3 1 4 21 5 15 6 14 7 16 8 17 9 19 10 20 11 6 12
REMARK SMILES IDX 7 13 8 14 9 15 13 16 11 17 10 18 12 20 4 22 18 24
REMARK H PARENT 10 19 12 21 4 23 18 25
REMARK Flexibility Score: inf
ROOT
ATOM      1  C   UNL     1     -11.311 -16.330  31.460  1.00  0.00     0.180 A 
ATOM      2  C   UNL     1     -10.647 -15.846  30.313  1.00  0.00     0.208 A 
ATOM      3  C   UNL     1     -10.778 -16.552  29.108  1.00  0.00     0.235 A 
ATOM      4  O   UNL     1     -10.185 -16.144  28.072  1.00  0.00    -0.285 OA
ATOM      5  C   UNL     1     -11.577 -17.705  29.066  1.00  0.00     0.069 A 
ATOM      6  C   UNL     1     -12.228 -18.111  30.251  1.00  0.00     0.142 A 
ATOM      7  O   UNL     1     -12.072 -17.420  31.374  1.00  0.00    -0.452 OA
ATOM      8  C   UNL     1     -13.042 -19.249  30.247  1.00  0.00     0.094 A 
ATOM      9  C   UNL     1     -13.213 -19.990  29.070  1.00  0.00     0.119 A 
ATOM     10  C   UNL     1     -12.568 -19.590  27.895  1.00  0.00     0.047 A 
ATOM     11  C   UNL     1     -11.755 -18.454  27.888  1.00  0.00     0.020 A 
ENDROOT
BRANCH   1  12
ATOM     12  C   UNL     1     -11.208 -15.653  32.773  1.00  0.00     0.025 A 
ATOM     13  C   UNL     1     -10.001 -15.709  33.486  1.00  0.00     0.016 A 
ATOM     14  C   UNL     1      -9.875 -15.060  34.717  1.00  0.00     0.051 A 
ATOM     15  C   UNL     1     -10.950 -14.333  35.246  1.00  0.00     0.157 A 
ATOM     16  C   UNL     1     -12.278 -14.906  33.297  1.00  0.00     0.062 A 
ATOM     17  C   UNL     1     -12.156 -14.253  34.530  1.00  0.00     0.158 A 
BRANCH  15  18
ATOM     18  O   UNL     1     -10.823 -13.690  36.476  1.00  0.00    -0.504 OA
ATOM     19  H   UNL     1     -11.512 -13.807  37.209  1.00  0.00     0.293 HD
ENDBRANCH  15  18
BRANCH  17  20
ATOM     20  O   UNL     1     -13.240 -13.526  35.021  1.00  0.00    -0.504 OA
ATOM     21  H   UNL     1     -14.119 -13.467  34.521  1.00  0.00     0.293 HD
ENDBRANCH  17  20
ENDBRANCH   1  12
BRANCH   2  22
ATOM     22  O   UNL     1      -9.897 -14.668  30.375  1.00  0.00    -0.502 OA
ATOM     23  H   UNL     1      -8.898 -14.671  30.540  1.00  0.00     0.293 HD
ENDBRANCH   2  22
BRANCH   9  24
ATOM     24  O   UNL     1     -14.022 -21.125  29.058  1.00  0.00    -0.508 OA
ATOM     25  H   UNL     1     -15.013 -21.072  29.258  1.00  0.00     0.293 HD
ENDBRANCH   9  24
TORSDOF 5
ENDMDL
MODEL 4
REMARK VINA RESULT:    -2.213      1.577      2.807
REMARK INTER + INTRA:          -2.426
REMARK INTER:                  -2.900
REMARK INTRA:                   0.473
REMARK UNBOUND:                 0.174
REMARK SMILES O=c1c(O)c(-c2ccc(O)c(O)c2)oc2cc(O)ccc12
REMARK SMILES IDX 5 1 3 2 2 3 1 4 21 5 15 6 14 7 16 8 17 9 19 10 20 11 6 12
REMARK SMILES IDX 7 13 8 14 9 15 13 16 11 17 10 18 12 20 4 22 18 24
REMARK H PARENT 10 19 12 21 4 23 18 25
REMARK Flexibility Score: inf
ROOT
ATOM      1  C   UNL     1     -11.963 -15.462  30.775  1.00  0.00     0.180 A 
ATOM      2  C   UNL     1     -13.146 -14.863  30.295  1.00  0.00     0.208 A 
ATOM      3  C   UNL     1     -13.468 -14.999  28.935  1.00  0.00     0.235 A 
ATOM      4  O   UNL     1     -14.516 -14.463  28.481  1.00  0.00    -0.285 OA
ATOM      5  C   UNL     1     -12.621 -15.738  28.095  1.00  0.00     0.069 A 
ATOM      6  C   UNL     1     -11.468 -16.326  28.658  1.00  0.00     0.142 A 
ATOM      7  O   UNL     1     -11.194 -16.168  29.948  1.00  0.00    -0.452 OA
ATOM      8  C   UNL     1     -10.604 -17.079  27.855  1.00  0.00     0.094 A 
ATOM      9  C   UNL     1     -10.879 -17.252  26.492  1.00  0.00     0.119 A 
ATOM     10  C   UNL     1     -12.020 -16.668  25.932  1.00  0.00     0.047 A 
ATOM     11  C   UNL     1     -12.890 -15.916  26.725  1.00  0.00     0.020 A 
ENDROOT
BRANCH   1  12
ATOM     12  C   UNL     1     -11.543 -15.350  32.191  1.00  0.00     0.025 A 
ATOM     13  C   UNL     1     -10.300 -15.867  32.585  1.00  0.00     0.016 A 
ATOM     14  C   UNL     1      -9.875 -15.754  33.912  1.00  0.00     0.051 A 
ATOM     15  C   UNL     1     -10.680 -15.108  34.860  1.00  0.00     0.157 A 
ATOM     16  C   UNL     1     -12.340 -14.684  33.140  1.00  0.00     0.062 A 
ATOM     17  C   UNL     1     -11.917 -14.567  34.470  1.00  0.00     0.158 A 
BRANCH  15  18
ATOM     18  O   UNL     1     -10.255 -14.999  36.183  1.00  0.00    -0.504 OA
ATOM     19  H   UNL     1     -10.592 -14.261  36.789  1.00  0.00     0.293 HD
ENDBRANCH  15  18
BRANCH  17  20
ATOM     20  O   UNL     1     -12.735 -13.905  35.385  1.00  0.00    -0.504 OA
ATOM     21  H   UNL     1     -12.442 -13.055  35.853  1.00  0.00     0.293 HD
ENDBRANCH  17  20
ENDBRANCH   1  12
BRANCH   2  22
ATOM     22  O   UNL     1     -13.995 -14.175  31.165  1.00  0.00    -0.502 OA
ATOM     23  H   UNL     1     -14.792 -14.617  31.607  1.00  0.00     0.293 HD
ENDBRANCH   2  22
BRANCH   9  24
ATOM     24  O   UNL     1     -10.024 -18.000  25.685  1.00  0.00    -0.508 OA
ATOM     25  H   UNL     1      -9.185 -17.597  25.285  1.00  0.00     0.293 HD
ENDBRANCH   9  24
TORSDOF 5
ENDMDL
MODEL 5
REMARK VINA RESULT:    -1.907      3.037      4.761
REMARK INTER + INTRA:          -2.067
REMARK INTER:                  -1.936
REMARK INTRA:                  -0.131
REMARK UNBOUND:                 0.174
REMARK SMILES O=c1c(O)c(-c2ccc(O)c(O)c2)oc2cc(O)ccc12
REMARK SMILES IDX 5 1 3 2 2 3 1 4 21 5 15 6 14 7 16 8 17 9 19 10 20 11 6 12
REMARK SMILES IDX 7 13 8 14 9 15 13 16 11 17 10 18 12 20 4 22 18 24
REMARK H PARENT 10 19 12 21 4 23 18 25
REMARK Flexibility Score: inf
ROOT
ATOM      1  C   UNL     1     -12.187 -16.598  29.588  1.00  0.00     0.180 A 
ATOM      2  C   UNL     1     -12.129 -16.776  28.190  1.00  0.00     0.208 A 
ATOM      3  C   UNL     1     -12.742 -15.823  27.361  1.00  0.00     0.235 A 
ATOM      4  O   UNL     1     -12.713 -15.967  26.108  1.00  0.00    -0.285 OA
ATOM      5  C   UNL     1     -13.376 -14.712  27.938  1.00  0.00     0.069 A 
ATOM      6  C   UNL     1     -13.369 -14.594  29.345  1.00  0.00     0.142 A 
ATOM      7  O   UNL     1     -12.785 -15.522  30.094  1.00  0.00    -0.452 OA
ATOM      8  C   UNL     1     -13.982 -13.495  29.957  1.00  0.00     0.094 A 
ATOM      9  C   UNL     1     -14.606 -12.510  29.179  1.00  0.00     0.119 A 
ATOM     10  C   UNL     1     -14.615 -12.627  27.785  1.00  0.00     0.047 A 
ATOM     11  C   UNL     1     -14.004 -13.719  27.164  1.00  0.00     0.020 A 
ENDROOT
BRANCH   1  12
ATOM     12  C   UNL     1     -11.581 -17.567  30.530  1.00  0.00     0.025 A 
ATOM     13  C   UNL     1     -10.622 -17.125  31.453  1.00  0.00     0.016 A 
ATOM     14  C   UNL     1     -10.052 -18.018  32.365  1.00  0.00     0.051 A 
ATOM     15  C   UNL     1     -10.447 -19.362  32.378  1.00  0.00     0.157 A 
ATOM     16  C   UNL     1     -11.990 -18.913  30.559  1.00  0.00     0.062 A 
ATOM     17  C   UNL     1     -11.423 -19.810  31.473  1.00  0.00     0.158 A 
BRANCH  15  18
ATOM     18  O   UNL     1      -9.875 -20.251  33.287  1.00  0.00    -0.504 OA
ATOM     19  H   UNL     1     -10.404 -20.630  34.063  1.00  0.00     0.293 HD
ENDBRANCH  15  18
BRANCH  17  20
ATOM     20  O   UNL     1     -11.848 -21.138  31.469  1.00  0.00    -0.504 OA
ATOM     21  H   UNL     1     -11.963 -21.664  30.610  1.00  0.00     0.293 HD
ENDBRANCH  17  20
ENDBRANCH   1  12
BRANCH   2  22
ATOM     22  O   UNL     1     -11.449 -17.867  27.643  1.00  0.00    -0.502 OA
ATOM     23  H   UNL     1     -10.495 -18.092  27.897  1.00  0.00     0.293 HD
ENDBRANCH   2  22
BRANCH   9  24
ATOM     24  O   UNL     1     -15.219 -11.413  29.781  1.00  0.00    -0.508 OA
ATOM     25  H   UNL     1     -15.323 -10.531  29.293  1.00  0.00     0.293 HD
ENDBRANCH   9  24
TORSDOF 5
ENDMDL
MODEL 6
REMARK VINA RESULT:    -1.810      1.677      3.349
REMARK INTER + INTRA:          -1.952
REMARK INTER:                  -1.779
REMARK INTRA:                  -0.173
REMARK UNBOUND:                 0.174
REMARK SMILES O=c1c(O)c(-c2ccc(O)c(O)c2)oc2cc(O)ccc12
REMARK SMILES IDX 5 1 3 2 2 3 1 4 21 5 15 6 14 7 16 8 17 9 19 10 20 11 6 12
REMARK SMILES IDX 7 13 8 14 9 15 13 16 11 17 10 18 12 20 4 22 18 24
REMARK H PARENT 10 19 12 21 4 23 18 25
REMARK Flexibility Score: inf
ROOT
ATOM      1  C   UNL     1     -11.812 -16.275  32.165  1.00  0.00     0.180 A 
ATOM      2  C   UNL     1     -12.243 -15.771  30.920  1.00  0.00     0.208 A 
ATOM      3  C   UNL     1     -12.491 -16.674  29.875  1.00  0.00     0.235 A 
ATOM      4  O   UNL     1     -12.867 -16.245  28.749  1.00  0.00    -0.285 OA
ATOM      5  C   UNL     1     -12.326 -18.049  30.097  1.00  0.00     0.069 A 
ATOM      6  C   UNL     1     -11.915 -18.476  31.378  1.00  0.00     0.142 A 
ATOM      7  O   UNL     1     -11.682 -17.589  32.338  1.00  0.00    -0.452 OA
ATOM      8  C   UNL     1     -11.749 -19.840  31.641  1.00  0.00     0.094 A 
ATOM      9  C   UNL     1     -11.988 -20.787  30.636  1.00  0.00     0.119 A 
ATOM     10  C   UNL     1     -12.394 -20.366  29.365  1.00  0.00     0.047 A 
ATOM     11  C   UNL     1     -12.565 -19.007  29.093  1.00  0.00     0.020 A 
ENDROOT
BRANCH   1  12
ATOM     12  C   UNL     1     -11.511 -15.387  33.312  1.00  0.00     0.025 A 
ATOM     13  C   UNL     1     -10.185 -15.251  33.750  1.00  0.00     0.016 A 
ATOM     14  C   UNL     1      -9.875 -14.403  34.817  1.00  0.00     0.051 A 
ATOM     15  C   UNL     1     -10.886 -13.667  35.451  1.00  0.00     0.157 A 
ATOM     16  C   UNL     1     -12.519 -14.631  33.937  1.00  0.00     0.062 A 
ATOM     17  C   UNL     1     -12.213 -13.779  35.005  1.00  0.00     0.158 A 
BRANCH  15  18
ATOM     18  O   UNL     1     -10.575 -12.825  36.517  1.00  0.00    -0.504 OA
ATOM     19  H   UNL     1      -9.671 -12.375  36.591  1.00  0.00     0.293 HD
ENDBRANCH  15  18
BRANCH  17  20
ATOM     20  O   UNL     1     -13.239 -13.050  35.604  1.00  0.00    -0.504 OA
ATOM     21  H   UNL     1     -13.742 -12.322  35.110  1.00  0.00     0.293 HD
ENDBRANCH  17  20
ENDBRANCH   1  12
BRANCH   2  22
ATOM     22  O   UNL     1     -12.445 -14.400  30.744  1.00  0.00    -0.502 OA
ATOM     23  H   UNL     1     -11.692 -13.768  30.502  1.00  0.00     0.293 HD
ENDBRANCH   2  22
BRANCH   9  24
ATOM     24  O   UNL     1     -11.825 -22.148  30.890  1.00  0.00    -0.508 OA
ATOM     25  H   UNL     1     -11.837 -22.831  30.142  1.00  0.00     0.293 HD
ENDBRANCH   9  24
TORSDOF 5
ENDMDL
MODEL 7
REMARK VINA RESULT:    -1.380      1.846      7.002
REMARK INTER + INTRA:          -1.448
REMARK INTER:                  -1.151
REMARK INTRA:                  -0.297
REMARK UNBOUND:                 0.174
REMARK SMILES O=c1c(O)c(-c2ccc(O)c(O)c2)oc2cc(O)ccc12
REMARK SMILES IDX 5 1 3 2 2 3 1 4 21 5 15 6 14 7 16 8 17 9 19 10 20 11 6 12
REMARK SMILES IDX 7 13 8 14 9 15 13 16 11 17 10 18 12 20 4 22 18 24
REMARK H PARENT 10 19 12 21 4 23 18 25
REMARK Flexibility Score: inf
ROOT
ATOM      1  C   UNL     1     -12.264 -15.736  31.025  1.00  0.00     0.180 A 
ATOM      2  C   UNL     1     -13.563 -15.227  31.233  1.00  0.00     0.208 A 
ATOM      3  C   UNL     1     -13.882 -14.679  32.485  1.00  0.00     0.235 A 
ATOM      4  O   UNL     1     -15.041 -14.228  32.698  1.00  0.00    -0.285 OA
ATOM      5  C   UNL     1     -12.902 -14.633  33.488  1.00  0.00     0.069 A 
ATOM      6  C   UNL     1     -11.618 -15.141  33.194  1.00  0.00     0.142 A 
ATOM      7  O   UNL     1     -11.359 -15.659  31.999  1.00  0.00    -0.452 OA
ATOM      8  C   UNL     1     -10.611 -15.104  34.164  1.00  0.00     0.094 A 
ATOM      9  C   UNL     1     -10.872 -14.564  35.431  1.00  0.00     0.119 A 
ATOM     10  C   UNL     1     -12.144 -14.061  35.726  1.00  0.00     0.047 A 
ATOM     11  C   UNL     1     -13.156 -14.092  34.763  1.00  0.00     0.020 A 
ENDROOT
BRANCH   1  12
ATOM     12  C   UNL     1     -11.854 -16.346  29.739  1.00  0.00     0.025 A 
ATOM     13  C   UNL     1     -11.048 -15.614  28.854  1.00  0.00     0.016 A 
ATOM     14  C   UNL     1     -10.633 -16.178  27.644  1.00  0.00     0.051 A 
ATOM     15  C   UNL     1     -11.004 -17.487  27.310  1.00  0.00     0.157 A 
ATOM     16  C   UNL     1     -12.208 -17.667  29.410  1.00  0.00     0.062 A 
ATOM     17  C   UNL     1     -11.792 -18.236  28.200  1.00  0.00     0.158 A 
BRANCH  15  18
ATOM     18  O   UNL     1     -10.591 -18.046  26.102  1.00  0.00    -0.504 OA
ATOM     19  H   UNL     1      -9.646 -18.386  25.970  1.00  0.00     0.293 HD
ENDBRANCH  15  18
BRANCH  17  20
ATOM     20  O   UNL     1     -12.166 -19.546  27.904  1.00  0.00    -0.504 OA
ATOM     21  H   UNL     1     -12.599 -20.150  28.593  1.00  0.00     0.293 HD
ENDBRANCH  17  20
ENDBRANCH   1  12
BRANCH   2  22
ATOM     22  O   UNL     1     -14.503 -15.243  30.199  1.00  0.00    -0.502 OA
ATOM     23  H   UNL     1     -14.246 -15.085  29.232  1.00  0.00     0.293 HD
ENDBRANCH   2  22
BRANCH   9  24
ATOM     24  O   UNL     1      -9.875 -14.522  36.404  1.00  0.00    -0.508 OA
ATOM     25  H   UNL     1      -9.986 -13.981  37.254  1.00  0.00     0.293 HD
ENDBRANCH   9  24
TORSDOF 5
ENDMDL
