MODEL 1
REMARK VINA RESULT:    -1.102      0.000      0.000
REMARK INTER + INTRA:           0.919
REMARK INTER:                  -2.391
REMARK INTRA:                   3.310
REMARK UNBOUND:                 3.310
REMARK SMILES CCCCCCCCCCCCCCCCCCCCCC(=O)[O-]
REMARK SMILES IDX 12 1 11 2 10 3 9 4 8 5 7 6 6 7 5 8 4 9 3 10 2 11 1 12 13 13
REMARK SMILES IDX 14 14 15 15 16 16 17 17 18 18 19 19 20 20 21 21 22 22 23 23
REMARK SMILES IDX 24 24
REMARK H PARENT
REMARK Flexibility Score: inf
ROOT
ATOM      1  C   UNL     1      -8.916  15.054 -11.645  1.00  0.00     0.000 C 
ENDROOT
BRANCH   1   2
ATOM      2  C   UNL     1      -8.591  16.072 -12.753  1.00  0.00     0.000 C 
BRANCH   2   3
ATOM      3  C   UNL     1      -9.029  17.514 -12.414  1.00  0.00     0.000 C 
BRANCH   3   4
ATOM      4  C   UNL     1      -7.912  18.534 -12.678  1.00  0.00    -0.000 C 
BRANCH   4   5
ATOM      5  C   UNL     1      -8.492  19.891 -13.096  1.00  0.00    -0.000 C 
BRANCH   5   6
ATOM      6  C   UNL     1      -7.416  20.986 -13.058  1.00  0.00    -0.000 C 
BRANCH   6   7
ATOM      7  C   UNL     1      -6.141  20.597 -13.829  1.00  0.00    -0.000 C 
BRANCH   7   8
ATOM      8  C   UNL     1      -6.250  20.698 -15.364  1.00  0.00    -0.000 C 
BRANCH   8   9
ATOM      9  C   UNL     1      -5.957  19.392 -16.123  1.00  0.00    -0.000 C 
BRANCH   9  10
ATOM     10  C   UNL     1      -6.508  18.149 -15.403  1.00  0.00    -0.000 C 
BRANCH  10  11
ATOM     11  C   UNL     1      -7.963  17.843 -15.788  1.00  0.00    -0.003 C 
ATOM     12  C   UNL     1      -8.768  19.107 -16.099  1.00  0.00     0.004 C 
ENDBRANCH  10  11
ENDBRANCH   9  10
ENDBRANCH   8   9
ENDBRANCH   7   8
ENDBRANCH   6   7
ENDBRANCH   5   6
ENDBRANCH   4   5
ENDBRANCH   3   4
ENDBRANCH   2   3
ENDBRANCH   1   2
BRANCH   1  13
ATOM     13  C   UNL     1      -7.821  13.989 -11.475  1.00  0.00     0.000 C 
BRANCH  13  14
ATOM     14  C   UNL     1      -7.070  13.692 -12.784  1.00  0.00     0.000 C 
BRANCH  14  15
ATOM     15  C   UNL     1      -6.046  12.546 -12.703  1.00  0.00     0.000 C 
BRANCH  15  16
ATOM     16  C   UNL     1      -6.049  11.622 -13.940  1.00  0.00     0.000 C 
BRANCH  16  17
ATOM     17  C   UNL     1      -6.066  12.417 -15.257  1.00  0.00     0.000 C 
BRANCH  17  18
ATOM     18  C   UNL     1      -5.880  13.925 -15.029  1.00  0.00     0.000 C 
BRANCH  18  19
ATOM     19  C   UNL     1      -7.212  14.712 -15.037  1.00  0.00     0.000 C 
BRANCH  19  20
ATOM     20  C   UNL     1      -8.198  14.239 -16.125  1.00  0.00     0.006 C 
BRANCH  20  21
ATOM     21  C   UNL     1      -8.546  12.743 -16.047  1.00  0.00     0.053 C 
BRANCH  21  22
ATOM     22  C   UNL     1      -9.912  12.504 -15.475  1.00  0.00     0.041 C 
ATOM     23  O   UNL     1     -10.397  13.300 -14.627  1.00  0.00    -0.550 OA
ATOM     24  O   UNL     1     -10.646  11.394 -15.878  1.00  0.00    -0.550 OA
ENDBRANCH  21  22
ENDBRANCH  20  21
ENDBRANCH  19  20
ENDBRANCH  18  19
ENDBRANCH  17  18
ENDBRANCH  16  17
ENDBRANCH  15  16
ENDBRANCH  14  15
ENDBRANCH  13  14
ENDBRANCH   1  13
TORSDOF 20
ENDMDL
MODEL 2
REMARK VINA RESULT:     0.193      1.184      3.284
REMARK INTER + INTRA:           3.728
REMARK INTER:                   2.927
REMARK INTRA:                   0.801
REMARK UNBOUND:                 3.310
REMARK SMILES CCCCCCCCCCCCCCCCCCCCCC(=O)[O-]
REMARK SMILES IDX 12 1 11 2 10 3 9 4 8 5 7 6 6 7 5 8 4 9 3 10 2 11 1 12 13 13
REMARK SMILES IDX 14 14 15 15 16 16 17 17 18 18 19 19 20 20 21 21 22 22 23 23
REMARK SMILES IDX 24 24
REMARK H PARENT
REMARK Flexibility Score: inf
ROOT
ATOM      1  C   UNL     1      -8.508  15.801 -16.065  1.00  0.00     0.000 C 
ENDROOT
BRANCH   1   2
ATOM      2  C   UNL     1      -6.988  16.033 -16.110  1.00  0.00     0.000 C 
BRANCH   2   3
ATOM      3  C   UNL     1      -6.390  16.470 -14.755  1.00  0.00     0.000 C 
BRANCH   3   4
ATOM      4  C   UNL     1      -5.875  17.917 -14.790  1.00  0.00    -0.000 C 
BRANCH   4   5
ATOM      5  C   UNL     1      -5.945  18.561 -13.400  1.00  0.00    -0.000 C 
BRANCH   5   6
ATOM      6  C   UNL     1      -7.379  18.996 -13.065  1.00  0.00    -0.000 C 
BRANCH   6   7
ATOM      7  C   UNL     1      -7.532  20.524 -12.965  1.00  0.00    -0.000 C 
BRANCH   7   8
ATOM      8  C   UNL     1      -8.872  21.081 -13.488  1.00  0.00    -0.000 C 
BRANCH   8   9
ATOM      9  C   UNL     1      -9.541  20.236 -14.586  1.00  0.00    -0.000 C 
BRANCH   9  10
ATOM     10  C   UNL     1      -8.623  19.998 -15.798  1.00  0.00    -0.000 C 
BRANCH  10  11
ATOM     11  C   UNL     1      -7.590  21.120 -15.981  1.00  0.00    -0.003 C 
ATOM     12  C   UNL     1      -6.150  20.627 -15.823  1.00  0.00     0.004 C 
ENDBRANCH  10  11
ENDBRANCH   9  10
ENDBRANCH   8   9
ENDBRANCH   7   8
ENDBRANCH   6   7
ENDBRANCH   5   6
ENDBRANCH   4   5
ENDBRANCH   3   4
ENDBRANCH   2   3
ENDBRANCH   1   2
BRANCH   1  13
ATOM     13  C   UNL     1      -9.260  16.915 -15.319  1.00  0.00     0.000 C 
BRANCH  13  14
ATOM     14  C   UNL     1      -9.750  16.476 -13.929  1.00  0.00     0.000 C 
BRANCH  14  15
ATOM     15  C   UNL     1      -8.637  16.097 -12.936  1.00  0.00     0.000 C 
BRANCH  15  16
ATOM     16  C   UNL     1      -8.987  14.890 -12.040  1.00  0.00     0.000 C 
BRANCH  16  17
ATOM     17  C   UNL     1      -7.736  14.105 -11.611  1.00  0.00     0.000 C 
BRANCH  17  18
ATOM     18  C   UNL     1      -6.848  13.726 -12.806  1.00  0.00     0.000 C 
BRANCH  18  19
ATOM     19  C   UNL     1      -7.340  12.466 -13.557  1.00  0.00     0.000 C 
BRANCH  19  20
ATOM     20  C   UNL     1      -6.996  12.474 -15.060  1.00  0.00     0.006 C 
BRANCH  20  21
ATOM     21  C   UNL     1      -8.157  12.918 -15.966  1.00  0.00     0.053 C 
BRANCH  21  22
ATOM     22  C   UNL     1      -9.491  12.481 -15.439  1.00  0.00     0.041 C 
ATOM     23  O   UNL     1      -9.858  11.280 -15.546  1.00  0.00    -0.550 OA
ATOM     24  O   UNL     1     -10.334  13.407 -14.835  1.00  0.00    -0.550 OA
ENDBRANCH  21  22
ENDBRANCH  20  21
ENDBRANCH  19  20
ENDBRANCH  18  19
ENDBRANCH  17  18
ENDBRANCH  16  17
ENDBRANCH  15  16
ENDBRANCH  14  15
ENDBRANCH  13  14
ENDBRANCH   1  13
TORSDOF 20
ENDMDL
MODEL 3
REMARK VINA RESULT:     0.764      1.784      3.948
REMARK INTER + INTRA:           4.968
REMARK INTER:                   4.740
REMARK INTRA:                   0.228
REMARK UNBOUND:                 3.310
REMARK SMILES CCCCCCCCCCCCCCCCCCCCCC(=O)[O-]
REMARK SMILES IDX 12 1 11 2 10 3 9 4 8 5 7 6 6 7 5 8 4 9 3 10 2 11 1 12 13 13
REMARK SMILES IDX 14 14 15 15 16 16 17 17 18 18 19 19 20 20 21 21 22 22 23 23
REMARK SMILES IDX 24 24
REMARK H PARENT
REMARK Flexibility Score: inf
ROOT
ATOM      1  C   UNL     1      -7.989  12.799 -15.200  1.00  0.00     0.000 C 
ENDROOT
BRANCH   1   2
ATOM      2  C   UNL     1      -8.708  13.797 -16.125  1.00  0.00     0.000 C 
BRANCH   2   3
ATOM      3  C   UNL     1      -8.123  15.225 -16.066  1.00  0.00     0.000 C 
BRANCH   3   4
ATOM      4  C   UNL     1      -7.026  15.356 -14.999  1.00  0.00    -0.000 C 
BRANCH   4   5
ATOM      5  C   UNL     1      -5.996  16.421 -15.395  1.00  0.00    -0.000 C 
BRANCH   5   6
ATOM      6  C   UNL     1      -6.688  17.707 -15.869  1.00  0.00    -0.000 C 
BRANCH   6   7
ATOM      7  C   UNL     1      -5.976  18.982 -15.381  1.00  0.00    -0.000 C 
BRANCH   7   8
ATOM      8  C   UNL     1      -6.048  19.228 -13.860  1.00  0.00    -0.000 C 
BRANCH   8   9
ATOM      9  C   UNL     1      -6.200  20.702 -13.447  1.00  0.00    -0.000 C 
BRANCH   9  10
ATOM     10  C   UNL     1      -7.660  21.094 -13.162  1.00  0.00    -0.000 C 
BRANCH  10  11
ATOM     11  C   UNL     1      -8.658  20.318 -14.035  1.00  0.00    -0.003 C 
ATOM     12  C   UNL     1      -8.657  20.787 -15.491  1.00  0.00     0.004 C 
ENDBRANCH  10  11
ENDBRANCH   9  10
ENDBRANCH   8   9
ENDBRANCH   7   8
ENDBRANCH   6   7
ENDBRANCH   5   6
ENDBRANCH   4   5
ENDBRANCH   3   4
ENDBRANCH   2   3
ENDBRANCH   1   2
BRANCH   1  13
ATOM     13  C   UNL     1      -6.756  12.158 -15.858  1.00  0.00     0.000 C 
BRANCH  13  14
ATOM     14  C   UNL     1      -5.971  11.251 -14.895  1.00  0.00     0.000 C 
BRANCH  14  15
ATOM     15  C   UNL     1      -5.875  11.765 -13.448  1.00  0.00     0.000 C 
BRANCH  15  16
ATOM     16  C   UNL     1      -7.065  11.343 -12.558  1.00  0.00     0.000 C 
BRANCH  16  17
ATOM     17  C   UNL     1      -8.094  12.474 -12.394  1.00  0.00     0.000 C 
BRANCH  17  18
ATOM     18  C   UNL     1      -7.787  13.372 -11.186  1.00  0.00     0.000 C 
BRANCH  18  19
ATOM     19  C   UNL     1      -8.515  14.736 -11.238  1.00  0.00     0.000 C 
BRANCH  19  20
ATOM     20  C   UNL     1      -7.681  15.852 -11.898  1.00  0.00     0.006 C 
BRANCH  20  21
ATOM     21  C   UNL     1      -8.483  17.124 -12.222  1.00  0.00     0.053 C 
BRANCH  21  22
ATOM     22  C   UNL     1      -9.678  16.841 -13.084  1.00  0.00     0.041 C 
ATOM     23  O   UNL     1     -10.790  16.563 -12.561  1.00  0.00    -0.550 OA
ATOM     24  O   UNL     1      -9.557  16.878 -14.468  1.00  0.00    -0.550 OA
ENDBRANCH  21  22
ENDBRANCH  20  21
ENDBRANCH  19  20
ENDBRANCH  18  19
ENDBRANCH  17  18
ENDBRANCH  16  17
ENDBRANCH  15  16
ENDBRANCH  14  15
ENDBRANCH  13  14
ENDBRANCH   1  13
TORSDOF 20
ENDMDL
