MODEL 1
REMARK VINA RESULT:    -4.948      0.000      0.000
REMARK INTER + INTRA:          -5.526
REMARK INTER:                  -5.526
REMARK INTRA:                   0.000
REMARK UNBOUND:                 0.000
REMARK SMILES Oc1cc(O)c2c(ccc3ccc(O)c(O)c32)c1
REMARK SMILES IDX 9 1 8 2 7 3 18 4 2 5 3 6 4 7 6 8 17 9 10 10 11 11 12 12
REMARK SMILES IDX 13 13 15 14 16 15 1 17 5 19 14 21
REMARK H PARENT 16 16 1 18 5 20 14 22
REMARK Flexibility Score: inf
ROOT
ATOM      1  C   UNL     1     144.981 144.942 157.677  1.00  0.00     0.009 A 
ATOM      2  C   UNL     1     144.880 146.265 157.266  1.00  0.00     0.009 A 
ATOM      3  C   UNL     1     146.030 147.035 157.070  1.00  0.00    -0.010 A 
ATOM      4  C   UNL     1     145.896 148.389 156.727  1.00  0.00     0.055 A 
ATOM      5  C   UNL     1     147.021 149.213 156.654  1.00  0.00     0.119 A 
ATOM      6  C   UNL     1     148.273 148.700 156.980  1.00  0.00     0.093 A 
ATOM      7  C   UNL     1     148.425 147.355 157.345  1.00  0.00     0.127 A 
ATOM      8  C   UNL     1     147.320 146.463 157.262  1.00  0.00     0.035 A 
ATOM      9  C   UNL     1     147.418 145.047 157.461  1.00  0.00     0.039 A 
ATOM     10  C   UNL     1     146.232 144.323 157.770  1.00  0.00    -0.014 A 
ATOM     11  C   UNL     1     146.301 142.970 158.125  1.00  0.00     0.013 A 
ATOM     12  C   UNL     1     147.522 142.306 158.125  1.00  0.00     0.051 A 
ATOM     13  C   UNL     1     148.677 142.950 157.684  1.00  0.00     0.158 A 
ATOM     14  C   UNL     1     148.613 144.299 157.260  1.00  0.00     0.166 A 
ENDROOT
BRANCH  14  15
ATOM     15  O   UNL     1     149.670 144.856 156.536  1.00  0.00    -0.504 OA
ATOM     16  H   UNL     1     150.297 145.557 156.905  1.00  0.00     0.293 HD
ENDBRANCH  14  15
BRANCH   5  17
ATOM     17  O   UNL     1     146.898 150.553 156.293  1.00  0.00    -0.508 OA
ATOM     18  H   UNL     1     147.663 151.207 156.414  1.00  0.00     0.293 HD
ENDBRANCH   5  17
BRANCH   7  19
ATOM     19  O   UNL     1     149.648 146.949 157.880  1.00  0.00    -0.507 OA
ATOM     20  H   UNL     1     150.532 147.241 157.480  1.00  0.00     0.293 HD
ENDBRANCH   7  19
BRANCH  13  21
ATOM     21  O   UNL     1     149.867 142.219 157.669  1.00  0.00    -0.504 OA
ATOM     22  H   UNL     1     149.900 141.209 157.675  1.00  0.00     0.293 HD
ENDBRANCH  13  21
TORSDOF 4
ENDMDL
MODEL 2
REMARK VINA RESULT:    -3.042      1.897      6.187
REMARK INTER + INTRA:          -3.398
REMARK INTER:                  -3.398
REMARK INTRA:                   0.000
REMARK UNBOUND:                 0.000
REMARK SMILES Oc1cc(O)c2c(ccc3ccc(O)c(O)c32)c1
REMARK SMILES IDX 9 1 8 2 7 3 18 4 2 5 3 6 4 7 6 8 17 9 10 10 11 11 12 12
REMARK SMILES IDX 13 13 15 14 16 15 1 17 5 19 14 21
REMARK H PARENT 16 16 1 18 5 20 14 22
REMARK Flexibility Score: inf
ROOT
ATOM      1  C   UNL     1     149.964 149.365 158.125  1.00  0.00     0.009 A 
ATOM      2  C   UNL     1     150.226 148.034 157.829  1.00  0.00     0.009 A 
ATOM      3  C   UNL     1     149.197 147.187 157.405  1.00  0.00    -0.010 A 
ATOM      4  C   UNL     1     149.476 145.829 157.185  1.00  0.00     0.055 A 
ATOM      5  C   UNL     1     148.444 144.936 156.890  1.00  0.00     0.119 A 
ATOM      6  C   UNL     1     147.127 145.387 156.873  1.00  0.00     0.093 A 
ATOM      7  C   UNL     1     146.825 146.734 157.110  1.00  0.00     0.127 A 
ATOM      8  C   UNL     1     147.874 147.687 157.245  1.00  0.00     0.035 A 
ATOM      9  C   UNL     1     147.662 149.102 157.331  1.00  0.00     0.039 A 
ATOM     10  C   UNL     1     148.700 149.911 157.874  1.00  0.00    -0.014 A 
ATOM     11  C   UNL     1     148.481 151.272 158.122  1.00  0.00     0.013 A 
ATOM     12  C   UNL     1     147.267 151.859 157.787  1.00  0.00     0.051 A 
ATOM     13  C   UNL     1     146.288 151.127 157.118  1.00  0.00     0.158 A 
ATOM     14  C   UNL     1     146.518 149.767 156.803  1.00  0.00     0.166 A 
ENDROOT
BRANCH  14  15
ATOM     15  O   UNL     1     145.699 149.114 155.878  1.00  0.00    -0.504 OA
ATOM     16  H   UNL     1     145.331 149.552 155.045  1.00  0.00     0.293 HD
ENDBRANCH  14  15
BRANCH   5  17
ATOM     17  O   UNL     1     148.715 143.590 156.650  1.00  0.00    -0.508 OA
ATOM     18  H   UNL     1     149.159 143.284 155.792  1.00  0.00     0.293 HD
ENDBRANCH   5  17
BRANCH   7  19
ATOM     19  O   UNL     1     145.491 147.090 157.308  1.00  0.00    -0.507 OA
ATOM     20  H   UNL     1     144.736 146.425 157.186  1.00  0.00     0.293 HD
ENDBRANCH   7  19
BRANCH  13  21
ATOM     21  O   UNL     1     145.105 151.783 156.772  1.00  0.00    -0.504 OA
ATOM     22  H   UNL     1     144.195 151.345 156.805  1.00  0.00     0.293 HD
ENDBRANCH  13  21
TORSDOF 4
ENDMDL
MODEL 3
REMARK VINA RESULT:    -2.940      2.164      5.591
REMARK INTER + INTRA:          -3.284
REMARK INTER:                  -3.284
REMARK INTRA:                   0.000
REMARK UNBOUND:                 0.000
REMARK SMILES Oc1cc(O)c2c(ccc3ccc(O)c(O)c32)c1
REMARK SMILES IDX 9 1 8 2 7 3 18 4 2 5 3 6 4 7 6 8 17 9 10 10 11 11 12 12
REMARK SMILES IDX 13 13 15 14 16 15 1 17 5 19 14 21
REMARK H PARENT 16 16 1 18 5 20 14 22
REMARK Flexibility Score: inf
ROOT
ATOM      1  C   UNL     1     149.386 145.080 157.376  1.00  0.00     0.009 A 
ATOM      2  C   UNL     1     148.823 143.816 157.495  1.00  0.00     0.009 A 
ATOM      3  C   UNL     1     147.435 143.661 157.554  1.00  0.00    -0.010 A 
ATOM      4  C   UNL     1     146.897 142.380 157.749  1.00  0.00     0.055 A 
ATOM      5  C   UNL     1     145.524 142.214 157.945  1.00  0.00     0.119 A 
ATOM      6  C   UNL     1     144.696 143.331 158.003  1.00  0.00     0.093 A 
ATOM      7  C   UNL     1     145.217 144.621 157.832  1.00  0.00     0.127 A 
ATOM      8  C   UNL     1     146.581 144.797 157.465  1.00  0.00     0.035 A 
ATOM      9  C   UNL     1     147.158 146.062 157.115  1.00  0.00     0.039 A 
ATOM     10  C   UNL     1     148.573 146.201 157.178  1.00  0.00    -0.014 A 
ATOM     11  C   UNL     1     149.170 147.455 156.997  1.00  0.00     0.013 A 
ATOM     12  C   UNL     1     148.390 148.566 156.699  1.00  0.00     0.051 A 
ATOM     13  C   UNL     1     147.019 148.432 156.484  1.00  0.00     0.158 A 
ATOM     14  C   UNL     1     146.411 147.159 156.600  1.00  0.00     0.166 A 
ENDROOT
BRANCH  14  15
ATOM     15  O   UNL     1     145.125 146.950 156.095  1.00  0.00    -0.504 OA
ATOM     16  H   UNL     1     144.587 147.658 155.615  1.00  0.00     0.293 HD
ENDBRANCH  14  15
BRANCH   5  17
ATOM     17  O   UNL     1     144.980 140.943 158.118  1.00  0.00    -0.508 OA
ATOM     18  H   UNL     1     145.427 140.118 157.736  1.00  0.00     0.293 HD
ENDBRANCH   5  17
BRANCH   7  19
ATOM     19  O   UNL     1     144.397 145.711 158.125  1.00  0.00    -0.507 OA
ATOM     20  H   UNL     1     143.720 146.067 157.460  1.00  0.00     0.293 HD
ENDBRANCH   7  19
BRANCH  13  21
ATOM     21  O   UNL     1     146.296 149.577 156.148  1.00  0.00    -0.504 OA
ATOM     22  H   UNL     1     146.173 150.362 156.773  1.00  0.00     0.293 HD
ENDBRANCH  13  21
TORSDOF 4
ENDMDL
MODEL 4
REMARK VINA RESULT:    -2.709      0.830      4.953
REMARK INTER + INTRA:          -3.025
REMARK INTER:                  -3.025
REMARK INTRA:                   0.000
REMARK UNBOUND:                 0.000
REMARK SMILES Oc1cc(O)c2c(ccc3ccc(O)c(O)c32)c1
REMARK SMILES IDX 9 1 8 2 7 3 18 4 2 5 3 6 4 7 6 8 17 9 10 10 11 11 12 12
REMARK SMILES IDX 13 13 15 14 16 15 1 17 5 19 14 21
REMARK H PARENT 16 16 1 18 5 20 14 22
REMARK Flexibility Score: inf
ROOT
ATOM      1  C   UNL     1     145.013 146.039 157.634  1.00  0.00     0.009 A 
ATOM      2  C   UNL     1     145.291 144.712 157.935  1.00  0.00     0.009 A 
ATOM      3  C   UNL     1     146.598 144.223 157.844  1.00  0.00    -0.010 A 
ATOM      4  C   UNL     1     146.838 142.862 158.082  1.00  0.00     0.055 A 
ATOM      5  C   UNL     1     148.108 142.322 157.870  1.00  0.00     0.119 A 
ATOM      6  C   UNL     1     149.124 143.128 157.364  1.00  0.00     0.093 A 
ATOM      7  C   UNL     1     148.899 144.486 157.100  1.00  0.00     0.127 A 
ATOM      8  C   UNL     1     147.664 145.089 157.468  1.00  0.00     0.035 A 
ATOM      9  C   UNL     1     147.405 146.497 157.383  1.00  0.00     0.039 A 
ATOM     10  C   UNL     1     146.052 146.937 157.366  1.00  0.00    -0.014 A 
ATOM     11  C   UNL     1     145.748 148.283 157.128  1.00  0.00     0.013 A 
ATOM     12  C   UNL     1     146.767 149.213 156.962  1.00  0.00     0.051 A 
ATOM     13  C   UNL     1     148.100 148.838 157.120  1.00  0.00     0.158 A 
ATOM     14  C   UNL     1     148.421 147.494 157.425  1.00  0.00     0.166 A 
ENDROOT
BRANCH  14  15
ATOM     15  O   UNL     1     149.699 147.167 157.887  1.00  0.00    -0.504 OA
ATOM     16  H   UNL     1     150.259 146.416 157.508  1.00  0.00     0.293 HD
ENDBRANCH  14  15
BRANCH   5  17
ATOM     17  O   UNL     1     148.359 140.975 158.125  1.00  0.00    -0.508 OA
ATOM     18  H   UNL     1     148.739 140.665 159.012  1.00  0.00     0.293 HD
ENDBRANCH   5  17
BRANCH   7  19
ATOM     19  O   UNL     1     149.868 145.190 156.386  1.00  0.00    -0.507 OA
ATOM     20  H   UNL     1     150.644 144.723 155.931  1.00  0.00     0.293 HD
ENDBRANCH   7  19
BRANCH  13  21
ATOM     21  O   UNL     1     149.077 149.825 156.979  1.00  0.00    -0.504 OA
ATOM     22  H   UNL     1     148.887 150.814 157.066  1.00  0.00     0.293 HD
ENDBRANCH  13  21
TORSDOF 4
ENDMDL
MODEL 5
REMARK VINA RESULT:    -2.135      2.091      3.043
REMARK INTER + INTRA:          -2.384
REMARK INTER:                  -2.384
REMARK INTRA:                   0.000
REMARK UNBOUND:                 0.000
REMARK SMILES Oc1cc(O)c2c(ccc3ccc(O)c(O)c32)c1
REMARK SMILES IDX 9 1 8 2 7 3 18 4 2 5 3 6 4 7 6 8 17 9 10 10 11 11 12 12
REMARK SMILES IDX 13 13 15 14 16 15 1 17 5 19 14 21
REMARK H PARENT 16 16 1 18 5 20 14 22
REMARK Flexibility Score: inf
ROOT
ATOM      1  C   UNL     1     149.665 145.727 157.376  1.00  0.00     0.009 A 
ATOM      2  C   UNL     1     149.496 147.102 157.278  1.00  0.00     0.009 A 
ATOM      3  C   UNL     1     148.222 147.648 157.094  1.00  0.00    -0.010 A 
ATOM      4  C   UNL     1     148.089 149.034 156.924  1.00  0.00     0.055 A 
ATOM      5  C   UNL     1     146.848 149.591 156.607  1.00  0.00     0.119 A 
ATOM      6  C   UNL     1     145.752 148.758 156.402  1.00  0.00     0.093 A 
ATOM      7  C   UNL     1     145.868 147.369 156.546  1.00  0.00     0.127 A 
ATOM      8  C   UNL     1     147.078 146.801 157.032  1.00  0.00     0.035 A 
ATOM      9  C   UNL     1     147.236 145.414 157.360  1.00  0.00     0.039 A 
ATOM     10  C   UNL     1     148.553 144.879 157.427  1.00  0.00    -0.014 A 
ATOM     11  C   UNL     1     148.750 143.502 157.590  1.00  0.00     0.013 A 
ATOM     12  C   UNL     1     147.663 142.651 157.745  1.00  0.00     0.051 A 
ATOM     13  C   UNL     1     146.369 143.165 157.833  1.00  0.00     0.158 A 
ATOM     14  C   UNL     1     146.159 144.561 157.734  1.00  0.00     0.166 A 
ENDROOT
BRANCH  14  15
ATOM     15  O   UNL     1     144.936 145.113 158.124  1.00  0.00    -0.504 OA
ATOM     16  H   UNL     1     144.710 146.094 158.042  1.00  0.00     0.293 HD
ENDBRANCH  14  15
BRANCH   5  17
ATOM     17  O   UNL     1     146.704 150.969 156.458  1.00  0.00    -0.508 OA
ATOM     18  H   UNL     1     147.278 151.495 155.808  1.00  0.00     0.293 HD
ENDBRANCH   5  17
BRANCH   7  19
ATOM     19  O   UNL     1     144.812 146.568 156.111  1.00  0.00    -0.507 OA
ATOM     20  H   UNL     1     144.805 146.145 155.189  1.00  0.00     0.293 HD
ENDBRANCH   7  19
BRANCH  13  21
ATOM     21  O   UNL     1     145.321 142.264 158.028  1.00  0.00    -0.504 OA
ATOM     22  H   UNL     1     144.456 142.294 157.508  1.00  0.00     0.293 HD
ENDBRANCH  13  21
TORSDOF 4
ENDMDL
