MODEL 1
REMARK VINA RESULT:    -5.505      0.000      0.000
REMARK INTER + INTRA:          -6.762
REMARK INTER:                  -6.471
REMARK INTRA:                  -0.291
REMARK UNBOUND:                -0.291
REMARK SMILES O=c1c(O)c(-c2ccc(O)cc2)oc2cc(O)cc(O)c12
REMARK SMILES IDX 5 1 3 2 2 3 1 4 21 5 19 6 18 7 16 8 15 9 14 10 13 11 6 12
REMARK SMILES IDX 7 13 8 14 9 15 12 16 11 17 10 18 4 20 20 22 17 24
REMARK H PARENT 10 19 4 21 20 23 17 25
REMARK Flexibility Score: inf
ROOT
ATOM      1  C   UNL     1       8.167  -6.045   3.860  1.00  0.00     0.180 A 
ATOM      2  C   UNL     1       6.844  -6.432   3.571  1.00  0.00     0.208 A 
ATOM      3  C   UNL     1       6.423  -6.461   2.233  1.00  0.00     0.238 A 
ATOM      4  O   UNL     1       5.244  -6.816   1.960  1.00  0.00    -0.285 OA
ATOM      5  C   UNL     1       7.319  -6.085   1.212  1.00  0.00     0.111 A 
ATOM      6  C   UNL     1       6.973  -6.083  -0.161  1.00  0.00     0.134 A 
ATOM      7  C   UNL     1       7.920  -5.686  -1.117  1.00  0.00     0.093 A 
ATOM      8  C   UNL     1       9.203  -5.292  -0.729  1.00  0.00     0.123 A 
ATOM      9  C   UNL     1       9.551  -5.294   0.626  1.00  0.00     0.094 A 
ATOM     10  C   UNL     1       8.623  -5.687   1.594  1.00  0.00     0.146 A 
ATOM     11  O   UNL     1       8.981  -5.683   2.872  1.00  0.00    -0.452 OA
ENDROOT
BRANCH   1  12
ATOM     12  C   UNL     1       8.692  -6.009   5.244  1.00  0.00     0.021 A 
ATOM     13  C   UNL     1       8.573  -4.856   6.044  1.00  0.00     0.016 A 
ATOM     14  C   UNL     1       9.053  -4.854   7.357  1.00  0.00     0.047 A 
ATOM     15  C   UNL     1       9.646  -6.001   7.892  1.00  0.00     0.115 A 
ATOM     16  C   UNL     1       9.269  -7.165   5.796  1.00  0.00     0.016 A 
ATOM     17  C   UNL     1       9.750  -7.159   7.108  1.00  0.00     0.047 A 
BRANCH  15  18
ATOM     18  O   UNL     1      10.121  -5.984   9.201  1.00  0.00    -0.508 OA
ATOM     19  H   UNL     1      10.545  -5.155   9.599  1.00  0.00     0.293 HD
ENDBRANCH  15  18
ENDBRANCH   1  12
BRANCH   2  20
ATOM     20  O   UNL     1       5.960  -6.753   4.605  1.00  0.00    -0.502 OA
ATOM     21  H   UNL     1       5.000  -7.025   4.433  1.00  0.00     0.293 HD
ENDBRANCH   2  20
BRANCH   6  22
ATOM     22  O   UNL     1       5.700  -6.469  -0.581  1.00  0.00    -0.507 OA
ATOM     23  H   UNL     1       4.861  -6.106  -0.143  1.00  0.00     0.293 HD
ENDBRANCH   6  22
BRANCH   8  24
ATOM     24  O   UNL     1      10.124  -4.903  -1.699  1.00  0.00    -0.508 OA
ATOM     25  H   UNL     1      10.101  -3.976  -2.109  1.00  0.00     0.293 HD
ENDBRANCH   8  24
TORSDOF 5
ENDMDL
MODEL 2
REMARK VINA RESULT:    -5.452     19.340     20.524
REMARK INTER + INTRA:          -6.699
REMARK INTER:                  -6.438
REMARK INTRA:                  -0.261
REMARK UNBOUND:                -0.291
REMARK SMILES O=c1c(O)c(-c2ccc(O)cc2)oc2cc(O)cc(O)c12
REMARK SMILES IDX 5 1 3 2 2 3 1 4 21 5 19 6 18 7 16 8 15 9 14 10 13 11 6 12
REMARK SMILES IDX 7 13 8 14 9 15 12 16 11 17 10 18 4 20 20 22 17 24
REMARK H PARENT 10 19 4 21 20 23 17 25
REMARK Flexibility Score: inf
ROOT
ATOM      1  C   UNL     1      -8.107   6.047   4.059  1.00  0.00     0.180 A 
ATOM      2  C   UNL     1      -6.744   6.281   3.791  1.00  0.00     0.208 A 
ATOM      3  C   UNL     1      -6.307   6.291   2.457  1.00  0.00     0.238 A 
ATOM      4  O   UNL     1      -5.092   6.509   2.203  1.00  0.00    -0.285 OA
ATOM      5  C   UNL     1      -7.231   6.048   1.419  1.00  0.00     0.111 A 
ATOM      6  C   UNL     1      -6.872   6.037   0.050  1.00  0.00     0.134 A 
ATOM      7  C   UNL     1      -7.850   5.779  -0.923  1.00  0.00     0.093 A 
ATOM      8  C   UNL     1      -9.174   5.532  -0.555  1.00  0.00     0.123 A 
ATOM      9  C   UNL     1      -9.534   5.543   0.796  1.00  0.00     0.094 A 
ATOM     10  C   UNL     1      -8.577   5.799   1.781  1.00  0.00     0.146 A 
ATOM     11  O   UNL     1      -8.947   5.808   3.055  1.00  0.00    -0.452 OA
ENDROOT
BRANCH   1  12
ATOM     12  C   UNL     1      -8.647   6.040   5.437  1.00  0.00     0.021 A 
ATOM     13  C   UNL     1      -8.509   4.917   6.274  1.00  0.00     0.016 A 
ATOM     14  C   UNL     1      -9.006   4.944   7.581  1.00  0.00     0.047 A 
ATOM     15  C   UNL     1      -9.633   6.092   8.073  1.00  0.00     0.115 A 
ATOM     16  C   UNL     1      -9.261   7.198   5.945  1.00  0.00     0.016 A 
ATOM     17  C   UNL     1      -9.757   7.222   7.252  1.00  0.00     0.047 A 
BRANCH  15  18
ATOM     18  O   UNL     1     -10.125   6.104   9.376  1.00  0.00    -0.508 OA
ATOM     19  H   UNL     1     -11.119   6.118   9.567  1.00  0.00     0.293 HD
ENDBRANCH  15  18
ENDBRANCH   1  12
BRANCH   2  20
ATOM     20  O   UNL     1      -5.840   6.469   4.839  1.00  0.00    -0.502 OA
ATOM     21  H   UNL     1      -6.125   6.453   5.811  1.00  0.00     0.293 HD
ENDBRANCH   2  20
BRANCH   6  22
ATOM     22  O   UNL     1      -5.557   6.279  -0.350  1.00  0.00    -0.507 OA
ATOM     23  H   UNL     1      -4.767   5.986   0.213  1.00  0.00     0.293 HD
ENDBRANCH   6  22
BRANCH   8  24
ATOM     24  O   UNL     1     -10.124   5.277  -1.542  1.00  0.00    -0.508 OA
ATOM     25  H   UNL     1     -10.777   5.992  -1.845  1.00  0.00     0.293 HD
ENDBRANCH   8  24
TORSDOF 5
ENDMDL
MODEL 3
REMARK VINA RESULT:    -5.352      9.486     11.912
REMARK INTER + INTRA:          -6.581
REMARK INTER:                  -6.318
REMARK INTRA:                  -0.263
REMARK UNBOUND:                -0.291
REMARK SMILES O=c1c(O)c(-c2ccc(O)cc2)oc2cc(O)cc(O)c12
REMARK SMILES IDX 5 1 3 2 2 3 1 4 21 5 19 6 18 7 16 8 15 9 14 10 13 11 6 12
REMARK SMILES IDX 7 13 8 14 9 15 12 16 11 17 10 18 4 20 20 22 17 24
REMARK H PARENT 10 19 4 21 20 23 17 25
REMARK Flexibility Score: inf
ROOT
ATOM      1  C   UNL     1      -1.681  -2.018   1.936  1.00  0.00     0.180 A 
ATOM      2  C   UNL     1      -0.937  -3.000   2.619  1.00  0.00     0.208 A 
ATOM      3  C   UNL     1       0.312  -2.653   3.158  1.00  0.00     0.238 A 
ATOM      4  O   UNL     1       0.982  -3.520   3.781  1.00  0.00    -0.285 OA
ATOM      5  C   UNL     1       0.803  -1.342   2.989  1.00  0.00     0.111 A 
ATOM      6  C   UNL     1       2.053  -0.912   3.497  1.00  0.00     0.134 A 
ATOM      7  C   UNL     1       2.476   0.408   3.279  1.00  0.00     0.093 A 
ATOM      8  C   UNL     1       1.677   1.303   2.564  1.00  0.00     0.123 A 
ATOM      9  C   UNL     1       0.441   0.884   2.061  1.00  0.00     0.094 A 
ATOM     10  C   UNL     1       0.001  -0.426   2.269  1.00  0.00     0.146 A 
ATOM     11  O   UNL     1      -1.178  -0.796   1.784  1.00  0.00    -0.452 OA
ENDROOT
BRANCH   1  12
ATOM     12  C   UNL     1      -3.013  -2.301   1.357  1.00  0.00     0.021 A 
ATOM     13  C   UNL     1      -4.196  -1.901   2.006  1.00  0.00     0.016 A 
ATOM     14  C   UNL     1      -5.443  -2.159   1.428  1.00  0.00     0.047 A 
ATOM     15  C   UNL     1      -5.525  -2.805   0.191  1.00  0.00     0.115 A 
ATOM     16  C   UNL     1      -3.103  -2.932   0.105  1.00  0.00     0.016 A 
ATOM     17  C   UNL     1      -4.350  -3.189  -0.471  1.00  0.00     0.047 A 
BRANCH  15  18
ATOM     18  O   UNL     1      -6.773  -3.057  -0.373  1.00  0.00    -0.508 OA
ATOM     19  H   UNL     1      -6.925  -3.843  -0.993  1.00  0.00     0.293 HD
ENDBRANCH  15  18
ENDBRANCH   1  12
BRANCH   2  20
ATOM     20  O   UNL     1      -1.424  -4.304   2.730  1.00  0.00    -0.502 OA
ATOM     21  H   UNL     1      -1.553  -4.762   3.625  1.00  0.00     0.293 HD
ENDBRANCH   2  20
BRANCH   6  22
ATOM     22  O   UNL     1       2.874  -1.783   4.214  1.00  0.00    -0.507 OA
ATOM     23  H   UNL     1       3.006  -2.747   3.930  1.00  0.00     0.293 HD
ENDBRANCH   6  22
BRANCH   8  24
ATOM     24  O   UNL     1       2.122   2.608   2.361  1.00  0.00    -0.508 OA
ATOM     25  H   UNL     1       1.475   3.361   2.152  1.00  0.00     0.293 HD
ENDBRANCH   8  24
TORSDOF 5
ENDMDL
MODEL 4
REMARK VINA RESULT:    -5.308     13.812     15.793
REMARK INTER + INTRA:          -6.530
REMARK INTER:                  -6.405
REMARK INTRA:                  -0.125
REMARK UNBOUND:                -0.291
REMARK SMILES O=c1c(O)c(-c2ccc(O)cc2)oc2cc(O)cc(O)c12
REMARK SMILES IDX 5 1 3 2 2 3 1 4 21 5 19 6 18 7 16 8 15 9 14 10 13 11 6 12
REMARK SMILES IDX 7 13 8 14 9 15 12 16 11 17 10 18 4 20 20 22 17 24
REMARK H PARENT 10 19 4 21 20 23 17 25
REMARK Flexibility Score: inf
ROOT
ATOM      1  C   UNL     1      -5.605   0.523   2.389  1.00  0.00     0.180 A 
ATOM      2  C   UNL     1      -4.823  -0.085   3.390  1.00  0.00     0.208 A 
ATOM      3  C   UNL     1      -4.439  -1.426   3.231  1.00  0.00     0.238 A 
ATOM      4  O   UNL     1      -3.729  -1.978   4.115  1.00  0.00    -0.285 OA
ATOM      5  C   UNL     1      -4.859  -2.140   2.090  1.00  0.00     0.111 A 
ATOM      6  C   UNL     1      -4.520  -3.494   1.856  1.00  0.00     0.134 A 
ATOM      7  C   UNL     1      -4.985  -4.138   0.699  1.00  0.00     0.093 A 
ATOM      8  C   UNL     1      -5.780  -3.457  -0.224  1.00  0.00     0.123 A 
ATOM      9  C   UNL     1      -6.118  -2.118   0.001  1.00  0.00     0.094 A 
ATOM     10  C   UNL     1      -5.663  -1.458   1.146  1.00  0.00     0.146 A 
ATOM     11  O   UNL     1      -5.995  -0.187   1.333  1.00  0.00    -0.452 OA
ENDROOT
BRANCH   1  12
ATOM     12  C   UNL     1      -6.033   1.937   2.475  1.00  0.00     0.021 A 
ATOM     13  C   UNL     1      -5.096   2.986   2.519  1.00  0.00     0.016 A 
ATOM     14  C   UNL     1      -5.524   4.316   2.576  1.00  0.00     0.047 A 
ATOM     15  C   UNL     1      -6.889   4.616   2.576  1.00  0.00     0.115 A 
ATOM     16  C   UNL     1      -7.403   2.248   2.454  1.00  0.00     0.016 A 
ATOM     17  C   UNL     1      -7.829   3.578   2.511  1.00  0.00     0.047 A 
BRANCH  15  18
ATOM     18  O   UNL     1      -7.302   5.946   2.634  1.00  0.00    -0.508 OA
ATOM     19  H   UNL     1      -6.636   6.708   2.606  1.00  0.00     0.293 HD
ENDBRANCH  15  18
ENDBRANCH   1  12
BRANCH   2  20
ATOM     20  O   UNL     1      -4.461   0.630   4.535  1.00  0.00    -0.502 OA
ATOM     21  H   UNL     1      -3.642   0.399   5.083  1.00  0.00     0.293 HD
ENDBRANCH   2  20
BRANCH   6  22
ATOM     22  O   UNL     1      -3.728  -4.203   2.760  1.00  0.00    -0.507 OA
ATOM     23  H   UNL     1      -3.979  -5.133   3.074  1.00  0.00     0.293 HD
ENDBRANCH   6  22
BRANCH   8  24
ATOM     24  O   UNL     1      -6.229  -4.120  -1.365  1.00  0.00    -0.508 OA
ATOM     25  H   UNL     1      -5.589  -4.614  -1.976  1.00  0.00     0.293 HD
ENDBRANCH   8  24
TORSDOF 5
ENDMDL
MODEL 5
REMARK VINA RESULT:    -5.307      4.740     10.285
REMARK INTER + INTRA:          -6.529
REMARK INTER:                  -6.234
REMARK INTRA:                  -0.295
REMARK UNBOUND:                -0.291
REMARK SMILES O=c1c(O)c(-c2ccc(O)cc2)oc2cc(O)cc(O)c12
REMARK SMILES IDX 5 1 3 2 2 3 1 4 21 5 19 6 18 7 16 8 15 9 14 10 13 11 6 12
REMARK SMILES IDX 7 13 8 14 9 15 12 16 11 17 10 18 4 20 20 22 17 24
REMARK H PARENT 10 19 4 21 20 23 17 25
REMARK Flexibility Score: inf
ROOT
ATOM      1  C   UNL     1       8.642  -3.088   9.482  1.00  0.00     0.180 A 
ATOM      2  C   UNL     1       9.366  -1.896   9.685  1.00  0.00     0.208 A 
ATOM      3  C   UNL     1       9.470  -1.379  10.985  1.00  0.00     0.238 A 
ATOM      4  O   UNL     1      10.124  -0.320  11.182  1.00  0.00    -0.285 OA
ATOM      5  C   UNL     1       8.834  -2.046  12.053  1.00  0.00     0.111 A 
ATOM      6  C   UNL     1       8.886  -1.588  13.392  1.00  0.00     0.134 A 
ATOM      7  C   UNL     1       8.218  -2.304  14.398  1.00  0.00     0.093 A 
ATOM      8  C   UNL     1       7.501  -3.463  14.092  1.00  0.00     0.123 A 
ATOM      9  C   UNL     1       7.448  -3.920  12.771  1.00  0.00     0.094 A 
ATOM     10  C   UNL     1       8.107  -3.223  11.755  1.00  0.00     0.146 A 
ATOM     11  O   UNL     1       8.043  -3.681  10.511  1.00  0.00    -0.452 OA
ENDROOT
BRANCH   1  12
ATOM     12  C   UNL     1       8.505  -3.706   8.143  1.00  0.00     0.021 A 
ATOM     13  C   UNL     1       9.407  -4.687   7.691  1.00  0.00     0.016 A 
ATOM     14  C   UNL     1       9.242  -5.274   6.433  1.00  0.00     0.047 A 
ATOM     15  C   UNL     1       8.170  -4.901   5.617  1.00  0.00     0.115 A 
ATOM     16  C   UNL     1       7.418  -3.351   7.327  1.00  0.00     0.016 A 
ATOM     17  C   UNL     1       7.255  -3.939   6.069  1.00  0.00     0.047 A 
BRANCH  15  18
ATOM     18  O   UNL     1       8.018  -5.493   4.365  1.00  0.00    -0.508 OA
ATOM     19  H   UNL     1       7.180  -5.357   3.814  1.00  0.00     0.293 HD
ENDBRANCH  15  18
ENDBRANCH   1  12
BRANCH   2  20
ATOM     20  O   UNL     1       9.946  -1.229   8.603  1.00  0.00    -0.502 OA
ATOM     21  H   UNL     1      10.514  -0.399   8.718  1.00  0.00     0.293 HD
ENDBRANCH   2  20
BRANCH   6  22
ATOM     22  O   UNL     1       9.592  -0.433  13.729  1.00  0.00    -0.507 OA
ATOM     23  H   UNL     1       9.164   0.485  13.686  1.00  0.00     0.293 HD
ENDBRANCH   6  22
BRANCH   8  24
ATOM     24  O   UNL     1       6.847  -4.154  15.110  1.00  0.00    -0.508 OA
ATOM     25  H   UNL     1       6.055  -3.752  15.598  1.00  0.00     0.293 HD
ENDBRANCH   8  24
TORSDOF 5
ENDMDL
MODEL 6
REMARK VINA RESULT:    -5.287     13.386     15.125
REMARK INTER + INTRA:          -6.506
REMARK INTER:                  -6.275
REMARK INTRA:                  -0.231
REMARK UNBOUND:                -0.291
REMARK SMILES O=c1c(O)c(-c2ccc(O)cc2)oc2cc(O)cc(O)c12
REMARK SMILES IDX 5 1 3 2 2 3 1 4 21 5 19 6 18 7 16 8 15 9 14 10 13 11 6 12
REMARK SMILES IDX 7 13 8 14 9 15 12 16 11 17 10 18 4 20 20 22 17 24
REMARK H PARENT 10 19 4 21 20 23 17 25
REMARK Flexibility Score: inf
ROOT
ATOM      1  C   UNL     1      -5.027   0.459   3.159  1.00  0.00     0.180 A 
ATOM      2  C   UNL     1      -3.650   0.167   3.237  1.00  0.00     0.208 A 
ATOM      3  C   UNL     1      -3.135  -0.883   2.461  1.00  0.00     0.238 A 
ATOM      4  O   UNL     1      -1.904  -1.147   2.514  1.00  0.00    -0.285 OA
ATOM      5  C   UNL     1      -4.002  -1.633   1.641  1.00  0.00     0.111 A 
ATOM      6  C   UNL     1      -3.564  -2.709   0.831  1.00  0.00     0.134 A 
ATOM      7  C   UNL     1      -4.491  -3.413   0.048  1.00  0.00     0.093 A 
ATOM      8  C   UNL     1      -5.843  -3.064   0.059  1.00  0.00     0.123 A 
ATOM      9  C   UNL     1      -6.282  -2.002   0.856  1.00  0.00     0.094 A 
ATOM     10  C   UNL     1      -5.374  -1.286   1.642  1.00  0.00     0.146 A 
ATOM     11  O   UNL     1      -5.816  -0.280   2.385  1.00  0.00    -0.452 OA
ENDROOT
BRANCH   1  12
ATOM     12  C   UNL     1      -5.641   1.563   3.932  1.00  0.00     0.021 A 
ATOM     13  C   UNL     1      -5.875   1.450   5.315  1.00  0.00     0.016 A 
ATOM     14  C   UNL     1      -6.434   2.515   6.027  1.00  0.00     0.047 A 
ATOM     15  C   UNL     1      -6.753   3.708   5.374  1.00  0.00     0.115 A 
ATOM     16  C   UNL     1      -5.945   2.773   3.286  1.00  0.00     0.016 A 
ATOM     17  C   UNL     1      -6.505   3.836   4.000  1.00  0.00     0.047 A 
BRANCH  15  18
ATOM     18  O   UNL     1      -7.311   4.761   6.096  1.00  0.00    -0.508 OA
ATOM     19  H   UNL     1      -7.180   5.725   5.812  1.00  0.00     0.293 HD
ENDBRANCH  15  18
ENDBRANCH   1  12
BRANCH   2  20
ATOM     20  O   UNL     1      -2.822   0.894   4.096  1.00  0.00    -0.502 OA
ATOM     21  H   UNL     1      -1.939   0.531   4.434  1.00  0.00     0.293 HD
ENDBRANCH   2  20
BRANCH   6  22
ATOM     22  O   UNL     1      -2.220  -3.083   0.800  1.00  0.00    -0.507 OA
ATOM     23  H   UNL     1      -1.597  -2.770   0.063  1.00  0.00     0.293 HD
ENDBRANCH   6  22
BRANCH   8  24
ATOM     24  O   UNL     1      -6.744  -3.781  -0.728  1.00  0.00    -0.508 OA
ATOM     25  H   UNL     1      -7.744  -3.642  -0.646  1.00  0.00     0.293 HD
ENDBRANCH   8  24
TORSDOF 5
ENDMDL
MODEL 7
REMARK VINA RESULT:    -5.270     10.267     11.951
REMARK INTER + INTRA:          -6.486
REMARK INTER:                  -6.206
REMARK INTRA:                  -0.280
REMARK UNBOUND:                -0.291
REMARK SMILES O=c1c(O)c(-c2ccc(O)cc2)oc2cc(O)cc(O)c12
REMARK SMILES IDX 5 1 3 2 2 3 1 4 21 5 19 6 18 7 16 8 15 9 14 10 13 11 6 12
REMARK SMILES IDX 7 13 8 14 9 15 12 16 11 17 10 18 4 20 20 22 17 24
REMARK H PARENT 10 19 4 21 20 23 17 25
REMARK Flexibility Score: inf
ROOT
ATOM      1  C   UNL     1       1.673   2.296   1.901  1.00  0.00     0.180 A 
ATOM      2  C   UNL     1       0.936   3.286   2.579  1.00  0.00     0.208 A 
ATOM      3  C   UNL     1      -0.310   2.947   3.129  1.00  0.00     0.238 A 
ATOM      4  O   UNL     1      -0.975   3.821   3.748  1.00  0.00    -0.285 OA
ATOM      5  C   UNL     1      -0.806   1.636   2.974  1.00  0.00     0.111 A 
ATOM      6  C   UNL     1      -2.054   1.214   3.494  1.00  0.00     0.134 A 
ATOM      7  C   UNL     1      -2.481  -0.107   3.290  1.00  0.00     0.093 A 
ATOM      8  C   UNL     1      -1.689  -1.010   2.579  1.00  0.00     0.123 A 
ATOM      9  C   UNL     1      -0.455  -0.599   2.064  1.00  0.00     0.094 A 
ATOM     10  C   UNL     1      -0.010   0.711   2.258  1.00  0.00     0.146 A 
ATOM     11  O   UNL     1       1.167   1.074   1.762  1.00  0.00    -0.452 OA
ENDROOT
BRANCH   1  12
ATOM     12  C   UNL     1       3.003   2.571   1.311  1.00  0.00     0.021 A 
ATOM     13  C   UNL     1       4.190   2.243   1.993  1.00  0.00     0.016 A 
ATOM     14  C   UNL     1       5.435   2.490   1.405  1.00  0.00     0.047 A 
ATOM     15  C   UNL     1       5.510   3.054   0.128  1.00  0.00     0.115 A 
ATOM     16  C   UNL     1       3.087   3.118   0.020  1.00  0.00     0.016 A 
ATOM     17  C   UNL     1       4.332   3.364  -0.566  1.00  0.00     0.047 A 
BRANCH  15  18
ATOM     18  O   UNL     1       6.757   3.296  -0.446  1.00  0.00    -0.508 OA
ATOM     19  H   UNL     1       6.939   4.136  -0.980  1.00  0.00     0.293 HD
ENDBRANCH  15  18
ENDBRANCH   1  12
BRANCH   2  20
ATOM     20  O   UNL     1       1.427   4.590   2.676  1.00  0.00    -0.502 OA
ATOM     21  H   UNL     1       0.820   5.401   2.669  1.00  0.00     0.293 HD
ENDBRANCH   2  20
BRANCH   6  22
ATOM     22  O   UNL     1      -2.869   2.093   4.208  1.00  0.00    -0.507 OA
ATOM     23  H   UNL     1      -2.607   2.438   5.124  1.00  0.00     0.293 HD
ENDBRANCH   6  22
BRANCH   8  24
ATOM     24  O   UNL     1      -2.138  -2.316   2.390  1.00  0.00    -0.508 OA
ATOM     25  H   UNL     1      -2.336  -2.927   3.175  1.00  0.00     0.293 HD
ENDBRANCH   8  24
TORSDOF 5
ENDMDL
MODEL 8
REMARK VINA RESULT:    -5.251      7.328      7.615
REMARK INTER + INTRA:          -6.463
REMARK INTER:                  -6.223
REMARK INTRA:                  -0.240
REMARK UNBOUND:                -0.291
REMARK SMILES O=c1c(O)c(-c2ccc(O)cc2)oc2cc(O)cc(O)c12
REMARK SMILES IDX 5 1 3 2 2 3 1 4 21 5 19 6 18 7 16 8 15 9 14 10 13 11 6 12
REMARK SMILES IDX 7 13 8 14 9 15 12 16 11 17 10 18 4 20 20 22 17 24
REMARK H PARENT 10 19 4 21 20 23 17 25
REMARK Flexibility Score: inf
ROOT
ATOM      1  C   UNL     1       4.966  -0.196   3.147  1.00  0.00     0.180 A 
ATOM      2  C   UNL     1       3.587   0.085   3.216  1.00  0.00     0.208 A 
ATOM      3  C   UNL     1       3.066   1.122   2.427  1.00  0.00     0.238 A 
ATOM      4  O   UNL     1       1.832   1.376   2.471  1.00  0.00    -0.285 OA
ATOM      5  C   UNL     1       3.929   1.870   1.600  1.00  0.00     0.111 A 
ATOM      6  C   UNL     1       3.485   2.933   0.778  1.00  0.00     0.134 A 
ATOM      7  C   UNL     1       4.409   3.636  -0.010  1.00  0.00     0.093 A 
ATOM      8  C   UNL     1       5.764   3.299   0.010  1.00  0.00     0.123 A 
ATOM      9  C   UNL     1       6.208   2.249   0.820  1.00  0.00     0.094 A 
ATOM     10  C   UNL     1       5.304   1.535   1.611  1.00  0.00     0.146 A 
ATOM     11  O   UNL     1       5.752   0.541   2.367  1.00  0.00    -0.452 OA
ENDROOT
BRANCH   1  12
ATOM     12  C   UNL     1       5.587  -1.286   3.934  1.00  0.00     0.021 A 
ATOM     13  C   UNL     1       5.836  -1.146   5.312  1.00  0.00     0.016 A 
ATOM     14  C   UNL     1       6.401  -2.198   6.039  1.00  0.00     0.047 A 
ATOM     15  C   UNL     1       6.711  -3.405   5.405  1.00  0.00     0.115 A 
ATOM     16  C   UNL     1       5.881  -2.509   3.308  1.00  0.00     0.016 A 
ATOM     17  C   UNL     1       6.447  -3.559   4.037  1.00  0.00     0.047 A 
BRANCH  15  18
ATOM     18  O   UNL     1       7.274  -4.444   6.142  1.00  0.00    -0.508 OA
ATOM     19  H   UNL     1       7.665  -4.289   7.063  1.00  0.00     0.293 HD
ENDBRANCH  15  18
ENDBRANCH   1  12
BRANCH   2  20
ATOM     20  O   UNL     1       2.761  -0.639   4.080  1.00  0.00    -0.502 OA
ATOM     21  H   UNL     1       3.104  -1.413   4.637  1.00  0.00     0.293 HD
ENDBRANCH   2  20
BRANCH   6  22
ATOM     22  O   UNL     1       2.138   3.295   0.737  1.00  0.00    -0.507 OA
ATOM     23  H   UNL     1       1.496   3.047   1.482  1.00  0.00     0.293 HD
ENDBRANCH   6  22
BRANCH   8  24
ATOM     24  O   UNL     1       6.661   4.014  -0.782  1.00  0.00    -0.508 OA
ATOM     25  H   UNL     1       7.613   3.696  -0.923  1.00  0.00     0.293 HD
ENDBRANCH   8  24
TORSDOF 5
ENDMDL
MODEL 9
REMARK VINA RESULT:    -5.241      1.355      3.183
REMARK INTER + INTRA:          -6.451
REMARK INTER:                  -6.257
REMARK INTRA:                  -0.194
REMARK UNBOUND:                -0.291
REMARK SMILES O=c1c(O)c(-c2ccc(O)cc2)oc2cc(O)cc(O)c12
REMARK SMILES IDX 5 1 3 2 2 3 1 4 21 5 19 6 18 7 16 8 15 9 14 10 13 11 6 12
REMARK SMILES IDX 7 13 8 14 9 15 12 16 11 17 10 18 4 20 20 22 17 24
REMARK H PARENT 10 19 4 21 20 23 17 25
REMARK Flexibility Score: inf
ROOT
ATOM      1  C   UNL     1       8.354  -6.174   4.033  1.00  0.00     0.180 A 
ATOM      2  C   UNL     1       9.005  -5.467   3.003  1.00  0.00     0.208 A 
ATOM      3  C   UNL     1       8.526  -5.590   1.689  1.00  0.00     0.238 A 
ATOM      4  O   UNL     1       9.093  -4.953   0.760  1.00  0.00    -0.285 OA
ATOM      5  C   UNL     1       7.424  -6.428   1.424  1.00  0.00     0.111 A 
ATOM      6  C   UNL     1       6.883  -6.610   0.129  1.00  0.00     0.134 A 
ATOM      7  C   UNL     1       5.789  -7.470  -0.054  1.00  0.00     0.093 A 
ATOM      8  C   UNL     1       5.229  -8.150   1.029  1.00  0.00     0.123 A 
ATOM      9  C   UNL     1       5.759  -7.974   2.312  1.00  0.00     0.094 A 
ATOM     10  C   UNL     1       6.846  -7.120   2.515  1.00  0.00     0.146 A 
ATOM     11  O   UNL     1       7.327  -6.968   3.743  1.00  0.00    -0.452 OA
ENDROOT
BRANCH   1  12
ATOM     12  C   UNL     1       8.787  -6.081   5.446  1.00  0.00     0.021 A 
ATOM     13  C   UNL     1       9.459  -7.144   6.079  1.00  0.00     0.016 A 
ATOM     14  C   UNL     1       9.881  -7.023   7.407  1.00  0.00     0.047 A 
ATOM     15  C   UNL     1       9.650  -5.840   8.114  1.00  0.00     0.115 A 
ATOM     16  C   UNL     1       8.578  -4.887   6.156  1.00  0.00     0.016 A 
ATOM     17  C   UNL     1       8.999  -4.770   7.484  1.00  0.00     0.047 A 
BRANCH  15  18
ATOM     18  O   UNL     1      10.074  -5.734   9.436  1.00  0.00    -0.508 OA
ATOM     19  H   UNL     1       9.418  -5.772  10.207  1.00  0.00     0.293 HD
ENDBRANCH  15  18
ENDBRANCH   1  12
BRANCH   2  20
ATOM     20  O   UNL     1      10.125  -4.681   3.284  1.00  0.00    -0.502 OA
ATOM     21  H   UNL     1      10.748  -4.881   4.057  1.00  0.00     0.293 HD
ENDBRANCH   2  20
BRANCH   6  22
ATOM     22  O   UNL     1       7.421  -5.946  -0.974  1.00  0.00    -0.507 OA
ATOM     23  H   UNL     1       8.379  -6.095  -1.271  1.00  0.00     0.293 HD
ENDBRANCH   6  22
BRANCH   8  24
ATOM     24  O   UNL     1       4.144  -8.999   0.820  1.00  0.00    -0.508 OA
ATOM     25  H   UNL     1       3.682  -9.055  -0.081  1.00  0.00     0.293 HD
ENDBRANCH   8  24
TORSDOF 5
ENDMDL
