MODEL 1
REMARK VINA RESULT:    -3.112      0.000      0.000
REMARK INTER + INTRA:          -3.090
REMARK INTER:                  -3.840
REMARK INTRA:                   0.750
REMARK UNBOUND:                 0.750
REMARK SMILES CC1=CC=CC(C)(C)CC1=O
REMARK SMILES IDX 1 1 2 2 3 3 10 4 11 5 9 6 4 8 5 9 6 10 7 11 8 12
REMARK H PARENT
REMARK Flexibility Score: 80.00
ROOT
ATOM      1  C   UNL     1      19.482  33.668  29.370  1.00  0.00     0.048 C 
ATOM      2  C   UNL     1      18.417  32.598  29.368  1.00  0.00    -0.008 C 
ATOM      3  C   UNL     1      17.128  33.000  29.347  1.00  0.00     0.007 C 
ENDROOT
BRANCH   2   4
ATOM      4  C   UNL     1      18.874  31.189  29.467  1.00  0.00     0.159 C 
ATOM      5  O   UNL     1      20.084  30.960  29.742  1.00  0.00    -0.295 OA
BRANCH   4   6
ATOM      6  C   UNL     1      17.975  30.012  29.243  1.00  0.00     0.091 CG0
ATOM      7  G   UNL     1      16.764  29.979  30.201  1.00  0.00     0.000 G0
ENDBRANCH   4   6
ENDBRANCH   2   4
BRANCH   3   8
ATOM      8  C   UNL     1      15.881  32.197  29.366  1.00  0.00    -0.003 C 
ATOM      9  C   UNL     1      15.703  30.923  29.735  1.00  0.00    -0.020 C 
BRANCH   9  10
ATOM     10  C   UNL     1      16.773  29.967  30.208  1.00  0.00    -0.010 CG0
ATOM     11  C   UNL     1      16.196  28.534  30.166  1.00  0.00     0.016 C 
ATOM     12  C   UNL     1      17.155  30.285  31.671  1.00  0.00     0.016 C 
ATOM     13  G   UNL     1      17.984  30.026  29.250  1.00  0.00     0.000 G0
ENDBRANCH   9  10
ENDBRANCH   3   8
TORSDOF 0
ENDMDL
MODEL 2
REMARK VINA RESULT:    -3.042      1.719      3.429
REMARK INTER + INTRA:          -3.003
REMARK INTER:                  -3.758
REMARK INTRA:                   0.754
REMARK UNBOUND:                 0.750
REMARK SMILES CC1=CC=CC(C)(C)CC1=O
REMARK SMILES IDX 1 1 2 2 3 3 10 4 11 5 9 6 4 8 5 9 6 10 7 11 8 12
REMARK H PARENT
REMARK Flexibility Score: 80.00
ROOT
ATOM      1  C   UNL     1      14.766  29.814  29.562  1.00  0.00     0.048 C 
ATOM      2  C   UNL     1      15.974  30.646  29.919  1.00  0.00    -0.008 C 
ATOM      3  C   UNL     1      16.135  31.823  29.276  1.00  0.00     0.007 C 
ENDROOT
BRANCH   2   4
ATOM      4  C   UNL     1      16.930  30.066  30.895  1.00  0.00     0.159 C 
ATOM      5  O   UNL     1      16.810  28.851  31.215  1.00  0.00    -0.295 OA
BRANCH   4   6
ATOM      6  C   UNL     1      18.032  30.849  31.539  1.00  0.00     0.091 CG0
ATOM      7  G   UNL     1      19.041  31.429  30.523  1.00  0.00     0.000 G0
ENDBRANCH   4   6
ENDBRANCH   2   4
BRANCH   3   8
ATOM      8  C   UNL     1      17.218  32.829  29.391  1.00  0.00    -0.003 C 
ATOM      9  C   UNL     1      18.451  32.689  29.893  1.00  0.00    -0.020 C 
BRANCH   9  10
ATOM     10  C   UNL     1      19.034  31.436  30.505  1.00  0.00    -0.010 CG0
ATOM     11  C   UNL     1      20.325  31.823  31.262  1.00  0.00     0.016 C 
ATOM     12  C   UNL     1      19.416  30.434  29.393  1.00  0.00     0.016 C 
ATOM     13  G   UNL     1      18.037  30.843  31.526  1.00  0.00     0.000 G0
ENDBRANCH   9  10
ENDBRANCH   3   8
TORSDOF 0
ENDMDL
MODEL 3
REMARK VINA RESULT:    -3.004      2.050      3.635
REMARK INTER + INTRA:          -2.957
REMARK INTER:                  -3.702
REMARK INTRA:                   0.746
REMARK UNBOUND:                 0.750
REMARK SMILES CC1=CC=CC(C)(C)CC1=O
REMARK SMILES IDX 1 1 2 2 3 3 10 4 11 5 9 6 4 8 5 9 6 10 7 11 8 12
REMARK H PARENT
REMARK Flexibility Score: 80.00
ROOT
ATOM      1  C   UNL     1      16.074  32.358  29.002  1.00  0.00     0.048 C 
ATOM      2  C   UNL     1      17.467  32.412  29.584  1.00  0.00    -0.008 C 
ATOM      3  C   UNL     1      18.296  33.377  29.131  1.00  0.00     0.007 C 
ENDROOT
BRANCH   2   4
ATOM      4  C   UNL     1      17.838  31.348  30.551  1.00  0.00     0.159 C 
ATOM      5  O   UNL     1      17.064  30.361  30.696  1.00  0.00    -0.295 OA
BRANCH   4   6
ATOM      6  C   UNL     1      19.082  31.386  31.383  1.00  0.00     0.091 CG0
ATOM      7  G   UNL     1      20.377  31.442  30.542  1.00  0.00     0.000 G0
ENDBRANCH   4   6
ENDBRANCH   2   4
BRANCH   3   8
ATOM      8  C   UNL     1      19.707  33.663  29.486  1.00  0.00    -0.003 C 
ATOM      9  C   UNL     1      20.608  32.863  30.071  1.00  0.00    -0.020 C 
BRANCH   9  10
ATOM     10  C   UNL     1      20.380  31.447  30.543  1.00  0.00    -0.010 CG0
ATOM     11  C   UNL     1      21.552  31.051  31.470  1.00  0.00     0.016 C 
ATOM     12  C   UNL     1      20.379  30.481  29.337  1.00  0.00     0.016 C 
ATOM     13  G   UNL     1      19.073  31.377  31.364  1.00  0.00     0.000 G0
ENDBRANCH   9  10
ENDBRANCH   3   8
TORSDOF 0
ENDMDL
MODEL 4
REMARK VINA RESULT:    -2.960      2.233      3.810
REMARK INTER + INTRA:          -2.903
REMARK INTER:                  -3.656
REMARK INTRA:                   0.753
REMARK UNBOUND:                 0.750
REMARK SMILES CC1=CC=CC(C)(C)CC1=O
REMARK SMILES IDX 1 1 2 2 3 3 10 4 11 5 9 6 4 8 5 9 6 10 7 11 8 12
REMARK H PARENT
REMARK Flexibility Score: 80.00
ROOT
ATOM      1  C   UNL     1      15.032  30.321  29.676  1.00  0.00     0.048 C 
ATOM      2  C   UNL     1      16.058  31.382  29.996  1.00  0.00    -0.008 C 
ATOM      3  C   UNL     1      16.487  32.163  28.982  1.00  0.00     0.007 C 
ENDROOT
BRANCH   2   4
ATOM      4  C   UNL     1      16.570  31.429  31.389  1.00  0.00     0.159 C 
ATOM      5  O   UNL     1      16.280  30.485  32.175  1.00  0.00    -0.295 OA
BRANCH   4   6
ATOM      6  C   UNL     1      17.408  32.548  31.924  1.00  0.00     0.091 CG0
ATOM      7  G   UNL     1      18.727  32.748  31.145  1.00  0.00     0.000 G0
ENDBRANCH   4   6
ENDBRANCH   2   4
BRANCH   3   8
ATOM      8  C   UNL     1      17.491  33.254  28.980  1.00  0.00    -0.003 C 
ATOM      9  C   UNL     1      18.453  33.517  29.874  1.00  0.00    -0.020 C 
BRANCH   9  10
ATOM     10  C   UNL     1      18.729  32.752  31.147  1.00  0.00    -0.010 CG0
ATOM     11  C   UNL     1      19.668  33.605  32.030  1.00  0.00     0.016 C 
ATOM     12  C   UNL     1      19.454  31.427  30.821  1.00  0.00     0.016 C 
ATOM     13  G   UNL     1      17.409  32.535  31.920  1.00  0.00     0.000 G0
ENDBRANCH   9  10
ENDBRANCH   3   8
TORSDOF 0
ENDMDL
MODEL 5
REMARK VINA RESULT:    -2.950      4.425      5.667
REMARK INTER + INTRA:          -2.890
REMARK INTER:                  -3.650
REMARK INTRA:                   0.759
REMARK UNBOUND:                 0.750
REMARK SMILES CC1=CC=CC(C)(C)CC1=O
REMARK SMILES IDX 1 1 2 2 3 3 10 4 11 5 9 6 4 8 5 9 6 10 7 11 8 12
REMARK H PARENT
REMARK Flexibility Score: 80.00
ROOT
ATOM      1  C   UNL     1      24.828  28.067  27.963  1.00  0.00     0.048 C 
ATOM      2  C   UNL     1      23.492  27.963  28.661  1.00  0.00    -0.008 C 
ATOM      3  C   UNL     1      22.606  27.064  28.183  1.00  0.00     0.007 C 
ENDROOT
BRANCH   2   4
ATOM      4  C   UNL     1      23.233  28.916  29.769  1.00  0.00     0.159 C 
ATOM      5  O   UNL     1      24.026  29.883  29.938  1.00  0.00    -0.295 OA
BRANCH   4   6
ATOM      6  C   UNL     1      22.080  28.787  30.717  1.00  0.00     0.091 CG0
ATOM      7  G   UNL     1      20.705  28.835  30.014  1.00  0.00     0.000 G0
ENDBRANCH   4   6
ENDBRANCH   2   4
BRANCH   3   8
ATOM      8  C   UNL     1      21.227  26.756  28.632  1.00  0.00    -0.003 C 
ATOM      9  C   UNL     1      20.403  27.489  29.393  1.00  0.00    -0.020 C 
BRANCH   9  10
ATOM     10  C   UNL     1      20.710  28.832  30.011  1.00  0.00    -0.010 CG0
ATOM     11  C   UNL     1      19.633  29.131  31.078  1.00  0.00     0.016 C 
ATOM     12  C   UNL     1      20.634  29.938  28.934  1.00  0.00     0.016 C 
ATOM     13  G   UNL     1      22.084  28.779  30.715  1.00  0.00     0.000 G0
ENDBRANCH   9  10
ENDBRANCH   3   8
TORSDOF 0
ENDMDL
MODEL 6
REMARK VINA RESULT:    -2.922      1.621      2.317
REMARK INTER + INTRA:          -2.856
REMARK INTER:                  -3.607
REMARK INTRA:                   0.751
REMARK UNBOUND:                 0.750
REMARK SMILES CC1=CC=CC(C)(C)CC1=O
REMARK SMILES IDX 1 1 2 2 3 3 10 4 11 5 9 6 4 8 5 9 6 10 7 11 8 12
REMARK H PARENT
REMARK Flexibility Score: 80.00
ROOT
ATOM      1  C   UNL     1      19.996  30.480  29.371  1.00  0.00     0.048 C 
ATOM      2  C   UNL     1      18.557  30.823  29.675  1.00  0.00    -0.008 C 
ATOM      3  C   UNL     1      18.004  31.853  29.000  1.00  0.00     0.007 C 
ENDROOT
BRANCH   2   4
ATOM      4  C   UNL     1      17.890  30.045  30.749  1.00  0.00     0.159 C 
ATOM      5  O   UNL     1      18.588  29.278  31.468  1.00  0.00    -0.295 OA
BRANCH   4   6
ATOM      6  C   UNL     1      16.419  30.110  31.023  1.00  0.00     0.091 CG0
ATOM      7  G   UNL     1      15.925  31.533  31.365  1.00  0.00     0.000 G0
ENDBRANCH   4   6
ENDBRANCH   2   4
BRANCH   3   8
ATOM      8  C   UNL     1      16.643  32.433  29.098  1.00  0.00    -0.003 C 
ATOM      9  C   UNL     1      15.747  32.321  30.087  1.00  0.00    -0.020 C 
BRANCH   9  10
ATOM     10  C   UNL     1      15.912  31.529  31.362  1.00  0.00    -0.010 CG0
ATOM     11  C   UNL     1      14.524  31.388  32.027  1.00  0.00     0.016 C 
ATOM     12  C   UNL     1      16.835  32.289  32.341  1.00  0.00     0.016 C 
ATOM     13  G   UNL     1      16.433  30.112  31.031  1.00  0.00     0.000 G0
ENDBRANCH   9  10
ENDBRANCH   3   8
TORSDOF 0
ENDMDL
MODEL 7
REMARK VINA RESULT:    -2.892      3.128      4.905
REMARK INTER + INTRA:          -2.819
REMARK INTER:                  -3.573
REMARK INTRA:                   0.754
REMARK UNBOUND:                 0.750
REMARK SMILES CC1=CC=CC(C)(C)CC1=O
REMARK SMILES IDX 1 1 2 2 3 3 10 4 11 5 9 6 4 8 5 9 6 10 7 11 8 12
REMARK H PARENT
REMARK Flexibility Score: 80.00
ROOT
ATOM      1  C   UNL     1      19.567  25.320  27.848  1.00  0.00     0.048 C 
ATOM      2  C   UNL     1      19.823  26.733  28.315  1.00  0.00    -0.008 C 
ATOM      3  C   UNL     1      20.969  26.970  28.988  1.00  0.00     0.007 C 
ENDROOT
BRANCH   2   4
ATOM      4  C   UNL     1      18.755  27.732  28.062  1.00  0.00     0.159 C 
ATOM      5  O   UNL     1      17.630  27.330  27.656  1.00  0.00    -0.295 OA
BRANCH   4   6
ATOM      6  C   UNL     1      18.942  29.206  28.250  1.00  0.00     0.091 CG0
ATOM      7  G   UNL     1      19.326  29.592  29.696  1.00  0.00     0.000 G0
ENDBRANCH   4   6
ENDBRANCH   2   4
BRANCH   3   8
ATOM      8  C   UNL     1      21.478  28.228  29.586  1.00  0.00    -0.003 C 
ATOM      9  C   UNL     1      20.809  29.344  29.902  1.00  0.00    -0.020 C 
BRANCH   9  10
ATOM     10  C   UNL     1      19.334  29.596  29.690  1.00  0.00    -0.010 CG0
ATOM     11  C   UNL     1      19.075  31.111  29.855  1.00  0.00     0.016 C 
ATOM     12  C   UNL     1      18.512  28.852  30.766  1.00  0.00     0.016 C 
ATOM     13  G   UNL     1      18.938  29.194  28.252  1.00  0.00     0.000 G0
ENDBRANCH   9  10
ENDBRANCH   3   8
TORSDOF 0
ENDMDL
MODEL 8
REMARK VINA RESULT:    -2.889      1.890      3.854
REMARK INTER + INTRA:          -2.814
REMARK INTER:                  -3.574
REMARK INTRA:                   0.760
REMARK UNBOUND:                 0.750
REMARK SMILES CC1=CC=CC(C)(C)CC1=O
REMARK SMILES IDX 1 1 2 2 3 3 10 4 11 5 9 6 4 8 5 9 6 10 7 11 8 12
REMARK H PARENT
REMARK Flexibility Score: 80.00
ROOT
ATOM      1  C   UNL     1      15.235  29.082  29.767  1.00  0.00     0.048 C 
ATOM      2  C   UNL     1      16.524  29.845  29.574  1.00  0.00    -0.008 C 
ATOM      3  C   UNL     1      17.653  29.127  29.390  1.00  0.00     0.007 C 
ENDROOT
BRANCH   2   4
ATOM      4  C   UNL     1      16.457  31.324  29.678  1.00  0.00     0.159 C 
ATOM      5  O   UNL     1      15.404  31.855  30.129  1.00  0.00    -0.295 OA
BRANCH   4   6
ATOM      6  C   UNL     1      17.573  32.233  29.264  1.00  0.00     0.091 CG0
ATOM      7  G   UNL     1      18.886  31.978  30.037  1.00  0.00     0.000 G0
ENDBRANCH   4   6
ENDBRANCH   2   4
BRANCH   3   8
ATOM      8  C   UNL     1      19.051  29.584  29.202  1.00  0.00    -0.003 C 
ATOM      9  C   UNL     1      19.594  30.776  29.480  1.00  0.00    -0.020 C 
BRANCH   9  10
ATOM     10  C   UNL     1      18.876  31.980  30.043  1.00  0.00    -0.010 CG0
ATOM     11  C   UNL     1      19.784  33.216  29.855  1.00  0.00     0.016 C 
ATOM     12  C   UNL     1      18.636  31.790  31.558  1.00  0.00     0.016 C 
ATOM     13  G   UNL     1      17.567  32.220  29.258  1.00  0.00     0.000 G0
ENDBRANCH   9  10
ENDBRANCH   3   8
TORSDOF 0
ENDMDL
MODEL 9
REMARK VINA RESULT:    -2.786      2.294      3.891
REMARK INTER + INTRA:          -2.688
REMARK INTER:                  -3.444
REMARK INTRA:                   0.756
REMARK UNBOUND:                 0.750
REMARK SMILES CC1=CC=CC(C)(C)CC1=O
REMARK SMILES IDX 1 1 2 2 3 3 10 4 11 5 9 6 4 8 5 9 6 10 7 11 8 12
REMARK H PARENT
REMARK Flexibility Score: 80.00
ROOT
ATOM      1  C   UNL     1      17.946  26.283  28.059  1.00  0.00     0.048 C 
ATOM      2  C   UNL     1      17.789  27.696  28.570  1.00  0.00    -0.008 C 
ATOM      3  C   UNL     1      18.792  28.565  28.321  1.00  0.00     0.007 C 
ENDROOT
BRANCH   2   4
ATOM      4  C   UNL     1      16.578  27.993  29.374  1.00  0.00     0.159 C 
ATOM      5  O   UNL     1      15.849  27.035  29.754  1.00  0.00    -0.295 OA
BRANCH   4   6
ATOM      6  C   UNL     1      16.157  29.380  29.753  1.00  0.00     0.091 CG0
ATOM      7  G   UNL     1      17.221  30.134  30.582  1.00  0.00     0.000 G0
ENDBRANCH   4   6
ENDBRANCH   2   4
BRANCH   3   8
ATOM      8  C   UNL     1      18.936  29.988  28.711  1.00  0.00    -0.003 C 
ATOM      9  C   UNL     1      18.295  30.669  29.669  1.00  0.00    -0.020 C 
BRANCH   9  10
ATOM     10  C   UNL     1      17.221  30.134  30.586  1.00  0.00    -0.010 CG0
ATOM     11  C   UNL     1      16.525  31.333  31.268  1.00  0.00     0.016 C 
ATOM     12  C   UNL     1      17.858  29.261  31.691  1.00  0.00     0.016 C 
ATOM     13  G   UNL     1      16.163  29.370  29.759  1.00  0.00     0.000 G0
ENDBRANCH   9  10
ENDBRANCH   3   8
TORSDOF 0
ENDMDL
