MODEL 1
REMARK VINA RESULT:    -4.575      0.000      0.000
REMARK INTER + INTRA:          -8.912
REMARK INTER:                  -6.982
REMARK INTRA:                  -1.930
REMARK UNBOUND:                -1.930
REMARK SMILES CC(=O)CCC=C(C)CCC=C(C)CCC=C(C)C
REMARK SMILES IDX 10 1 11 2 12 3 13 4 14 5 15 6 16 7 18 8 17 9 19 10 9 11 7 12
REMARK SMILES IDX 6 13 8 14 5 15 4 16 2 17 3 18 1 19
REMARK H PARENT
REMARK Flexibility Score: inf
ROOT
ATOM      1  C   UNL     1      28.519 -32.346  -9.380  1.00  0.00     0.032 C 
ENDROOT
BRANCH   1   2
ATOM      2  C   UNL     1      29.018 -33.293 -10.441  1.00  0.00    -0.028 C 
ATOM      3  C   UNL     1      28.290 -34.302 -10.975  1.00  0.00    -0.077 C 
ATOM      4  C   UNL     1      26.887 -34.611 -10.514  1.00  0.00     0.039 C 
BRANCH   3   5
ATOM      5  C   UNL     1      28.923 -35.196 -12.021  1.00  0.00     0.034 C 
BRANCH   5   6
ATOM      6  C   UNL     1      30.042 -34.473 -12.785  1.00  0.00     0.032 C 
BRANCH   6   7
ATOM      7  C   UNL     1      29.496 -33.581 -13.875  1.00  0.00    -0.028 C 
ATOM      8  C   UNL     1      29.744 -35.320 -15.660  1.00  0.00     0.039 C 
ATOM      9  C   UNL     1      29.328 -33.956 -15.162  1.00  0.00    -0.080 C 
ATOM     10  C   UNL     1      28.723 -32.967 -16.124  1.00  0.00     0.039 C 
ENDBRANCH   6   7
ENDBRANCH   5   6
ENDBRANCH   3   5
ENDBRANCH   1   2
BRANCH   1  11
ATOM     11  C   UNL     1      28.166 -30.980  -9.979  1.00  0.00     0.034 C 
BRANCH  11  12
ATOM     12  C   UNL     1      26.718 -30.949 -10.428  1.00  0.00    -0.077 C 
ATOM     13  C   UNL     1      26.350 -30.943 -11.730  1.00  0.00    -0.028 C 
ATOM     14  C   UNL     1      25.634 -30.980  -9.382  1.00  0.00     0.039 C 
BRANCH  13  15
ATOM     15  C   UNL     1      27.306 -30.896 -12.897  1.00  0.00     0.035 C 
BRANCH  15  16
ATOM     16  C   UNL     1      26.750 -30.019 -14.024  1.00  0.00     0.079 C 
BRANCH  16  17
ATOM     17  C   UNL     1      27.856 -29.262 -14.705  1.00  0.00     0.130 C 
ATOM     18  O   UNL     1      29.011 -29.407 -14.332  1.00  0.00    -0.300 OA
ATOM     19  C   UNL     1      27.550 -28.311 -15.822  1.00  0.00     0.087 C 
ENDBRANCH  16  17
ENDBRANCH  15  16
ENDBRANCH  13  15
ENDBRANCH  11  12
ENDBRANCH   1  11
TORSDOF 9
ENDMDL
MODEL 2
REMARK VINA RESULT:    -4.559     16.082     18.788
REMARK INTER + INTRA:          -8.888
REMARK INTER:                  -7.641
REMARK INTRA:                  -1.247
REMARK UNBOUND:                -1.930
REMARK SMILES CC(=O)CCC=C(C)CCC=C(C)CCC=C(C)C
REMARK SMILES IDX 10 1 11 2 12 3 13 4 14 5 15 6 16 7 18 8 17 9 19 10 9 11 7 12
REMARK SMILES IDX 6 13 8 14 5 15 4 16 2 17 3 18 1 19
REMARK H PARENT
REMARK Flexibility Score: inf
ROOT
ATOM      1  C   UNL     1      14.700 -42.845  -7.838  1.00  0.00     0.032 C 
ENDROOT
BRANCH   1   2
ATOM      2  C   UNL     1      13.218 -43.027  -8.048  1.00  0.00    -0.028 C 
ATOM      3  C   UNL     1      12.259 -42.503  -7.250  1.00  0.00    -0.077 C 
ATOM      4  C   UNL     1      12.591 -41.702  -6.013  1.00  0.00     0.039 C 
BRANCH   3   5
ATOM      5  C   UNL     1      10.803 -42.783  -7.563  1.00  0.00     0.034 C 
BRANCH   5   6
ATOM      6  C   UNL     1      10.304 -41.942  -8.746  1.00  0.00     0.032 C 
BRANCH   6   7
ATOM      7  C   UNL     1      10.604 -40.474  -8.561  1.00  0.00    -0.028 C 
ATOM      8  C   UNL     1      12.090 -40.347 -10.573  1.00  0.00     0.039 C 
ATOM      9  C   UNL     1      11.377 -39.738  -9.389  1.00  0.00    -0.080 C 
ATOM     10  C   UNL     1      11.542 -38.268  -9.099  1.00  0.00     0.039 C 
ENDBRANCH   6   7
ENDBRANCH   5   6
ENDBRANCH   3   5
ENDBRANCH   1   2
BRANCH   1  11
ATOM     11  C   UNL     1      15.495 -43.980  -8.492  1.00  0.00     0.034 C 
BRANCH  11  12
ATOM     12  C   UNL     1      16.149 -44.854  -7.439  1.00  0.00    -0.077 C 
ATOM     13  C   UNL     1      17.105 -45.767  -7.729  1.00  0.00    -0.028 C 
ATOM     14  C   UNL     1      15.759 -44.665  -5.997  1.00  0.00     0.039 C 
BRANCH  13  15
ATOM     15  C   UNL     1      17.596 -46.089  -9.119  1.00  0.00     0.035 C 
BRANCH  15  16
ATOM     16  C   UNL     1      19.128 -46.108  -9.166  1.00  0.00     0.079 C 
BRANCH  16  17
ATOM     17  C   UNL     1      19.626 -45.609 -10.495  1.00  0.00     0.130 C 
ATOM     18  O   UNL     1      20.764 -45.871 -10.854  1.00  0.00    -0.300 OA
ATOM     19  C   UNL     1      18.744 -44.771 -11.370  1.00  0.00     0.087 C 
ENDBRANCH  16  17
ENDBRANCH  15  16
ENDBRANCH  13  15
ENDBRANCH  11  12
ENDBRANCH   1  11
TORSDOF 9
ENDMDL
MODEL 3
REMARK VINA RESULT:    -4.503     16.191     18.542
REMARK INTER + INTRA:          -8.802
REMARK INTER:                  -6.942
REMARK INTRA:                  -1.860
REMARK UNBOUND:                -1.930
REMARK SMILES CC(=O)CCC=C(C)CCC=C(C)CCC=C(C)C
REMARK SMILES IDX 10 1 11 2 12 3 13 4 14 5 15 6 16 7 18 8 17 9 19 10 9 11 7 12
REMARK SMILES IDX 6 13 8 14 5 15 4 16 2 17 3 18 1 19
REMARK H PARENT
REMARK Flexibility Score: inf
ROOT
ATOM      1  C   UNL     1      10.259 -42.621  -7.570  1.00  0.00     0.032 C 
ENDROOT
BRANCH   1   2
ATOM      2  C   UNL     1      11.504 -43.400  -7.915  1.00  0.00    -0.028 C 
ATOM      3  C   UNL     1      12.722 -43.186  -7.363  1.00  0.00    -0.077 C 
ATOM      4  C   UNL     1      12.966 -42.088  -6.356  1.00  0.00     0.039 C 
BRANCH   3   5
ATOM      5  C   UNL     1      13.896 -44.028  -7.818  1.00  0.00     0.034 C 
BRANCH   5   6
ATOM      6  C   UNL     1      14.635 -44.662  -6.631  1.00  0.00     0.032 C 
BRANCH   6   7
ATOM      7  C   UNL     1      15.942 -45.292  -7.051  1.00  0.00    -0.028 C 
ATOM      8  C   UNL     1      17.285 -43.231  -6.585  1.00  0.00     0.039 C 
ATOM      9  C   UNL     1      17.142 -44.674  -7.007  1.00  0.00    -0.080 C 
ATOM     10  C   UNL     1      18.366 -45.454  -7.412  1.00  0.00     0.039 C 
ENDBRANCH   6   7
ENDBRANCH   5   6
ENDBRANCH   3   5
ENDBRANCH   1   2
BRANCH   1  11
ATOM     11  C   UNL     1       9.901 -41.630  -8.682  1.00  0.00     0.034 C 
BRANCH  11  12
ATOM     12  C   UNL     1      10.495 -40.264  -8.396  1.00  0.00    -0.077 C 
ATOM     13  C   UNL     1      11.463 -39.707  -9.160  1.00  0.00    -0.028 C 
ATOM     14  C   UNL     1       9.947 -39.464  -7.243  1.00  0.00     0.039 C 
BRANCH  13  15
ATOM     15  C   UNL     1      12.127 -40.378 -10.337  1.00  0.00     0.035 C 
BRANCH  15  16
ATOM     16  C   UNL     1      13.356 -39.587 -10.795  1.00  0.00     0.079 C 
BRANCH  16  17
ATOM     17  C   UNL     1      14.601 -40.423 -10.680  1.00  0.00     0.130 C 
ATOM     18  O   UNL     1      15.204 -40.757 -11.689  1.00  0.00    -0.300 OA
ATOM     19  C   UNL     1      15.094 -40.869  -9.337  1.00  0.00     0.087 C 
ENDBRANCH  16  17
ENDBRANCH  15  16
ENDBRANCH  13  15
ENDBRANCH  11  12
ENDBRANCH   1  11
TORSDOF 9
ENDMDL
MODEL 4
REMARK VINA RESULT:    -4.432     15.954     18.111
REMARK INTER + INTRA:          -8.694
REMARK INTER:                  -7.146
REMARK INTRA:                  -1.548
REMARK UNBOUND:                -1.930
REMARK SMILES CC(=O)CCC=C(C)CCC=C(C)CCC=C(C)C
REMARK SMILES IDX 10 1 11 2 12 3 13 4 14 5 15 6 16 7 18 8 17 9 19 10 9 11 7 12
REMARK SMILES IDX 6 13 8 14 5 15 4 16 2 17 3 18 1 19
REMARK H PARENT
REMARK Flexibility Score: inf
ROOT
ATOM      1  C   UNL     1      14.131 -42.372  -7.182  1.00  0.00     0.032 C 
ENDROOT
BRANCH   1   2
ATOM      2  C   UNL     1      13.277 -41.706  -8.231  1.00  0.00    -0.028 C 
ATOM      3  C   UNL     1      12.006 -42.065  -8.528  1.00  0.00    -0.077 C 
ATOM      4  C   UNL     1      11.320 -43.227  -7.852  1.00  0.00     0.039 C 
BRANCH   3   5
ATOM      5  C   UNL     1      11.267 -41.324  -9.624  1.00  0.00     0.034 C 
BRANCH   5   6
ATOM      6  C   UNL     1      12.098 -40.162 -10.185  1.00  0.00     0.032 C 
BRANCH   6   7
ATOM      7  C   UNL     1      12.169 -40.195 -11.693  1.00  0.00    -0.028 C 
ATOM      8  C   UNL     1      14.668 -40.346 -11.744  1.00  0.00     0.039 C 
ATOM      9  C   UNL     1      13.311 -40.308 -12.406  1.00  0.00    -0.080 C 
ATOM     10  C   UNL     1      13.215 -40.378 -13.908  1.00  0.00     0.039 C 
ENDBRANCH   6   7
ENDBRANCH   5   6
ENDBRANCH   3   5
ENDBRANCH   1   2
BRANCH   1  11
ATOM     11  C   UNL     1      15.344 -43.064  -7.814  1.00  0.00     0.034 C 
BRANCH  11  12
ATOM     12  C   UNL     1      15.480 -44.484  -7.300  1.00  0.00    -0.077 C 
ATOM     13  C   UNL     1      16.562 -45.257  -7.550  1.00  0.00    -0.028 C 
ATOM     14  C   UNL     1      14.390 -45.046  -6.425  1.00  0.00     0.039 C 
BRANCH  13  15
ATOM     15  C   UNL     1      17.730 -44.853  -8.415  1.00  0.00     0.035 C 
BRANCH  15  16
ATOM     16  C   UNL     1      17.723 -45.626  -9.738  1.00  0.00     0.079 C 
BRANCH  16  17
ATOM     17  C   UNL     1      17.889 -44.690 -10.904  1.00  0.00     0.130 C 
ATOM     18  O   UNL     1      18.738 -44.920 -11.752  1.00  0.00    -0.300 OA
ATOM     19  C   UNL     1      17.037 -43.463 -11.019  1.00  0.00     0.087 C 
ENDBRANCH  16  17
ENDBRANCH  15  16
ENDBRANCH  13  15
ENDBRANCH  11  12
ENDBRANCH   1  11
TORSDOF 9
ENDMDL
MODEL 5
REMARK VINA RESULT:    -4.386     10.945     13.904
REMARK INTER + INTRA:          -8.624
REMARK INTER:                  -5.905
REMARK INTRA:                  -2.719
REMARK UNBOUND:                -1.930
REMARK SMILES CC(=O)CCC=C(C)CCC=C(C)CCC=C(C)C
REMARK SMILES IDX 10 1 11 2 12 3 13 4 14 5 15 6 16 7 18 8 17 9 19 10 9 11 7 12
REMARK SMILES IDX 6 13 8 14 5 15 4 16 2 17 3 18 1 19
REMARK H PARENT
REMARK Flexibility Score: inf
ROOT
ATOM      1  C   UNL     1      29.041 -41.698 -21.081  1.00  0.00     0.032 C 
ENDROOT
BRANCH   1   2
ATOM      2  C   UNL     1      28.906 -41.604 -19.582  1.00  0.00    -0.028 C 
ATOM      3  C   UNL     1      27.848 -41.057 -18.939  1.00  0.00    -0.077 C 
ATOM      4  C   UNL     1      26.692 -40.431 -19.681  1.00  0.00     0.039 C 
BRANCH   3   5
ATOM      5  C   UNL     1      27.851 -41.006 -17.425  1.00  0.00     0.034 C 
BRANCH   5   6
ATOM      6  C   UNL     1      28.700 -42.132 -16.819  1.00  0.00     0.032 C 
BRANCH   6   7
ATOM      7  C   UNL     1      27.874 -43.358 -16.509  1.00  0.00    -0.028 C 
ATOM      8  C   UNL     1      29.179 -44.839 -18.050  1.00  0.00     0.039 C 
ATOM      9  C   UNL     1      28.096 -44.585 -17.028  1.00  0.00    -0.080 C 
ATOM     10  C   UNL     1      27.215 -45.723 -16.582  1.00  0.00     0.039 C 
ENDBRANCH   6   7
ENDBRANCH   5   6
ENDBRANCH   3   5
ENDBRANCH   1   2
BRANCH   1  11
ATOM     11  C   UNL     1      28.804 -43.132 -21.568  1.00  0.00     0.034 C 
BRANCH  11  12
ATOM     12  C   UNL     1      27.462 -43.249 -22.264  1.00  0.00    -0.077 C 
ATOM     13  C   UNL     1      26.376 -43.806 -21.681  1.00  0.00    -0.028 C 
ATOM     14  C   UNL     1      27.311 -42.670 -23.647  1.00  0.00     0.039 C 
BRANCH  13  15
ATOM     15  C   UNL     1      26.362 -44.443 -20.313  1.00  0.00     0.035 C 
BRANCH  15  16
ATOM     16  C   UNL     1      25.306 -43.788 -19.416  1.00  0.00     0.079 C 
BRANCH  16  17
ATOM     17  C   UNL     1      23.964 -43.776 -20.095  1.00  0.00     0.130 C 
ATOM     18  O   UNL     1      23.391 -44.829 -20.327  1.00  0.00    -0.300 OA
ATOM     19  C   UNL     1      23.336 -42.480 -20.511  1.00  0.00     0.087 C 
ENDBRANCH  16  17
ENDBRANCH  15  16
ENDBRANCH  13  15
ENDBRANCH  11  12
ENDBRANCH   1  11
TORSDOF 9
ENDMDL
MODEL 6
REMARK VINA RESULT:    -4.297     15.198     18.072
REMARK INTER + INTRA:          -8.487
REMARK INTER:                  -7.034
REMARK INTRA:                  -1.453
REMARK UNBOUND:                -1.930
REMARK SMILES CC(=O)CCC=C(C)CCC=C(C)CCC=C(C)C
REMARK SMILES IDX 10 1 11 2 12 3 13 4 14 5 15 6 16 7 18 8 17 9 19 10 9 11 7 12
REMARK SMILES IDX 6 13 8 14 5 15 4 16 2 17 3 18 1 19
REMARK H PARENT
REMARK Flexibility Score: inf
ROOT
ATOM      1  C   UNL     1      17.147 -44.420  -7.267  1.00  0.00     0.032 C 
ENDROOT
BRANCH   1   2
ATOM      2  C   UNL     1      15.720 -44.325  -7.748  1.00  0.00    -0.028 C 
ATOM      3  C   UNL     1      14.640 -44.239  -6.937  1.00  0.00    -0.077 C 
ATOM      4  C   UNL     1      14.760 -44.279  -5.432  1.00  0.00     0.039 C 
BRANCH   3   5
ATOM      5  C   UNL     1      13.258 -44.172  -7.553  1.00  0.00     0.034 C 
BRANCH   5   6
ATOM      6  C   UNL     1      12.569 -42.832  -7.259  1.00  0.00     0.032 C 
BRANCH   6   7
ATOM      7  C   UNL     1      12.635 -41.892  -8.439  1.00  0.00    -0.028 C 
ATOM      8  C   UNL     1      10.148 -41.797  -8.722  1.00  0.00     0.039 C 
ATOM      9  C   UNL     1      11.558 -41.395  -9.086  1.00  0.00    -0.080 C 
ATOM     10  C   UNL     1      11.785 -40.425 -10.216  1.00  0.00     0.039 C 
ENDBRANCH   6   7
ENDBRANCH   5   6
ENDBRANCH   3   5
ENDBRANCH   1   2
BRANCH   1  11
ATOM     11  C   UNL     1      17.798 -45.729  -7.725  1.00  0.00     0.034 C 
BRANCH  11  12
ATOM     12  C   UNL     1      19.299 -45.563  -7.863  1.00  0.00    -0.077 C 
ATOM     13  C   UNL     1      19.930 -45.535  -9.060  1.00  0.00    -0.028 C 
ATOM     14  C   UNL     1      20.123 -45.364  -6.618  1.00  0.00     0.039 C 
BRANCH  13  15
ATOM     15  C   UNL     1      19.256 -45.733 -10.395  1.00  0.00     0.035 C 
BRANCH  15  16
ATOM     16  C   UNL     1      19.277 -44.439 -11.215  1.00  0.00     0.079 C 
BRANCH  16  17
ATOM     17  C   UNL     1      18.166 -43.519 -10.787  1.00  0.00     0.130 C 
ATOM     18  O   UNL     1      17.004 -43.827 -11.004  1.00  0.00    -0.300 OA
ATOM     19  C   UNL     1      18.477 -42.215 -10.117  1.00  0.00     0.087 C 
ENDBRANCH  16  17
ENDBRANCH  15  16
ENDBRANCH  13  15
ENDBRANCH  11  12
ENDBRANCH   1  11
TORSDOF 9
ENDMDL
MODEL 7
REMARK VINA RESULT:    -4.289     15.433     17.849
REMARK INTER + INTRA:          -8.475
REMARK INTER:                  -7.042
REMARK INTRA:                  -1.434
REMARK UNBOUND:                -1.930
REMARK SMILES CC(=O)CCC=C(C)CCC=C(C)CCC=C(C)C
REMARK SMILES IDX 10 1 11 2 12 3 13 4 14 5 15 6 16 7 18 8 17 9 19 10 9 11 7 12
REMARK SMILES IDX 6 13 8 14 5 15 4 16 2 17 3 18 1 19
REMARK H PARENT
REMARK Flexibility Score: inf
ROOT
ATOM      1  C   UNL     1      16.454 -45.365  -7.099  1.00  0.00     0.032 C 
ENDROOT
BRANCH   1   2
ATOM      2  C   UNL     1      17.394 -45.768  -8.208  1.00  0.00    -0.028 C 
ATOM      3  C   UNL     1      18.743 -45.684  -8.140  1.00  0.00    -0.077 C 
ATOM      4  C   UNL     1      19.453 -45.120  -6.933  1.00  0.00     0.039 C 
BRANCH   3   5
ATOM      5  C   UNL     1      19.570 -46.102  -9.338  1.00  0.00     0.034 C 
BRANCH   5   6
ATOM      6  C   UNL     1      19.110 -45.394 -10.621  1.00  0.00     0.032 C 
BRANCH   6   7
ATOM      7  C   UNL     1      19.374 -43.908 -10.572  1.00  0.00    -0.028 C 
ATOM      8  C   UNL     1      16.981 -43.296 -10.987  1.00  0.00     0.039 C 
ATOM      9  C   UNL     1      18.425 -42.955 -10.703  1.00  0.00    -0.080 C 
ATOM     10  C   UNL     1      18.837 -41.511 -10.580  1.00  0.00     0.039 C 
ENDBRANCH   6   7
ENDBRANCH   5   6
ENDBRANCH   3   5
ENDBRANCH   1   2
BRANCH   1  11
ATOM     11  C   UNL     1      15.733 -44.055  -7.434  1.00  0.00     0.034 C 
BRANCH  11  12
ATOM     12  C   UNL     1      14.804 -43.649  -6.306  1.00  0.00    -0.077 C 
ATOM     13  C   UNL     1      13.557 -43.167  -6.516  1.00  0.00    -0.028 C 
ATOM     14  C   UNL     1      15.264 -43.842  -4.885  1.00  0.00     0.039 C 
BRANCH  13  15
ATOM     15  C   UNL     1      12.952 -42.901  -7.872  1.00  0.00     0.035 C 
BRANCH  15  16
ATOM     16  C   UNL     1      11.461 -43.256  -7.884  1.00  0.00     0.079 C 
BRANCH  16  17
ATOM     17  C   UNL     1      10.626 -42.038  -8.170  1.00  0.00     0.130 C 
ATOM     18  O   UNL     1      10.527 -41.625  -9.316  1.00  0.00    -0.300 OA
ATOM     19  C   UNL     1       9.933 -41.314  -7.056  1.00  0.00     0.087 C 
ENDBRANCH  16  17
ENDBRANCH  15  16
ENDBRANCH  13  15
ENDBRANCH  11  12
ENDBRANCH   1  11
TORSDOF 9
ENDMDL
MODEL 8
REMARK VINA RESULT:    -4.256     10.469     13.917
REMARK INTER + INTRA:          -8.425
REMARK INTER:                  -5.434
REMARK INTRA:                  -2.991
REMARK UNBOUND:                -1.930
REMARK SMILES CC(=O)CCC=C(C)CCC=C(C)CCC=C(C)C
REMARK SMILES IDX 10 1 11 2 12 3 13 4 14 5 15 6 16 7 18 8 17 9 19 10 9 11 7 12
REMARK SMILES IDX 6 13 8 14 5 15 4 16 2 17 3 18 1 19
REMARK H PARENT
REMARK Flexibility Score: inf
ROOT
ATOM      1  C   UNL     1      27.348 -44.006 -21.829  1.00  0.00     0.032 C 
ENDROOT
BRANCH   1   2
ATOM      2  C   UNL     1      26.485 -44.273 -20.621  1.00  0.00    -0.028 C 
ATOM      3  C   UNL     1      25.149 -44.057 -20.569  1.00  0.00    -0.077 C 
ATOM      4  C   UNL     1      24.384 -43.469 -21.730  1.00  0.00     0.039 C 
BRANCH   3   5
ATOM      5  C   UNL     1      24.405 -44.347 -19.283  1.00  0.00     0.034 C 
BRANCH   5   6
ATOM      6  C   UNL     1      23.729 -43.089 -18.720  1.00  0.00     0.032 C 
BRANCH   6   7
ATOM      7  C   UNL     1      24.692 -42.235 -17.930  1.00  0.00    -0.028 C 
ATOM      8  C   UNL     1      24.783 -40.430 -19.663  1.00  0.00     0.039 C 
ATOM      9  C   UNL     1      25.150 -41.027 -18.325  1.00  0.00    -0.080 C 
ATOM     10  C   UNL     1      26.069 -40.272 -17.402  1.00  0.00     0.039 C 
ENDBRANCH   6   7
ENDBRANCH   5   6
ENDBRANCH   3   5
ENDBRANCH   1   2
BRANCH   1  11
ATOM     11  C   UNL     1      28.658 -43.317 -21.430  1.00  0.00     0.034 C 
BRANCH  11  12
ATOM     12  C   UNL     1      28.387 -41.940 -20.854  1.00  0.00    -0.077 C 
ATOM     13  C   UNL     1      28.720 -41.592 -19.590  1.00  0.00    -0.028 C 
ATOM     14  C   UNL     1      27.771 -40.892 -21.744  1.00  0.00     0.039 C 
BRANCH  13  15
ATOM     15  C   UNL     1      29.329 -42.523 -18.570  1.00  0.00     0.035 C 
BRANCH  15  16
ATOM     16  C   UNL     1      28.241 -43.195 -17.726  1.00  0.00     0.079 C 
BRANCH  16  17
ATOM     17  C   UNL     1      28.475 -44.679 -17.638  1.00  0.00     0.130 C 
ATOM     18  O   UNL     1      27.818 -45.352 -16.859  1.00  0.00    -0.300 OA
ATOM     19  C   UNL     1      29.527 -45.332 -18.483  1.00  0.00     0.087 C 
ENDBRANCH  16  17
ENDBRANCH  15  16
ENDBRANCH  13  15
ENDBRANCH  11  12
ENDBRANCH   1  11
TORSDOF 9
ENDMDL
MODEL 9
REMARK VINA RESULT:    -4.216     10.634     13.632
REMARK INTER + INTRA:          -8.364
REMARK INTER:                  -5.729
REMARK INTRA:                  -2.634
REMARK UNBOUND:                -1.930
REMARK SMILES CC(=O)CCC=C(C)CCC=C(C)CCC=C(C)C
REMARK SMILES IDX 10 1 11 2 12 3 13 4 14 5 15 6 16 7 18 8 17 9 19 10 9 11 7 12
REMARK SMILES IDX 6 13 8 14 5 15 4 16 2 17 3 18 1 19
REMARK H PARENT
REMARK Flexibility Score: inf
ROOT
ATOM      1  C   UNL     1      28.593 -41.266 -20.525  1.00  0.00     0.032 C 
ENDROOT
BRANCH   1   2
ATOM      2  C   UNL     1      28.838 -42.625 -19.919  1.00  0.00    -0.028 C 
ATOM      3  C   UNL     1      28.612 -43.801 -20.550  1.00  0.00    -0.077 C 
ATOM      4  C   UNL     1      28.032 -43.866 -21.943  1.00  0.00     0.039 C 
BRANCH   3   5
ATOM      5  C   UNL     1      28.880 -45.097 -19.815  1.00  0.00     0.034 C 
BRANCH   5   6
ATOM      6  C   UNL     1      29.305 -44.849 -18.361  1.00  0.00     0.032 C 
BRANCH   6   7
ATOM      7  C   UNL     1      28.122 -44.839 -17.421  1.00  0.00    -0.028 C 
ATOM      8  C   UNL     1      28.885 -42.785 -16.208  1.00  0.00     0.039 C 
ATOM      9  C   UNL     1      27.904 -43.903 -16.472  1.00  0.00    -0.080 C 
ATOM     10  C   UNL     1      26.649 -44.001 -15.644  1.00  0.00     0.039 C 
ENDBRANCH   6   7
ENDBRANCH   5   6
ENDBRANCH   3   5
ENDBRANCH   1   2
BRANCH   1  11
ATOM     11  C   UNL     1      27.108 -40.893 -20.464  1.00  0.00     0.034 C 
BRANCH  11  12
ATOM     12  C   UNL     1      26.573 -41.047 -19.053  1.00  0.00    -0.077 C 
ATOM     13  C   UNL     1      25.707 -42.023 -18.696  1.00  0.00    -0.028 C 
ATOM     14  C   UNL     1      27.068 -40.107 -17.985  1.00  0.00     0.039 C 
BRANCH  13  15
ATOM     15  C   UNL     1      25.106 -43.033 -19.643  1.00  0.00     0.035 C 
BRANCH  15  16
ATOM     16  C   UNL     1      24.849 -44.365 -18.930  1.00  0.00     0.079 C 
BRANCH  16  17
ATOM     17  C   UNL     1      23.378 -44.678 -18.900  1.00  0.00     0.130 C 
ATOM     18  O   UNL     1      22.874 -45.317 -19.811  1.00  0.00    -0.300 OA
ATOM     19  C   UNL     1      22.521 -44.189 -17.772  1.00  0.00     0.087 C 
ENDBRANCH  16  17
ENDBRANCH  15  16
ENDBRANCH  13  15
ENDBRANCH  11  12
ENDBRANCH   1  11
TORSDOF 9
ENDMDL
