MODEL 1
REMARK VINA RESULT:    13.100      0.000      0.000
REMARK INTER + INTRA:          21.810
REMARK INTER:                  22.289
REMARK INTRA:                  -0.479
REMARK UNBOUND:                -0.479
REMARK SMILES CCCCCCCCCCCCCC(=O)[O-]
REMARK SMILES IDX 8 1 9 2 10 3 11 4 12 5 13 6 14 7 15 8 16 9 7 10 6 11 5 12
REMARK SMILES IDX 4 13 3 14 2 15 1 16
REMARK H PARENT
REMARK Flexibility Score: inf
ROOT
ATOM      1  C   UNL     1      -5.845 -10.794  24.000  1.00  0.00     0.000 C 
ENDROOT
BRANCH   1   2
ATOM      2  C   UNL     1      -6.676 -12.027  24.381  1.00  0.00     0.000 C 
BRANCH   2   3
ATOM      3  C   UNL     1      -5.812 -13.297  24.360  1.00  0.00     0.000 C 
BRANCH   3   4
ATOM      4  C   UNL     1      -5.596 -13.900  25.758  1.00  0.00     0.000 C 
BRANCH   4   5
ATOM      5  C   UNL     1      -4.577 -15.055  25.826  1.00  0.00     0.006 C 
BRANCH   5   6
ATOM      6  C   UNL     1      -5.163 -16.376  26.359  1.00  0.00     0.053 C 
BRANCH   6   7
ATOM      7  C   UNL     1      -5.047 -17.494  25.367  1.00  0.00     0.041 C 
ATOM      8  O   UNL     1      -5.562 -18.617  25.614  1.00  0.00    -0.550 OA
ATOM      9  O   UNL     1      -4.337 -17.311  24.188  1.00  0.00    -0.550 OA
ENDBRANCH   6   7
ENDBRANCH   5   6
ENDBRANCH   4   5
ENDBRANCH   3   4
ENDBRANCH   2   3
ENDBRANCH   1   2
BRANCH   1  10
ATOM     10  C   UNL     1      -5.778  -9.753  25.131  1.00  0.00     0.000 C 
BRANCH  10  11
ATOM     11  C   UNL     1      -4.696  -8.686  24.889  1.00  0.00    -0.000 C 
BRANCH  11  12
ATOM     12  C   UNL     1      -3.413  -9.272  24.274  1.00  0.00    -0.000 C 
BRANCH  12  13
ATOM     13  C   UNL     1      -2.191  -8.361  24.483  1.00  0.00    -0.000 C 
BRANCH  13  14
ATOM     14  C   UNL     1      -1.018  -9.093  25.152  1.00  0.00    -0.000 C 
BRANCH  14  15
ATOM     15  C   UNL     1      -0.139  -8.158  25.995  1.00  0.00    -0.003 C 
ATOM     16  C   UNL     1       0.600  -8.931  27.085  1.00  0.00     0.004 C 
ENDBRANCH  14  15
ENDBRANCH  13  14
ENDBRANCH  12  13
ENDBRANCH  11  12
ENDBRANCH  10  11
ENDBRANCH   1  10
TORSDOF 12
ENDMDL
MODEL 2
REMARK VINA RESULT:    13.382      0.787      1.160
REMARK INTER + INTRA:          22.291
REMARK INTER:                  22.698
REMARK INTRA:                  -0.407
REMARK UNBOUND:                -0.479
REMARK SMILES CCCCCCCCCCCCCC(=O)[O-]
REMARK SMILES IDX 8 1 9 2 10 3 11 4 12 5 13 6 14 7 15 8 16 9 7 10 6 11 5 12
REMARK SMILES IDX 4 13 3 14 2 15 1 16
REMARK H PARENT
REMARK Flexibility Score: inf
ROOT
ATOM      1  C   UNL     1      -6.132 -11.416  24.177  1.00  0.00     0.000 C 
ENDROOT
BRANCH   1   2
ATOM      2  C   UNL     1      -6.570 -12.556  25.107  1.00  0.00     0.000 C 
BRANCH   2   3
ATOM      3  C   UNL     1      -5.741 -13.823  24.848  1.00  0.00     0.000 C 
BRANCH   3   4
ATOM      4  C   UNL     1      -5.084 -14.382  26.121  1.00  0.00     0.000 C 
BRANCH   4   5
ATOM      5  C   UNL     1      -5.104 -15.918  26.251  1.00  0.00     0.006 C 
BRANCH   5   6
ATOM      6  C   UNL     1      -4.227 -16.646  25.215  1.00  0.00     0.053 C 
BRANCH   6   7
ATOM      7  C   UNL     1      -4.971 -17.731  24.497  1.00  0.00     0.041 C 
ATOM      8  O   UNL     1      -5.194 -17.635  23.260  1.00  0.00    -0.550 OA
ATOM      9  O   UNL     1      -5.457 -18.827  25.197  1.00  0.00    -0.550 OA
ENDBRANCH   6   7
ENDBRANCH   5   6
ENDBRANCH   4   5
ENDBRANCH   3   4
ENDBRANCH   2   3
ENDBRANCH   1   2
BRANCH   1  10
ATOM     10  C   UNL     1      -6.019 -10.067  24.906  1.00  0.00     0.000 C 
BRANCH  10  11
ATOM     11  C   UNL     1      -5.073  -9.086  24.191  1.00  0.00    -0.000 C 
BRANCH  11  12
ATOM     12  C   UNL     1      -3.880  -8.669  25.066  1.00  0.00    -0.000 C 
BRANCH  12  13
ATOM     13  C   UNL     1      -2.625  -8.347  24.237  1.00  0.00    -0.000 C 
BRANCH  13  14
ATOM     14  C   UNL     1      -1.360  -9.016  24.797  1.00  0.00    -0.000 C 
BRANCH  14  15
ATOM     15  C   UNL     1      -0.367  -8.004  25.387  1.00  0.00    -0.003 C 
ATOM     16  C   UNL     1       0.316  -8.566  26.632  1.00  0.00     0.004 C 
ENDBRANCH  14  15
ENDBRANCH  13  14
ENDBRANCH  12  13
ENDBRANCH  11  12
ENDBRANCH  10  11
ENDBRANCH   1  10
TORSDOF 12
ENDMDL
MODEL 3
REMARK VINA RESULT:    13.708      3.862      7.756
REMARK INTER + INTRA:          22.846
REMARK INTER:                  23.404
REMARK INTRA:                  -0.558
REMARK UNBOUND:                -0.479
REMARK SMILES CCCCCCCCCCCCCC(=O)[O-]
REMARK SMILES IDX 8 1 9 2 10 3 11 4 12 5 13 6 14 7 15 8 16 9 7 10 6 11 5 12
REMARK SMILES IDX 4 13 3 14 2 15 1 16
REMARK H PARENT
REMARK Flexibility Score: inf
ROOT
ATOM      1  C   UNL     1      -5.658 -10.705  24.055  1.00  0.00     0.000 C 
ENDROOT
BRANCH   1   2
ATOM      2  C   UNL     1      -5.602  -9.388  24.842  1.00  0.00     0.000 C 
BRANCH   2   3
ATOM      3  C   UNL     1      -4.155  -9.040  25.224  1.00  0.00     0.000 C 
BRANCH   3   4
ATOM      4  C   UNL     1      -3.385  -8.347  24.088  1.00  0.00     0.000 C 
BRANCH   4   5
ATOM      5  C   UNL     1      -1.849  -8.452  24.174  1.00  0.00     0.006 C 
BRANCH   5   6
ATOM      6  C   UNL     1      -1.337  -9.083  25.483  1.00  0.00     0.053 C 
BRANCH   6   7
ATOM      7  C   UNL     1      -0.111  -8.398  26.006  1.00  0.00     0.041 C 
ATOM      8  O   UNL     1       0.626  -8.974  26.850  1.00  0.00    -0.550 OA
ATOM      9  O   UNL     1       0.198  -7.108  25.596  1.00  0.00    -0.550 OA
ENDBRANCH   6   7
ENDBRANCH   5   6
ENDBRANCH   4   5
ENDBRANCH   3   4
ENDBRANCH   2   3
ENDBRANCH   1   2
BRANCH   1  10
ATOM     10  C   UNL     1      -6.518 -11.773  24.749  1.00  0.00     0.000 C 
BRANCH  10  11
ATOM     11  C   UNL     1      -5.947 -13.192  24.580  1.00  0.00    -0.000 C 
BRANCH  11  12
ATOM     12  C   UNL     1      -5.606 -13.858  25.924  1.00  0.00    -0.000 C 
BRANCH  12  13
ATOM     13  C   UNL     1      -4.699 -15.089  25.758  1.00  0.00    -0.000 C 
BRANCH  13  14
ATOM     14  C   UNL     1      -5.257 -16.333  26.466  1.00  0.00    -0.000 C 
BRANCH  14  15
ATOM     15  C   UNL     1      -4.987 -17.629  25.689  1.00  0.00    -0.003 C 
ATOM     16  C   UNL     1      -4.980 -17.376  24.183  1.00  0.00     0.004 C 
ENDBRANCH  14  15
ENDBRANCH  13  14
ENDBRANCH  12  13
ENDBRANCH  11  12
ENDBRANCH  10  11
ENDBRANCH   1  10
TORSDOF 12
ENDMDL
MODEL 4
REMARK VINA RESULT:    14.328      3.360      7.612
REMARK INTER + INTRA:          23.900
REMARK INTER:                  24.504
REMARK INTRA:                  -0.605
REMARK UNBOUND:                -0.479
REMARK SMILES CCCCCCCCCCCCCC(=O)[O-]
REMARK SMILES IDX 8 1 9 2 10 3 11 4 12 5 13 6 14 7 15 8 16 9 7 10 6 11 5 12
REMARK SMILES IDX 4 13 3 14 2 15 1 16
REMARK H PARENT
REMARK Flexibility Score: inf
ROOT
ATOM      1  C   UNL     1      -6.772 -12.549  24.128  1.00  0.00     0.000 C 
ENDROOT
BRANCH   1   2
ATOM      2  C   UNL     1      -6.085 -11.229  23.754  1.00  0.00     0.000 C 
BRANCH   2   3
ATOM      3  C   UNL     1      -6.125 -10.239  24.927  1.00  0.00     0.000 C 
BRANCH   3   4
ATOM      4  C   UNL     1      -5.428  -8.905  24.612  1.00  0.00     0.000 C 
BRANCH   4   5
ATOM      5  C   UNL     1      -4.030  -8.728  25.237  1.00  0.00     0.006 C 
BRANCH   5   6
ATOM      6  C   UNL     1      -2.933  -8.354  24.222  1.00  0.00     0.053 C 
BRANCH   6   7
ATOM      7  C   UNL     1      -1.640  -9.064  24.489  1.00  0.00     0.041 C 
ATOM      8  O   UNL     1      -0.881  -8.671  25.414  1.00  0.00    -0.550 OA
ATOM      9  O   UNL     1      -1.253 -10.133  23.692  1.00  0.00    -0.550 OA
ENDBRANCH   6   7
ENDBRANCH   5   6
ENDBRANCH   4   5
ENDBRANCH   3   4
ENDBRANCH   2   3
ENDBRANCH   1   2
BRANCH   1  10
ATOM     10  C   UNL     1      -6.309 -13.092  25.490  1.00  0.00     0.000 C 
BRANCH  10  11
ATOM     11  C   UNL     1      -5.070 -13.996  25.376  1.00  0.00    -0.000 C 
BRANCH  11  12
ATOM     12  C   UNL     1      -5.157 -15.238  26.280  1.00  0.00    -0.000 C 
BRANCH  12  13
ATOM     13  C   UNL     1      -4.420 -16.451  25.687  1.00  0.00    -0.000 C 
BRANCH  13  14
ATOM     14  C   UNL     1      -5.214 -17.757  25.842  1.00  0.00    -0.000 C 
BRANCH  14  15
ATOM     15  C   UNL     1      -5.664 -18.341  24.495  1.00  0.00    -0.003 C 
ATOM     16  C   UNL     1      -4.880 -17.724  23.339  1.00  0.00     0.004 C 
ENDBRANCH  14  15
ENDBRANCH  13  14
ENDBRANCH  12  13
ENDBRANCH  11  12
ENDBRANCH  10  11
ENDBRANCH   1  10
TORSDOF 12
ENDMDL
MODEL 5
REMARK VINA RESULT:    14.479      1.490      2.645
REMARK INTER + INTRA:          24.158
REMARK INTER:                  24.662
REMARK INTRA:                  -0.505
REMARK UNBOUND:                -0.479
REMARK SMILES CCCCCCCCCCCCCC(=O)[O-]
REMARK SMILES IDX 8 1 9 2 10 3 11 4 12 5 13 6 14 7 15 8 16 9 7 10 6 11 5 12
REMARK SMILES IDX 4 13 3 14 2 15 1 16
REMARK H PARENT
REMARK Flexibility Score: inf
ROOT
ATOM      1  C   UNL     1      -6.142 -10.927  24.024  1.00  0.00     0.000 C 
ENDROOT
BRANCH   1   2
ATOM      2  C   UNL     1      -6.750 -12.177  24.674  1.00  0.00     0.000 C 
BRANCH   2   3
ATOM      3  C   UNL     1      -5.792 -13.373  24.564  1.00  0.00     0.000 C 
BRANCH   3   4
ATOM      4  C   UNL     1      -5.537 -14.065  25.913  1.00  0.00     0.000 C 
BRANCH   4   5
ATOM      5  C   UNL     1      -4.555 -15.252  25.869  1.00  0.00     0.006 C 
BRANCH   5   6
ATOM      6  C   UNL     1      -5.189 -16.604  26.246  1.00  0.00     0.053 C 
BRANCH   6   7
ATOM      7  C   UNL     1      -4.981 -17.648  25.191  1.00  0.00     0.041 C 
ATOM      8  O   UNL     1      -4.418 -17.349  24.104  1.00  0.00    -0.550 OA
ATOM      9  O   UNL     1      -5.446 -18.942  25.387  1.00  0.00    -0.550 OA
ENDBRANCH   6   7
ENDBRANCH   5   6
ENDBRANCH   4   5
ENDBRANCH   3   4
ENDBRANCH   2   3
ENDBRANCH   1   2
BRANCH   1  10
ATOM     10  C   UNL     1      -5.747  -9.857  25.054  1.00  0.00     0.000 C 
BRANCH  10  11
ATOM     11  C   UNL     1      -4.887  -8.736  24.442  1.00  0.00    -0.000 C 
BRANCH  11  12
ATOM     12  C   UNL     1      -3.443  -8.742  24.971  1.00  0.00    -0.000 C 
BRANCH  12  13
ATOM     13  C   UNL     1      -2.414  -8.409  23.877  1.00  0.00    -0.000 C 
BRANCH  13  14
ATOM     14  C   UNL     1      -2.872  -7.258  22.967  1.00  0.00    -0.000 C 
BRANCH  14  15
ATOM     15  C   UNL     1      -2.311  -7.371  21.542  1.00  0.00    -0.003 C 
ATOM     16  C   UNL     1      -3.369  -7.002  20.505  1.00  0.00     0.004 C 
ENDBRANCH  14  15
ENDBRANCH  13  14
ENDBRANCH  12  13
ENDBRANCH  11  12
ENDBRANCH  10  11
ENDBRANCH   1  10
TORSDOF 12
ENDMDL
MODEL 6
REMARK VINA RESULT:    15.794      3.914      6.933
REMARK INTER + INTRA:          26.395
REMARK INTER:                  26.903
REMARK INTRA:                  -0.508
REMARK UNBOUND:                -0.479
REMARK SMILES CCCCCCCCCCCCCC(=O)[O-]
REMARK SMILES IDX 8 1 9 2 10 3 11 4 12 5 13 6 14 7 15 8 16 9 7 10 6 11 5 12
REMARK SMILES IDX 4 13 3 14 2 15 1 16
REMARK H PARENT
REMARK Flexibility Score: inf
ROOT
ATOM      1  C   UNL     1      -6.347 -12.166  23.698  1.00  0.00     0.000 C 
ENDROOT
BRANCH   1   2
ATOM      2  C   UNL     1      -6.429 -12.885  25.051  1.00  0.00     0.000 C 
BRANCH   2   3
ATOM      3  C   UNL     1      -5.282 -13.896  25.203  1.00  0.00     0.000 C 
BRANCH   3   4
ATOM      4  C   UNL     1      -5.250 -14.565  26.588  1.00  0.00     0.000 C 
BRANCH   4   5
ATOM      5  C   UNL     1      -4.978 -16.082  26.581  1.00  0.00     0.006 C 
BRANCH   5   6
ATOM      6  C   UNL     1      -4.440 -16.615  25.240  1.00  0.00     0.053 C 
BRANCH   6   7
ATOM      7  C   UNL     1      -5.080 -17.911  24.842  1.00  0.00     0.041 C 
ATOM      8  O   UNL     1      -5.450 -18.733  25.722  1.00  0.00    -0.550 OA
ATOM      9  O   UNL     1      -5.230 -18.233  23.499  1.00  0.00    -0.550 OA
ENDBRANCH   6   7
ENDBRANCH   5   6
ENDBRANCH   4   5
ENDBRANCH   3   4
ENDBRANCH   2   3
ENDBRANCH   1   2
BRANCH   1  10
ATOM     10  C   UNL     1      -7.704 -12.107  22.977  1.00  0.00     0.000 C 
BRANCH  10  11
ATOM     11  C   UNL     1      -7.680 -12.820  21.613  1.00  0.00    -0.000 C 
BRANCH  11  12
ATOM     12  C   UNL     1      -9.044 -13.421  21.235  1.00  0.00    -0.000 C 
BRANCH  12  13
ATOM     13  C   UNL     1      -8.962 -14.341  20.005  1.00  0.00    -0.000 C 
BRANCH  13  14
ATOM     14  C   UNL     1      -8.725 -13.563  18.701  1.00  0.00    -0.000 C 
BRANCH  14  15
ATOM     15  C   UNL     1      -8.833 -14.451  17.453  1.00  0.00    -0.003 C 
ATOM     16  C   UNL     1      -9.591 -15.740  17.759  1.00  0.00     0.004 C 
ENDBRANCH  14  15
ENDBRANCH  13  14
ENDBRANCH  12  13
ENDBRANCH  11  12
ENDBRANCH  10  11
ENDBRANCH   1  10
TORSDOF 12
ENDMDL
MODEL 7
REMARK VINA RESULT:    15.845      5.039      7.570
REMARK INTER + INTRA:          26.482
REMARK INTER:                  27.060
REMARK INTRA:                  -0.578
REMARK UNBOUND:                -0.479
REMARK SMILES CCCCCCCCCCCCCC(=O)[O-]
REMARK SMILES IDX 8 1 9 2 10 3 11 4 12 5 13 6 14 7 15 8 16 9 7 10 6 11 5 12
REMARK SMILES IDX 4 13 3 14 2 15 1 16
REMARK H PARENT
REMARK Flexibility Score: inf
ROOT
ATOM      1  C   UNL     1      -6.526 -12.243  24.375  1.00  0.00     0.000 C 
ENDROOT
BRANCH   1   2
ATOM      2  C   UNL     1      -6.929 -12.008  22.913  1.00  0.00     0.000 C 
BRANCH   2   3
ATOM      3  C   UNL     1      -7.505 -13.289  22.291  1.00  0.00     0.000 C 
BRANCH   3   4
ATOM      4  C   UNL     1      -8.588 -13.011  21.235  1.00  0.00     0.000 C 
BRANCH   4   5
ATOM      5  C   UNL     1      -8.802 -14.134  20.201  1.00  0.00     0.006 C 
BRANCH   5   6
ATOM      6  C   UNL     1      -8.897 -13.636  18.746  1.00  0.00     0.053 C 
BRANCH   6   7
ATOM      7  C   UNL     1      -8.799 -14.752  17.751  1.00  0.00     0.041 C 
ATOM      8  O   UNL     1      -9.693 -15.639  17.703  1.00  0.00    -0.550 OA
ATOM      9  O   UNL     1      -7.702 -14.839  16.905  1.00  0.00    -0.550 OA
ENDBRANCH   6   7
ENDBRANCH   5   6
ENDBRANCH   4   5
ENDBRANCH   3   4
ENDBRANCH   2   3
ENDBRANCH   1   2
BRANCH   1  10
ATOM     10  C   UNL     1      -5.775 -13.569  24.576  1.00  0.00     0.000 C 
BRANCH  10  11
ATOM     11  C   UNL     1      -5.814 -14.056  26.035  1.00  0.00    -0.000 C 
BRANCH  11  12
ATOM     12  C   UNL     1      -4.661 -15.017  26.370  1.00  0.00    -0.000 C 
BRANCH  12  13
ATOM     13  C   UNL     1      -4.552 -16.179  25.368  1.00  0.00    -0.000 C 
BRANCH  13  14
ATOM     14  C   UNL     1      -5.212 -17.467  25.885  1.00  0.00    -0.000 C 
BRANCH  14  15
ATOM     15  C   UNL     1      -5.436 -18.504  24.775  1.00  0.00    -0.003 C 
ATOM     16  C   UNL     1      -5.369 -17.856  23.395  1.00  0.00     0.004 C 
ENDBRANCH  14  15
ENDBRANCH  13  14
ENDBRANCH  12  13
ENDBRANCH  11  12
ENDBRANCH  10  11
ENDBRANCH   1  10
TORSDOF 12
ENDMDL
