MODEL 1
REMARK VINA RESULT:    -4.224      0.000      0.000
REMARK INTER + INTRA:          -4.595
REMARK INTER:                  -4.595
REMARK INTRA:                   0.000
REMARK UNBOUND:                 0.000
REMARK SMILES Oc1cccc(O)c1O
REMARK SMILES IDX 4 1 5 2 6 3 8 4 2 5 3 6 7 7 1 9 9 11
REMARK H PARENT 7 8 1 10 9 12
REMARK Flexibility Score: inf
ROOT
ATOM      1  C   UNL     1      13.713  48.916  42.536  1.00  0.00     0.008 A 
ATOM      2  C   UNL     1      12.686  49.017  41.594  1.00  0.00     0.050 A 
ATOM      3  C   UNL     1      11.359  49.181  42.013  1.00  0.00     0.161 A 
ATOM      4  C   UNL     1      11.062  49.242  43.387  1.00  0.00     0.200 A 
ATOM      5  C   UNL     1      12.095  49.141  44.329  1.00  0.00     0.161 A 
ATOM      6  C   UNL     1      13.420  48.976  43.901  1.00  0.00     0.050 A 
ENDROOT
BRANCH   3   7
ATOM      7  O   UNL     1      10.335  49.282  41.072  1.00  0.00    -0.504 OA
ATOM      8  H   UNL     1       9.474  48.755  41.164  1.00  0.00     0.293 HD
ENDBRANCH   3   7
BRANCH   5   9
ATOM      9  O   UNL     1      11.798  49.202  45.690  1.00  0.00    -0.504 OA
ATOM     10  H   UNL     1      10.879  48.963  46.044  1.00  0.00     0.293 HD
ENDBRANCH   5   9
BRANCH   4  11
ATOM     11  O   UNL     1       9.748  49.405  43.830  1.00  0.00    -0.502 OA
ATOM     12  H   UNL     1       9.152  48.616  44.047  1.00  0.00     0.293 HD
ENDBRANCH   4  11
TORSDOF 3
ENDMDL
MODEL 2
REMARK VINA RESULT:    -4.222      0.058      2.799
REMARK INTER + INTRA:          -4.592
REMARK INTER:                  -4.592
REMARK INTRA:                   0.000
REMARK UNBOUND:                 0.000
REMARK SMILES Oc1cccc(O)c1O
REMARK SMILES IDX 4 1 5 2 6 3 8 4 2 5 3 6 7 7 1 9 9 11
REMARK H PARENT 7 8 1 10 9 12
REMARK Flexibility Score: inf
ROOT
ATOM      1  C   UNL     1      13.731  48.927  42.497  1.00  0.00     0.008 A 
ATOM      2  C   UNL     1      13.433  48.997  43.860  1.00  0.00     0.050 A 
ATOM      3  C   UNL     1      12.107  49.156  44.285  1.00  0.00     0.161 A 
ATOM      4  C   UNL     1      11.074  49.247  43.334  1.00  0.00     0.200 A 
ATOM      5  C   UNL     1      11.378  49.177  41.966  1.00  0.00     0.161 A 
ATOM      6  C   UNL     1      12.707  49.017  41.551  1.00  0.00     0.050 A 
ENDROOT
BRANCH   3   7
ATOM      7  O   UNL     1      11.811  49.226  45.646  1.00  0.00    -0.504 OA
ATOM      8  H   UNL     1      12.469  49.613  46.313  1.00  0.00     0.293 HD
ENDBRANCH   3   7
BRANCH   5   9
ATOM      9  O   UNL     1      10.353  49.266  41.026  1.00  0.00    -0.504 OA
ATOM     10  H   UNL     1       9.462  49.695  41.251  1.00  0.00     0.293 HD
ENDBRANCH   5   9
BRANCH   4  11
ATOM     11  O   UNL     1       9.746  49.407  43.730  1.00  0.00    -0.502 OA
ATOM     12  H   UNL     1       9.441  50.196  44.286  1.00  0.00     0.293 HD
ENDBRANCH   4  11
TORSDOF 3
ENDMDL
MODEL 3
REMARK VINA RESULT:    -3.929     22.082     23.377
REMARK INTER + INTRA:          -4.273
REMARK INTER:                  -4.273
REMARK INTRA:                   0.000
REMARK UNBOUND:                 0.000
REMARK SMILES Oc1cccc(O)c1O
REMARK SMILES IDX 4 1 5 2 6 3 8 4 2 5 3 6 7 7 1 9 9 11
REMARK H PARENT 7 8 1 10 9 12
REMARK Flexibility Score: inf
ROOT
ATOM      1  C   UNL     1      26.984  61.474  58.021  1.00  0.00     0.008 A 
ATOM      2  C   UNL     1      26.028  61.287  57.020  1.00  0.00     0.050 A 
ATOM      3  C   UNL     1      24.793  60.700  57.325  1.00  0.00     0.161 A 
ATOM      4  C   UNL     1      24.517  60.296  58.643  1.00  0.00     0.200 A 
ATOM      5  C   UNL     1      25.479  60.485  59.647  1.00  0.00     0.161 A 
ATOM      6  C   UNL     1      26.712  61.074  59.332  1.00  0.00     0.050 A 
ENDROOT
BRANCH   3   7
ATOM      7  O   UNL     1      23.840  60.514  56.323  1.00  0.00    -0.504 OA
ATOM      8  H   UNL     1      24.100  60.472  55.344  1.00  0.00     0.293 HD
ENDBRANCH   3   7
BRANCH   5   9
ATOM      9  O   UNL     1      25.203  60.085  60.953  1.00  0.00    -0.504 OA
ATOM     10  H   UNL     1      24.343  59.603  61.190  1.00  0.00     0.293 HD
ENDBRANCH   5   9
BRANCH   4  11
ATOM     11  O   UNL     1      23.295  59.708  58.973  1.00  0.00    -0.502 OA
ATOM     12  H   UNL     1      22.969  58.859  58.528  1.00  0.00     0.293 HD
ENDBRANCH   4  11
TORSDOF 3
ENDMDL
MODEL 4
REMARK VINA RESULT:    -3.916     22.087     23.539
REMARK INTER + INTRA:          -4.260
REMARK INTER:                  -4.260
REMARK INTRA:                   0.000
REMARK UNBOUND:                 0.000
REMARK SMILES Oc1cccc(O)c1O
REMARK SMILES IDX 4 1 5 2 6 3 8 4 2 5 3 6 7 7 1 9 9 11
REMARK H PARENT 7 8 1 10 9 12
REMARK Flexibility Score: inf
ROOT
ATOM      1  C   UNL     1      26.989  61.428  58.038  1.00  0.00     0.008 A 
ATOM      2  C   UNL     1      26.713  61.029  59.348  1.00  0.00     0.050 A 
ATOM      3  C   UNL     1      25.472  60.458  59.664  1.00  0.00     0.161 A 
ATOM      4  C   UNL     1      24.504  60.289  58.659  1.00  0.00     0.200 A 
ATOM      5  C   UNL     1      24.785  60.691  57.344  1.00  0.00     0.161 A 
ATOM      6  C   UNL     1      26.028  61.261  57.037  1.00  0.00     0.050 A 
ENDROOT
BRANCH   3   7
ATOM      7  O   UNL     1      25.199  60.060  60.973  1.00  0.00    -0.504 OA
ATOM      8  H   UNL     1      25.880  59.554  61.527  1.00  0.00     0.293 HD
ENDBRANCH   3   7
BRANCH   5   9
ATOM      9  O   UNL     1      23.823  60.521  56.350  1.00  0.00    -0.504 OA
ATOM     10  H   UNL     1      22.878  60.227  56.570  1.00  0.00     0.293 HD
ENDBRANCH   5   9
BRANCH   4  11
ATOM     11  O   UNL     1      23.261  59.723  58.948  1.00  0.00    -0.502 OA
ATOM     12  H   UNL     1      22.610  60.156  59.591  1.00  0.00     0.293 HD
ENDBRANCH   4  11
TORSDOF 3
ENDMDL
MODEL 5
REMARK VINA RESULT:    -3.912     22.446     23.095
REMARK INTER + INTRA:          -4.256
REMARK INTER:                  -4.256
REMARK INTRA:                   0.000
REMARK UNBOUND:                 0.000
REMARK SMILES Oc1cccc(O)c1O
REMARK SMILES IDX 4 1 5 2 6 3 8 4 2 5 3 6 7 7 1 9 9 11
REMARK H PARENT 7 8 1 10 9 12
REMARK Flexibility Score: inf
ROOT
ATOM      1  C   UNL     1      25.955  58.485  60.098  1.00  0.00     0.008 A 
ATOM      2  C   UNL     1      24.626  58.751  60.438  1.00  0.00     0.050 A 
ATOM      3  C   UNL     1      23.827  59.536  59.595  1.00  0.00     0.161 A 
ATOM      4  C   UNL     1      24.367  60.059  58.406  1.00  0.00     0.200 A 
ATOM      5  C   UNL     1      25.702  59.790  58.069  1.00  0.00     0.161 A 
ATOM      6  C   UNL     1      26.493  59.003  58.918  1.00  0.00     0.050 A 
ENDROOT
BRANCH   3   7
ATOM      7  O   UNL     1      22.500  59.800  59.936  1.00  0.00    -0.504 OA
ATOM      8  H   UNL     1      21.925  59.110  60.405  1.00  0.00     0.293 HD
ENDBRANCH   3   7
BRANCH   5   9
ATOM      9  O   UNL     1      26.234  60.308  56.890  1.00  0.00    -0.504 OA
ATOM     10  H   UNL     1      26.966  59.826  56.381  1.00  0.00     0.293 HD
ENDBRANCH   5   9
BRANCH   4  11
ATOM     11  O   UNL     1      23.592  60.844  57.551  1.00  0.00    -0.502 OA
ATOM     12  H   UNL     1      23.272  61.768  57.812  1.00  0.00     0.293 HD
ENDBRANCH   4  11
TORSDOF 3
ENDMDL
MODEL 6
REMARK VINA RESULT:    -3.877     22.356     23.312
REMARK INTER + INTRA:          -4.217
REMARK INTER:                  -4.217
REMARK INTRA:                   0.000
REMARK UNBOUND:                 0.000
REMARK SMILES Oc1cccc(O)c1O
REMARK SMILES IDX 4 1 5 2 6 3 8 4 2 5 3 6 7 7 1 9 9 11
REMARK H PARENT 7 8 1 10 9 12
REMARK Flexibility Score: inf
ROOT
ATOM      1  C   UNL     1      26.464  59.895  60.041  1.00  0.00     0.008 A 
ATOM      2  C   UNL     1      26.798  60.489  58.821  1.00  0.00     0.050 A 
ATOM      3  C   UNL     1      25.802  60.753  57.870  1.00  0.00     0.161 A 
ATOM      4  C   UNL     1      24.465  60.416  58.145  1.00  0.00     0.200 A 
ATOM      5  C   UNL     1      24.134  59.820  59.371  1.00  0.00     0.161 A 
ATOM      6  C   UNL     1      25.136  59.559  60.316  1.00  0.00     0.050 A 
ENDROOT
BRANCH   3   7
ATOM      7  O   UNL     1      26.137  61.346  56.653  1.00  0.00    -0.504 OA
ATOM      8  H   UNL     1      26.682  62.200  56.611  1.00  0.00     0.293 HD
ENDBRANCH   3   7
BRANCH   5   9
ATOM      9  O   UNL     1      22.807  59.488  59.641  1.00  0.00    -0.504 OA
ATOM     10  H   UNL     1      22.051  59.785  59.035  1.00  0.00     0.293 HD
ENDBRANCH   5   9
BRANCH   4  11
ATOM     11  O   UNL     1      23.455  60.668  57.215  1.00  0.00    -0.502 OA
ATOM     12  H   UNL     1      23.006  61.573  57.140  1.00  0.00     0.293 HD
ENDBRANCH   4  11
TORSDOF 3
ENDMDL
MODEL 7
REMARK VINA RESULT:    -3.823     22.423     23.687
REMARK INTER + INTRA:          -4.158
REMARK INTER:                  -4.158
REMARK INTRA:                   0.000
REMARK UNBOUND:                 0.000
REMARK SMILES Oc1cccc(O)c1O
REMARK SMILES IDX 4 1 5 2 6 3 8 4 2 5 3 6 7 7 1 9 9 11
REMARK H PARENT 7 8 1 10 9 12
REMARK Flexibility Score: inf
ROOT
ATOM      1  C   UNL     1      26.352  61.565  59.944  1.00  0.00     0.008 A 
ATOM      2  C   UNL     1      25.189  60.801  60.074  1.00  0.00     0.050 A 
ATOM      3  C   UNL     1      24.446  60.449  58.938  1.00  0.00     0.161 A 
ATOM      4  C   UNL     1      24.873  60.869  57.666  1.00  0.00     0.200 A 
ATOM      5  C   UNL     1      26.041  61.636  57.539  1.00  0.00     0.161 A 
ATOM      6  C   UNL     1      26.777  61.983  58.681  1.00  0.00     0.050 A 
ENDROOT
BRANCH   3   7
ATOM      7  O   UNL     1      23.286  59.687  59.070  1.00  0.00    -0.504 OA
ATOM      8  H   UNL     1      22.445  59.905  58.548  1.00  0.00     0.293 HD
ENDBRANCH   3   7
BRANCH   5   9
ATOM      9  O   UNL     1      26.462  62.051  56.277  1.00  0.00    -0.504 OA
ATOM     10  H   UNL     1      27.299  61.675  55.847  1.00  0.00     0.293 HD
ENDBRANCH   5   9
BRANCH   4  11
ATOM     11  O   UNL     1      24.151  60.534  56.520  1.00  0.00    -0.502 OA
ATOM     12  H   UNL     1      23.723  61.236  55.928  1.00  0.00     0.293 HD
ENDBRANCH   4  11
TORSDOF 3
ENDMDL
MODEL 8
REMARK VINA RESULT:    -3.810      1.591      2.635
REMARK INTER + INTRA:          -4.144
REMARK INTER:                  -4.144
REMARK INTRA:                   0.000
REMARK UNBOUND:                 0.000
REMARK SMILES Oc1cccc(O)c1O
REMARK SMILES IDX 4 1 5 2 6 3 8 4 2 5 3 6 7 7 1 9 9 11
REMARK H PARENT 7 8 1 10 9 12
REMARK Flexibility Score: inf
ROOT
ATOM      1  C   UNL     1      12.115  48.875  45.029  1.00  0.00     0.008 A 
ATOM      2  C   UNL     1      10.844  49.031  44.471  1.00  0.00     0.050 A 
ATOM      3  C   UNL     1      10.696  49.187  43.086  1.00  0.00     0.161 A 
ATOM      4  C   UNL     1      11.833  49.187  42.257  1.00  0.00     0.200 A 
ATOM      5  C   UNL     1      13.108  49.031  42.821  1.00  0.00     0.161 A 
ATOM      6  C   UNL     1      13.246  48.876  44.207  1.00  0.00     0.050 A 
ENDROOT
BRANCH   3   7
ATOM      7  O   UNL     1       9.426  49.342  42.531  1.00  0.00    -0.504 OA
ATOM      8  H   UNL     1       9.223  49.055  41.580  1.00  0.00     0.293 HD
ENDBRANCH   3   7
BRANCH   5   9
ATOM      9  O   UNL     1      14.232  49.031  41.997  1.00  0.00    -0.504 OA
ATOM     10  H   UNL     1      14.150  49.000  40.987  1.00  0.00     0.293 HD
ENDBRANCH   5   9
BRANCH   4  11
ATOM     11  O   UNL     1      11.713  49.341  40.875  1.00  0.00    -0.502 OA
ATOM     12  H   UNL     1      12.459  49.728  40.310  1.00  0.00     0.293 HD
ENDBRANCH   4  11
TORSDOF 3
ENDMDL
MODEL 9
REMARK VINA RESULT:    -3.788     22.977     23.951
REMARK INTER + INTRA:          -4.120
REMARK INTER:                  -4.120
REMARK INTRA:                   0.000
REMARK UNBOUND:                 0.000
REMARK SMILES Oc1cccc(O)c1O
REMARK SMILES IDX 4 1 5 2 6 3 8 4 2 5 3 6 7 7 1 9 9 11
REMARK H PARENT 7 8 1 10 9 12
REMARK Flexibility Score: inf
ROOT
ATOM      1  C   UNL     1      27.121  62.913  57.821  1.00  0.00     0.008 A 
ATOM      2  C   UNL     1      26.011  63.407  58.510  1.00  0.00     0.050 A 
ATOM      3  C   UNL     1      24.866  62.614  58.664  1.00  0.00     0.161 A 
ATOM      4  C   UNL     1      24.836  61.317  58.122  1.00  0.00     0.200 A 
ATOM      5  C   UNL     1      25.953  60.823  57.430  1.00  0.00     0.161 A 
ATOM      6  C   UNL     1      27.094  61.625  57.281  1.00  0.00     0.050 A 
ENDROOT
BRANCH   3   7
ATOM      7  O   UNL     1      23.759  63.110  59.352  1.00  0.00    -0.504 OA
ATOM      8  H   UNL     1      22.816  62.816  59.123  1.00  0.00     0.293 HD
ENDBRANCH   3   7
BRANCH   5   9
ATOM      9  O   UNL     1      25.920  59.538  56.894  1.00  0.00    -0.504 OA
ATOM     10  H   UNL     1      25.046  59.048  56.742  1.00  0.00     0.293 HD
ENDBRANCH   5   9
BRANCH   4  11
ATOM     11  O   UNL     1      23.708  60.507  58.260  1.00  0.00    -0.502 OA
ATOM     12  H   UNL     1      23.121  60.538  59.085  1.00  0.00     0.293 HD
ENDBRANCH   4  11
TORSDOF 3
ENDMDL
