MODEL 1
REMARK VINA RESULT:    -3.793      0.000      0.000
REMARK INTER + INTRA:          -4.175
REMARK INTER:                  -4.126
REMARK INTRA:                  -0.049
REMARK UNBOUND:                -0.049
REMARK SMILES CCc1cccc(O)c1
REMARK SMILES IDX 3 1 9 2 7 3 6 4 5 5 4 6 2 7 1 8 8 9
REMARK H PARENT 8 10
REMARK Flexibility Score: inf
ROOT
ATOM      1  C   UNL     1      17.931  97.491   8.711  1.00  0.00    -0.045 A 
ATOM      2  C   UNL     1      16.692  97.715   9.333  1.00  0.00     0.049 A 
ATOM      3  C   UNL     1      15.769  96.668   9.468  1.00  0.00     0.115 A 
ATOM      4  C   UNL     1      16.088  95.393   8.988  1.00  0.00     0.046 A 
ATOM      5  C   UNL     1      17.324  95.161   8.380  1.00  0.00     0.004 A 
ATOM      6  C   UNL     1      18.246  96.204   8.244  1.00  0.00     0.004 A 
ENDROOT
BRANCH   1   7
ATOM      7  C   UNL     1      18.935  98.607   8.595  1.00  0.00     0.032 C 
ATOM      8  C   UNL     1      18.235  99.961   8.544  1.00  0.00     0.009 C 
ENDBRANCH   1   7
BRANCH   3   9
ATOM      9  O   UNL     1      14.535  96.882  10.080  1.00  0.00    -0.508 OA
ATOM     10  H   UNL     1      14.408  96.743  11.076  1.00  0.00     0.293 HD
ENDBRANCH   3   9
TORSDOF 2
ENDMDL
MODEL 2
REMARK VINA RESULT:    -3.760      1.581      2.257
REMARK INTER + INTRA:          -4.139
REMARK INTER:                  -4.064
REMARK INTRA:                  -0.075
REMARK UNBOUND:                -0.049
REMARK SMILES CCc1cccc(O)c1
REMARK SMILES IDX 3 1 9 2 7 3 6 4 5 5 4 6 2 7 1 8 8 9
REMARK H PARENT 8 10
REMARK Flexibility Score: inf
ROOT
ATOM      1  C   UNL     1      17.914  97.529   8.752  1.00  0.00    -0.045 A 
ATOM      2  C   UNL     1      18.256  96.213   8.399  1.00  0.00     0.049 A 
ATOM      3  C   UNL     1      17.320  95.178   8.533  1.00  0.00     0.115 A 
ATOM      4  C   UNL     1      16.036  95.460   9.013  1.00  0.00     0.046 A 
ATOM      5  C   UNL     1      15.685  96.769   9.353  1.00  0.00     0.004 A 
ATOM      6  C   UNL     1      16.618  97.802   9.220  1.00  0.00     0.004 A 
ENDROOT
BRANCH   1   7
ATOM      7  C   UNL     1      18.909  98.646   8.577  1.00  0.00     0.032 C 
ATOM      8  C   UNL     1      18.203  99.997   8.550  1.00  0.00     0.009 C 
ENDBRANCH   1   7
BRANCH   3   9
ATOM      9  O   UNL     1      17.652  93.870   8.190  1.00  0.00    -0.508 OA
ATOM     10  H   UNL     1      18.099  93.246   8.852  1.00  0.00     0.293 HD
ENDBRANCH   3   9
TORSDOF 2
ENDMDL
MODEL 3
REMARK VINA RESULT:    -3.459      1.872      3.713
REMARK INTER + INTRA:          -3.811
REMARK INTER:                  -3.762
REMARK INTRA:                  -0.049
REMARK UNBOUND:                -0.049
REMARK SMILES CCc1cccc(O)c1
REMARK SMILES IDX 3 1 9 2 7 3 6 4 5 5 4 6 2 7 1 8 8 9
REMARK H PARENT 8 10
REMARK Flexibility Score: inf
ROOT
ATOM      1  C   UNL     1      17.254  95.233   8.761  1.00  0.00    -0.045 A 
ATOM      2  C   UNL     1      18.137  96.283   8.460  1.00  0.00     0.049 A 
ATOM      3  C   UNL     1      17.738  97.616   8.639  1.00  0.00     0.115 A 
ATOM      4  C   UNL     1      16.458  97.899   9.128  1.00  0.00     0.046 A 
ATOM      5  C   UNL     1      15.580  96.859   9.442  1.00  0.00     0.004 A 
ATOM      6  C   UNL     1      15.976  95.529   9.264  1.00  0.00     0.004 A 
ENDROOT
BRANCH   1   7
ATOM      7  C   UNL     1      17.692  93.802   8.600  1.00  0.00     0.032 C 
ATOM      8  C   UNL     1      18.809  93.692   7.567  1.00  0.00     0.009 C 
ENDBRANCH   1   7
BRANCH   3   9
ATOM      9  O   UNL     1      18.606  98.663   8.338  1.00  0.00    -0.508 OA
ATOM     10  H   UNL     1      19.134  98.681   7.474  1.00  0.00     0.293 HD
ENDBRANCH   3   9
TORSDOF 2
ENDMDL
MODEL 4
REMARK VINA RESULT:    -3.451      0.988      3.157
REMARK INTER + INTRA:          -3.803
REMARK INTER:                  -3.728
REMARK INTRA:                  -0.075
REMARK UNBOUND:                -0.049
REMARK SMILES CCc1cccc(O)c1
REMARK SMILES IDX 3 1 9 2 7 3 6 4 5 5 4 6 2 7 1 8 8 9
REMARK H PARENT 8 10
REMARK Flexibility Score: inf
ROOT
ATOM      1  C   UNL     1      17.384  95.277   8.751  1.00  0.00    -0.045 A 
ATOM      2  C   UNL     1      16.174  95.668   9.349  1.00  0.00     0.049 A 
ATOM      3  C   UNL     1      15.853  97.027   9.473  1.00  0.00     0.115 A 
ATOM      4  C   UNL     1      16.739  97.997   8.992  1.00  0.00     0.046 A 
ATOM      5  C   UNL     1      17.938  97.614   8.385  1.00  0.00     0.004 A 
ATOM      6  C   UNL     1      18.259  96.259   8.260  1.00  0.00     0.004 A 
ENDROOT
BRANCH   1   7
ATOM      7  C   UNL     1      17.714  93.817   8.588  1.00  0.00     0.032 C 
ATOM      8  C   UNL     1      18.789  93.622   7.524  1.00  0.00     0.009 C 
ENDBRANCH   1   7
BRANCH   3   9
ATOM      9  O   UNL     1      14.658  97.424  10.068  1.00  0.00    -0.508 OA
ATOM     10  H   UNL     1      14.639  98.121  10.803  1.00  0.00     0.293 HD
ENDBRANCH   3   9
TORSDOF 2
ENDMDL
MODEL 5
REMARK VINA RESULT:    -3.091      1.892      3.538
REMARK INTER + INTRA:          -3.411
REMARK INTER:                  -3.361
REMARK INTRA:                  -0.050
REMARK UNBOUND:                -0.049
REMARK SMILES CCc1cccc(O)c1
REMARK SMILES IDX 3 1 9 2 7 3 6 4 5 5 4 6 2 7 1 8 8 9
REMARK H PARENT 8 10
REMARK Flexibility Score: inf
ROOT
ATOM      1  C   UNL     1      16.212  97.016   9.339  1.00  0.00    -0.045 A 
ATOM      2  C   UNL     1      16.464  95.675   9.004  1.00  0.00     0.049 A 
ATOM      3  C   UNL     1      17.631  95.327   8.308  1.00  0.00     0.115 A 
ATOM      4  C   UNL     1      18.551  96.320   7.954  1.00  0.00     0.046 A 
ATOM      5  C   UNL     1      18.313  97.653   8.295  1.00  0.00     0.004 A 
ATOM      6  C   UNL     1      17.150  98.002   8.989  1.00  0.00     0.004 A 
ENDROOT
BRANCH   1   7
ATOM      7  C   UNL     1      14.976  97.386  10.115  1.00  0.00     0.032 C 
ATOM      8  C   UNL     1      13.979  96.232  10.125  1.00  0.00     0.009 C 
ENDBRANCH   1   7
BRANCH   3   9
ATOM      9  O   UNL     1      17.886  94.001   7.968  1.00  0.00    -0.508 OA
ATOM     10  H   UNL     1      17.570  93.610   7.088  1.00  0.00     0.293 HD
ENDBRANCH   3   9
TORSDOF 2
ENDMDL
MODEL 6
REMARK VINA RESULT:    -2.941      2.083      3.497
REMARK INTER + INTRA:          -3.249
REMARK INTER:                  -3.173
REMARK INTRA:                  -0.075
REMARK UNBOUND:                -0.049
REMARK SMILES CCc1cccc(O)c1
REMARK SMILES IDX 3 1 9 2 7 3 6 4 5 5 4 6 2 7 1 8 8 9
REMARK H PARENT 8 10
REMARK Flexibility Score: inf
ROOT
ATOM      1  C   UNL     1      15.994  96.699   9.424  1.00  0.00    -0.045 A 
ATOM      2  C   UNL     1      17.019  97.556   8.989  1.00  0.00     0.049 A 
ATOM      3  C   UNL     1      18.132  97.040   8.310  1.00  0.00     0.115 A 
ATOM      4  C   UNL     1      18.217  95.666   8.058  1.00  0.00     0.046 A 
ATOM      5  C   UNL     1      17.195  94.811   8.476  1.00  0.00     0.004 A 
ATOM      6  C   UNL     1      16.084  95.324   9.153  1.00  0.00     0.004 A 
ENDROOT
BRANCH   1   7
ATOM      7  C   UNL     1      14.783  97.257  10.124  1.00  0.00     0.032 C 
ATOM      8  C   UNL     1      13.645  96.242  10.125  1.00  0.00     0.009 C 
ENDBRANCH   1   7
BRANCH   3   9
ATOM      9  O   UNL     1      19.155  97.882   7.880  1.00  0.00    -0.508 OA
ATOM     10  H   UNL     1      19.160  98.869   8.109  1.00  0.00     0.293 HD
ENDBRANCH   3   9
TORSDOF 2
ENDMDL
MODEL 7
REMARK VINA RESULT:    -1.981      1.903      3.363
REMARK INTER + INTRA:          -2.204
REMARK INTER:                  -2.152
REMARK INTRA:                  -0.051
REMARK UNBOUND:                -0.049
REMARK SMILES CCc1cccc(O)c1
REMARK SMILES IDX 3 1 9 2 7 3 6 4 5 5 4 6 2 7 1 8 8 9
REMARK H PARENT 8 10
REMARK Flexibility Score: inf
ROOT
ATOM      1  C   UNL     1      16.655  96.462   8.934  1.00  0.00    -0.045 A 
ATOM      2  C   UNL     1      16.913  97.842   8.996  1.00  0.00     0.049 A 
ATOM      3  C   UNL     1      18.100  98.365   8.465  1.00  0.00     0.115 A 
ATOM      4  C   UNL     1      19.029  97.508   7.863  1.00  0.00     0.046 A 
ATOM      5  C   UNL     1      18.772  96.137   7.786  1.00  0.00     0.004 A 
ATOM      6  C   UNL     1      17.589  95.614   8.316  1.00  0.00     0.004 A 
ENDROOT
BRANCH   1   7
ATOM      7  C   UNL     1      15.366  95.905   9.475  1.00  0.00     0.032 C 
ATOM      8  C   UNL     1      14.532  97.005  10.125  1.00  0.00     0.009 C 
ENDBRANCH   1   7
BRANCH   3   9
ATOM      9  O   UNL     1      18.366  99.731   8.526  1.00  0.00    -0.508 OA
ATOM     10  H   UNL     1      17.700 100.415   8.186  1.00  0.00     0.293 HD
ENDBRANCH   3   9
TORSDOF 2
ENDMDL
