MODEL 1
REMARK VINA RESULT:    -3.947      0.000      0.000
REMARK INTER + INTRA:          -4.922
REMARK INTER:                  -4.640
REMARK INTRA:                  -0.283
REMARK UNBOUND:                -0.283
REMARK SMILES O=C([O-])C=Cc1ccc(O)c(O)c1
REMARK SMILES IDX 6 1 13 2 7 3 11 4 8 5 9 6 5 7 4 8 2 9 1 10 3 11 12 12 10 14
REMARK H PARENT 12 13 10 15
REMARK Flexibility Score: inf
ROOT
ATOM      1  C   UNL     1      -7.213   4.892 -26.228  1.00  0.00    -0.022 A 
ATOM      2  C   UNL     1      -8.146   5.654 -25.508  1.00  0.00     0.058 A 
ATOM      3  C   UNL     1      -6.652   3.752 -25.631  1.00  0.00     0.012 A 
ATOM      4  C   UNL     1      -8.554   5.255 -24.226  1.00  0.00     0.157 A 
ATOM      5  C   UNL     1      -7.057   3.351 -24.355  1.00  0.00     0.051 A 
ATOM      6  C   UNL     1      -8.009   4.095 -23.650  1.00  0.00     0.157 A 
ENDROOT
BRANCH   1   7
ATOM      7  C   UNL     1      -6.762   5.365 -27.553  1.00  0.00     0.010 C 
ATOM      8  C   UNL     1      -5.821   6.297 -27.767  1.00  0.00     0.025 C 
BRANCH   8   9
ATOM      9  C   UNL     1      -4.942   6.887 -26.739  1.00  0.00     0.064 C 
ATOM     10  O   UNL     1      -5.241   7.961 -26.154  1.00  0.00    -0.545 OA
ATOM     11  O   UNL     1      -3.793   6.207 -26.359  1.00  0.00    -0.545 OA
ENDBRANCH   8   9
ENDBRANCH   1   7
BRANCH   4  12
ATOM     12  O   UNL     1      -9.496   6.007 -23.526  1.00  0.00    -0.504 OA
ATOM     13  H   UNL     1     -10.425   6.171 -23.895  1.00  0.00     0.293 HD
ENDBRANCH   4  12
BRANCH   6  14
ATOM     14  O   UNL     1      -8.397   3.669 -22.380  1.00  0.00    -0.504 OA
ATOM     15  H   UNL     1      -7.788   3.757 -21.575  1.00  0.00     0.293 HD
ENDBRANCH   6  14
TORSDOF 4
ENDMDL
MODEL 2
REMARK VINA RESULT:    -3.929     14.721     16.075
REMARK INTER + INTRA:          -4.901
REMARK INTER:                  -4.630
REMARK INTRA:                  -0.270
REMARK UNBOUND:                -0.283
REMARK SMILES O=C([O-])C=Cc1ccc(O)c(O)c1
REMARK SMILES IDX 6 1 13 2 7 3 11 4 8 5 9 6 5 7 4 8 2 9 1 10 3 11 12 12 10 14
REMARK H PARENT 12 13 10 15
REMARK Flexibility Score: inf
ROOT
ATOM      1  C   UNL     1     -17.810   5.249 -35.144  1.00  0.00    -0.022 A 
ATOM      2  C   UNL     1     -16.906   6.057 -35.851  1.00  0.00     0.058 A 
ATOM      3  C   UNL     1     -18.345   4.110 -35.766  1.00  0.00     0.012 A 
ATOM      4  C   UNL     1     -16.498   5.703 -37.146  1.00  0.00     0.157 A 
ATOM      5  C   UNL     1     -17.940   3.755 -37.056  1.00  0.00     0.051 A 
ATOM      6  C   UNL     1     -17.016   4.544 -37.748  1.00  0.00     0.157 A 
ENDROOT
BRANCH   1   7
ATOM      7  C   UNL     1     -18.262   5.673 -33.803  1.00  0.00     0.010 C 
ATOM      8  C   UNL     1     -19.297   6.491 -33.554  1.00  0.00     0.025 C 
BRANCH   8   9
ATOM      9  C   UNL     1     -20.277   6.970 -34.547  1.00  0.00     0.064 C 
ATOM     10  O   UNL     1     -21.233   6.246 -34.931  1.00  0.00    -0.545 OA
ATOM     11  O   UNL     1     -20.182   8.272 -35.019  1.00  0.00    -0.545 OA
ENDBRANCH   8   9
ENDBRANCH   1   7
BRANCH   4  12
ATOM     12  O   UNL     1     -15.585   6.500 -37.834  1.00  0.00    -0.504 OA
ATOM     13  H   UNL     1     -15.826   6.947 -38.712  1.00  0.00     0.293 HD
ENDBRANCH   4  12
BRANCH   6  14
ATOM     14  O   UNL     1     -16.628   4.164 -39.033  1.00  0.00    -0.504 OA
ATOM     15  H   UNL     1     -16.715   4.787 -39.827  1.00  0.00     0.293 HD
ENDBRANCH   6  14
TORSDOF 4
ENDMDL
MODEL 3
REMARK VINA RESULT:    -3.924     14.307     15.440
REMARK INTER + INTRA:          -4.895
REMARK INTER:                  -4.640
REMARK INTRA:                  -0.254
REMARK UNBOUND:                -0.283
REMARK SMILES O=C([O-])C=Cc1ccc(O)c(O)c1
REMARK SMILES IDX 6 1 13 2 7 3 11 4 8 5 9 6 5 7 4 8 2 9 1 10 3 11 12 12 10 14
REMARK H PARENT 12 13 10 15
REMARK Flexibility Score: inf
ROOT
ATOM      1  C   UNL     1     -10.501  10.321 -40.183  1.00  0.00    -0.022 A 
ATOM      2  C   UNL     1     -10.775  10.169 -38.816  1.00  0.00     0.058 A 
ATOM      3  C   UNL     1     -11.281   9.625 -41.121  1.00  0.00     0.012 A 
ATOM      4  C   UNL     1     -11.850   9.375 -38.388  1.00  0.00     0.157 A 
ATOM      5  C   UNL     1     -12.353   8.833 -40.699  1.00  0.00     0.051 A 
ATOM      6  C   UNL     1     -12.644   8.707 -39.336  1.00  0.00     0.157 A 
ENDROOT
BRANCH   1   7
ATOM      7  C   UNL     1      -9.332  11.121 -40.602  1.00  0.00     0.010 C 
ATOM      8  C   UNL     1      -8.053  10.716 -40.549  1.00  0.00     0.025 C 
BRANCH   8   9
ATOM      9  C   UNL     1      -7.594   9.349 -40.239  1.00  0.00     0.064 C 
ATOM     10  O   UNL     1      -7.534   8.456 -41.125  1.00  0.00    -0.545 OA
ATOM     11  O   UNL     1      -7.153   9.058 -38.954  1.00  0.00    -0.545 OA
ENDBRANCH   8   9
ENDBRANCH   1   7
BRANCH   4  12
ATOM     12  O   UNL     1     -12.128   9.245 -37.029  1.00  0.00    -0.504 OA
ATOM     13  H   UNL     1     -12.239   8.337 -36.594  1.00  0.00     0.293 HD
ENDBRANCH   4  12
BRANCH   6  14
ATOM     14  O   UNL     1     -13.721   7.912 -38.944  1.00  0.00    -0.504 OA
ATOM     15  H   UNL     1     -14.619   8.309 -38.697  1.00  0.00     0.293 HD
ENDBRANCH   6  14
TORSDOF 4
ENDMDL
MODEL 4
REMARK VINA RESULT:    -3.910     13.401     15.369
REMARK INTER + INTRA:          -4.878
REMARK INTER:                  -4.709
REMARK INTRA:                  -0.169
REMARK UNBOUND:                -0.283
REMARK SMILES O=C([O-])C=Cc1ccc(O)c(O)c1
REMARK SMILES IDX 6 1 13 2 7 3 11 4 8 5 9 6 5 7 4 8 2 9 1 10 3 11 12 12 10 14
REMARK H PARENT 12 13 10 15
REMARK Flexibility Score: inf
ROOT
ATOM      1  C   UNL     1     -16.168  -6.943 -24.777  1.00  0.00    -0.022 A 
ATOM      2  C   UNL     1     -14.957  -6.503 -25.332  1.00  0.00     0.058 A 
ATOM      3  C   UNL     1     -16.876  -6.093 -23.914  1.00  0.00     0.012 A 
ATOM      4  C   UNL     1     -14.482  -5.209 -25.071  1.00  0.00     0.157 A 
ATOM      5  C   UNL     1     -16.407  -4.803 -23.652  1.00  0.00     0.051 A 
ATOM      6  C   UNL     1     -15.215  -4.354 -24.230  1.00  0.00     0.157 A 
ENDROOT
BRANCH   1   7
ATOM      7  C   UNL     1     -16.616  -8.329 -25.027  1.00  0.00     0.010 C 
ATOM      8  C   UNL     1     -17.146  -8.780 -26.175  1.00  0.00     0.025 C 
BRANCH   8   9
ATOM      9  C   UNL     1     -17.211  -8.034 -27.446  1.00  0.00     0.064 C 
ATOM     10  O   UNL     1     -16.377  -8.231 -28.369  1.00  0.00    -0.545 OA
ATOM     11  O   UNL     1     -18.255  -7.143 -27.656  1.00  0.00    -0.545 OA
ENDBRANCH   8   9
ENDBRANCH   1   7
BRANCH   4  12
ATOM     12  O   UNL     1     -13.288  -4.773 -25.642  1.00  0.00    -0.504 OA
ATOM     13  H   UNL     1     -12.403  -5.216 -25.425  1.00  0.00     0.293 HD
ENDBRANCH   4  12
BRANCH   6  14
ATOM     14  O   UNL     1     -14.772  -3.061 -23.954  1.00  0.00    -0.504 OA
ATOM     15  H   UNL     1     -15.412  -2.312 -23.720  1.00  0.00     0.293 HD
ENDBRANCH   6  14
TORSDOF 4
ENDMDL
MODEL 5
REMARK VINA RESULT:    -3.882     14.660     16.030
REMARK INTER + INTRA:          -4.845
REMARK INTER:                  -4.566
REMARK INTRA:                  -0.279
REMARK UNBOUND:                -0.283
REMARK SMILES O=C([O-])C=Cc1ccc(O)c(O)c1
REMARK SMILES IDX 6 1 13 2 7 3 11 4 8 5 9 6 5 7 4 8 2 9 1 10 3 11 12 12 10 14
REMARK H PARENT 12 13 10 15
REMARK Flexibility Score: inf
ROOT
ATOM      1  C   UNL     1     -17.164   4.854 -35.714  1.00  0.00    -0.022 A 
ATOM      2  C   UNL     1     -17.492   4.044 -36.812  1.00  0.00     0.058 A 
ATOM      3  C   UNL     1     -16.204   5.866 -35.869  1.00  0.00     0.012 A 
ATOM      4  C   UNL     1     -16.907   4.275 -38.066  1.00  0.00     0.157 A 
ATOM      5  C   UNL     1     -15.620   6.099 -37.117  1.00  0.00     0.051 A 
ATOM      6  C   UNL     1     -15.970   5.311 -38.219  1.00  0.00     0.157 A 
ENDROOT
BRANCH   1   7
ATOM      7  C   UNL     1     -17.756   4.554 -34.393  1.00  0.00     0.010 C 
ATOM      8  C   UNL     1     -18.829   5.164 -33.866  1.00  0.00     0.025 C 
BRANCH   8   9
ATOM      9  C   UNL     1     -19.718   6.107 -34.571  1.00  0.00     0.064 C 
ATOM     10  O   UNL     1     -20.844   5.751 -35.006  1.00  0.00    -0.545 OA
ATOM     11  O   UNL     1     -19.333   7.435 -34.697  1.00  0.00    -0.545 OA
ENDBRANCH   8   9
ENDBRANCH   1   7
BRANCH   4  12
ATOM     12  O   UNL     1     -17.253   3.479 -39.157  1.00  0.00    -0.504 OA
ATOM     13  H   UNL     1     -17.478   2.497 -39.048  1.00  0.00     0.293 HD
ENDBRANCH   4  12
BRANCH   6  14
ATOM     14  O   UNL     1     -15.373   5.568 -39.453  1.00  0.00    -0.504 OA
ATOM     15  H   UNL     1     -15.863   6.050 -40.197  1.00  0.00     0.293 HD
ENDBRANCH   6  14
TORSDOF 4
ENDMDL
MODEL 6
REMARK VINA RESULT:    -3.855     14.187     15.915
REMARK INTER + INTRA:          -4.814
REMARK INTER:                  -4.587
REMARK INTRA:                  -0.227
REMARK UNBOUND:                -0.283
REMARK SMILES O=C([O-])C=Cc1ccc(O)c(O)c1
REMARK SMILES IDX 6 1 13 2 7 3 11 4 8 5 9 6 5 7 4 8 2 9 1 10 3 11 12 12 10 14
REMARK H PARENT 12 13 10 15
REMARK Flexibility Score: inf
ROOT
ATOM      1  C   UNL     1     -12.106   6.767 -40.568  1.00  0.00    -0.022 A 
ATOM      2  C   UNL     1     -13.068   7.642 -40.039  1.00  0.00     0.058 A 
ATOM      3  C   UNL     1     -10.900   7.290 -41.060  1.00  0.00     0.012 A 
ATOM      4  C   UNL     1     -12.807   9.018 -39.951  1.00  0.00     0.157 A 
ATOM      5  C   UNL     1     -10.637   8.660 -40.973  1.00  0.00     0.051 A 
ATOM      6  C   UNL     1     -11.583   9.527 -40.418  1.00  0.00     0.157 A 
ENDROOT
BRANCH   1   7
ATOM      7  C   UNL     1     -12.428   5.331 -40.697  1.00  0.00     0.010 C 
ATOM      8  C   UNL     1     -12.339   4.423 -39.712  1.00  0.00     0.025 C 
BRANCH   8   9
ATOM      9  C   UNL     1     -12.080   4.717 -38.289  1.00  0.00     0.064 C 
ATOM     10  O   UNL     1     -13.018   4.804 -37.454  1.00  0.00    -0.545 OA
ATOM     11  O   UNL     1     -10.768   4.832 -37.849  1.00  0.00    -0.545 OA
ENDBRANCH   8   9
ENDBRANCH   1   7
BRANCH   4  12
ATOM     12  O   UNL     1     -13.759   9.877 -39.406  1.00  0.00    -0.504 OA
ATOM     13  H   UNL     1     -13.537  10.840 -39.178  1.00  0.00     0.293 HD
ENDBRANCH   4  12
BRANCH   6  14
ATOM     14  O   UNL     1     -11.293  10.889 -40.342  1.00  0.00    -0.504 OA
ATOM     15  H   UNL     1     -11.635  11.470 -39.586  1.00  0.00     0.293 HD
ENDBRANCH   6  14
TORSDOF 4
ENDMDL
MODEL 7
REMARK VINA RESULT:    -3.798     13.082     14.839
REMARK INTER + INTRA:          -4.746
REMARK INTER:                  -4.489
REMARK INTRA:                  -0.257
REMARK UNBOUND:                -0.283
REMARK SMILES O=C([O-])C=Cc1ccc(O)c(O)c1
REMARK SMILES IDX 6 1 13 2 7 3 11 4 8 5 9 6 5 7 4 8 2 9 1 10 3 11 12 12 10 14
REMARK H PARENT 12 13 10 15
REMARK Flexibility Score: inf
ROOT
ATOM      1  C   UNL     1     -16.473  -5.509 -25.947  1.00  0.00    -0.022 A 
ATOM      2  C   UNL     1     -15.213  -4.966 -26.242  1.00  0.00     0.058 A 
ATOM      3  C   UNL     1     -16.694  -6.084 -24.686  1.00  0.00     0.012 A 
ATOM      4  C   UNL     1     -14.200  -4.950 -25.272  1.00  0.00     0.157 A 
ATOM      5  C   UNL     1     -15.688  -6.068 -23.717  1.00  0.00     0.051 A 
ATOM      6  C   UNL     1     -14.441  -5.500 -24.001  1.00  0.00     0.157 A 
ENDROOT
BRANCH   1   7
ATOM      7  C   UNL     1     -17.503  -5.560 -27.004  1.00  0.00     0.010 C 
ATOM      8  C   UNL     1     -17.530  -6.435 -28.022  1.00  0.00     0.025 C 
BRANCH   8   9
ATOM      9  C   UNL     1     -16.650  -7.610 -28.173  1.00  0.00     0.064 C 
ATOM     10  O   UNL     1     -15.585  -7.553 -28.843  1.00  0.00    -0.545 OA
ATOM     11  O   UNL     1     -16.968  -8.785 -27.505  1.00  0.00    -0.545 OA
ENDBRANCH   8   9
ENDBRANCH   1   7
BRANCH   4  12
ATOM     12  O   UNL     1     -12.957  -4.391 -25.566  1.00  0.00    -0.504 OA
ATOM     13  H   UNL     1     -12.850  -3.399 -25.745  1.00  0.00     0.293 HD
ENDBRANCH   4  12
BRANCH   6  14
ATOM     14  O   UNL     1     -13.456  -5.496 -23.014  1.00  0.00    -0.504 OA
ATOM     15  H   UNL     1     -13.666  -5.700 -22.045  1.00  0.00     0.293 HD
ENDBRANCH   6  14
TORSDOF 4
ENDMDL
MODEL 8
REMARK VINA RESULT:    -3.794      6.772      9.512
REMARK INTER + INTRA:          -4.741
REMARK INTER:                  -4.448
REMARK INTRA:                  -0.293
REMARK UNBOUND:                -0.283
REMARK SMILES O=C([O-])C=Cc1ccc(O)c(O)c1
REMARK SMILES IDX 6 1 13 2 7 3 11 4 8 5 9 6 5 7 4 8 2 9 1 10 3 11 12 12 10 14
REMARK H PARENT 12 13 10 15
REMARK Flexibility Score: inf
ROOT
ATOM      1  C   UNL     1     -14.604   7.290 -21.405  1.00  0.00    -0.022 A 
ATOM      2  C   UNL     1     -13.452   6.689 -21.934  1.00  0.00     0.058 A 
ATOM      3  C   UNL     1     -14.542   8.621 -20.963  1.00  0.00     0.012 A 
ATOM      4  C   UNL     1     -12.264   7.422 -22.070  1.00  0.00     0.157 A 
ATOM      5  C   UNL     1     -13.360   9.355 -21.097  1.00  0.00     0.051 A 
ATOM      6  C   UNL     1     -12.221   8.764 -21.652  1.00  0.00     0.157 A 
ENDROOT
BRANCH   1   7
ATOM      7  C   UNL     1     -15.825   6.479 -21.225  1.00  0.00     0.010 C 
ATOM      8  C   UNL     1     -16.855   6.423 -22.085  1.00  0.00     0.025 C 
BRANCH   8   9
ATOM      9  C   UNL     1     -16.883   7.012 -23.437  1.00  0.00     0.064 C 
ATOM     10  O   UNL     1     -17.472   8.099 -23.671  1.00  0.00    -0.545 OA
ATOM     11  O   UNL     1     -16.185   6.386 -24.462  1.00  0.00    -0.545 OA
ENDBRANCH   8   9
ENDBRANCH   1   7
BRANCH   4  12
ATOM     12  O   UNL     1     -11.129   6.823 -22.615  1.00  0.00    -0.504 OA
ATOM     13  H   UNL     1     -11.040   6.663 -23.612  1.00  0.00     0.293 HD
ENDBRANCH   4  12
BRANCH   6  14
ATOM     14  O   UNL     1     -11.056   9.521 -21.777  1.00  0.00    -0.504 OA
ATOM     15  H   UNL     1     -10.858  10.070 -22.604  1.00  0.00     0.293 HD
ENDBRANCH   6  14
TORSDOF 4
ENDMDL
MODEL 9
REMARK VINA RESULT:    -3.776     14.911     15.914
REMARK INTER + INTRA:          -4.721
REMARK INTER:                  -4.484
REMARK INTRA:                  -0.237
REMARK UNBOUND:                -0.283
REMARK SMILES O=C([O-])C=Cc1ccc(O)c(O)c1
REMARK SMILES IDX 6 1 13 2 7 3 11 4 8 5 9 6 5 7 4 8 2 9 1 10 3 11 12 12 10 14
REMARK H PARENT 12 13 10 15
REMARK Flexibility Score: inf
ROOT
ATOM      1  C   UNL     1      -8.400  -5.317 -35.559  1.00  0.00    -0.022 A 
ATOM      2  C   UNL     1      -9.650  -4.796 -35.191  1.00  0.00     0.058 A 
ATOM      3  C   UNL     1      -8.197  -5.744 -36.881  1.00  0.00     0.012 A 
ATOM      4  C   UNL     1     -10.671  -4.654 -36.142  1.00  0.00     0.157 A 
ATOM      5  C   UNL     1      -9.211  -5.603 -37.832  1.00  0.00     0.051 A 
ATOM      6  C   UNL     1     -10.447  -5.056 -37.470  1.00  0.00     0.157 A 
ENDROOT
BRANCH   1   7
ATOM      7  C   UNL     1      -7.361  -5.504 -34.525  1.00  0.00     0.010 C 
ATOM      8  C   UNL     1      -7.224  -6.591 -33.749  1.00  0.00     0.025 C 
BRANCH   8   9
ATOM      9  C   UNL     1      -7.961  -7.859 -33.903  1.00  0.00     0.064 C 
ATOM     10  O   UNL     1      -7.742  -8.636 -34.870  1.00  0.00    -0.545 OA
ATOM     11  O   UNL     1      -8.870  -8.238 -32.923  1.00  0.00    -0.545 OA
ENDBRANCH   8   9
ENDBRANCH   1   7
BRANCH   4  12
ATOM     12  O   UNL     1     -11.903  -4.117 -35.773  1.00  0.00    -0.504 OA
ATOM     13  H   UNL     1     -12.771  -4.463 -36.165  1.00  0.00     0.293 HD
ENDBRANCH   4  12
BRANCH   6  14
ATOM     14  O   UNL     1     -11.440  -4.925 -38.441  1.00  0.00    -0.504 OA
ATOM     15  H   UNL     1     -11.228  -4.928 -39.431  1.00  0.00     0.293 HD
ENDBRANCH   6  14
TORSDOF 4
ENDMDL
