MODEL 1
REMARK VINA RESULT:    -6.679      0.000      0.000
REMARK INTER + INTRA:          -7.752
REMARK INTER:                  -7.656
REMARK INTRA:                  -0.096
REMARK UNBOUND:                -0.096
REMARK SMILES C=C(C)[C@@H]1CC[C@@]2(C(=O)[O-])CC[C@@]3(C)[C@@H](CC[C@@H]4[C@@]5(C)CC[C@H](O)C(C)(C)[C@H]5CC[C@@]43C)[C@H]12
REMARK SMILES IDX 7 1 6 2 33 3 11 4 5 5 15 6 4 7 12 8 16 9 13 10 17 11 31 12
REMARK SMILES IDX 14 13 18 14 30 15 32 16 19 17 29 18 21 19 20 20 28 21 22 22
REMARK SMILES IDX 25 23 23 24 26 25 27 26 8 27 9 28 10 29 2 30 3 31 1 32 24 33
REMARK H PARENT 24 34
REMARK Flexibility Score: inf
ROOT
ATOM      1  C   UNL     1     -18.485 -14.037  -1.990  1.00  0.00     0.014 C 
ATOM      2  C   UNL     1     -19.127 -15.234  -2.719  1.00  0.00     0.014 C 
ATOM      3  C   UNL     1     -19.069 -14.252  -0.578  1.00  0.00     0.012 C 
ATOM      4  C   UNL     1     -18.941 -12.655  -2.507  1.00  0.00     0.014 C 
ATOM      5  C   UNL     1     -19.007 -16.402  -1.719  1.00  0.00     0.009 C 
ATOM      6  C   UNL     1     -18.635 -13.146   0.414  1.00  0.00     0.000 C 
ATOM      7  C   UNL     1     -19.000 -15.774  -0.304  1.00  0.00     0.018 C 
ATOM      8  C   UNL     1     -18.632 -11.499  -1.499  1.00  0.00     0.008 C 
ATOM      9  C   UNL     1     -18.970 -13.402   1.871  1.00  0.00     0.005 C 
ATOM     10  C   UNL     1     -19.150 -11.709  -0.009  1.00  0.00    -0.024 C 
ATOM     11  C   UNL     1     -18.079 -12.513   2.743  1.00  0.00     0.005 C 
ATOM     12  C   UNL     1     -18.626 -10.571   1.083  1.00  0.00    -0.024 C 
ATOM     13  C   UNL     1     -20.716 -11.636  -0.124  1.00  0.00     0.012 C 
ATOM     14  C   UNL     1     -17.533 -11.174   2.083  1.00  0.00     0.002 C 
ATOM     15  C   UNL     1     -19.752 -10.042   2.030  1.00  0.00     0.008 C 
ATOM     16  C   UNL     1     -18.118  -9.338   0.270  1.00  0.00     0.012 C 
ATOM     17  C   UNL     1     -16.955 -10.214   3.241  1.00  0.00    -0.026 C 
ATOM     18  C   UNL     1     -19.285  -9.039   3.102  1.00  0.00     0.005 C 
ATOM     19  C   UNL     1     -15.941  -9.160   2.678  1.00  0.00     0.010 C 
ATOM     20  C   UNL     1     -16.098 -11.115   4.201  1.00  0.00     0.012 C 
ATOM     21  C   UNL     1     -18.139  -9.521   4.041  1.00  0.00     0.003 C 
ATOM     22  C   UNL     1     -15.506  -8.089   3.691  1.00  0.00     0.033 C 
ATOM     23  C   UNL     1     -17.684  -8.367   5.050  1.00  0.00    -0.006 C 
ATOM     24  C   UNL     1     -16.701  -7.381   4.342  1.00  0.00     0.120 C 
ATOM     25  C   UNL     1     -18.914  -7.548   5.547  1.00  0.00     0.014 C 
ATOM     26  C   UNL     1     -17.047  -8.959   6.343  1.00  0.00     0.014 C 
ENDROOT
BRANCH   1  27
ATOM     27  C   UNL     1     -16.951 -14.133  -2.114  1.00  0.00     0.048 C 
ATOM     28  O   UNL     1     -16.419 -14.687  -3.114  1.00  0.00    -0.550 OA
ATOM     29  O   UNL     1     -16.105 -13.535  -1.189  1.00  0.00    -0.550 OA
ENDBRANCH   1  27
BRANCH   7  30
ATOM     30  C   UNL     1     -17.873 -16.311   0.590  1.00  0.00    -0.077 C 
ATOM     31  C   UNL     1     -16.516 -16.688   0.051  1.00  0.00     0.039 C 
ATOM     32  C   UNL     1     -18.123 -16.523   1.896  1.00  0.00     0.008 C 
ENDBRANCH   7  30
BRANCH  24  33
ATOM     33  O   UNL     1     -16.205  -6.432   5.256  1.00  0.00    -0.393 OA
ATOM     34  H   UNL     1     -15.879  -6.930   6.051  1.00  0.00     0.210 HD
ENDBRANCH  24  33
TORSDOF 3
ENDMDL
MODEL 2
REMARK VINA RESULT:    -6.576      4.563     10.758
REMARK INTER + INTRA:          -7.634
REMARK INTER:                  -7.534
REMARK INTRA:                  -0.100
REMARK UNBOUND:                -0.096
REMARK SMILES C=C(C)[C@@H]1CC[C@@]2(C(=O)[O-])CC[C@@]3(C)[C@@H](CC[C@@H]4[C@@]5(C)CC[C@H](O)C(C)(C)[C@H]5CC[C@@]43C)[C@H]12
REMARK SMILES IDX 7 1 6 2 33 3 11 4 5 5 15 6 4 7 12 8 16 9 13 10 17 11 31 12
REMARK SMILES IDX 14 13 18 14 30 15 32 16 19 17 29 18 21 19 20 20 28 21 22 22
REMARK SMILES IDX 25 23 23 24 26 25 27 26 8 27 9 28 10 29 2 30 3 31 1 32 24 33
REMARK H PARENT 24 34
REMARK Flexibility Score: inf
ROOT
ATOM      1  C   UNL     1     -12.941  -6.575  10.623  1.00  0.00     0.014 C 
ATOM      2  C   UNL     1     -11.851  -6.720  11.703  1.00  0.00     0.014 C 
ATOM      3  C   UNL     1     -12.955  -8.017  10.075  1.00  0.00     0.012 C 
ATOM      4  C   UNL     1     -12.575  -5.614   9.470  1.00  0.00     0.014 C 
ATOM      5  C   UNL     1     -12.154  -8.076  12.374  1.00  0.00     0.009 C 
ATOM      6  C   UNL     1     -13.950  -8.194   8.903  1.00  0.00     0.000 C 
ATOM      7  C   UNL     1     -12.851  -8.952  11.305  1.00  0.00     0.018 C 
ATOM      8  C   UNL     1     -13.474  -5.815   8.206  1.00  0.00     0.008 C 
ATOM      9  C   UNL     1     -14.197  -9.624   8.460  1.00  0.00     0.005 C 
ATOM     10  C   UNL     1     -13.579  -7.301   7.647  1.00  0.00    -0.024 C 
ATOM     11  C   UNL     1     -15.512  -9.674   7.677  1.00  0.00     0.005 C 
ATOM     12  C   UNL     1     -14.701  -7.520   6.441  1.00  0.00    -0.024 C 
ATOM     13  C   UNL     1     -12.144  -7.613   7.086  1.00  0.00     0.012 C 
ATOM     14  C   UNL     1     -15.976  -8.332   6.962  1.00  0.00     0.002 C 
ATOM     15  C   UNL     1     -14.175  -8.373   5.240  1.00  0.00     0.008 C 
ATOM     16  C   UNL     1     -15.049  -6.112   5.862  1.00  0.00     0.012 C 
ATOM     17  C   UNL     1     -17.141  -8.676   5.903  1.00  0.00    -0.026 C 
ATOM     18  C   UNL     1     -15.213  -8.656   4.137  1.00  0.00     0.005 C 
ATOM     19  C   UNL     1     -18.010  -7.419   5.559  1.00  0.00     0.010 C 
ATOM     20  C   UNL     1     -18.134  -9.663   6.614  1.00  0.00     0.012 C 
ATOM     21  C   UNL     1     -16.533  -9.344   4.597  1.00  0.00     0.003 C 
ATOM     22  C   UNL     1     -19.008  -7.627   4.408  1.00  0.00     0.033 C 
ATOM     23  C   UNL     1     -17.562  -9.506   3.383  1.00  0.00    -0.006 C 
ATOM     24  C   UNL     1     -18.334  -8.169   3.142  1.00  0.00     0.120 C 
ATOM     25  C   UNL     1     -16.814  -9.875   2.066  1.00  0.00     0.014 C 
ATOM     26  C   UNL     1     -18.552 -10.685   3.628  1.00  0.00     0.014 C 
ENDROOT
BRANCH   1  27
ATOM     27  C   UNL     1     -14.246  -6.085  11.283  1.00  0.00     0.048 C 
ATOM     28  O   UNL     1     -14.213  -5.304  12.273  1.00  0.00    -0.550 OA
ATOM     29  O   UNL     1     -15.493  -6.404  10.761  1.00  0.00    -0.550 OA
ENDBRANCH   1  27
BRANCH   7  30
ATOM     30  C   UNL     1     -14.125  -9.635  11.822  1.00  0.00    -0.077 C 
ATOM     31  C   UNL     1     -15.086  -8.958  12.767  1.00  0.00     0.039 C 
ATOM     32  C   UNL     1     -14.365 -10.915  11.476  1.00  0.00     0.008 C 
ENDBRANCH   7  30
BRANCH  24  33
ATOM     33  O   UNL     1     -19.322  -8.338   2.155  1.00  0.00    -0.393 OA
ATOM     34  H   UNL     1     -19.748  -7.453   2.007  1.00  0.00     0.210 HD
ENDBRANCH  24  33
TORSDOF 3
ENDMDL
MODEL 3
REMARK VINA RESULT:    -6.461      2.109      8.717
REMARK INTER + INTRA:          -7.502
REMARK INTER:                  -7.551
REMARK INTRA:                   0.049
REMARK UNBOUND:                -0.096
REMARK SMILES C=C(C)[C@@H]1CC[C@@]2(C(=O)[O-])CC[C@@]3(C)[C@@H](CC[C@@H]4[C@@]5(C)CC[C@H](O)C(C)(C)[C@H]5CC[C@@]43C)[C@H]12
REMARK SMILES IDX 7 1 6 2 33 3 11 4 5 5 15 6 4 7 12 8 16 9 13 10 17 11 31 12
REMARK SMILES IDX 14 13 18 14 30 15 32 16 19 17 29 18 21 19 20 20 28 21 22 22
REMARK SMILES IDX 25 23 23 24 26 25 27 26 8 27 9 28 10 29 2 30 3 31 1 32 24 33
REMARK H PARENT 24 34
REMARK Flexibility Score: inf
ROOT
ATOM      1  C   UNL     1     -15.953  -7.280   7.264  1.00  0.00     0.014 C 
ATOM      2  C   UNL     1     -15.771  -6.017   8.130  1.00  0.00     0.014 C 
ATOM      3  C   UNL     1     -16.431  -6.627   5.951  1.00  0.00     0.012 C 
ATOM      4  C   UNL     1     -17.052  -8.244   7.763  1.00  0.00     0.014 C 
ATOM      5  C   UNL     1     -15.107  -4.996   7.183  1.00  0.00     0.009 C 
ATOM      6  C   UNL     1     -16.757  -7.672   4.856  1.00  0.00     0.000 C 
ATOM      7  C   UNL     1     -15.558  -5.364   5.749  1.00  0.00     0.018 C 
ATOM      8  C   UNL     1     -17.510  -9.261   6.667  1.00  0.00     0.008 C 
ATOM      9  C   UNL     1     -17.009  -7.112   3.469  1.00  0.00     0.005 C 
ATOM     10  C   UNL     1     -17.942  -8.639   5.268  1.00  0.00    -0.024 C 
ATOM     11  C   UNL     1     -16.826  -8.237   2.446  1.00  0.00     0.005 C 
ATOM     12  C   UNL     1     -18.218  -9.748   4.061  1.00  0.00    -0.024 C 
ATOM     13  C   UNL     1     -19.275  -7.865   5.578  1.00  0.00     0.012 C 
ATOM     14  C   UNL     1     -17.057  -9.723   2.962  1.00  0.00     0.002 C 
ATOM     15  C   UNL     1     -19.520  -9.472   3.240  1.00  0.00     0.008 C 
ATOM     16  C   UNL     1     -18.411 -11.141   4.738  1.00  0.00     0.012 C 
ATOM     17  C   UNL     1     -17.195 -10.705   1.692  1.00  0.00    -0.026 C 
ATOM     18  C   UNL     1     -19.768 -10.441   2.067  1.00  0.00     0.005 C 
ATOM     19  C   UNL     1     -16.888 -12.196   2.066  1.00  0.00     0.010 C 
ATOM     20  C   UNL     1     -16.063 -10.310   0.678  1.00  0.00     0.012 C 
ATOM     21  C   UNL     1     -18.624 -10.553   1.016  1.00  0.00     0.003 C 
ATOM     22  C   UNL     1     -17.195 -13.210   0.953  1.00  0.00     0.033 C 
ATOM     23  C   UNL     1     -18.960 -11.647  -0.101  1.00  0.00    -0.006 C 
ATOM     24  C   UNL     1     -18.629 -13.081   0.425  1.00  0.00     0.120 C 
ATOM     25  C   UNL     1     -20.472 -11.609  -0.478  1.00  0.00     0.014 C 
ATOM     26  C   UNL     1     -18.206 -11.352  -1.433  1.00  0.00     0.014 C 
ENDROOT
BRANCH   1  27
ATOM     27  C   UNL     1     -14.615  -8.045   7.196  1.00  0.00     0.048 C 
ATOM     28  O   UNL     1     -13.787  -7.980   8.146  1.00  0.00    -0.550 OA
ATOM     29  O   UNL     1     -14.315  -8.899   6.143  1.00  0.00    -0.550 OA
ENDBRANCH   1  27
BRANCH   7  30
ATOM     30  C   UNL     1     -14.397  -5.425   4.747  1.00  0.00    -0.077 C 
ATOM     31  C   UNL     1     -14.504  -4.888   3.342  1.00  0.00     0.039 C 
ATOM     32  C   UNL     1     -13.256  -6.045   5.108  1.00  0.00     0.008 C 
ENDBRANCH   7  30
BRANCH  24  33
ATOM     33  O   UNL     1     -18.811 -14.036  -0.592  1.00  0.00    -0.393 OA
ATOM     34  H   UNL     1     -18.796 -14.932  -0.164  1.00  0.00     0.210 HD
ENDBRANCH  24  33
TORSDOF 3
ENDMDL
MODEL 4
REMARK VINA RESULT:    -6.312     10.402     12.847
REMARK INTER + INTRA:          -7.331
REMARK INTER:                  -7.735
REMARK INTRA:                   0.404
REMARK UNBOUND:                -0.096
REMARK SMILES C=C(C)[C@@H]1CC[C@@]2(C(=O)[O-])CC[C@@]3(C)[C@@H](CC[C@@H]4[C@@]5(C)CC[C@H](O)C(C)(C)[C@H]5CC[C@@]43C)[C@H]12
REMARK SMILES IDX 7 1 6 2 33 3 11 4 5 5 15 6 4 7 12 8 16 9 13 10 17 11 31 12
REMARK SMILES IDX 14 13 18 14 30 15 32 16 19 17 29 18 21 19 20 20 28 21 22 22
REMARK SMILES IDX 25 23 23 24 26 25 27 26 8 27 9 28 10 29 2 30 3 31 1 32 24 33
REMARK H PARENT 24 34
REMARK Flexibility Score: inf
ROOT
ATOM      1  C   UNL     1     -13.966 -20.222  11.691  1.00  0.00     0.014 C 
ATOM      2  C   UNL     1     -14.730 -21.552  11.534  1.00  0.00     0.014 C 
ATOM      3  C   UNL     1     -15.158 -19.250  11.802  1.00  0.00     0.012 C 
ATOM      4  C   UNL     1     -13.117 -19.824  10.463  1.00  0.00     0.014 C 
ATOM      5  C   UNL     1     -15.889 -21.450  12.548  1.00  0.00     0.009 C 
ATOM      6  C   UNL     1     -14.708 -17.774  11.926  1.00  0.00     0.000 C 
ATOM      7  C   UNL     1     -16.204 -19.943  12.710  1.00  0.00     0.018 C 
ATOM      8  C   UNL     1     -12.718 -18.312  10.468  1.00  0.00     0.008 C 
ATOM      9  C   UNL     1     -15.800 -16.780  12.270  1.00  0.00     0.005 C 
ATOM     10  C   UNL     1     -13.907 -17.271  10.654  1.00  0.00    -0.024 C 
ATOM     11  C   UNL     1     -15.150 -15.511  12.828  1.00  0.00     0.005 C 
ATOM     12  C   UNL     1     -13.433 -15.693  10.867  1.00  0.00    -0.024 C 
ATOM     13  C   UNL     1     -14.743 -17.388   9.327  1.00  0.00     0.012 C 
ATOM     14  C   UNL     1     -13.657 -15.209  12.374  1.00  0.00     0.002 C 
ATOM     15  C   UNL     1     -14.254 -14.669  10.017  1.00  0.00     0.008 C 
ATOM     16  C   UNL     1     -11.952 -15.578  10.386  1.00  0.00     0.012 C 
ATOM     17  C   UNL     1     -13.294 -13.682  12.742  1.00  0.00    -0.026 C 
ATOM     18  C   UNL     1     -13.887 -13.190  10.244  1.00  0.00     0.005 C 
ATOM     19  C   UNL     1     -11.747 -13.454  12.838  1.00  0.00     0.010 C 
ATOM     20  C   UNL     1     -13.825 -13.420  14.197  1.00  0.00     0.012 C 
ATOM     21  C   UNL     1     -13.973 -12.680  11.714  1.00  0.00     0.003 C 
ATOM     22  C   UNL     1     -11.327 -11.983  12.986  1.00  0.00     0.033 C 
ATOM     23  C   UNL     1     -13.488 -11.161  11.836  1.00  0.00    -0.006 C 
ATOM     24  C   UNL     1     -11.928 -11.090  11.894  1.00  0.00     0.120 C 
ATOM     25  C   UNL     1     -13.964 -10.326  10.609  1.00  0.00     0.014 C 
ATOM     26  C   UNL     1     -14.125 -10.457  13.073  1.00  0.00     0.014 C 
ENDROOT
BRANCH   1  27
ATOM     27  C   UNL     1     -13.044 -20.311  12.924  1.00  0.00     0.048 C 
ATOM     28  O   UNL     1     -12.912 -21.396  13.553  1.00  0.00    -0.550 OA
ATOM     29  O   UNL     1     -12.259 -19.239  13.328  1.00  0.00    -0.550 OA
ENDBRANCH   1  27
BRANCH   7  30
ATOM     30  C   UNL     1     -16.313 -19.503  14.176  1.00  0.00    -0.077 C 
ATOM     31  C   UNL     1     -15.188 -18.809  14.904  1.00  0.00     0.039 C 
ATOM     32  C   UNL     1     -17.428 -19.808  14.867  1.00  0.00     0.008 C 
ENDBRANCH   7  30
BRANCH  24  33
ATOM     33  O   UNL     1     -11.500  -9.769  12.119  1.00  0.00    -0.393 OA
ATOM     34  H   UNL     1     -10.722  -9.604  11.524  1.00  0.00     0.210 HD
ENDBRANCH  24  33
TORSDOF 3
ENDMDL
MODEL 5
REMARK VINA RESULT:    -6.294     13.114     16.542
REMARK INTER + INTRA:          -7.310
REMARK INTER:                  -7.207
REMARK INTRA:                  -0.103
REMARK UNBOUND:                -0.096
REMARK SMILES C=C(C)[C@@H]1CC[C@@]2(C(=O)[O-])CC[C@@]3(C)[C@@H](CC[C@@H]4[C@@]5(C)CC[C@H](O)C(C)(C)[C@H]5CC[C@@]43C)[C@H]12
REMARK SMILES IDX 7 1 6 2 33 3 11 4 5 5 15 6 4 7 12 8 16 9 13 10 17 11 31 12
REMARK SMILES IDX 14 13 18 14 30 15 32 16 19 17 29 18 21 19 20 20 28 21 22 22
REMARK SMILES IDX 25 23 23 24 26 25 27 26 8 27 9 28 10 29 2 30 3 31 1 32 24 33
REMARK H PARENT 24 34
REMARK Flexibility Score: inf
ROOT
ATOM      1  C   UNL     1      -9.663 -13.788  14.793  1.00  0.00     0.014 C 
ATOM      2  C   UNL     1      -8.319 -13.034  14.755  1.00  0.00     0.014 C 
ATOM      3  C   UNL     1      -9.254 -15.083  14.061  1.00  0.00     0.012 C 
ATOM      4  C   UNL     1     -10.800 -13.110  13.997  1.00  0.00     0.014 C 
ATOM      5  C   UNL     1      -7.265 -14.112  15.077  1.00  0.00     0.009 C 
ATOM      6  C   UNL     1     -10.439 -16.064  13.889  1.00  0.00     0.000 C 
ATOM      7  C   UNL     1      -7.851 -15.462  14.596  1.00  0.00     0.018 C 
ATOM      8  C   UNL     1     -11.988 -14.081  13.691  1.00  0.00     0.008 C 
ATOM      9  C   UNL     1     -10.077 -17.450  13.391  1.00  0.00     0.005 C 
ATOM     10  C   UNL     1     -11.606 -15.463  13.002  1.00  0.00    -0.024 C 
ATOM     11  C   UNL     1     -11.219 -18.410  13.737  1.00  0.00     0.005 C 
ATOM     12  C   UNL     1     -12.852 -16.556  12.883  1.00  0.00    -0.024 C 
ATOM     13  C   UNL     1     -11.125 -15.064  11.559  1.00  0.00     0.012 C 
ATOM     14  C   UNL     1     -12.667 -17.774  13.903  1.00  0.00     0.002 C 
ATOM     15  C   UNL     1     -12.949 -17.249  11.484  1.00  0.00     0.008 C 
ATOM     16  C   UNL     1     -14.186 -15.771  13.080  1.00  0.00     0.012 C 
ATOM     17  C   UNL     1     -13.765 -18.953  13.883  1.00  0.00    -0.026 C 
ATOM     18  C   UNL     1     -14.050 -18.321  11.363  1.00  0.00     0.005 C 
ATOM     19  C   UNL     1     -15.109 -18.515  14.559  1.00  0.00     0.010 C 
ATOM     20  C   UNL     1     -13.218 -20.107  14.797  1.00  0.00     0.012 C 
ATOM     21  C   UNL     1     -13.997 -19.480  12.403  1.00  0.00     0.003 C 
ATOM     22  C   UNL     1     -16.262 -19.518  14.397  1.00  0.00     0.033 C 
ATOM     23  C   UNL     1     -15.234 -20.478  12.231  1.00  0.00    -0.006 C 
ATOM     24  C   UNL     1     -16.504 -19.897  12.931  1.00  0.00     0.120 C 
ATOM     25  C   UNL     1     -15.569 -20.692  10.724  1.00  0.00     0.014 C 
ATOM     26  C   UNL     1     -14.899 -21.900  12.773  1.00  0.00     0.014 C 
ENDROOT
BRANCH   1  27
ATOM     27  C   UNL     1     -10.112 -13.949  16.260  1.00  0.00     0.048 C 
ATOM     28  O   UNL     1      -9.810 -13.081  17.125  1.00  0.00    -0.550 OA
ATOM     29  O   UNL     1     -10.935 -14.992  16.662  1.00  0.00    -0.550 OA
ENDBRANCH   1  27
BRANCH   7  30
ATOM     30  C   UNL     1      -7.740 -16.577  15.646  1.00  0.00    -0.077 C 
ATOM     31  C   UNL     1      -7.894 -16.321  17.124  1.00  0.00     0.039 C 
ATOM     32  C   UNL     1      -7.423 -17.822  15.243  1.00  0.00     0.008 C 
ENDBRANCH   7  30
BRANCH  24  33
ATOM     33  O   UNL     1     -17.563 -20.822  12.884  1.00  0.00    -0.393 OA
ATOM     34  H   UNL     1     -17.492 -21.311  12.023  1.00  0.00     0.210 HD
ENDBRANCH  24  33
TORSDOF 3
ENDMDL
MODEL 6
REMARK VINA RESULT:    -6.265      3.183      9.135
REMARK INTER + INTRA:          -7.277
REMARK INTER:                  -7.174
REMARK INTRA:                  -0.103
REMARK UNBOUND:                -0.096
REMARK SMILES C=C(C)[C@@H]1CC[C@@]2(C(=O)[O-])CC[C@@]3(C)[C@@H](CC[C@@H]4[C@@]5(C)CC[C@H](O)C(C)(C)[C@H]5CC[C@@]43C)[C@H]12
REMARK SMILES IDX 7 1 6 2 33 3 11 4 5 5 15 6 4 7 12 8 16 9 13 10 17 11 31 12
REMARK SMILES IDX 14 13 18 14 30 15 32 16 19 17 29 18 21 19 20 20 28 21 22 22
REMARK SMILES IDX 25 23 23 24 26 25 27 26 8 27 9 28 10 29 2 30 3 31 1 32 24 33
REMARK H PARENT 24 34
REMARK Flexibility Score: inf
ROOT
ATOM      1  C   UNL     1     -14.499  -6.382   7.971  1.00  0.00     0.014 C 
ATOM      2  C   UNL     1     -13.239  -5.787   8.631  1.00  0.00     0.014 C 
ATOM      3  C   UNL     1     -13.834  -7.283   6.909  1.00  0.00     0.012 C 
ATOM      4  C   UNL     1     -15.392  -5.348   7.250  1.00  0.00     0.014 C 
ATOM      5  C   UNL     1     -12.269  -6.981   8.750  1.00  0.00     0.009 C 
ATOM      6  C   UNL     1     -14.871  -8.008   6.018  1.00  0.00     0.000 C 
ATOM      7  C   UNL     1     -12.627  -7.958   7.605  1.00  0.00     0.018 C 
ATOM      8  C   UNL     1     -16.393  -6.007   6.246  1.00  0.00     0.008 C 
ATOM      9  C   UNL     1     -14.314  -9.085   5.106  1.00  0.00     0.005 C 
ATOM     10  C   UNL     1     -15.763  -7.004   5.177  1.00  0.00    -0.024 C 
ATOM     11  C   UNL     1     -15.460 -10.009   4.683  1.00  0.00     0.005 C 
ATOM     12  C   UNL     1     -16.868  -7.847   4.267  1.00  0.00    -0.024 C 
ATOM     13  C   UNL     1     -14.909  -6.080   4.234  1.00  0.00     0.012 C 
ATOM     14  C   UNL     1     -16.924  -9.389   4.688  1.00  0.00     0.002 C 
ATOM     15  C   UNL     1     -16.527  -7.886   2.741  1.00  0.00     0.008 C 
ATOM     16  C   UNL     1     -18.240  -7.113   4.394  1.00  0.00     0.012 C 
ATOM     17  C   UNL     1     -17.911 -10.364   3.869  1.00  0.00    -0.026 C 
ATOM     18  C   UNL     1     -17.493  -8.721   1.878  1.00  0.00     0.005 C 
ATOM     19  C   UNL     1     -19.412 -10.143   4.260  1.00  0.00     0.010 C 
ATOM     20  C   UNL     1     -17.594 -11.832   4.326  1.00  0.00     0.012 C 
ATOM     21  C   UNL     1     -17.683 -10.208   2.304  1.00  0.00     0.003 C 
ATOM     22  C   UNL     1     -20.420 -10.894   3.376  1.00  0.00     0.033 C 
ATOM     23  C   UNL     1     -18.769 -10.944   1.390  1.00  0.00    -0.006 C 
ATOM     24  C   UNL     1     -20.213 -10.609   1.883  1.00  0.00     0.120 C 
ATOM     25  C   UNL     1     -18.648 -10.485  -0.094  1.00  0.00     0.014 C 
ATOM     26  C   UNL     1     -18.534 -12.485   1.355  1.00  0.00     0.014 C 
ENDROOT
BRANCH   1  27
ATOM     27  C   UNL     1     -15.341  -7.102   9.044  1.00  0.00     0.048 C 
ATOM     28  O   UNL     1     -15.232  -6.793  10.262  1.00  0.00    -0.550 OA
ATOM     29  O   UNL     1     -16.308  -8.040   8.706  1.00  0.00    -0.550 OA
ENDBRANCH   1  27
BRANCH   7  30
ATOM     30  C   UNL     1     -12.767  -9.413   8.074  1.00  0.00    -0.077 C 
ATOM     31  C   UNL     1     -13.476  -9.793   9.350  1.00  0.00     0.039 C 
ATOM     32  C   UNL     1     -12.175 -10.389   7.358  1.00  0.00     0.008 C 
ENDBRANCH   7  30
BRANCH  24  33
ATOM     33  O   UNL     1     -21.169 -11.346   1.158  1.00  0.00    -0.393 OA
ATOM     34  H   UNL     1     -21.041 -12.303   1.388  1.00  0.00     0.210 HD
ENDBRANCH  24  33
TORSDOF 3
ENDMDL
MODEL 7
REMARK VINA RESULT:    -6.119      1.566      2.487
REMARK INTER + INTRA:          -7.110
REMARK INTER:                  -7.011
REMARK INTRA:                  -0.099
REMARK UNBOUND:                -0.096
REMARK SMILES C=C(C)[C@@H]1CC[C@@]2(C(=O)[O-])CC[C@@]3(C)[C@@H](CC[C@@H]4[C@@]5(C)CC[C@H](O)C(C)(C)[C@H]5CC[C@@]43C)[C@H]12
REMARK SMILES IDX 7 1 6 2 33 3 11 4 5 5 15 6 4 7 12 8 16 9 13 10 17 11 31 12
REMARK SMILES IDX 14 13 18 14 30 15 32 16 19 17 29 18 21 19 20 20 28 21 22 22
REMARK SMILES IDX 25 23 23 24 26 25 27 26 8 27 9 28 10 29 2 30 3 31 1 32 24 33
REMARK H PARENT 24 34
REMARK Flexibility Score: inf
ROOT
ATOM      1  C   UNL     1     -19.705 -12.346  -0.511  1.00  0.00     0.014 C 
ATOM      2  C   UNL     1     -20.335 -13.627  -1.092  1.00  0.00     0.014 C 
ATOM      3  C   UNL     1     -19.090 -12.923   0.781  1.00  0.00     0.012 C 
ATOM      4  C   UNL     1     -20.725 -11.251  -0.124  1.00  0.00     0.014 C 
ATOM      5  C   UNL     1     -19.272 -14.719  -0.853  1.00  0.00     0.009 C 
ATOM      6  C   UNL     1     -18.401 -11.837   1.643  1.00  0.00     0.000 C 
ATOM      7  C   UNL     1     -18.465 -14.286   0.395  1.00  0.00     0.018 C 
ATOM      8  C   UNL     1     -20.123 -10.176   0.840  1.00  0.00     0.008 C 
ATOM      9  C   UNL     1     -17.573 -12.350   2.807  1.00  0.00     0.005 C 
ATOM     10  C   UNL     1     -19.411 -10.728   2.151  1.00  0.00    -0.024 C 
ATOM     11  C   UNL     1     -16.597 -11.251   3.235  1.00  0.00     0.005 C 
ATOM     12  C   UNL     1     -18.601  -9.585   3.044  1.00  0.00    -0.024 C 
ATOM     13  C   UNL     1     -20.583 -11.326   3.013  1.00  0.00     0.012 C 
ATOM     14  C   UNL     1     -17.016  -9.751   2.915  1.00  0.00     0.002 C 
ATOM     15  C   UNL     1     -18.865  -9.684   4.582  1.00  0.00     0.008 C 
ATOM     16  C   UNL     1     -19.122  -8.183   2.597  1.00  0.00     0.012 C 
ATOM     17  C   UNL     1     -16.076  -8.751   3.760  1.00  0.00    -0.026 C 
ATOM     18  C   UNL     1     -18.073  -8.684   5.446  1.00  0.00     0.005 C 
ATOM     19  C   UNL     1     -16.035  -7.315   3.133  1.00  0.00     0.010 C 
ATOM     20  C   UNL     1     -14.604  -9.282   3.632  1.00  0.00     0.012 C 
ATOM     21  C   UNL     1     -16.523  -8.713   5.283  1.00  0.00     0.003 C 
ATOM     22  C   UNL     1     -15.322  -6.262   3.996  1.00  0.00     0.033 C 
ATOM     23  C   UNL     1     -15.821  -7.577   6.162  1.00  0.00    -0.006 C 
ATOM     24  C   UNL     1     -15.881  -6.202   5.423  1.00  0.00     0.120 C 
ATOM     25  C   UNL     1     -16.537  -7.417   7.537  1.00  0.00     0.014 C 
ATOM     26  C   UNL     1     -14.351  -7.958   6.516  1.00  0.00     0.014 C 
ENDROOT
BRANCH   1  27
ATOM     27  C   UNL     1     -18.712 -11.760  -1.535  1.00  0.00     0.048 C 
ATOM     28  O   UNL     1     -18.821 -12.027  -2.763  1.00  0.00    -0.550 OA
ATOM     29  O   UNL     1     -17.730 -10.851  -1.163  1.00  0.00    -0.550 OA
ENDBRANCH   1  27
BRANCH   7  30
ATOM     30  C   UNL     1     -16.946 -14.369   0.192  1.00  0.00    -0.077 C 
ATOM     31  C   UNL     1     -16.270 -13.924  -1.081  1.00  0.00     0.039 C 
ATOM     32  C   UNL     1     -16.189 -14.925   1.157  1.00  0.00     0.008 C 
ENDBRANCH   7  30
BRANCH  24  33
ATOM     33  O   UNL     1     -15.162  -5.224   6.136  1.00  0.00    -0.393 OA
ATOM     34  H   UNL     1     -14.196  -5.409   6.002  1.00  0.00     0.210 HD
ENDBRANCH  24  33
TORSDOF 3
ENDMDL
MODEL 8
REMARK VINA RESULT:    -6.077     13.628     17.629
REMARK INTER + INTRA:          -7.062
REMARK INTER:                  -6.975
REMARK INTRA:                  -0.087
REMARK UNBOUND:                -0.096
REMARK SMILES C=C(C)[C@@H]1CC[C@@]2(C(=O)[O-])CC[C@@]3(C)[C@@H](CC[C@@H]4[C@@]5(C)CC[C@H](O)C(C)(C)[C@H]5CC[C@@]43C)[C@H]12
REMARK SMILES IDX 7 1 6 2 33 3 11 4 5 5 15 6 4 7 12 8 16 9 13 10 17 11 31 12
REMARK SMILES IDX 14 13 18 14 30 15 32 16 19 17 29 18 21 19 20 20 28 21 22 22
REMARK SMILES IDX 25 23 23 24 26 25 27 26 8 27 9 28 10 29 2 30 3 31 1 32 24 33
REMARK H PARENT 24 34
REMARK Flexibility Score: inf
ROOT
ATOM      1  C   UNL     1      -8.628 -15.378  16.170  1.00  0.00     0.014 C 
ATOM      2  C   UNL     1      -8.526 -14.171  17.123  1.00  0.00     0.014 C 
ATOM      3  C   UNL     1     -10.158 -15.428  15.979  1.00  0.00     0.012 C 
ATOM      4  C   UNL     1      -8.163 -16.718  16.783  1.00  0.00     0.014 C 
ATOM      5  C   UNL     1      -9.530 -13.147  16.554  1.00  0.00     0.009 C 
ATOM      6  C   UNL     1     -10.602 -16.606  15.077  1.00  0.00     0.000 C 
ATOM      7  C   UNL     1     -10.627 -13.961  15.826  1.00  0.00     0.018 C 
ATOM      8  C   UNL     1      -8.672 -17.960  15.980  1.00  0.00     0.008 C 
ATOM      9  C   UNL     1     -12.057 -16.594  14.650  1.00  0.00     0.005 C 
ATOM     10  C   UNL     1     -10.236 -18.019  15.694  1.00  0.00    -0.024 C 
ATOM     11  C   UNL     1     -12.215 -17.490  13.419  1.00  0.00     0.005 C 
ATOM     12  C   UNL     1     -10.716 -19.231  14.664  1.00  0.00    -0.024 C 
ATOM     13  C   UNL     1     -10.886 -18.250  17.107  1.00  0.00     0.012 C 
ATOM     14  C   UNL     1     -11.149 -18.655  13.236  1.00  0.00     0.002 C 
ATOM     15  C   UNL     1     -11.981 -20.010  15.154  1.00  0.00     0.008 C 
ATOM     16  C   UNL     1      -9.557 -20.275  14.593  1.00  0.00     0.012 C 
ATOM     17  C   UNL     1     -11.690 -19.695  12.131  1.00  0.00    -0.026 C 
ATOM     18  C   UNL     1     -12.495 -21.093  14.188  1.00  0.00     0.005 C 
ATOM     19  C   UNL     1     -10.530 -20.541  11.503  1.00  0.00     0.010 C 
ATOM     20  C   UNL     1     -12.255 -18.846  10.936  1.00  0.00     0.012 C 
ATOM     21  C   UNL     1     -12.828 -20.621  12.740  1.00  0.00     0.003 C 
ATOM     22  C   UNL     1     -10.997 -21.687  10.591  1.00  0.00     0.033 C 
ATOM     23  C   UNL     1     -13.267 -21.846  11.811  1.00  0.00    -0.006 C 
ATOM     24  C   UNL     1     -12.010 -22.607  11.283  1.00  0.00     0.120 C 
ATOM     25  C   UNL     1     -14.145 -22.858  12.606  1.00  0.00     0.014 C 
ATOM     26  C   UNL     1     -14.170 -21.371  10.632  1.00  0.00     0.014 C 
ENDROOT
BRANCH   1  27
ATOM     27  C   UNL     1      -7.793 -15.095  14.904  1.00  0.00     0.048 C 
ATOM     28  O   UNL     1      -6.727 -14.425  14.972  1.00  0.00    -0.550 OA
ATOM     29  O   UNL     1      -8.128 -15.640  13.671  1.00  0.00    -0.550 OA
ENDBRANCH   1  27
BRANCH   7  30
ATOM     30  C   UNL     1     -10.940 -13.431  14.420  1.00  0.00    -0.077 C 
ATOM     31  C   UNL     1      -9.895 -12.793  13.539  1.00  0.00     0.039 C 
ATOM     32  C   UNL     1     -12.211 -13.469  13.977  1.00  0.00     0.008 C 
ENDBRANCH   7  30
BRANCH  24  33
ATOM     33  O   UNL     1     -12.385 -23.612  10.371  1.00  0.00    -0.393 OA
ATOM     34  H   UNL     1     -11.613 -23.766   9.765  1.00  0.00     0.210 HD
ENDBRANCH  24  33
TORSDOF 3
ENDMDL
MODEL 9
REMARK VINA RESULT:    -6.057      1.809      8.048
REMARK INTER + INTRA:          -7.039
REMARK INTER:                  -7.046
REMARK INTRA:                   0.007
REMARK UNBOUND:                -0.096
REMARK SMILES C=C(C)[C@@H]1CC[C@@]2(C(=O)[O-])CC[C@@]3(C)[C@@H](CC[C@@H]4[C@@]5(C)CC[C@H](O)C(C)(C)[C@H]5CC[C@@]43C)[C@H]12
REMARK SMILES IDX 7 1 6 2 33 3 11 4 5 5 15 6 4 7 12 8 16 9 13 10 17 11 31 12
REMARK SMILES IDX 14 13 18 14 30 15 32 16 19 17 29 18 21 19 20 20 28 21 22 22
REMARK SMILES IDX 25 23 23 24 26 25 27 26 8 27 9 28 10 29 2 30 3 31 1 32 24 33
REMARK H PARENT 24 34
REMARK Flexibility Score: inf
ROOT
ATOM      1  C   UNL     1     -17.008  -7.796   5.623  1.00  0.00     0.014 C 
ATOM      2  C   UNL     1     -16.625  -6.441   6.250  1.00  0.00     0.014 C 
ATOM      3  C   UNL     1     -16.805  -7.458   4.132  1.00  0.00     0.012 C 
ATOM      4  C   UNL     1     -18.482  -8.206   5.839  1.00  0.00     0.014 C 
ATOM      5  C   UNL     1     -15.384  -5.988   5.454  1.00  0.00     0.009 C 
ATOM      6  C   UNL     1     -17.167  -8.642   3.203  1.00  0.00     0.000 C 
ATOM      7  C   UNL     1     -15.505  -6.622   4.047  1.00  0.00     0.018 C 
ATOM      8  C   UNL     1     -18.949  -9.328   4.854  1.00  0.00     0.008 C 
ATOM      9  C   UNL     1     -16.779  -8.477   1.746  1.00  0.00     0.005 C 
ATOM     10  C   UNL     1     -18.693  -9.056   3.307  1.00  0.00    -0.024 C 
ATOM     11  C   UNL     1     -16.744  -9.859   1.088  1.00  0.00     0.005 C 
ATOM     12  C   UNL     1     -19.003 -10.347   2.307  1.00  0.00    -0.024 C 
ATOM     13  C   UNL     1     -19.667  -7.875   2.949  1.00  0.00     0.012 C 
ATOM     14  C   UNL     1     -17.653 -10.989   1.739  1.00  0.00     0.002 C 
ATOM     15  C   UNL     1     -19.810  -9.967   1.022  1.00  0.00     0.008 C 
ATOM     16  C   UNL     1     -19.890 -11.355   3.103  1.00  0.00     0.012 C 
ATOM     17  C   UNL     1     -17.776 -12.223   0.710  1.00  0.00    -0.026 C 
ATOM     18  C   UNL     1     -20.052 -11.128   0.038  1.00  0.00     0.005 C 
ATOM     19  C   UNL     1     -18.172 -13.555   1.435  1.00  0.00     0.010 C 
ATOM     20  C   UNL     1     -16.337 -12.494   0.141  1.00  0.00     0.012 C 
ATOM     21  C   UNL     1     -18.782 -11.875  -0.468  1.00  0.00     0.003 C 
ATOM     22  C   UNL     1     -18.501 -14.722   0.491  1.00  0.00     0.033 C 
ATOM     23  C   UNL     1     -19.165 -13.108  -1.412  1.00  0.00    -0.006 C 
ATOM     24  C   UNL     1     -19.563 -14.349  -0.551  1.00  0.00     0.120 C 
ATOM     25  C   UNL     1     -20.374 -12.750  -2.329  1.00  0.00     0.014 C 
ATOM     26  C   UNL     1     -18.006 -13.456  -2.393  1.00  0.00     0.014 C 
ENDROOT
BRANCH   1  27
ATOM     27  C   UNL     1     -16.096  -8.898   6.201  1.00  0.00     0.048 C 
ATOM     28  O   UNL     1     -15.759  -8.882   7.417  1.00  0.00    -0.550 OA
ATOM     29  O   UNL     1     -15.695  -9.987   5.440  1.00  0.00    -0.550 OA
ENDBRANCH   1  27
BRANCH   7  30
ATOM     30  C   UNL     1     -14.215  -7.313   3.583  1.00  0.00    -0.077 C 
ATOM     31  C   UNL     1     -13.158  -7.795   4.545  1.00  0.00     0.039 C 
ATOM     32  C   UNL     1     -13.978  -7.433   2.263  1.00  0.00     0.008 C 
ENDBRANCH   7  30
BRANCH  24  33
ATOM     33  O   UNL     1     -19.787 -15.471  -1.371  1.00  0.00    -0.393 OA
ATOM     34  H   UNL     1     -19.952 -15.136  -2.291  1.00  0.00     0.210 HD
ENDBRANCH  24  33
TORSDOF 3
ENDMDL
