MODEL 1
REMARK VINA RESULT:    -0.296      0.000      0.000
REMARK INTER + INTRA:          -0.530
REMARK INTER:                  -0.314
REMARK INTRA:                  -0.216
REMARK UNBOUND:                -0.216
REMARK SMILES CC1=CC[C@H]2[C@@H]3[C@@H](C(C)C)CC[C@@]2(C)[C@H]13
REMARK SMILES IDX 1 1 2 2 3 3 4 4 5 5 6 6 15 7 13 8 12 9 11 10 7 11 14 12 8 13
REMARK SMILES IDX 9 14 10 15
REMARK H PARENT
REMARK Flexibility Score: inf
ROOT
ATOM      1  C   UNL     1     155.125 139.662 162.441  1.00  0.00     0.039 C 
ATOM      2  C   UNL     1     154.176 138.600 162.909  1.00  0.00    -0.073 C 
ATOM      3  C   UNL     1     153.572 138.654 164.127  1.00  0.00    -0.027 C 
ATOM      4  C   UNL     1     152.609 137.530 164.523  1.00  0.00     0.031 C 
ATOM      5  C   UNL     1     152.463 136.500 163.356  1.00  0.00     0.003 C 
ATOM      6  C   UNL     1     152.254 137.302 162.051  1.00  0.00     0.004 C 
ATOM      7  C   UNL     1     153.799 137.433 161.997  1.00  0.00     0.024 C 
ATOM      8  C   UNL     1     153.843 136.097 162.779  1.00  0.00    -0.022 C 
ATOM      9  C   UNL     1     153.656 134.888 161.810  1.00  0.00     0.008 C 
ATOM     10  C   UNL     1     152.730 135.226 160.610  1.00  0.00     0.005 C 
ATOM     11  C   UNL     1     151.706 136.356 160.942  1.00  0.00    -0.005 C 
ATOM     12  C   UNL     1     155.012 135.844 163.759  1.00  0.00     0.012 C 
ENDROOT
BRANCH  11  13
ATOM     13  C   UNL     1     151.191 137.141 159.697  1.00  0.00    -0.014 C 
ATOM     14  C   UNL     1     149.901 137.914 160.009  1.00  0.00     0.007 C 
ATOM     15  C   UNL     1     151.006 136.276 158.438  1.00  0.00     0.007 C 
ENDBRANCH  11  13
TORSDOF 1
ENDMDL
MODEL 2
REMARK VINA RESULT:     0.553     13.293     15.968
REMARK INTER + INTRA:           0.369
REMARK INTER:                   0.517
REMARK INTRA:                  -0.148
REMARK UNBOUND:                -0.216
REMARK SMILES CC1=CC[C@H]2[C@@H]3[C@@H](C(C)C)CC[C@@]2(C)[C@H]13
REMARK SMILES IDX 1 1 2 2 3 3 4 4 5 5 6 6 15 7 13 8 12 9 11 10 7 11 14 12 8 13
REMARK SMILES IDX 9 14 10 15
REMARK H PARENT
REMARK Flexibility Score: inf
ROOT
ATOM      1  C   UNL     1     139.953 134.875 161.218  1.00  0.00     0.039 C 
ATOM      2  C   UNL     1     139.137 135.968 161.841  1.00  0.00    -0.073 C 
ATOM      3  C   UNL     1     139.661 137.190 162.125  1.00  0.00    -0.027 C 
ATOM      4  C   UNL     1     138.755 138.254 162.754  1.00  0.00     0.031 C 
ATOM      5  C   UNL     1     137.299 137.706 162.913  1.00  0.00     0.003 C 
ATOM      6  C   UNL     1     136.914 137.018 161.583  1.00  0.00     0.004 C 
ATOM      7  C   UNL     1     137.649 135.766 162.127  1.00  0.00     0.024 C 
ATOM      8  C   UNL     1     137.291 136.289 163.540  1.00  0.00    -0.022 C 
ATOM      9  C   UNL     1     135.826 135.905 163.912  1.00  0.00     0.008 C 
ATOM     10  C   UNL     1     134.887 135.872 162.674  1.00  0.00     0.005 C 
ATOM     11  C   UNL     1     135.370 136.817 161.530  1.00  0.00    -0.005 C 
ATOM     12  C   UNL     1     138.256 135.991 164.712  1.00  0.00     0.012 C 
ENDROOT
BRANCH  11  13
ATOM     13  C   UNL     1     134.875 136.408 160.109  1.00  0.00    -0.014 C 
ATOM     14  C   UNL     1     135.648 135.196 159.568  1.00  0.00     0.007 C 
ATOM     15  C   UNL     1     134.888 137.554 159.083  1.00  0.00     0.007 C 
ENDBRANCH  11  13
TORSDOF 1
ENDMDL
MODEL 3
REMARK VINA RESULT:     1.100     19.985     22.503
REMARK INTER + INTRA:           0.948
REMARK INTER:                   1.304
REMARK INTRA:                  -0.356
REMARK UNBOUND:                -0.216
REMARK SMILES CC1=CC[C@H]2[C@@H]3[C@@H](C(C)C)CC[C@@]2(C)[C@H]13
REMARK SMILES IDX 1 1 2 2 3 3 4 4 5 5 6 6 15 7 13 8 12 9 11 10 7 11 14 12 8 13
REMARK SMILES IDX 9 14 10 15
REMARK H PARENT
REMARK Flexibility Score: inf
ROOT
ATOM      1  C   UNL     1     136.474 150.117 161.968  1.00  0.00     0.039 C 
ATOM      2  C   UNL     1     136.872 151.412 162.610  1.00  0.00    -0.073 C 
ATOM      3  C   UNL     1     137.085 151.520 163.948  1.00  0.00    -0.027 C 
ATOM      4  C   UNL     1     137.498 152.880 164.522  1.00  0.00     0.031 C 
ATOM      5  C   UNL     1     137.650 153.933 163.376  1.00  0.00     0.003 C 
ATOM      6  C   UNL     1     138.462 153.269 162.240  1.00  0.00     0.004 C 
ATOM      7  C   UNL     1     137.118 152.660 161.763  1.00  0.00     0.024 C 
ATOM      8  C   UNL     1     136.441 153.895 162.407  1.00  0.00    -0.022 C 
ATOM      9  C   UNL     1     136.518 155.125 161.450  1.00  0.00     0.008 C 
ATOM     10  C   UNL     1     137.808 155.125 160.584  1.00  0.00     0.005 C 
ATOM     11  C   UNL     1     138.988 154.366 161.268  1.00  0.00    -0.005 C 
ATOM     12  C   UNL     1     135.020 153.743 162.999  1.00  0.00     0.012 C 
ENDROOT
BRANCH  11  13
ATOM     13  C   UNL     1     140.056 153.814 160.274  1.00  0.00    -0.014 C 
ATOM     14  C   UNL     1     139.697 154.144 158.817  1.00  0.00     0.007 C 
ATOM     15  C   UNL     1     140.342 152.310 160.428  1.00  0.00     0.007 C 
ENDBRANCH  11  13
TORSDOF 1
ENDMDL
MODEL 4
REMARK VINA RESULT:     1.328      1.146      4.296
REMARK INTER + INTRA:           1.189
REMARK INTER:                   1.574
REMARK INTRA:                  -0.385
REMARK UNBOUND:                -0.216
REMARK SMILES CC1=CC[C@H]2[C@@H]3[C@@H](C(C)C)CC[C@@]2(C)[C@H]13
REMARK SMILES IDX 1 1 2 2 3 3 4 4 5 5 6 6 15 7 13 8 12 9 11 10 7 11 14 12 8 13
REMARK SMILES IDX 9 14 10 15
REMARK H PARENT
REMARK Flexibility Score: inf
ROOT
ATOM      1  C   UNL     1     150.306 138.790 160.753  1.00  0.00     0.039 C 
ATOM      2  C   UNL     1     151.474 137.865 160.588  1.00  0.00    -0.073 C 
ATOM      3  C   UNL     1     152.034 137.614 159.375  1.00  0.00    -0.027 C 
ATOM      4  C   UNL     1     153.232 136.661 159.298  1.00  0.00     0.031 C 
ATOM      5  C   UNL     1     153.630 136.168 160.727  1.00  0.00     0.003 C 
ATOM      6  C   UNL     1     153.658 137.405 161.654  1.00  0.00     0.004 C 
ATOM      7  C   UNL     1     152.127 137.208 161.805  1.00  0.00     0.024 C 
ATOM      8  C   UNL     1     152.391 135.706 161.534  1.00  0.00    -0.022 C 
ATOM      9  C   UNL     1     152.870 134.990 162.836  1.00  0.00     0.008 C 
ATOM     10  C   UNL     1     153.703 135.924 163.756  1.00  0.00     0.005 C 
ATOM     11  C   UNL     1     154.427 137.057 162.963  1.00  0.00    -0.005 C 
ATOM     12  C   UNL     1     151.304 134.875 160.814  1.00  0.00     0.012 C 
ENDROOT
BRANCH  11  13
ATOM     13  C   UNL     1     154.755 138.323 163.811  1.00  0.00    -0.014 C 
ATOM     14  C   UNL     1     153.634 138.642 164.811  1.00  0.00     0.007 C 
ATOM     15  C   UNL     1     155.098 139.570 162.977  1.00  0.00     0.007 C 
ENDBRANCH  11  13
TORSDOF 1
ENDMDL
