MODEL 1
REMARK VINA RESULT:    -4.732      0.000      0.000
REMARK INTER + INTRA:         -11.710
REMARK INTER:                  -9.159
REMARK INTRA:                  -2.551
REMARK UNBOUND:                -2.551
REMARK SMILES CCCCCCCCCCCCCCCCCC(=O)[O-]
REMARK SMILES IDX 10 1 11 2 12 3 13 4 14 5 15 6 16 7 17 8 18 9 19 10 20 11
REMARK SMILES IDX 9 12 8 13 7 14 6 15 5 16 4 17 3 18 2 19 1 20
REMARK H PARENT
REMARK Flexibility Score: inf
ROOT
ATOM      1  C   UNL     1      61.280  27.109  25.538  1.00  0.00     0.000 C 
ENDROOT
BRANCH   1   2
ATOM      2  C   UNL     1      61.091  28.533  24.976  1.00  0.00     0.000 C 
BRANCH   2   3
ATOM      3  C   UNL     1      62.276  29.491  25.195  1.00  0.00     0.000 C 
BRANCH   3   4
ATOM      4  C   UNL     1      63.302  29.444  24.052  1.00  0.00     0.000 C 
BRANCH   4   5
ATOM      5  C   UNL     1      64.745  29.690  24.530  1.00  0.00     0.000 C 
BRANCH   5   6
ATOM      6  C   UNL     1      65.496  28.438  25.018  1.00  0.00     0.000 C 
BRANCH   6   7
ATOM      7  C   UNL     1      65.642  27.362  23.927  1.00  0.00     0.006 C 
BRANCH   7   8
ATOM      8  C   UNL     1      64.868  26.083  24.269  1.00  0.00     0.053 C 
BRANCH   8   9
ATOM      9  C   UNL     1      63.784  25.808  23.272  1.00  0.00     0.041 C 
ATOM     10  O   UNL     1      62.948  24.891  23.481  1.00  0.00    -0.550 OA
ATOM     11  O   UNL     1      63.721  26.542  22.094  1.00  0.00    -0.550 OA
ENDBRANCH   8   9
ENDBRANCH   7   8
ENDBRANCH   6   7
ENDBRANCH   5   6
ENDBRANCH   4   5
ENDBRANCH   3   4
ENDBRANCH   2   3
ENDBRANCH   1   2
BRANCH   1  12
ATOM     12  C   UNL     1      62.110  27.021  26.831  1.00  0.00     0.000 C 
BRANCH  12  13
ATOM     13  C   UNL     1      61.266  27.232  28.097  1.00  0.00    -0.000 C 
BRANCH  13  14
ATOM     14  C   UNL     1      61.999  28.135  29.101  1.00  0.00    -0.000 C 
BRANCH  14  15
ATOM     15  C   UNL     1      61.825  29.631  28.795  1.00  0.00    -0.000 C 
BRANCH  15  16
ATOM     16  C   UNL     1      63.142  30.416  28.916  1.00  0.00    -0.000 C 
BRANCH  16  17
ATOM     17  C   UNL     1      64.320  29.701  28.234  1.00  0.00    -0.000 C 
BRANCH  17  18
ATOM     18  C   UNL     1      65.614  30.528  28.264  1.00  0.00    -0.000 C 
BRANCH  18  19
ATOM     19  C   UNL     1      65.359  31.927  28.835  1.00  0.00    -0.003 C 
ATOM     20  C   UNL     1      66.631  32.769  28.822  1.00  0.00     0.004 C 
ENDBRANCH  18  19
ENDBRANCH  17  18
ENDBRANCH  16  17
ENDBRANCH  15  16
ENDBRANCH  14  15
ENDBRANCH  13  14
ENDBRANCH  12  13
ENDBRANCH   1  12
TORSDOF 16
ENDMDL
MODEL 2
REMARK VINA RESULT:    -4.690     11.977     15.052
REMARK INTER + INTRA:         -11.628
REMARK INTER:                  -9.028
REMARK INTRA:                  -2.601
REMARK UNBOUND:                -2.551
REMARK SMILES CCCCCCCCCCCCCCCCCC(=O)[O-]
REMARK SMILES IDX 10 1 11 2 12 3 13 4 14 5 15 6 16 7 17 8 18 9 19 10 20 11
REMARK SMILES IDX 9 12 8 13 7 14 6 15 5 16 4 17 3 18 2 19 1 20
REMARK H PARENT
REMARK Flexibility Score: inf
ROOT
ATOM      1  C   UNL     1      62.574  28.936  12.782  1.00  0.00     0.000 C 
ENDROOT
BRANCH   1   2
ATOM      2  C   UNL     1      63.595  29.928  13.377  1.00  0.00     0.000 C 
BRANCH   2   3
ATOM      3  C   UNL     1      62.994  31.210  13.981  1.00  0.00     0.000 C 
BRANCH   3   4
ATOM      4  C   UNL     1      62.689  32.283  12.922  1.00  0.00     0.000 C 
BRANCH   4   5
ATOM      5  C   UNL     1      61.282  32.892  13.072  1.00  0.00     0.000 C 
BRANCH   5   6
ATOM      6  C   UNL     1      60.686  32.822  14.489  1.00  0.00     0.000 C 
BRANCH   6   7
ATOM      7  C   UNL     1      60.907  34.112  15.299  1.00  0.00     0.006 C 
BRANCH   7   8
ATOM      8  C   UNL     1      61.592  33.839  16.644  1.00  0.00     0.053 C 
BRANCH   8   9
ATOM      9  C   UNL     1      62.983  34.393  16.680  1.00  0.00     0.041 C 
ATOM     10  O   UNL     1      63.407  34.976  17.712  1.00  0.00    -0.550 OA
ATOM     11  O   UNL     1      63.798  34.299  15.559  1.00  0.00    -0.550 OA
ENDBRANCH   8   9
ENDBRANCH   7   8
ENDBRANCH   6   7
ENDBRANCH   5   6
ENDBRANCH   4   5
ENDBRANCH   3   4
ENDBRANCH   2   3
ENDBRANCH   1   2
BRANCH   1  12
ATOM     12  C   UNL     1      61.183  28.956  13.439  1.00  0.00     0.000 C 
BRANCH  12  13
ATOM     13  C   UNL     1      60.057  29.272  12.444  1.00  0.00    -0.000 C 
BRANCH  13  14
ATOM     14  C   UNL     1      60.630  29.748  11.101  1.00  0.00    -0.000 C 
BRANCH  14  15
ATOM     15  C   UNL     1      60.181  28.876   9.918  1.00  0.00    -0.000 C 
BRANCH  15  16
ATOM     16  C   UNL     1      61.338  28.533   8.964  1.00  0.00    -0.000 C 
BRANCH  16  17
ATOM     17  C   UNL     1      62.486  29.553   9.038  1.00  0.00    -0.000 C 
BRANCH  17  18
ATOM     18  C   UNL     1      63.871  28.889   9.044  1.00  0.00    -0.000 C 
BRANCH  18  19
ATOM     19  C   UNL     1      64.977  29.932   9.246  1.00  0.00    -0.003 C 
ATOM     20  C   UNL     1      64.447  31.166   9.968  1.00  0.00     0.004 C 
ENDBRANCH  18  19
ENDBRANCH  17  18
ENDBRANCH  16  17
ENDBRANCH  15  16
ENDBRANCH  14  15
ENDBRANCH  13  14
ENDBRANCH  12  13
ENDBRANCH   1  12
TORSDOF 16
ENDMDL
MODEL 3
REMARK VINA RESULT:    -4.624      1.650      3.501
REMARK INTER + INTRA:         -11.501
REMARK INTER:                  -8.991
REMARK INTRA:                  -2.509
REMARK UNBOUND:                -2.551
REMARK SMILES CCCCCCCCCCCCCCCCCC(=O)[O-]
REMARK SMILES IDX 10 1 11 2 12 3 13 4 14 5 15 6 16 7 17 8 18 9 19 10 20 11
REMARK SMILES IDX 9 12 8 13 7 14 6 15 5 16 4 17 3 18 2 19 1 20
REMARK H PARENT
REMARK Flexibility Score: inf
ROOT
ATOM      1  C   UNL     1      61.562  28.823  28.394  1.00  0.00     0.000 C 
ENDROOT
BRANCH   1   2
ATOM      2  C   UNL     1      61.438  27.286  28.403  1.00  0.00     0.000 C 
BRANCH   2   3
ATOM      3  C   UNL     1      61.859  26.583  27.100  1.00  0.00     0.000 C 
BRANCH   3   4
ATOM      4  C   UNL     1      61.711  27.482  25.861  1.00  0.00     0.000 C 
BRANCH   4   5
ATOM      5  C   UNL     1      62.581  27.019  24.677  1.00  0.00     0.000 C 
BRANCH   5   6
ATOM      6  C   UNL     1      63.592  25.905  25.002  1.00  0.00     0.000 C 
BRANCH   6   7
ATOM      7  C   UNL     1      64.934  26.078  24.269  1.00  0.00     0.006 C 
BRANCH   7   8
ATOM      8  C   UNL     1      64.742  26.427  22.787  1.00  0.00     0.053 C 
BRANCH   8   9
ATOM      9  C   UNL     1      66.046  26.726  22.115  1.00  0.00     0.041 C 
ATOM     10  O   UNL     1      66.760  27.683  22.515  1.00  0.00    -0.550 OA
ATOM     11  O   UNL     1      66.456  25.970  21.024  1.00  0.00    -0.550 OA
ENDBRANCH   8   9
ENDBRANCH   7   8
ENDBRANCH   6   7
ENDBRANCH   5   6
ENDBRANCH   4   5
ENDBRANCH   3   4
ENDBRANCH   2   3
ENDBRANCH   1   2
BRANCH   1  12
ATOM     12  C   UNL     1      62.802  29.385  29.111  1.00  0.00     0.000 C 
BRANCH  12  13
ATOM     13  C   UNL     1      62.996  30.890  28.877  1.00  0.00    -0.000 C 
BRANCH  13  14
ATOM     14  C   UNL     1      64.463  31.293  29.090  1.00  0.00    -0.000 C 
BRANCH  14  15
ATOM     15  C   UNL     1      65.448  30.171  28.727  1.00  0.00    -0.000 C 
BRANCH  15  16
ATOM     16  C   UNL     1      66.672  30.688  27.951  1.00  0.00    -0.000 C 
BRANCH  16  17
ATOM     17  C   UNL     1      66.729  30.149  26.512  1.00  0.00    -0.000 C 
BRANCH  17  18
ATOM     18  C   UNL     1      65.548  29.227  26.175  1.00  0.00    -0.000 C 
BRANCH  18  19
ATOM     19  C   UNL     1      64.806  29.721  24.928  1.00  0.00    -0.003 C 
ATOM     20  C   UNL     1      63.629  30.617  25.304  1.00  0.00     0.004 C 
ENDBRANCH  18  19
ENDBRANCH  17  18
ENDBRANCH  16  17
ENDBRANCH  15  16
ENDBRANCH  14  15
ENDBRANCH  13  14
ENDBRANCH  12  13
ENDBRANCH   1  12
TORSDOF 16
ENDMDL
MODEL 4
REMARK VINA RESULT:    -4.596      1.495      5.258
REMARK INTER + INTRA:         -11.446
REMARK INTER:                  -9.303
REMARK INTRA:                  -2.143
REMARK UNBOUND:                -2.551
REMARK SMILES CCCCCCCCCCCCCCCCCC(=O)[O-]
REMARK SMILES IDX 10 1 11 2 12 3 13 4 14 5 15 6 16 7 17 8 18 9 19 10 20 11
REMARK SMILES IDX 9 12 8 13 7 14 6 15 5 16 4 17 3 18 2 19 1 20
REMARK H PARENT
REMARK Flexibility Score: inf
ROOT
ATOM      1  C   UNL     1      63.376  30.818  28.916  1.00  0.00     0.000 C 
ENDROOT
BRANCH   1   2
ATOM      2  C   UNL     1      62.384  30.061  28.010  1.00  0.00     0.000 C 
BRANCH   2   3
ATOM      3  C   UNL     1      61.521  29.001  28.719  1.00  0.00     0.000 C 
BRANCH   3   4
ATOM      4  C   UNL     1      62.178  27.611  28.739  1.00  0.00     0.000 C 
BRANCH   4   5
ATOM      5  C   UNL     1      61.824  26.762  27.503  1.00  0.00     0.000 C 
BRANCH   5   6
ATOM      6  C   UNL     1      60.414  26.994  26.931  1.00  0.00     0.000 C 
BRANCH   6   7
ATOM      7  C   UNL     1      60.428  27.416  25.451  1.00  0.00     0.006 C 
BRANCH   7   8
ATOM      8  C   UNL     1      61.804  27.211  24.805  1.00  0.00     0.053 C 
BRANCH   8   9
ATOM      9  C   UNL     1      62.179  28.363  23.924  1.00  0.00     0.041 C 
ATOM     10  O   UNL     1      62.600  28.156  22.755  1.00  0.00    -0.550 OA
ATOM     11  O   UNL     1      62.098  29.663  24.406  1.00  0.00    -0.550 OA
ENDBRANCH   8   9
ENDBRANCH   7   8
ENDBRANCH   6   7
ENDBRANCH   5   6
ENDBRANCH   4   5
ENDBRANCH   3   4
ENDBRANCH   2   3
ENDBRANCH   1   2
BRANCH   1  12
ATOM     12  C   UNL     1      64.793  30.222  28.977  1.00  0.00     0.000 C 
BRANCH  12  13
ATOM     13  C   UNL     1      65.810  31.014  28.140  1.00  0.00    -0.000 C 
BRANCH  13  14
ATOM     14  C   UNL     1      66.440  30.124  27.058  1.00  0.00    -0.000 C 
BRANCH  14  15
ATOM     15  C   UNL     1      65.463  29.789  25.919  1.00  0.00    -0.000 C 
BRANCH  15  16
ATOM     16  C   UNL     1      65.131  28.288  25.849  1.00  0.00    -0.000 C 
BRANCH  16  17
ATOM     17  C   UNL     1      65.632  27.634  24.551  1.00  0.00    -0.000 C 
BRANCH  17  18
ATOM     18  C   UNL     1      65.160  26.180  24.397  1.00  0.00    -0.000 C 
BRANCH  18  19
ATOM     19  C   UNL     1      65.566  25.613  23.032  1.00  0.00    -0.003 C 
ATOM     20  C   UNL     1      66.036  26.719  22.092  1.00  0.00     0.004 C 
ENDBRANCH  18  19
ENDBRANCH  17  18
ENDBRANCH  16  17
ENDBRANCH  15  16
ENDBRANCH  14  15
ENDBRANCH  13  14
ENDBRANCH  12  13
ENDBRANCH   1  12
TORSDOF 16
ENDMDL
MODEL 5
REMARK VINA RESULT:    -4.557     11.580     14.384
REMARK INTER + INTRA:         -11.371
REMARK INTER:                  -8.733
REMARK INTRA:                  -2.638
REMARK UNBOUND:                -2.551
REMARK SMILES CCCCCCCCCCCCCCCCCC(=O)[O-]
REMARK SMILES IDX 10 1 11 2 12 3 13 4 14 5 15 6 16 7 17 8 18 9 19 10 20 11
REMARK SMILES IDX 9 12 8 13 7 14 6 15 5 16 4 17 3 18 2 19 1 20
REMARK H PARENT
REMARK Flexibility Score: inf
ROOT
ATOM      1  C   UNL     1      60.096  29.395  10.373  1.00  0.00     0.000 C 
ENDROOT
BRANCH   1   2
ATOM      2  C   UNL     1      60.017  28.816  11.801  1.00  0.00     0.000 C 
BRANCH   2   3
ATOM      3  C   UNL     1      60.548  29.736  12.915  1.00  0.00     0.000 C 
BRANCH   3   4
ATOM      4  C   UNL     1      60.403  31.229  12.578  1.00  0.00     0.000 C 
BRANCH   4   5
ATOM      5  C   UNL     1      60.188  32.107  13.825  1.00  0.00     0.000 C 
BRANCH   5   6
ATOM      6  C   UNL     1      60.919  33.462  13.806  1.00  0.00     0.000 C 
BRANCH   6   7
ATOM      7  C   UNL     1      61.250  33.986  15.215  1.00  0.00     0.006 C 
BRANCH   7   8
ATOM      8  C   UNL     1      61.819  32.888  16.122  1.00  0.00     0.053 C 
BRANCH   8   9
ATOM      9  C   UNL     1      62.329  33.446  17.414  1.00  0.00     0.041 C 
ATOM     10  O   UNL     1      63.515  33.226  17.775  1.00  0.00    -0.550 OA
ATOM     11  O   UNL     1      61.484  34.179  18.237  1.00  0.00    -0.550 OA
ENDBRANCH   8   9
ENDBRANCH   7   8
ENDBRANCH   6   7
ENDBRANCH   5   6
ENDBRANCH   4   5
ENDBRANCH   3   4
ENDBRANCH   2   3
ENDBRANCH   1   2
BRANCH   1  12
ATOM     12  C   UNL     1      60.948  28.581   9.383  1.00  0.00     0.000 C 
BRANCH  12  13
ATOM     13  C   UNL     1      62.261  29.285   9.007  1.00  0.00    -0.000 C 
BRANCH  13  14
ATOM     14  C   UNL     1      63.362  28.976  10.033  1.00  0.00    -0.000 C 
BRANCH  14  15
ATOM     15  C   UNL     1      63.787  30.213  10.840  1.00  0.00    -0.000 C 
BRANCH  15  16
ATOM     16  C   UNL     1      64.086  29.883  12.313  1.00  0.00    -0.000 C 
BRANCH  16  17
ATOM     17  C   UNL     1      64.034  31.125  13.218  1.00  0.00    -0.000 C 
BRANCH  17  18
ATOM     18  C   UNL     1      64.116  32.440  12.429  1.00  0.00    -0.000 C 
BRANCH  18  19
ATOM     19  C   UNL     1      64.667  33.572  13.304  1.00  0.00    -0.003 C 
ATOM     20  C   UNL     1      65.253  33.029  14.603  1.00  0.00     0.004 C 
ENDBRANCH  18  19
ENDBRANCH  17  18
ENDBRANCH  16  17
ENDBRANCH  15  16
ENDBRANCH  14  15
ENDBRANCH  13  14
ENDBRANCH  12  13
ENDBRANCH   1  12
TORSDOF 16
ENDMDL
MODEL 6
REMARK VINA RESULT:    -4.517      2.793      6.038
REMARK INTER + INTRA:         -11.293
REMARK INTER:                  -8.831
REMARK INTRA:                  -2.462
REMARK UNBOUND:                -2.551
REMARK SMILES CCCCCCCCCCCCCCCCCC(=O)[O-]
REMARK SMILES IDX 10 1 11 2 12 3 13 4 14 5 15 6 16 7 17 8 18 9 19 10 20 11
REMARK SMILES IDX 9 12 8 13 7 14 6 15 5 16 4 17 3 18 2 19 1 20
REMARK H PARENT
REMARK Flexibility Score: inf
ROOT
ATOM      1  C   UNL     1      60.666  28.590  24.978  1.00  0.00     0.000 C 
ENDROOT
BRANCH   1   2
ATOM      2  C   UNL     1      60.390  27.123  25.369  1.00  0.00     0.000 C 
BRANCH   2   3
ATOM      3  C   UNL     1      60.557  26.797  26.864  1.00  0.00     0.000 C 
BRANCH   3   4
ATOM      4  C   UNL     1      62.019  26.879  27.334  1.00  0.00     0.000 C 
BRANCH   4   5
ATOM      5  C   UNL     1      62.202  27.778  28.571  1.00  0.00     0.000 C 
BRANCH   5   6
ATOM      6  C   UNL     1      61.631  29.201  28.437  1.00  0.00     0.000 C 
BRANCH   6   7
ATOM      7  C   UNL     1      62.662  30.296  28.762  1.00  0.00     0.006 C 
BRANCH   7   8
ATOM      8  C   UNL     1      64.054  29.714  29.043  1.00  0.00     0.053 C 
BRANCH   8   9
ATOM      9  C   UNL     1      65.129  30.741  28.867  1.00  0.00     0.041 C 
ATOM     10  O   UNL     1      64.895  31.953  29.114  1.00  0.00    -0.550 OA
ATOM     11  O   UNL     1      66.381  30.364  28.395  1.00  0.00    -0.550 OA
ENDBRANCH   8   9
ENDBRANCH   7   8
ENDBRANCH   6   7
ENDBRANCH   5   6
ENDBRANCH   4   5
ENDBRANCH   3   4
ENDBRANCH   2   3
ENDBRANCH   1   2
BRANCH   1  12
ATOM     12  C   UNL     1      61.995  28.831  24.240  1.00  0.00     0.000 C 
BRANCH  12  13
ATOM     13  C   UNL     1      62.940  29.769  25.006  1.00  0.00    -0.000 C 
BRANCH  13  14
ATOM     14  C   UNL     1      64.230  30.017  24.209  1.00  0.00    -0.000 C 
BRANCH  14  15
ATOM     15  C   UNL     1      65.499  29.711  25.020  1.00  0.00    -0.000 C 
BRANCH  15  16
ATOM     16  C   UNL     1      66.405  28.675  24.333  1.00  0.00    -0.000 C 
BRANCH  16  17
ATOM     17  C   UNL     1      65.830  28.186  22.993  1.00  0.00    -0.000 C 
BRANCH  17  18
ATOM     18  C   UNL     1      65.580  26.670  22.971  1.00  0.00    -0.000 C 
BRANCH  18  19
ATOM     19  C   UNL     1      64.107  26.362  22.681  1.00  0.00    -0.003 C 
ATOM     20  C   UNL     1      63.480  25.552  23.811  1.00  0.00     0.004 C 
ENDBRANCH  18  19
ENDBRANCH  17  18
ENDBRANCH  16  17
ENDBRANCH  15  16
ENDBRANCH  14  15
ENDBRANCH  13  14
ENDBRANCH  12  13
ENDBRANCH   1  12
TORSDOF 16
ENDMDL
MODEL 7
REMARK VINA RESULT:    -4.513      1.209      3.798
REMARK INTER + INTRA:         -11.286
REMARK INTER:                  -8.936
REMARK INTRA:                  -2.350
REMARK UNBOUND:                -2.551
REMARK SMILES CCCCCCCCCCCCCCCCCC(=O)[O-]
REMARK SMILES IDX 10 1 11 2 12 3 13 4 14 5 15 6 16 7 17 8 18 9 19 10 20 11
REMARK SMILES IDX 9 12 8 13 7 14 6 15 5 16 4 17 3 18 2 19 1 20
REMARK H PARENT
REMARK Flexibility Score: inf
ROOT
ATOM      1  C   UNL     1      65.115  29.385  26.364  1.00  0.00     0.000 C 
ENDROOT
BRANCH   1   2
ATOM      2  C   UNL     1      64.221  29.458  25.109  1.00  0.00     0.000 C 
BRANCH   2   3
ATOM      3  C   UNL     1      64.889  30.061  23.859  1.00  0.00     0.000 C 
BRANCH   3   4
ATOM      4  C   UNL     1      66.424  29.997  23.912  1.00  0.00     0.000 C 
BRANCH   4   5
ATOM      5  C   UNL     1      66.980  28.605  23.558  1.00  0.00     0.000 C 
BRANCH   5   6
ATOM      6  C   UNL     1      66.441  27.998  22.249  1.00  0.00     0.000 C 
BRANCH   6   7
ATOM      7  C   UNL     1      66.098  26.504  22.377  1.00  0.00     0.006 C 
BRANCH   7   8
ATOM      8  C   UNL     1      65.215  26.216  23.598  1.00  0.00     0.053 C 
BRANCH   8   9
ATOM      9  C   UNL     1      63.767  26.128  23.226  1.00  0.00     0.041 C 
ATOM     10  O   UNL     1      63.077  25.142  23.594  1.00  0.00    -0.550 OA
ATOM     11  O   UNL     1      63.189  27.118  22.441  1.00  0.00    -0.550 OA
ENDBRANCH   8   9
ENDBRANCH   7   8
ENDBRANCH   6   7
ENDBRANCH   5   6
ENDBRANCH   4   5
ENDBRANCH   3   4
ENDBRANCH   2   3
ENDBRANCH   1   2
BRANCH   1  12
ATOM     12  C   UNL     1      65.006  30.589  27.316  1.00  0.00     0.000 C 
BRANCH  12  13
ATOM     13  C   UNL     1      64.407  30.219  28.681  1.00  0.00    -0.000 C 
BRANCH  13  14
ATOM     14  C   UNL     1      62.958  30.715  28.797  1.00  0.00    -0.000 C 
BRANCH  14  15
ATOM     15  C   UNL     1      61.927  29.584  28.648  1.00  0.00    -0.000 C 
BRANCH  15  16
ATOM     16  C   UNL     1      62.474  28.222  29.110  1.00  0.00    -0.000 C 
BRANCH  16  17
ATOM     17  C   UNL     1      61.860  27.046  28.334  1.00  0.00    -0.000 C 
BRANCH  17  18
ATOM     18  C   UNL     1      62.081  27.154  26.817  1.00  0.00    -0.000 C 
BRANCH  18  19
ATOM     19  C   UNL     1      60.748  27.093  26.063  1.00  0.00    -0.003 C 
ATOM     20  C   UNL     1      60.751  28.033  24.861  1.00  0.00     0.004 C 
ENDBRANCH  18  19
ENDBRANCH  17  18
ENDBRANCH  16  17
ENDBRANCH  15  16
ENDBRANCH  14  15
ENDBRANCH  13  14
ENDBRANCH  12  13
ENDBRANCH   1  12
TORSDOF 16
ENDMDL
MODEL 8
REMARK VINA RESULT:    -4.509     12.247     15.384
REMARK INTER + INTRA:         -11.277
REMARK INTER:                  -8.898
REMARK INTRA:                  -2.380
REMARK UNBOUND:                -2.551
REMARK SMILES CCCCCCCCCCCCCCCCCC(=O)[O-]
REMARK SMILES IDX 10 1 11 2 12 3 13 4 14 5 15 6 16 7 17 8 18 9 19 10 20 11
REMARK SMILES IDX 9 12 8 13 7 14 6 15 5 16 4 17 3 18 2 19 1 20
REMARK H PARENT
REMARK Flexibility Score: inf
ROOT
ATOM      1  C   UNL     1      64.516  30.672  11.392  1.00  0.00     0.000 C 
ENDROOT
BRANCH   1   2
ATOM      2  C   UNL     1      63.788  31.830  12.105  1.00  0.00     0.000 C 
BRANCH   2   3
ATOM      3  C   UNL     1      64.662  33.054  12.437  1.00  0.00     0.000 C 
BRANCH   3   4
ATOM      4  C   UNL     1      64.701  33.369  13.941  1.00  0.00     0.000 C 
BRANCH   4   5
ATOM      5  C   UNL     1      64.229  32.192  14.814  1.00  0.00     0.000 C 
BRANCH   5   6
ATOM      6  C   UNL     1      63.006  32.484  15.702  1.00  0.00     0.000 C 
BRANCH   6   7
ATOM      7  C   UNL     1      62.500  33.931  15.571  1.00  0.00     0.006 C 
BRANCH   7   8
ATOM      8  C   UNL     1      60.983  33.995  15.348  1.00  0.00     0.053 C 
BRANCH   8   9
ATOM      9  C   UNL     1      60.549  33.092  14.235  1.00  0.00     0.041 C 
ATOM     10  O   UNL     1      59.803  32.106  14.473  1.00  0.00    -0.550 OA
ATOM     11  O   UNL     1      60.999  33.318  12.940  1.00  0.00    -0.550 OA
ENDBRANCH   8   9
ENDBRANCH   7   8
ENDBRANCH   6   7
ENDBRANCH   5   6
ENDBRANCH   4   5
ENDBRANCH   3   4
ENDBRANCH   2   3
ENDBRANCH   1   2
BRANCH   1  12
ATOM     12  C   UNL     1      64.960  30.969   9.949  1.00  0.00     0.000 C 
BRANCH  12  13
ATOM     13  C   UNL     1      64.019  30.362   8.898  1.00  0.00    -0.000 C 
BRANCH  13  14
ATOM     14  C   UNL     1      63.612  28.933   9.286  1.00  0.00    -0.000 C 
BRANCH  14  15
ATOM     15  C   UNL     1      62.150  28.613   8.935  1.00  0.00    -0.000 C 
BRANCH  15  16
ATOM     16  C   UNL     1      61.234  29.844   9.047  1.00  0.00    -0.000 C 
BRANCH  16  17
ATOM     17  C   UNL     1      60.125  29.660  10.096  1.00  0.00    -0.000 C 
BRANCH  17  18
ATOM     18  C   UNL     1      60.558  30.100  11.502  1.00  0.00    -0.000 C 
BRANCH  18  19
ATOM     19  C   UNL     1      60.763  28.887  12.417  1.00  0.00    -0.003 C 
ATOM     20  C   UNL     1      61.814  29.173  13.485  1.00  0.00     0.004 C 
ENDBRANCH  18  19
ENDBRANCH  17  18
ENDBRANCH  16  17
ENDBRANCH  15  16
ENDBRANCH  14  15
ENDBRANCH  13  14
ENDBRANCH  12  13
ENDBRANCH   1  12
TORSDOF 16
ENDMDL
MODEL 9
REMARK VINA RESULT:    -4.507      1.973      5.188
REMARK INTER + INTRA:         -11.273
REMARK INTER:                  -9.098
REMARK INTRA:                  -2.175
REMARK UNBOUND:                -2.551
REMARK SMILES CCCCCCCCCCCCCCCCCC(=O)[O-]
REMARK SMILES IDX 10 1 11 2 12 3 13 4 14 5 15 6 16 7 17 8 18 9 19 10 20 11
REMARK SMILES IDX 9 12 8 13 7 14 6 15 5 16 4 17 3 18 2 19 1 20
REMARK H PARENT
REMARK Flexibility Score: inf
ROOT
ATOM      1  C   UNL     1      61.902  28.924  27.442  1.00  0.00     0.000 C 
ENDROOT
BRANCH   1   2
ATOM      2  C   UNL     1      62.750  29.218  28.696  1.00  0.00     0.000 C 
BRANCH   2   3
ATOM      3  C   UNL     1      62.838  30.701  29.099  1.00  0.00     0.000 C 
BRANCH   3   4
ATOM      4  C   UNL     1      64.257  31.276  28.954  1.00  0.00     0.000 C 
BRANCH   4   5
ATOM      5  C   UNL     1      65.312  30.200  28.637  1.00  0.00     0.000 C 
BRANCH   5   6
ATOM      6  C   UNL     1      66.515  30.685  27.809  1.00  0.00     0.000 C 
BRANCH   6   7
ATOM      7  C   UNL     1      66.669  29.933  26.475  1.00  0.00     0.006 C 
BRANCH   7   8
ATOM      8  C   UNL     1      65.389  29.184  26.083  1.00  0.00     0.053 C 
BRANCH   8   9
ATOM      9  C   UNL     1      64.623  29.916  25.024  1.00  0.00     0.041 C 
ATOM     10  O   UNL     1      63.817  30.830  25.342  1.00  0.00    -0.550 OA
ATOM     11  O   UNL     1      64.771  29.563  23.689  1.00  0.00    -0.550 OA
ENDBRANCH   8   9
ENDBRANCH   7   8
ENDBRANCH   6   7
ENDBRANCH   5   6
ENDBRANCH   4   5
ENDBRANCH   3   4
ENDBRANCH   2   3
ENDBRANCH   1   2
BRANCH   1  12
ATOM     12  C   UNL     1      61.077  27.626  27.499  1.00  0.00     0.000 C 
BRANCH  12  13
ATOM     13  C   UNL     1      60.709  27.091  26.107  1.00  0.00    -0.000 C 
BRANCH  13  14
ATOM     14  C   UNL     1      61.542  27.782  25.016  1.00  0.00    -0.000 C 
BRANCH  14  15
ATOM     15  C   UNL     1      62.492  26.816  24.291  1.00  0.00    -0.000 C 
BRANCH  15  16
ATOM     16  C   UNL     1      63.544  26.204  25.233  1.00  0.00    -0.000 C 
BRANCH  16  17
ATOM     17  C   UNL     1      64.899  25.984  24.541  1.00  0.00    -0.000 C 
BRANCH  17  18
ATOM     18  C   UNL     1      64.793  26.000  23.008  1.00  0.00    -0.000 C 
BRANCH  18  19
ATOM     19  C   UNL     1      66.043  26.626  22.379  1.00  0.00    -0.003 C 
ATOM     20  C   UNL     1      66.391  25.952  21.056  1.00  0.00     0.004 C 
ENDBRANCH  18  19
ENDBRANCH  17  18
ENDBRANCH  16  17
ENDBRANCH  15  16
ENDBRANCH  14  15
ENDBRANCH  13  14
ENDBRANCH  12  13
ENDBRANCH   1  12
TORSDOF 16
ENDMDL
