MODEL 1
REMARK VINA RESULT:    -3.660      0.000      0.000
REMARK INTER + INTRA:          -5.970
REMARK INTER:                  -4.944
REMARK INTRA:                  -1.026
REMARK UNBOUND:                -1.026
REMARK SMILES CC(=O)OCC=C(C)CCC=C(C)C
REMARK SMILES IDX 7 1 6 2 8 3 9 4 10 5 11 6 13 7 12 8 14 9 5 10 4 11 2 12 3 13
REMARK SMILES IDX 1 14
REMARK H PARENT
REMARK Flexibility Score: inf
ROOT
ATOM      1  C   UNL     1     106.754  95.421  26.144  1.00  0.00    -0.074 C 
ATOM      2  C   UNL     1     107.753  96.105  25.543  1.00  0.00     0.013 C 
ATOM      3  C   UNL     1     106.047  96.065  27.309  1.00  0.00     0.039 C 
ENDROOT
BRANCH   1   4
ATOM      4  C   UNL     1     106.329  94.031  25.703  1.00  0.00     0.034 C 
BRANCH   4   5
ATOM      5  C   UNL     1     104.975  94.040  24.979  1.00  0.00     0.032 C 
BRANCH   5   6
ATOM      6  C   UNL     1     105.138  94.380  23.515  1.00  0.00    -0.028 C 
ATOM      7  C   UNL     1     104.246  96.708  23.771  1.00  0.00     0.039 C 
ATOM      8  C   UNL     1     104.841  95.578  22.964  1.00  0.00    -0.080 C 
ATOM      9  C   UNL     1     105.121  95.782  21.498  1.00  0.00     0.039 C 
ENDBRANCH   5   6
ENDBRANCH   4   5
ENDBRANCH   1   4
BRANCH   2  10
ATOM     10  C   UNL     1     108.525  95.596  24.352  1.00  0.00     0.260 C 
BRANCH  10  11
ATOM     11  O   UNL     1     109.685  94.883  24.776  1.00  0.00    -0.462 OA
BRANCH  11  12
ATOM     12  C   UNL     1     110.180  93.755  24.111  1.00  0.00     0.302 C 
ATOM     13  O   UNL     1     110.814  93.872  23.027  1.00  0.00    -0.253 OA
ATOM     14  C   UNL     1     109.910  92.398  24.664  1.00  0.00     0.139 C 
ENDBRANCH  11  12
ENDBRANCH  10  11
ENDBRANCH   2  10
TORSDOF 6
ENDMDL
MODEL 2
REMARK VINA RESULT:    -3.492      2.336      4.421
REMARK INTER + INTRA:          -5.743
REMARK INTER:                  -5.121
REMARK INTRA:                  -0.622
REMARK UNBOUND:                -1.026
REMARK SMILES CC(=O)OCC=C(C)CCC=C(C)C
REMARK SMILES IDX 7 1 6 2 8 3 9 4 10 5 11 6 13 7 12 8 14 9 5 10 4 11 2 12 3 13
REMARK SMILES IDX 1 14
REMARK H PARENT
REMARK Flexibility Score: inf
ROOT
ATOM      1  C   UNL     1     110.052  94.005  23.965  1.00  0.00    -0.074 C 
ATOM      2  C   UNL     1     110.568  93.955  22.716  1.00  0.00     0.013 C 
ATOM      3  C   UNL     1     109.845  92.708  24.705  1.00  0.00     0.039 C 
ENDROOT
BRANCH   1   4
ATOM      4  C   UNL     1     109.661  95.308  24.640  1.00  0.00     0.034 C 
BRANCH   4   5
ATOM      5  C   UNL     1     108.230  95.739  24.287  1.00  0.00     0.032 C 
BRANCH   5   6
ATOM      6  C   UNL     1     107.492  96.243  25.505  1.00  0.00    -0.028 C 
ATOM      7  C   UNL     1     106.265  94.090  25.876  1.00  0.00     0.039 C 
ATOM      8  C   UNL     1     106.629  95.510  26.243  1.00  0.00    -0.080 C 
ATOM      9  C   UNL     1     106.022  96.137  27.470  1.00  0.00     0.039 C 
ENDBRANCH   5   6
ENDBRANCH   4   5
ENDBRANCH   1   4
BRANCH   2  10
ATOM     10  C   UNL     1     110.853  95.172  21.873  1.00  0.00     0.260 C 
BRANCH  10  11
ATOM     11  O   UNL     1     112.210  95.582  22.030  1.00  0.00    -0.462 OA
BRANCH  11  12
ATOM     12  C   UNL     1     113.289  94.900  21.457  1.00  0.00     0.302 C 
ATOM     13  O   UNL     1     114.218  94.441  22.177  1.00  0.00    -0.253 OA
ATOM     14  C   UNL     1     113.368  94.760  19.975  1.00  0.00     0.139 C 
ENDBRANCH  11  12
ENDBRANCH  10  11
ENDBRANCH   2  10
TORSDOF 6
ENDMDL
MODEL 3
REMARK VINA RESULT:    -3.482      2.305      4.491
REMARK INTER + INTRA:          -5.730
REMARK INTER:                  -4.995
REMARK INTRA:                  -0.734
REMARK UNBOUND:                -1.026
REMARK SMILES CC(=O)OCC=C(C)CCC=C(C)C
REMARK SMILES IDX 7 1 6 2 8 3 9 4 10 5 11 6 13 7 12 8 14 9 5 10 4 11 2 12 3 13
REMARK SMILES IDX 1 14
REMARK H PARENT
REMARK Flexibility Score: inf
ROOT
ATOM      1  C   UNL     1     110.157  94.018  23.933  1.00  0.00    -0.074 C 
ATOM      2  C   UNL     1     110.667  94.081  22.682  1.00  0.00     0.013 C 
ATOM      3  C   UNL     1     110.081  92.671  24.606  1.00  0.00     0.039 C 
ENDROOT
BRANCH   1   4
ATOM      4  C   UNL     1     109.647  95.241  24.674  1.00  0.00     0.034 C 
BRANCH   4   5
ATOM      5  C   UNL     1     108.176  95.544  24.353  1.00  0.00     0.032 C 
BRANCH   5   6
ATOM      6  C   UNL     1     107.466  96.142  25.545  1.00  0.00    -0.028 C 
ATOM      7  C   UNL     1     106.092  94.093  25.984  1.00  0.00     0.039 C 
ATOM      8  C   UNL     1     106.550  95.497  26.301  1.00  0.00    -0.080 C 
ATOM      9  C   UNL     1     105.979  96.210  27.499  1.00  0.00     0.039 C 
ENDBRANCH   5   6
ENDBRANCH   4   5
ENDBRANCH   1   4
BRANCH   2  10
ATOM     10  C   UNL     1     110.828  95.360  21.901  1.00  0.00     0.260 C 
BRANCH  10  11
ATOM     11  O   UNL     1     112.102  95.947  22.160  1.00  0.00    -0.462 OA
BRANCH  11  12
ATOM     12  C   UNL     1     112.263  97.249  22.646  1.00  0.00     0.302 C 
ATOM     13  O   UNL     1     113.395  97.663  23.019  1.00  0.00    -0.253 OA
ATOM     14  C   UNL     1     111.075  98.140  22.772  1.00  0.00     0.139 C 
ENDBRANCH  11  12
ENDBRANCH  10  11
ENDBRANCH   2  10
TORSDOF 6
ENDMDL
MODEL 4
REMARK VINA RESULT:    -3.463      2.923      6.192
REMARK INTER + INTRA:          -5.703
REMARK INTER:                  -5.131
REMARK INTRA:                  -0.572
REMARK UNBOUND:                -1.026
REMARK SMILES CC(=O)OCC=C(C)CCC=C(C)C
REMARK SMILES IDX 7 1 6 2 8 3 9 4 10 5 11 6 13 7 12 8 14 9 5 10 4 11 2 12 3 13
REMARK SMILES IDX 1 14
REMARK H PARENT
REMARK Flexibility Score: inf
ROOT
ATOM      1  C   UNL     1     109.998  93.897  24.113  1.00  0.00    -0.074 C 
ATOM      2  C   UNL     1     109.368  94.652  25.040  1.00  0.00     0.013 C 
ATOM      3  C   UNL     1     110.823  92.727  24.583  1.00  0.00     0.039 C 
ENDROOT
BRANCH   1   4
ATOM      4  C   UNL     1     109.918  94.189  22.625  1.00  0.00     0.034 C 
BRANCH   4   5
ATOM      5  C   UNL     1     111.149  94.953  22.116  1.00  0.00     0.032 C 
BRANCH   5   6
ATOM      6  C   UNL     1     111.850  94.194  21.013  1.00  0.00    -0.028 C 
ATOM      7  C   UNL     1     114.144  94.641  21.917  1.00  0.00     0.039 C 
ATOM      8  C   UNL     1     113.188  94.023  20.925  1.00  0.00    -0.080 C 
ATOM      9  C   UNL     1     113.730  93.182  19.798  1.00  0.00     0.039 C 
ENDBRANCH   5   6
ENDBRANCH   4   5
ENDBRANCH   1   4
BRANCH   2  10
ATOM     10  C   UNL     1     108.490  95.833  24.711  1.00  0.00     0.260 C 
BRANCH  10  11
ATOM     11  O   UNL     1     107.114  95.458  24.747  1.00  0.00    -0.462 OA
BRANCH  11  12
ATOM     12  C   UNL     1     106.489  94.937  25.885  1.00  0.00     0.302 C 
ATOM     13  O   UNL     1     106.114  93.733  25.922  1.00  0.00    -0.253 OA
ATOM     14  C   UNL     1     106.216  95.829  27.047  1.00  0.00     0.139 C 
ENDBRANCH  11  12
ENDBRANCH  10  11
ENDBRANCH   2  10
TORSDOF 6
ENDMDL
MODEL 5
REMARK VINA RESULT:    -3.408      2.008      5.070
REMARK INTER + INTRA:          -5.629
REMARK INTER:                  -4.526
REMARK INTRA:                  -1.104
REMARK UNBOUND:                -1.026
REMARK SMILES CC(=O)OCC=C(C)CCC=C(C)C
REMARK SMILES IDX 7 1 6 2 8 3 9 4 10 5 11 6 13 7 12 8 14 9 5 10 4 11 2 12 3 13
REMARK SMILES IDX 1 14
REMARK H PARENT
REMARK Flexibility Score: inf
ROOT
ATOM      1  C   UNL     1     106.497  95.513  22.336  1.00  0.00    -0.074 C 
ATOM      2  C   UNL     1     105.348  94.893  22.686  1.00  0.00     0.013 C 
ATOM      3  C   UNL     1     107.099  95.197  20.991  1.00  0.00     0.039 C 
ENDROOT
BRANCH   1   4
ATOM      4  C   UNL     1     107.208  96.498  23.247  1.00  0.00     0.034 C 
BRANCH   4   5
ATOM      5  C   UNL     1     108.721  96.246  23.307  1.00  0.00     0.032 C 
BRANCH   5   6
ATOM      6  C   UNL     1     109.041  95.012  24.120  1.00  0.00    -0.028 C 
ATOM      7  C   UNL     1     110.714  94.139  22.471  1.00  0.00     0.039 C 
ATOM      8  C   UNL     1     109.949  94.074  23.772  1.00  0.00    -0.080 C 
ATOM      9  C   UNL     1     110.201  92.933  24.724  1.00  0.00     0.039 C 
ENDBRANCH   5   6
ENDBRANCH   4   5
ENDBRANCH   1   4
BRANCH   2  10
ATOM     10  C   UNL     1     104.622  95.134  23.986  1.00  0.00     0.260 C 
BRANCH  10  11
ATOM     11  O   UNL     1     104.909  94.095  24.920  1.00  0.00    -0.462 OA
BRANCH  11  12
ATOM     12  C   UNL     1     105.948  94.168  25.855  1.00  0.00     0.302 C 
ATOM     13  O   UNL     1     106.710  93.183  26.051  1.00  0.00    -0.253 OA
ATOM     14  C   UNL     1     106.121  95.407  26.666  1.00  0.00     0.139 C 
ENDBRANCH  11  12
ENDBRANCH  10  11
ENDBRANCH   2  10
TORSDOF 6
ENDMDL
MODEL 6
REMARK VINA RESULT:    -3.280     11.796     13.138
REMARK INTER + INTRA:          -5.456
REMARK INTER:                  -4.426
REMARK INTRA:                  -1.030
REMARK UNBOUND:                -1.026
REMARK SMILES CC(=O)OCC=C(C)CCC=C(C)C
REMARK SMILES IDX 7 1 6 2 8 3 9 4 10 5 11 6 13 7 12 8 14 9 5 10 4 11 2 12 3 13
REMARK SMILES IDX 1 14
REMARK H PARENT
REMARK Flexibility Score: inf
ROOT
ATOM      1  C   UNL     1     103.027  83.105  23.351  1.00  0.00    -0.074 C 
ATOM      2  C   UNL     1     103.886  84.006  22.825  1.00  0.00     0.013 C 
ATOM      3  C   UNL     1     101.637  83.565  23.708  1.00  0.00     0.039 C 
ENDROOT
BRANCH   1   4
ATOM      4  C   UNL     1     103.412  81.659  23.610  1.00  0.00     0.034 C 
BRANCH   4   5
ATOM      5  C   UNL     1     103.317  81.290  25.098  1.00  0.00     0.032 C 
BRANCH   5   6
ATOM      6  C   UNL     1     104.350  82.032  25.915  1.00  0.00    -0.028 C 
ATOM      7  C   UNL     1     102.650  83.163  27.367  1.00  0.00     0.039 C 
ATOM      8  C   UNL     1     104.068  82.853  26.950  1.00  0.00    -0.080 C 
ATOM      9  C   UNL     1     105.215  83.470  27.709  1.00  0.00     0.039 C 
ENDBRANCH   5   6
ENDBRANCH   4   5
ENDBRANCH   1   4
BRANCH   2  10
ATOM     10  C   UNL     1     105.294  83.679  22.397  1.00  0.00     0.260 C 
BRANCH  10  11
ATOM     11  O   UNL     1     105.319  83.258  21.034  1.00  0.00    -0.462 OA
BRANCH  11  12
ATOM     12  C   UNL     1     105.859  82.036  20.617  1.00  0.00     0.302 C 
ATOM     13  O   UNL     1     105.639  81.597  19.455  1.00  0.00    -0.253 OA
ATOM     14  C   UNL     1     106.659  81.221  21.574  1.00  0.00     0.139 C 
ENDBRANCH  11  12
ENDBRANCH  10  11
ENDBRANCH   2  10
TORSDOF 6
ENDMDL
MODEL 7
REMARK VINA RESULT:    -3.265      5.205      8.359
REMARK INTER + INTRA:          -5.436
REMARK INTER:                  -4.953
REMARK INTRA:                  -0.483
REMARK UNBOUND:                -1.026
REMARK SMILES CC(=O)OCC=C(C)CCC=C(C)C
REMARK SMILES IDX 7 1 6 2 8 3 9 4 10 5 11 6 13 7 12 8 14 9 5 10 4 11 2 12 3 13
REMARK SMILES IDX 1 14
REMARK H PARENT
REMARK Flexibility Score: inf
ROOT
ATOM      1  C   UNL     1     113.068  94.268  21.261  1.00  0.00    -0.074 C 
ATOM      2  C   UNL     1     111.961  94.697  21.908  1.00  0.00     0.013 C 
ATOM      3  C   UNL     1     114.415  94.635  21.830  1.00  0.00     0.039 C 
ENDROOT
BRANCH   1   4
ATOM      4  C   UNL     1     113.008  93.450  19.984  1.00  0.00     0.034 C 
BRANCH   4   5
ATOM      5  C   UNL     1     114.390  92.937  19.557  1.00  0.00     0.032 C 
BRANCH   5   6
ATOM      6  C   UNL     1     114.356  91.457  19.250  1.00  0.00    -0.028 C 
ATOM      7  C   UNL     1     114.114  91.791  16.778  1.00  0.00     0.039 C 
ATOM      8  C   UNL     1     114.260  90.929  18.010  1.00  0.00    -0.080 C 
ATOM      9  C   UNL     1     114.305  89.430  17.864  1.00  0.00     0.039 C 
ENDBRANCH   5   6
ENDBRANCH   4   5
ENDBRANCH   1   4
BRANCH   2  10
ATOM     10  C   UNL     1     110.554  94.381  21.468  1.00  0.00     0.260 C 
BRANCH  10  11
ATOM     11  O   UNL     1     109.910  93.534  22.418  1.00  0.00    -0.462 OA
BRANCH  11  12
ATOM     12  C   UNL     1     109.973  93.742  23.800  1.00  0.00     0.302 C 
ATOM     13  O   UNL     1     109.536  94.809  24.312  1.00  0.00    -0.253 OA
ATOM     14  C   UNL     1     110.611  92.715  24.671  1.00  0.00     0.139 C 
ENDBRANCH  11  12
ENDBRANCH  10  11
ENDBRANCH   2  10
TORSDOF 6
ENDMDL
MODEL 8
REMARK VINA RESULT:    -3.208     11.740     13.146
REMARK INTER + INTRA:          -5.359
REMARK INTER:                  -4.441
REMARK INTRA:                  -0.918
REMARK UNBOUND:                -1.026
REMARK SMILES CC(=O)OCC=C(C)CCC=C(C)C
REMARK SMILES IDX 7 1 6 2 8 3 9 4 10 5 11 6 13 7 12 8 14 9 5 10 4 11 2 12 3 13
REMARK SMILES IDX 1 14
REMARK H PARENT
REMARK Flexibility Score: inf
ROOT
ATOM      1  C   UNL     1     103.876  82.786  26.935  1.00  0.00    -0.074 C 
ATOM      2  C   UNL     1     102.740  83.302  27.454  1.00  0.00     0.013 C 
ATOM      3  C   UNL     1     105.196  83.275  27.475  1.00  0.00     0.039 C 
ENDROOT
BRANCH   1   4
ATOM      4  C   UNL     1     103.875  81.749  25.825  1.00  0.00     0.034 C 
BRANCH   4   5
ATOM      5  C   UNL     1     104.828  82.122  24.681  1.00  0.00     0.032 C 
BRANCH   5   6
ATOM      6  C   UNL     1     104.307  83.302  23.894  1.00  0.00    -0.028 C 
ATOM      7  C   UNL     1     105.573  82.706  21.815  1.00  0.00     0.039 C 
ATOM      8  C   UNL     1     104.610  83.563  22.603  1.00  0.00    -0.080 C 
ATOM      9  C   UNL     1     103.956  84.746  21.938  1.00  0.00     0.039 C 
ENDBRANCH   5   6
ENDBRANCH   4   5
ENDBRANCH   1   4
BRANCH   2  10
ATOM     10  C   UNL     1     101.354  82.885  27.030  1.00  0.00     0.260 C 
BRANCH  10  11
ATOM     11  O   UNL     1     100.828  83.801  26.072  1.00  0.00    -0.462 OA
BRANCH  11  12
ATOM     12  C   UNL     1     100.725  83.510  24.707  1.00  0.00     0.302 C 
ATOM     13  O   UNL     1     100.738  82.316  24.299  1.00  0.00    -0.253 OA
ATOM     14  C   UNL     1     100.651  84.625  23.721  1.00  0.00     0.139 C 
ENDBRANCH  11  12
ENDBRANCH  10  11
ENDBRANCH   2  10
TORSDOF 6
ENDMDL
MODEL 9
REMARK VINA RESULT:    -3.157      2.329      4.469
REMARK INTER + INTRA:          -5.290
REMARK INTER:                  -4.615
REMARK INTRA:                  -0.675
REMARK UNBOUND:                -1.026
REMARK SMILES CC(=O)OCC=C(C)CCC=C(C)C
REMARK SMILES IDX 7 1 6 2 8 3 9 4 10 5 11 6 13 7 12 8 14 9 5 10 4 11 2 12 3 13
REMARK SMILES IDX 1 14
REMARK H PARENT
REMARK Flexibility Score: inf
ROOT
ATOM      1  C   UNL     1     110.109  93.886  24.062  1.00  0.00    -0.074 C 
ATOM      2  C   UNL     1     110.827  93.793  22.920  1.00  0.00     0.013 C 
ATOM      3  C   UNL     1     109.710  92.613  24.763  1.00  0.00     0.039 C 
ENDROOT
BRANCH   1   4
ATOM      4  C   UNL     1     109.680  95.217  24.655  1.00  0.00     0.034 C 
BRANCH   4   5
ATOM      5  C   UNL     1     108.244  95.591  24.261  1.00  0.00     0.032 C 
BRANCH   5   6
ATOM      6  C   UNL     1     107.473  96.132  25.444  1.00  0.00    -0.028 C 
ATOM      7  C   UNL     1     106.260  93.981  25.867  1.00  0.00     0.039 C 
ATOM      8  C   UNL     1     106.602  95.417  26.189  1.00  0.00    -0.080 C 
ATOM      9  C   UNL     1     105.961  96.082  27.380  1.00  0.00     0.039 C 
ENDBRANCH   5   6
ENDBRANCH   4   5
ENDBRANCH   1   4
BRANCH   2  10
ATOM     10  C   UNL     1     111.316  94.981  22.133  1.00  0.00     0.260 C 
BRANCH  10  11
ATOM     11  O   UNL     1     110.371  95.339  21.127  1.00  0.00    -0.462 OA
BRANCH  11  12
ATOM     12  C   UNL     1     110.453  94.894  19.802  1.00  0.00     0.302 C 
ATOM     13  O   UNL     1     111.377  94.117  19.439  1.00  0.00    -0.253 OA
ATOM     14  C   UNL     1     109.466  95.386  18.800  1.00  0.00     0.139 C 
ENDBRANCH  11  12
ENDBRANCH  10  11
ENDBRANCH   2  10
TORSDOF 6
ENDMDL
