MODEL 1
REMARK VINA RESULT:    -6.665      0.000      0.000
REMARK INTER + INTRA:          -8.526
REMARK INTER:                  -8.224
REMARK INTRA:                  -0.302
REMARK UNBOUND:                -0.302
REMARK SMILES COc1cc(-c2oc3cc(O)cc(O)c3c(=O)c2O)ccc1O
REMARK SMILES IDX 6 1 18 2 16 3 17 4 15 5 13 6 12 7 10 8 9 9 8 10 7 11 5 12
REMARK SMILES IDX 3 13 22 14 4 15 21 16 20 17 2 18 1 19 23 20 19 22 14 24
REMARK SMILES IDX 11 26
REMARK H PARENT 23 21 19 23 14 25 11 27
REMARK Flexibility Score: inf
ROOT
ATOM      1  C   UNL     1     181.711 178.723 175.198  1.00  0.00     0.180 A 
ATOM      2  C   UNL     1     182.926 179.184 174.663  1.00  0.00     0.208 A 
ATOM      3  C   UNL     1     183.473 178.529 173.548  1.00  0.00     0.238 A 
ATOM      4  O   UNL     1     184.587 178.914 173.107  1.00  0.00    -0.285 OA
ATOM      5  C   UNL     1     182.790 177.430 172.972  1.00  0.00     0.111 A 
ATOM      6  C   UNL     1     183.231 176.718 171.817  1.00  0.00     0.134 A 
ATOM      7  C   UNL     1     182.545 175.565 171.413  1.00  0.00     0.093 A 
ATOM      8  C   UNL     1     181.398 175.138 172.081  1.00  0.00     0.123 A 
ATOM      9  C   UNL     1     180.923 175.862 173.176  1.00  0.00     0.094 A 
ATOM     10  C   UNL     1     181.607 176.995 173.625  1.00  0.00     0.146 A 
ATOM     11  O   UNL     1     181.129 177.649 174.676  1.00  0.00    -0.452 OA
ENDROOT
BRANCH   1  12
ATOM     12  C   UNL     1     181.061 179.376 176.357  1.00  0.00     0.025 A 
ATOM     13  C   UNL     1     179.315 180.849 177.230  1.00  0.00     0.161 A 
ATOM     14  C   UNL     1     179.836 180.684 178.526  1.00  0.00     0.157 A 
ATOM     15  C   UNL     1     179.940 180.196 176.150  1.00  0.00     0.062 A 
ATOM     16  C   UNL     1     180.964 179.885 178.730  1.00  0.00     0.051 A 
ATOM     17  C   UNL     1     181.579 179.240 177.656  1.00  0.00     0.016 A 
BRANCH  13  18
ATOM     18  O   UNL     1     178.185 181.664 177.054  1.00  0.00    -0.493 OA
ATOM     19  C   UNL     1     177.262 181.543 175.976  1.00  0.00     0.278 C 
ENDBRANCH  13  18
BRANCH  14  20
ATOM     20  O   UNL     1     179.249 181.311 179.625  1.00  0.00    -0.504 OA
ATOM     21  H   UNL     1     179.747 181.987 180.192  1.00  0.00     0.293 HD
ENDBRANCH  14  20
ENDBRANCH   1  12
BRANCH   2  22
ATOM     22  O   UNL     1     183.594 180.257 175.260  1.00  0.00    -0.502 OA
ATOM     23  H   UNL     1     184.365 180.735 174.811  1.00  0.00     0.293 HD
ENDBRANCH   2  22
BRANCH   6  24
ATOM     24  O   UNL     1     184.312 177.111 171.022  1.00  0.00    -0.507 OA
ATOM     25  H   UNL     1     184.703 178.041 171.003  1.00  0.00     0.293 HD
ENDBRANCH   6  24
BRANCH   8  26
ATOM     26  O   UNL     1     180.732 173.997 171.642  1.00  0.00    -0.508 OA
ATOM     27  H   UNL     1     179.823 174.051 171.198  1.00  0.00     0.293 HD
ENDBRANCH   8  26
TORSDOF 6
ENDMDL
MODEL 2
REMARK VINA RESULT:    -6.660      3.712      7.010
REMARK INTER + INTRA:          -8.520
REMARK INTER:                  -8.204
REMARK INTRA:                  -0.316
REMARK UNBOUND:                -0.302
REMARK SMILES COc1cc(-c2oc3cc(O)cc(O)c3c(=O)c2O)ccc1O
REMARK SMILES IDX 6 1 18 2 16 3 17 4 15 5 13 6 12 7 10 8 9 9 8 10 7 11 5 12
REMARK SMILES IDX 3 13 22 14 4 15 21 16 20 17 2 18 1 19 23 20 19 22 14 24
REMARK SMILES IDX 11 26
REMARK H PARENT 23 21 19 23 14 25 11 27
REMARK Flexibility Score: inf
ROOT
ATOM      1  C   UNL     1     179.021 182.006 175.172  1.00  0.00     0.180 A 
ATOM      2  C   UNL     1     177.809 181.541 174.632  1.00  0.00     0.208 A 
ATOM      3  C   UNL     1     177.263 182.196 173.516  1.00  0.00     0.238 A 
ATOM      4  O   UNL     1     176.153 181.808 173.071  1.00  0.00    -0.285 OA
ATOM      5  C   UNL     1     177.945 183.299 172.945  1.00  0.00     0.111 A 
ATOM      6  C   UNL     1     177.504 184.012 171.790  1.00  0.00     0.134 A 
ATOM      7  C   UNL     1     178.187 185.168 171.390  1.00  0.00     0.093 A 
ATOM      8  C   UNL     1     179.330 185.598 172.062  1.00  0.00     0.123 A 
ATOM      9  C   UNL     1     179.805 184.873 173.158  1.00  0.00     0.094 A 
ATOM     10  C   UNL     1     179.124 183.737 173.602  1.00  0.00     0.146 A 
ATOM     11  O   UNL     1     179.601 183.082 174.654  1.00  0.00    -0.452 OA
ENDROOT
BRANCH   1  12
ATOM     12  C   UNL     1     179.670 181.352 176.332  1.00  0.00     0.025 A 
ATOM     13  C   UNL     1     181.404 179.865 177.205  1.00  0.00     0.161 A 
ATOM     14  C   UNL     1     180.892 180.044 178.503  1.00  0.00     0.157 A 
ATOM     15  C   UNL     1     180.780 180.518 176.123  1.00  0.00     0.062 A 
ATOM     16  C   UNL     1     179.774 180.858 178.708  1.00  0.00     0.051 A 
ATOM     17  C   UNL     1     179.160 181.503 177.632  1.00  0.00     0.016 A 
BRANCH  13  18
ATOM     18  O   UNL     1     182.523 179.036 177.028  1.00  0.00    -0.493 OA
ATOM     19  C   UNL     1     183.451 179.150 175.954  1.00  0.00     0.278 C 
ENDBRANCH  13  18
BRANCH  14  20
ATOM     20  O   UNL     1     181.477 179.418 179.602  1.00  0.00    -0.504 OA
ATOM     21  H   UNL     1     181.604 178.413 179.648  1.00  0.00     0.293 HD
ENDBRANCH  14  20
ENDBRANCH   1  12
BRANCH   2  22
ATOM     22  O   UNL     1     177.143 180.464 175.225  1.00  0.00    -0.502 OA
ATOM     23  H   UNL     1     176.433 180.589 175.935  1.00  0.00     0.293 HD
ENDBRANCH   2  22
BRANCH   6  24
ATOM     24  O   UNL     1     176.427 183.616 170.991  1.00  0.00    -0.507 OA
ATOM     25  H   UNL     1     175.494 183.995 171.055  1.00  0.00     0.293 HD
ENDBRANCH   6  24
BRANCH   8  26
ATOM     26  O   UNL     1     179.994 186.742 171.628  1.00  0.00    -0.508 OA
ATOM     27  H   UNL     1     180.425 186.790 170.712  1.00  0.00     0.293 HD
ENDBRANCH   8  26
TORSDOF 6
ENDMDL
MODEL 3
REMARK VINA RESULT:    -6.353      1.637      7.019
REMARK INTER + INTRA:          -8.141
REMARK INTER:                  -7.779
REMARK INTRA:                  -0.362
REMARK UNBOUND:                -0.302
REMARK SMILES COc1cc(-c2oc3cc(O)cc(O)c3c(=O)c2O)ccc1O
REMARK SMILES IDX 6 1 18 2 16 3 17 4 15 5 13 6 12 7 10 8 9 9 8 10 7 11 5 12
REMARK SMILES IDX 3 13 22 14 4 15 21 16 20 17 2 18 1 19 23 20 19 22 14 24
REMARK SMILES IDX 11 26
REMARK H PARENT 23 21 19 23 14 25 11 27
REMARK Flexibility Score: inf
ROOT
ATOM      1  C   UNL     1     182.429 179.393 174.801  1.00  0.00     0.180 A 
ATOM      2  C   UNL     1     182.747 179.127 176.144  1.00  0.00     0.208 A 
ATOM      3  C   UNL     1     181.846 179.518 177.148  1.00  0.00     0.238 A 
ATOM      4  O   UNL     1     182.160 179.324 178.350  1.00  0.00    -0.285 OA
ATOM      5  C   UNL     1     180.632 180.156 176.794  1.00  0.00     0.111 A 
ATOM      6  C   UNL     1     179.628 180.559 177.725  1.00  0.00     0.134 A 
ATOM      7  C   UNL     1     178.527 181.300 177.276  1.00  0.00     0.093 A 
ATOM      8  C   UNL     1     178.360 181.594 175.924  1.00  0.00     0.123 A 
ATOM      9  C   UNL     1     179.306 181.153 174.996  1.00  0.00     0.094 A 
ATOM     10  C   UNL     1     180.433 180.444 175.419  1.00  0.00     0.146 A 
ATOM     11  O   UNL     1     181.315 180.051 174.507  1.00  0.00    -0.452 OA
ENDROOT
BRANCH   1  12
ATOM     12  C   UNL     1     183.317 178.989 173.686  1.00  0.00     0.025 A 
ATOM     13  C   UNL     1     183.913 177.364 171.958  1.00  0.00     0.161 A 
ATOM     14  C   UNL     1     185.018 178.159 171.604  1.00  0.00     0.157 A 
ATOM     15  C   UNL     1     183.072 177.784 173.007  1.00  0.00     0.062 A 
ATOM     16  C   UNL     1     185.275 179.347 172.293  1.00  0.00     0.051 A 
ATOM     17  C   UNL     1     184.438 179.759 173.331  1.00  0.00     0.016 A 
BRANCH  13  18
ATOM     18  O   UNL     1     183.683 176.171 171.253  1.00  0.00    -0.493 OA
ATOM     19  C   UNL     1     182.570 175.309 171.465  1.00  0.00     0.278 C 
ENDBRANCH  13  18
BRANCH  14  20
ATOM     20  O   UNL     1     185.876 177.781 170.572  1.00  0.00    -0.504 OA
ATOM     21  H   UNL     1     186.737 177.275 170.743  1.00  0.00     0.293 HD
ENDBRANCH  14  20
ENDBRANCH   1  12
BRANCH   2  22
ATOM     22  O   UNL     1     183.960 178.514 176.471  1.00  0.00    -0.502 OA
ATOM     23  H   UNL     1     184.646 178.258 175.772  1.00  0.00     0.293 HD
ENDBRANCH   2  22
BRANCH   6  24
ATOM     24  O   UNL     1     179.651 180.238 179.086  1.00  0.00    -0.507 OA
ATOM     25  H   UNL     1     179.404 180.872 179.830  1.00  0.00     0.293 HD
ENDBRANCH   6  24
BRANCH   8  26
ATOM     26  O   UNL     1     177.246 182.319 175.510  1.00  0.00    -0.508 OA
ATOM     27  H   UNL     1     176.599 182.724 176.177  1.00  0.00     0.293 HD
ENDBRANCH   8  26
TORSDOF 6
ENDMDL
MODEL 4
REMARK VINA RESULT:    -6.346      3.356      6.605
REMARK INTER + INTRA:          -8.132
REMARK INTER:                  -7.773
REMARK INTRA:                  -0.359
REMARK UNBOUND:                -0.302
REMARK SMILES COc1cc(-c2oc3cc(O)cc(O)c3c(=O)c2O)ccc1O
REMARK SMILES IDX 6 1 18 2 16 3 17 4 15 5 13 6 12 7 10 8 9 9 8 10 7 11 5 12
REMARK SMILES IDX 3 13 22 14 4 15 21 16 20 17 2 18 1 19 23 20 19 22 14 24
REMARK SMILES IDX 11 26
REMARK H PARENT 23 21 19 23 14 25 11 27
REMARK Flexibility Score: inf
ROOT
ATOM      1  C   UNL     1     178.290 181.316 174.641  1.00  0.00     0.180 A 
ATOM      2  C   UNL     1     178.014 181.588 175.992  1.00  0.00     0.208 A 
ATOM      3  C   UNL     1     178.940 181.190 176.970  1.00  0.00     0.238 A 
ATOM      4  O   UNL     1     178.662 181.389 178.181  1.00  0.00    -0.285 OA
ATOM      5  C   UNL     1     180.136 180.539 176.583  1.00  0.00     0.111 A 
ATOM      6  C   UNL     1     181.163 180.128 177.486  1.00  0.00     0.134 A 
ATOM      7  C   UNL     1     182.243 179.375 177.007  1.00  0.00     0.093 A 
ATOM      8  C   UNL     1     182.368 179.077 175.651  1.00  0.00     0.123 A 
ATOM      9  C   UNL     1     181.400 179.525 174.750  1.00  0.00     0.094 A 
ATOM     10  C   UNL     1     180.293 180.247 175.203  1.00  0.00     0.146 A 
ATOM     11  O   UNL     1     179.389 180.646 174.316  1.00  0.00    -0.452 OA
ENDROOT
BRANCH   1  12
ATOM     12  C   UNL     1     177.374 181.727 173.551  1.00  0.00     0.025 A 
ATOM     13  C   UNL     1     176.752 183.349 171.830  1.00  0.00     0.161 A 
ATOM     14  C   UNL     1     175.623 182.570 171.517  1.00  0.00     0.157 A 
ATOM     15  C   UNL     1     177.618 182.922 172.856  1.00  0.00     0.062 A 
ATOM     16  C   UNL     1     175.369 181.391 172.222  1.00  0.00     0.051 A 
ATOM     17  C   UNL     1     176.231 180.973 173.238  1.00  0.00     0.016 A 
BRANCH  13  18
ATOM     18  O   UNL     1     176.978 184.533 171.109  1.00  0.00    -0.493 OA
ATOM     19  C   UNL     1     178.077 185.413 171.326  1.00  0.00     0.278 C 
ENDBRANCH  13  18
BRANCH  14  20
ATOM     20  O   UNL     1     174.739 182.954 170.509  1.00  0.00    -0.504 OA
ATOM     21  H   UNL     1     174.978 182.889 169.526  1.00  0.00     0.293 HD
ENDBRANCH  14  20
ENDBRANCH   1  12
BRANCH   2  22
ATOM     22  O   UNL     1     176.817 182.213 176.353  1.00  0.00    -0.502 OA
ATOM     23  H   UNL     1     175.911 181.797 176.174  1.00  0.00     0.293 HD
ENDBRANCH   2  22
BRANCH   6  24
ATOM     24  O   UNL     1     181.182 180.452 178.846  1.00  0.00    -0.507 OA
ATOM     25  H   UNL     1     180.419 180.293 179.486  1.00  0.00     0.293 HD
ENDBRANCH   6  24
BRANCH   8  26
ATOM     26  O   UNL     1     183.462 178.340 175.207  1.00  0.00    -0.508 OA
ATOM     27  H   UNL     1     183.462 177.880 174.304  1.00  0.00     0.293 HD
ENDBRANCH   8  26
TORSDOF 6
ENDMDL
MODEL 5
REMARK VINA RESULT:    -6.274      3.691      6.323
REMARK INTER + INTRA:          -8.043
REMARK INTER:                  -7.729
REMARK INTRA:                  -0.314
REMARK UNBOUND:                -0.302
REMARK SMILES COc1cc(-c2oc3cc(O)cc(O)c3c(=O)c2O)ccc1O
REMARK SMILES IDX 6 1 18 2 16 3 17 4 15 5 13 6 12 7 10 8 9 9 8 10 7 11 5 12
REMARK SMILES IDX 3 13 22 14 4 15 21 16 20 17 2 18 1 19 23 20 19 22 14 24
REMARK SMILES IDX 11 26
REMARK H PARENT 23 21 19 23 14 25 11 27
REMARK Flexibility Score: inf
ROOT
ATOM      1  C   UNL     1     179.002 182.041 174.833  1.00  0.00     0.180 A 
ATOM      2  C   UNL     1     179.567 183.177 174.228  1.00  0.00     0.208 A 
ATOM      3  C   UNL     1     178.940 183.732 173.100  1.00  0.00     0.238 A 
ATOM      4  O   UNL     1     179.479 184.716 172.532  1.00  0.00    -0.285 OA
ATOM      5  C   UNL     1     177.748 183.152 172.601  1.00  0.00     0.111 A 
ATOM      6  C   UNL     1     177.007 183.655 171.490  1.00  0.00     0.134 A 
ATOM      7  C   UNL     1     175.915 182.926 171.002  1.00  0.00     0.093 A 
ATOM      8  C   UNL     1     175.497 181.750 171.624  1.00  0.00     0.123 A 
ATOM      9  C   UNL     1     176.179 181.281 172.749  1.00  0.00     0.094 A 
ATOM     10  C   UNL     1     177.294 181.967 173.237  1.00  0.00     0.146 A 
ATOM     11  O   UNL     1     177.921 181.482 174.302  1.00  0.00    -0.452 OA
ENDROOT
BRANCH   1  12
ATOM     12  C   UNL     1     179.592 181.415 176.039  1.00  0.00     0.025 A 
ATOM     13  C   UNL     1     181.317 180.000 177.039  1.00  0.00     0.161 A 
ATOM     14  C   UNL     1     180.706 180.158 178.296  1.00  0.00     0.157 A 
ATOM     15  C   UNL     1     180.748 180.626 175.914  1.00  0.00     0.062 A 
ATOM     16  C   UNL     1     179.544 180.926 178.417  1.00  0.00     0.051 A 
ATOM     17  C   UNL     1     178.984 181.545 177.298  1.00  0.00     0.016 A 
BRANCH  13  18
ATOM     18  O   UNL     1     182.479 179.217 176.947  1.00  0.00    -0.493 OA
ATOM     19  C   UNL     1     183.344 179.186 175.815  1.00  0.00     0.278 C 
ENDBRANCH  13  18
BRANCH  14  20
ATOM     20  O   UNL     1     181.236 179.557 179.437  1.00  0.00    -0.504 OA
ATOM     21  H   UNL     1     180.712 179.482 180.302  1.00  0.00     0.293 HD
ENDBRANCH  14  20
ENDBRANCH   1  12
BRANCH   2  22
ATOM     22  O   UNL     1     180.755 183.720 174.724  1.00  0.00    -0.502 OA
ATOM     23  H   UNL     1     181.318 183.250 175.423  1.00  0.00     0.293 HD
ENDBRANCH   2  22
BRANCH   6  24
ATOM     24  O   UNL     1     177.283 184.868 170.851  1.00  0.00    -0.507 OA
ATOM     25  H   UNL     1     176.778 185.727 171.006  1.00  0.00     0.293 HD
ENDBRANCH   6  24
BRANCH   8  26
ATOM     26  O   UNL     1     174.398 181.060 171.122  1.00  0.00    -0.508 OA
ATOM     27  H   UNL     1     174.105 181.158 170.157  1.00  0.00     0.293 HD
ENDBRANCH   8  26
TORSDOF 6
ENDMDL
MODEL 6
REMARK VINA RESULT:    -6.273      1.252      2.960
REMARK INTER + INTRA:          -8.042
REMARK INTER:                  -7.733
REMARK INTRA:                  -0.309
REMARK UNBOUND:                -0.302
REMARK SMILES COc1cc(-c2oc3cc(O)cc(O)c3c(=O)c2O)ccc1O
REMARK SMILES IDX 6 1 18 2 16 3 17 4 15 5 13 6 12 7 10 8 9 9 8 10 7 11 5 12
REMARK SMILES IDX 3 13 22 14 4 15 21 16 20 17 2 18 1 19 23 20 19 22 14 24
REMARK SMILES IDX 11 26
REMARK H PARENT 23 21 19 23 14 25 11 27
REMARK Flexibility Score: inf
ROOT
ATOM      1  C   UNL     1     181.728 178.684 174.841  1.00  0.00     0.180 A 
ATOM      2  C   UNL     1     181.188 177.528 174.253  1.00  0.00     0.208 A 
ATOM      3  C   UNL     1     181.836 176.961 173.143  1.00  0.00     0.238 A 
ATOM      4  O   UNL     1     181.318 175.958 172.588  1.00  0.00    -0.285 OA
ATOM      5  C   UNL     1     183.025 177.549 172.647  1.00  0.00     0.111 A 
ATOM      6  C   UNL     1     183.787 177.036 171.554  1.00  0.00     0.134 A 
ATOM      7  C   UNL     1     184.873 177.772 171.065  1.00  0.00     0.093 A 
ATOM      8  C   UNL     1     185.266 178.966 171.668  1.00  0.00     0.123 A 
ATOM      9  C   UNL     1     184.564 179.446 172.776  1.00  0.00     0.094 A 
ATOM     10  C   UNL     1     183.454 178.753 173.264  1.00  0.00     0.146 A 
ATOM     11  O   UNL     1     182.807 179.249 174.312  1.00  0.00    -0.452 OA
ENDROOT
BRANCH   1  12
ATOM     12  C   UNL     1     181.115 179.325 176.028  1.00  0.00     0.025 A 
ATOM     13  C   UNL     1     179.348 180.721 176.982  1.00  0.00     0.161 A 
ATOM     14  C   UNL     1     179.954 180.608 178.247  1.00  0.00     0.157 A 
ATOM     15  C   UNL     1     179.941 180.081 175.876  1.00  0.00     0.062 A 
ATOM     16  C   UNL     1     181.133 179.872 178.394  1.00  0.00     0.051 A 
ATOM     17  C   UNL     1     181.716 179.240 177.294  1.00  0.00     0.016 A 
BRANCH  13  18
ATOM     18  O   UNL     1     178.168 181.473 176.863  1.00  0.00    -0.493 OA
ATOM     19  C   UNL     1     177.317 181.463 175.722  1.00  0.00     0.278 C 
ENDBRANCH  13  18
BRANCH  14  20
ATOM     20  O   UNL     1     179.402 181.224 179.369  1.00  0.00    -0.504 OA
ATOM     21  H   UNL     1     178.573 181.804 179.315  1.00  0.00     0.293 HD
ENDBRANCH  14  20
ENDBRANCH   1  12
BRANCH   2  22
ATOM     22  O   UNL     1     180.002 176.977 174.746  1.00  0.00    -0.502 OA
ATOM     23  H   UNL     1     179.385 176.414 174.173  1.00  0.00     0.293 HD
ENDBRANCH   2  22
BRANCH   6  24
ATOM     24  O   UNL     1     183.536 175.807 170.936  1.00  0.00    -0.507 OA
ATOM     25  H   UNL     1     184.234 175.243 170.475  1.00  0.00     0.293 HD
ENDBRANCH   6  24
BRANCH   8  26
ATOM     26  O   UNL     1     186.361 179.663 171.165  1.00  0.00    -0.508 OA
ATOM     27  H   UNL     1     187.309 179.332 171.301  1.00  0.00     0.293 HD
ENDBRANCH   8  26
TORSDOF 6
ENDMDL
MODEL 7
REMARK VINA RESULT:    -6.222      4.393      7.272
REMARK INTER + INTRA:          -7.979
REMARK INTER:                  -7.587
REMARK INTRA:                  -0.392
REMARK UNBOUND:                -0.302
REMARK SMILES COc1cc(-c2oc3cc(O)cc(O)c3c(=O)c2O)ccc1O
REMARK SMILES IDX 6 1 18 2 16 3 17 4 15 5 13 6 12 7 10 8 9 9 8 10 7 11 5 12
REMARK SMILES IDX 3 13 22 14 4 15 21 16 20 17 2 18 1 19 23 20 19 22 14 24
REMARK SMILES IDX 11 26
REMARK H PARENT 23 21 19 23 14 25 11 27
REMARK Flexibility Score: inf
ROOT
ATOM      1  C   UNL     1     178.653 182.166 174.082  1.00  0.00     0.180 A 
ATOM      2  C   UNL     1     177.352 182.135 173.552  1.00  0.00     0.208 A 
ATOM      3  C   UNL     1     177.003 183.050 172.546  1.00  0.00     0.238 A 
ATOM      4  O   UNL     1     175.822 183.052 172.114  1.00  0.00    -0.285 OA
ATOM      5  C   UNL     1     177.965 183.975 172.072  1.00  0.00     0.111 A 
ATOM      6  C   UNL     1     177.733 184.921 171.028  1.00  0.00     0.134 A 
ATOM      7  C   UNL     1     178.715 185.875 170.731  1.00  0.00     0.093 A 
ATOM      8  C   UNL     1     179.942 185.876 171.391  1.00  0.00     0.123 A 
ATOM      9  C   UNL     1     180.202 184.917 172.373  1.00  0.00     0.094 A 
ATOM     10  C   UNL     1     179.229 183.976 172.717  1.00  0.00     0.146 A 
ATOM     11  O   UNL     1     179.512 183.088 173.663  1.00  0.00    -0.452 OA
ENDROOT
BRANCH   1  12
ATOM     12  C   UNL     1     179.102 181.217 175.127  1.00  0.00     0.025 A 
ATOM     13  C   UNL     1     179.504 180.732 177.490  1.00  0.00     0.161 A 
ATOM     14  C   UNL     1     180.004 179.466 177.136  1.00  0.00     0.157 A 
ATOM     15  C   UNL     1     179.062 181.605 176.477  1.00  0.00     0.062 A 
ATOM     16  C   UNL     1     180.064 179.088 175.792  1.00  0.00     0.051 A 
ATOM     17  C   UNL     1     179.624 179.957 174.791  1.00  0.00     0.016 A 
BRANCH  13  18
ATOM     18  O   UNL     1     179.463 181.087 178.848  1.00  0.00    -0.493 OA
ATOM     19  C   UNL     1     180.528 181.720 179.550  1.00  0.00     0.278 C 
ENDBRANCH  13  18
BRANCH  14  20
ATOM     20  O   UNL     1     180.452 178.570 178.106  1.00  0.00    -0.504 OA
ATOM     21  H   UNL     1     181.422 178.527 178.396  1.00  0.00     0.293 HD
ENDBRANCH  14  20
ENDBRANCH   1  12
BRANCH   2  22
ATOM     22  O   UNL     1     176.413 181.227 174.050  1.00  0.00    -0.502 OA
ATOM     23  H   UNL     1     175.865 181.413 174.881  1.00  0.00     0.293 HD
ENDBRANCH   2  22
BRANCH   6  24
ATOM     24  O   UNL     1     176.577 184.949 170.243  1.00  0.00    -0.507 OA
ATOM     25  H   UNL     1     176.018 184.141 170.013  1.00  0.00     0.293 HD
ENDBRANCH   6  24
BRANCH   8  26
ATOM     26  O   UNL     1     180.901 186.829 171.059  1.00  0.00    -0.508 OA
ATOM     27  H   UNL     1     180.709 187.822 171.129  1.00  0.00     0.293 HD
ENDBRANCH   8  26
TORSDOF 6
ENDMDL
MODEL 8
REMARK VINA RESULT:    -6.216      1.417      2.082
REMARK INTER + INTRA:          -7.972
REMARK INTER:                  -7.580
REMARK INTRA:                  -0.392
REMARK UNBOUND:                -0.302
REMARK SMILES COc1cc(-c2oc3cc(O)cc(O)c3c(=O)c2O)ccc1O
REMARK SMILES IDX 6 1 18 2 16 3 17 4 15 5 13 6 12 7 10 8 9 9 8 10 7 11 5 12
REMARK SMILES IDX 3 13 22 14 4 15 21 16 20 17 2 18 1 19 23 20 19 22 14 24
REMARK SMILES IDX 11 26
REMARK H PARENT 23 21 19 23 14 25 11 27
REMARK Flexibility Score: inf
ROOT
ATOM      1  C   UNL     1     182.066 178.596 174.269  1.00  0.00     0.180 A 
ATOM      2  C   UNL     1     183.362 178.621 173.726  1.00  0.00     0.208 A 
ATOM      3  C   UNL     1     183.690 177.717 172.702  1.00  0.00     0.238 A 
ATOM      4  O   UNL     1     184.867 177.708 172.257  1.00  0.00    -0.285 OA
ATOM      5  C   UNL     1     182.712 176.811 172.224  1.00  0.00     0.111 A 
ATOM      6  C   UNL     1     182.922 175.879 171.163  1.00  0.00     0.134 A 
ATOM      7  C   UNL     1     181.926 174.942 170.861  1.00  0.00     0.093 A 
ATOM      8  C   UNL     1     180.705 174.945 171.534  1.00  0.00     0.123 A 
ATOM      9  C   UNL     1     180.467 175.891 172.533  1.00  0.00     0.094 A 
ATOM     10  C   UNL     1     181.455 176.815 172.881  1.00  0.00     0.146 A 
ATOM     11  O   UNL     1     181.193 177.691 173.844  1.00  0.00    -0.452 OA
ENDROOT
BRANCH   1  12
ATOM     12  C   UNL     1     181.640 179.533 175.333  1.00  0.00     0.025 A 
ATOM     13  C   UNL     1     181.193 179.961 177.699  1.00  0.00     0.161 A 
ATOM     14  C   UNL     1     180.776 181.266 177.376  1.00  0.00     0.157 A 
ATOM     15  C   UNL     1     181.616 179.099 176.669  1.00  0.00     0.062 A 
ATOM     16  C   UNL     1     180.780 181.691 176.045  1.00  0.00     0.051 A 
ATOM     17  C   UNL     1     181.201 180.832 175.027  1.00  0.00     0.016 A 
BRANCH  13  18
ATOM     18  O   UNL     1     181.172 179.559 179.045  1.00  0.00    -0.493 OA
ATOM     19  C   UNL     1     180.070 178.916 179.678  1.00  0.00     0.278 C 
ENDBRANCH  13  18
BRANCH  14  20
ATOM     20  O   UNL     1     180.350 182.153 178.364  1.00  0.00    -0.504 OA
ATOM     21  H   UNL     1     180.583 182.025 179.342  1.00  0.00     0.293 HD
ENDBRANCH  14  20
ENDBRANCH   1  12
BRANCH   2  22
ATOM     22  O   UNL     1     184.318 179.509 174.228  1.00  0.00    -0.502 OA
ATOM     23  H   UNL     1     184.552 180.376 173.761  1.00  0.00     0.293 HD
ENDBRANCH   2  22
BRANCH   6  24
ATOM     24  O   UNL     1     184.070 175.850 170.365  1.00  0.00    -0.507 OA
ATOM     25  H   UNL     1     184.296 176.533 169.658  1.00  0.00     0.293 HD
ENDBRANCH   6  24
BRANCH   8  26
ATOM     26  O   UNL     1     179.732 174.008 171.197  1.00  0.00    -0.508 OA
ATOM     27  H   UNL     1     179.634 173.138 171.707  1.00  0.00     0.293 HD
ENDBRANCH   8  26
TORSDOF 6
ENDMDL
MODEL 9
REMARK VINA RESULT:    -6.160      1.641      7.329
REMARK INTER + INTRA:          -7.903
REMARK INTER:                  -7.811
REMARK INTRA:                  -0.092
REMARK UNBOUND:                -0.302
REMARK SMILES COc1cc(-c2oc3cc(O)cc(O)c3c(=O)c2O)ccc1O
REMARK SMILES IDX 6 1 18 2 16 3 17 4 15 5 13 6 12 7 10 8 9 9 8 10 7 11 5 12
REMARK SMILES IDX 3 13 22 14 4 15 21 16 20 17 2 18 1 19 23 20 19 22 14 24
REMARK SMILES IDX 11 26
REMARK H PARENT 23 21 19 23 14 25 11 27
REMARK Flexibility Score: inf
ROOT
ATOM      1  C   UNL     1     180.401 178.352 174.417  1.00  0.00     0.180 A 
ATOM      2  C   UNL     1     179.136 178.783 173.984  1.00  0.00     0.208 A 
ATOM      3  C   UNL     1     178.438 179.731 174.751  1.00  0.00     0.238 A 
ATOM      4  O   UNL     1     177.284 180.073 174.386  1.00  0.00    -0.285 OA
ATOM      5  C   UNL     1     179.022 180.245 175.934  1.00  0.00     0.111 A 
ATOM      6  C   UNL     1     178.423 181.238 176.767  1.00  0.00     0.134 A 
ATOM      7  C   UNL     1     179.031 181.578 177.982  1.00  0.00     0.093 A 
ATOM      8  C   UNL     1     180.247 181.011 178.363  1.00  0.00     0.123 A 
ATOM      9  C   UNL     1     180.871 180.084 177.527  1.00  0.00     0.094 A 
ATOM     10  C   UNL     1     180.271 179.698 176.326  1.00  0.00     0.146 A 
ATOM     11  O   UNL     1     180.892 178.805 175.565  1.00  0.00    -0.452 OA
ENDROOT
BRANCH   1  12
ATOM     12  C   UNL     1     181.207 177.374 173.650  1.00  0.00     0.025 A 
ATOM     13  C   UNL     1     183.286 176.818 172.490  1.00  0.00     0.161 A 
ATOM     14  C   UNL     1     182.745 175.568 172.137  1.00  0.00     0.157 A 
ATOM     15  C   UNL     1     182.506 177.718 173.241  1.00  0.00     0.062 A 
ATOM     16  C   UNL     1     181.445 175.234 172.526  1.00  0.00     0.051 A 
ATOM     17  C   UNL     1     180.676 176.130 173.271  1.00  0.00     0.016 A 
BRANCH  13  18
ATOM     18  O   UNL     1     184.593 177.129 172.079  1.00  0.00    -0.493 OA
ATOM     19  C   UNL     1     185.043 178.437 171.742  1.00  0.00     0.278 C 
ENDBRANCH  13  18
BRANCH  14  20
ATOM     20  O   UNL     1     183.482 174.646 171.395  1.00  0.00    -0.504 OA
ATOM     21  H   UNL     1     183.146 174.265 170.518  1.00  0.00     0.293 HD
ENDBRANCH  14  20
ENDBRANCH   1  12
BRANCH   2  22
ATOM     22  O   UNL     1     178.570 178.246 172.824  1.00  0.00    -0.502 OA
ATOM     23  H   UNL     1     179.106 178.089 171.980  1.00  0.00     0.293 HD
ENDBRANCH   2  22
BRANCH   6  24
ATOM     24  O   UNL     1     177.256 181.933 176.437  1.00  0.00    -0.507 OA
ATOM     25  H   UNL     1     176.772 181.858 175.555  1.00  0.00     0.293 HD
ENDBRANCH   6  24
BRANCH   8  26
ATOM     26  O   UNL     1     180.830 181.384 179.571  1.00  0.00    -0.508 OA
ATOM     27  H   UNL     1     180.706 180.833 180.412  1.00  0.00     0.293 HD
ENDBRANCH   8  26
TORSDOF 6
ENDMDL
