MODEL 1
REMARK VINA RESULT:    -4.846      0.000      0.000
REMARK INTER + INTRA:          -4.988
REMARK INTER:                  -4.988
REMARK INTRA:                   0.000
REMARK UNBOUND:                 0.000
REMARK SMILES Nc1ncnc2nc[nH]c12
REMARK SMILES IDX 8 1 7 2 6 3 5 4 4 5 3 6 2 7 10 8 9 9 1 11
REMARK H PARENT 9 10 1 12 1 13
REMARK Flexibility Score: inf
ROOT
ATOM      1  C   UNL     1      -1.792  -3.062  18.716  1.00  0.00     0.199 A 
ATOM      2  N   UNL     1      -2.333  -4.167  19.298  1.00  0.00    -0.217 NA
ATOM      3  C   UNL     1      -3.269  -4.531  18.405  1.00  0.00     0.182 A 
ATOM      4  N   UNL     1      -4.110  -5.588  18.500  1.00  0.00    -0.215 NA
ATOM      5  C   UNL     1      -5.001  -5.798  17.484  1.00  0.00     0.226 A 
ATOM      6  N   UNL     1      -5.035  -4.954  16.403  1.00  0.00    -0.217 NA
ATOM      7  C   UNL     1      -4.188  -3.885  16.306  1.00  0.00     0.152 A 
ATOM      8  C   UNL     1      -3.287  -3.686  17.347  1.00  0.00     0.127 A 
ATOM      9  N   UNL     1      -2.355  -2.743  17.523  1.00  0.00    -0.340 N 
ATOM     10  H   UNL     1      -2.108  -1.944  16.898  1.00  0.00     0.168 HD
ENDROOT
BRANCH   7  11
ATOM     11  N   UNL     1      -4.242  -3.021  15.171  1.00  0.00    -0.382 N 
ATOM     12  H   UNL     1      -4.689  -3.323  14.278  1.00  0.00     0.158 HD
ATOM     13  H   UNL     1      -3.830  -2.063  15.224  1.00  0.00     0.158 HD
ENDBRANCH   7  11
TORSDOF 1
ENDMDL
MODEL 2
REMARK VINA RESULT:    -4.771      1.523      3.547
REMARK INTER + INTRA:          -4.910
REMARK INTER:                  -4.910
REMARK INTRA:                   0.000
REMARK UNBOUND:                 0.000
REMARK SMILES Nc1ncnc2nc[nH]c12
REMARK SMILES IDX 8 1 7 2 6 3 5 4 4 5 3 6 2 7 10 8 9 9 1 11
REMARK H PARENT 9 10 1 12 1 13
REMARK Flexibility Score: inf
ROOT
ATOM      1  C   UNL     1      -5.769  -3.156  14.132  1.00  0.00     0.199 A 
ATOM      2  N   UNL     1      -6.621  -4.054  14.700  1.00  0.00    -0.217 NA
ATOM      3  C   UNL     1      -5.976  -4.383  15.832  1.00  0.00     0.182 A 
ATOM      4  N   UNL     1      -6.396  -5.256  16.777  1.00  0.00    -0.215 NA
ATOM      5  C   UNL     1      -5.596  -5.462  17.867  1.00  0.00     0.226 A 
ATOM      6  N   UNL     1      -4.401  -4.798  17.990  1.00  0.00    -0.217 NA
ATOM      7  C   UNL     1      -3.975  -3.917  17.035  1.00  0.00     0.152 A 
ATOM      8  C   UNL     1      -4.801  -3.718  15.933  1.00  0.00     0.127 A 
ATOM      9  N   UNL     1      -4.648  -2.931  14.862  1.00  0.00    -0.340 N 
ATOM     10  H   UNL     1      -3.857  -2.290  14.630  1.00  0.00     0.168 HD
ENDROOT
BRANCH   7  11
ATOM     11  N   UNL     1      -2.728  -3.238  17.184  1.00  0.00    -0.382 N 
ATOM     12  H   UNL     1      -2.372  -2.954  18.123  1.00  0.00     0.158 HD
ATOM     13  H   UNL     1      -2.150  -3.016  16.343  1.00  0.00     0.158 HD
ENDBRANCH   7  11
TORSDOF 1
ENDMDL
MODEL 3
REMARK VINA RESULT:    -4.762      2.465      4.155
REMARK INTER + INTRA:          -4.901
REMARK INTER:                  -4.901
REMARK INTRA:                   0.000
REMARK UNBOUND:                 0.000
REMARK SMILES Nc1ncnc2nc[nH]c12
REMARK SMILES IDX 8 1 7 2 6 3 5 4 4 5 3 6 2 7 10 8 9 9 1 11
REMARK H PARENT 9 10 1 12 1 13
REMARK Flexibility Score: inf
ROOT
ATOM      1  C   UNL     1      -8.360  -3.839  16.440  1.00  0.00     0.199 A 
ATOM      2  N   UNL     1      -7.377  -4.018  17.364  1.00  0.00    -0.217 NA
ATOM      3  C   UNL     1      -6.263  -3.866  16.630  1.00  0.00     0.182 A 
ATOM      4  N   UNL     1      -4.986  -3.948  17.072  1.00  0.00    -0.215 NA
ATOM      5  C   UNL     1      -3.976  -3.764  16.168  1.00  0.00     0.226 A 
ATOM      6  N   UNL     1      -4.260  -3.504  14.850  1.00  0.00    -0.217 NA
ATOM      7  C   UNL     1      -5.549  -3.423  14.402  1.00  0.00     0.152 A 
ATOM      8  C   UNL     1      -6.564  -3.612  15.334  1.00  0.00     0.127 A 
ATOM      9  N   UNL     1      -7.894  -3.590  15.190  1.00  0.00    -0.340 N 
ATOM     10  H   UNL     1      -8.455  -3.422  14.325  1.00  0.00     0.168 HD
ENDROOT
BRANCH   7  11
ATOM     11  N   UNL     1      -5.820  -3.152  13.026  1.00  0.00    -0.382 N 
ATOM     12  H   UNL     1      -5.262  -3.596  12.265  1.00  0.00     0.158 HD
ATOM     13  H   UNL     1      -6.592  -2.499  12.765  1.00  0.00     0.158 HD
ENDBRANCH   7  11
TORSDOF 1
ENDMDL
MODEL 4
REMARK VINA RESULT:    -4.756      2.421      4.119
REMARK INTER + INTRA:          -4.895
REMARK INTER:                  -4.895
REMARK INTRA:                   0.000
REMARK UNBOUND:                 0.000
REMARK SMILES Nc1ncnc2nc[nH]c12
REMARK SMILES IDX 8 1 7 2 6 3 5 4 4 5 3 6 2 7 10 8 9 9 1 11
REMARK H PARENT 9 10 1 12 1 13
REMARK Flexibility Score: inf
ROOT
ATOM      1  C   UNL     1      -4.872  -3.666  13.170  1.00  0.00     0.199 A 
ATOM      2  N   UNL     1      -3.985  -3.739  14.199  1.00  0.00    -0.217 NA
ATOM      3  C   UNL     1      -4.792  -3.782  15.271  1.00  0.00     0.182 A 
ATOM      4  N   UNL     1      -4.412  -3.859  16.568  1.00  0.00    -0.215 NA
ATOM      5  C   UNL     1      -5.387  -3.892  17.526  1.00  0.00     0.226 A 
ATOM      6  N   UNL     1      -6.712  -3.848  17.174  1.00  0.00    -0.217 NA
ATOM      7  C   UNL     1      -7.098  -3.769  15.864  1.00  0.00     0.152 A 
ATOM      8  C   UNL     1      -6.094  -3.736  14.902  1.00  0.00     0.127 A 
ATOM      9  N   UNL     1      -6.170  -3.663  13.568  1.00  0.00    -0.340 N 
ATOM     10  H   UNL     1      -7.019  -3.613  12.963  1.00  0.00     0.168 HD
ENDROOT
BRANCH   7  11
ATOM     11  N   UNL     1      -8.484  -3.723  15.521  1.00  0.00    -0.382 N 
ATOM     12  H   UNL     1      -9.178  -3.235  16.127  1.00  0.00     0.158 HD
ATOM     13  H   UNL     1      -8.820  -4.184  14.646  1.00  0.00     0.158 HD
ENDBRANCH   7  11
TORSDOF 1
ENDMDL
MODEL 5
REMARK VINA RESULT:    -4.747     13.723     15.016
REMARK INTER + INTRA:          -4.886
REMARK INTER:                  -4.886
REMARK INTRA:                   0.000
REMARK UNBOUND:                 0.000
REMARK SMILES Nc1ncnc2nc[nH]c12
REMARK SMILES IDX 8 1 7 2 6 3 5 4 4 5 3 6 2 7 10 8 9 9 1 11
REMARK H PARENT 9 10 1 12 1 13
REMARK Flexibility Score: inf
ROOT
ATOM      1  C   UNL     1      -2.504  -3.303   2.224  1.00  0.00     0.199 A 
ATOM      2  N   UNL     1      -1.592  -2.339   1.922  1.00  0.00    -0.217 NA
ATOM      3  C   UNL     1      -2.061  -1.279   2.600  1.00  0.00     0.182 A 
ATOM      4  N   UNL     1      -1.515  -0.040   2.642  1.00  0.00    -0.215 NA
ATOM      5  C   UNL     1      -2.142   0.916   3.393  1.00  0.00     0.226 A 
ATOM      6  N   UNL     1      -3.291   0.619   4.082  1.00  0.00    -0.217 NA
ATOM      7  C   UNL     1      -3.844  -0.631   4.039  1.00  0.00     0.152 A 
ATOM      8  C   UNL     1      -3.194  -1.593   3.272  1.00  0.00     0.127 A 
ATOM      9  N   UNL     1      -3.496  -2.877   3.047  1.00  0.00    -0.340 N 
ATOM     10  H   UNL     1      -4.301  -3.432   3.412  1.00  0.00     0.168 HD
ENDROOT
BRANCH   7  11
ATOM     11  N   UNL     1      -5.041  -0.917   4.764  1.00  0.00    -0.382 N 
ATOM     12  H   UNL     1      -5.388  -0.280   5.513  1.00  0.00     0.158 HD
ATOM     13  H   UNL     1      -5.589  -1.779   4.547  1.00  0.00     0.158 HD
ENDBRANCH   7  11
TORSDOF 1
ENDMDL
MODEL 6
REMARK VINA RESULT:    -4.653      0.925      2.958
REMARK INTER + INTRA:          -4.789
REMARK INTER:                  -4.789
REMARK INTRA:                   0.000
REMARK UNBOUND:                 0.000
REMARK SMILES Nc1ncnc2nc[nH]c12
REMARK SMILES IDX 8 1 7 2 6 3 5 4 4 5 3 6 2 7 10 8 9 9 1 11
REMARK H PARENT 9 10 1 12 1 13
REMARK Flexibility Score: inf
ROOT
ATOM      1  C   UNL     1      -4.593  -3.702  15.365  1.00  0.00     0.199 A 
ATOM      2  N   UNL     1      -5.147  -4.689  16.120  1.00  0.00    -0.217 NA
ATOM      3  C   UNL     1      -4.330  -4.728  17.185  1.00  0.00     0.182 A 
ATOM      4  N   UNL     1      -4.434  -5.551  18.255  1.00  0.00    -0.215 NA
ATOM      5  C   UNL     1      -3.499  -5.441  19.247  1.00  0.00     0.226 A 
ATOM      6  N   UNL     1      -2.486  -4.520  19.152  1.00  0.00    -0.217 NA
ATOM      7  C   UNL     1      -2.379  -3.689  18.071  1.00  0.00     0.152 A 
ATOM      8  C   UNL     1      -3.338  -3.813  17.071  1.00  0.00     0.127 A 
ATOM      9  N   UNL     1      -3.486  -3.147  15.919  1.00  0.00    -0.340 N 
ATOM     10  H   UNL     1      -2.895  -2.380  15.528  1.00  0.00     0.168 HD
ENDROOT
BRANCH   7  11
ATOM     11  N   UNL     1      -1.317  -2.738  17.993  1.00  0.00    -0.382 N 
ATOM     12  H   UNL     1      -1.341  -1.850  18.541  1.00  0.00     0.158 HD
ATOM     13  H   UNL     1      -0.493  -2.924  17.379  1.00  0.00     0.158 HD
ENDBRANCH   7  11
TORSDOF 1
ENDMDL
MODEL 7
REMARK VINA RESULT:    -4.641      1.682      2.097
REMARK INTER + INTRA:          -4.777
REMARK INTER:                  -4.777
REMARK INTRA:                   0.000
REMARK UNBOUND:                 0.000
REMARK SMILES Nc1ncnc2nc[nH]c12
REMARK SMILES IDX 8 1 7 2 6 3 5 4 4 5 3 6 2 7 10 8 9 9 1 11
REMARK H PARENT 9 10 1 12 1 13
REMARK Flexibility Score: inf
ROOT
ATOM      1  C   UNL     1      -3.149  -3.441  17.833  1.00  0.00     0.199 A 
ATOM      2  N   UNL     1      -4.328  -3.877  18.355  1.00  0.00    -0.217 NA
ATOM      3  C   UNL     1      -5.106  -3.972  17.265  1.00  0.00     0.182 A 
ATOM      4  N   UNL     1      -6.400  -4.369  17.226  1.00  0.00    -0.215 NA
ATOM      5  C   UNL     1      -7.030  -4.401  16.013  1.00  0.00     0.226 A 
ATOM      6  N   UNL     1      -6.361  -4.039  14.871  1.00  0.00    -0.217 NA
ATOM      7  C   UNL     1      -5.054  -3.637  14.908  1.00  0.00     0.152 A 
ATOM      8  C   UNL     1      -4.428  -3.610  16.150  1.00  0.00     0.127 A 
ATOM      9  N   UNL     1      -3.179  -3.268  16.488  1.00  0.00    -0.340 N 
ATOM     10  H   UNL     1      -2.401  -2.942  15.872  1.00  0.00     0.168 HD
ENDROOT
BRANCH   7  11
ATOM     11  N   UNL     1      -4.378  -3.264  13.707  1.00  0.00    -0.382 N 
ATOM     12  H   UNL     1      -3.352  -3.077  13.696  1.00  0.00     0.158 HD
ATOM     13  H   UNL     1      -4.912  -3.174  12.813  1.00  0.00     0.158 HD
ENDBRANCH   7  11
TORSDOF 1
ENDMDL
MODEL 8
REMARK VINA RESULT:    -4.579     13.753     14.974
REMARK INTER + INTRA:          -4.713
REMARK INTER:                  -4.713
REMARK INTRA:                   0.000
REMARK UNBOUND:                 0.000
REMARK SMILES Nc1ncnc2nc[nH]c12
REMARK SMILES IDX 8 1 7 2 6 3 5 4 4 5 3 6 2 7 10 8 9 9 1 11
REMARK H PARENT 9 10 1 12 1 13
REMARK Flexibility Score: inf
ROOT
ATOM      1  C   UNL     1      -4.216   0.297   4.704  1.00  0.00     0.199 A 
ATOM      2  N   UNL     1      -3.133   0.975   4.236  1.00  0.00    -0.217 NA
ATOM      3  C   UNL     1      -2.542   0.061   3.450  1.00  0.00     0.182 A 
ATOM      4  N   UNL     1      -1.405   0.225   2.733  1.00  0.00    -0.215 NA
ATOM      5  C   UNL     1      -0.954  -0.829   1.988  1.00  0.00     0.226 A 
ATOM      6  N   UNL     1      -1.640  -2.017   1.974  1.00  0.00    -0.217 NA
ATOM      7  C   UNL     1      -2.787  -2.185   2.699  1.00  0.00     0.152 A 
ATOM      8  C   UNL     1      -3.234  -1.103   3.451  1.00  0.00     0.127 A 
ATOM      9  N   UNL     1      -4.305  -0.976   4.243  1.00  0.00    -0.340 N 
ATOM     10  H   UNL     1      -5.042  -1.682   4.463  1.00  0.00     0.168 HD
ENDROOT
BRANCH   7  11
ATOM     11  N   UNL     1      -3.485  -3.431   2.669  1.00  0.00    -0.382 N 
ATOM     12  H   UNL     1      -3.070  -4.296   3.078  1.00  0.00     0.158 HD
ATOM     13  H   UNL     1      -4.432  -3.489   2.232  1.00  0.00     0.158 HD
ENDBRANCH   7  11
TORSDOF 1
ENDMDL
MODEL 9
REMARK VINA RESULT:    -4.536      1.454      3.382
REMARK INTER + INTRA:          -4.668
REMARK INTER:                  -4.668
REMARK INTRA:                   0.000
REMARK UNBOUND:                 0.000
REMARK SMILES Nc1ncnc2nc[nH]c12
REMARK SMILES IDX 8 1 7 2 6 3 5 4 4 5 3 6 2 7 10 8 9 9 1 11
REMARK H PARENT 9 10 1 12 1 13
REMARK Flexibility Score: inf
ROOT
ATOM      1  C   UNL     1      -7.353  -5.469  16.493  1.00  0.00     0.199 A 
ATOM      2  N   UNL     1      -6.871  -5.833  17.713  1.00  0.00    -0.217 NA
ATOM      3  C   UNL     1      -5.658  -5.256  17.725  1.00  0.00     0.182 A 
ATOM      4  N   UNL     1      -4.748  -5.307  18.726  1.00  0.00    -0.215 NA
ATOM      5  C   UNL     1      -3.560  -4.653  18.552  1.00  0.00     0.226 A 
ATOM      6  N   UNL     1      -3.305  -3.967  17.391  1.00  0.00    -0.217 NA
ATOM      7  C   UNL     1      -4.223  -3.915  16.379  1.00  0.00     0.152 A 
ATOM      8  C   UNL     1      -5.427  -4.585  16.572  1.00  0.00     0.127 A 
ATOM      9  N   UNL     1      -6.493  -4.707  15.772  1.00  0.00    -0.340 N 
ATOM     10  H   UNL     1      -6.641  -4.314  14.816  1.00  0.00     0.168 HD
ENDROOT
BRANCH   7  11
ATOM     11  N   UNL     1      -3.937  -3.195  15.180  1.00  0.00    -0.382 N 
ATOM     12  H   UNL     1      -3.122  -2.547  15.117  1.00  0.00     0.158 HD
ATOM     13  H   UNL     1      -4.548  -3.312  14.341  1.00  0.00     0.158 HD
ENDBRANCH   7  11
TORSDOF 1
ENDMDL
