MODEL 1
REMARK VINA RESULT:    -5.134      0.000      0.000
REMARK INTER + INTRA:          -5.630
REMARK INTER:                  -5.585
REMARK INTRA:                  -0.045
REMARK UNBOUND:                -0.045
REMARK SMILES COc1ccccc1O
REMARK SMILES IDX 3 1 4 2 5 3 6 4 7 5 8 6 2 7 1 8 9 9
REMARK H PARENT 9 10
REMARK Flexibility Score: inf
ROOT
ATOM      1  C   UNL     1     -12.773  61.396  39.090  1.00  0.00     0.160 A 
ATOM      2  C   UNL     1     -13.439  60.196  38.766  1.00  0.00     0.050 A 
ATOM      3  C   UNL     1     -14.782  60.218  38.380  1.00  0.00     0.004 A 
ATOM      4  C   UNL     1     -15.473  61.429  38.313  1.00  0.00     0.004 A 
ATOM      5  C   UNL     1     -14.823  62.623  38.633  1.00  0.00     0.050 A 
ATOM      6  C   UNL     1     -13.475  62.611  39.020  1.00  0.00     0.157 A 
ENDROOT
BRANCH   1   7
ATOM      7  O   UNL     1     -11.426  61.422  39.481  1.00  0.00    -0.493 OA
ATOM      8  C   UNL     1     -10.964  61.127  40.796  1.00  0.00     0.278 C 
ENDBRANCH   1   7
BRANCH   6   9
ATOM      9  O   UNL     1     -12.825  63.801  39.339  1.00  0.00    -0.504 OA
ATOM     10  H   UNL     1     -11.995  63.813  39.922  1.00  0.00     0.293 HD
ENDBRANCH   6   9
TORSDOF 2
ENDMDL
MODEL 2
REMARK VINA RESULT:    -5.056     17.856     19.182
REMARK INTER + INTRA:          -5.545
REMARK INTER:                  -5.513
REMARK INTRA:                  -0.031
REMARK UNBOUND:                -0.045
REMARK SMILES COc1ccccc1O
REMARK SMILES IDX 3 1 4 2 5 3 6 4 7 5 8 6 2 7 1 8 9 9
REMARK H PARENT 9 10
REMARK Flexibility Score: inf
ROOT
ATOM      1  C   UNL     1     -12.285  49.837  53.962  1.00  0.00     0.160 A 
ATOM      2  C   UNL     1     -11.587  48.885  54.734  1.00  0.00     0.050 A 
ATOM      3  C   UNL     1     -10.234  49.074  55.030  1.00  0.00     0.004 A 
ATOM      4  C   UNL     1      -9.565  50.207  54.563  1.00  0.00     0.004 A 
ATOM      5  C   UNL     1     -10.247  51.155  53.798  1.00  0.00     0.050 A 
ATOM      6  C   UNL     1     -11.605  50.974  53.496  1.00  0.00     0.157 A 
ENDROOT
BRANCH   1   7
ATOM      7  O   UNL     1     -13.643  49.689  53.641  1.00  0.00    -0.493 OA
ATOM      8  C   UNL     1     -14.264  48.448  53.320  1.00  0.00     0.278 C 
ENDBRANCH   1   7
BRANCH   6   9
ATOM      9  O   UNL     1     -12.288  51.920  52.733  1.00  0.00    -0.504 OA
ATOM     10  H   UNL     1     -12.869  51.649  51.948  1.00  0.00     0.293 HD
ENDBRANCH   6   9
TORSDOF 2
ENDMDL
MODEL 3
REMARK VINA RESULT:    -5.012      1.698      2.824
REMARK INTER + INTRA:          -5.497
REMARK INTER:                  -5.463
REMARK INTRA:                  -0.034
REMARK UNBOUND:                -0.045
REMARK SMILES COc1ccccc1O
REMARK SMILES IDX 3 1 4 2 5 3 6 4 7 5 8 6 2 7 1 8 9 9
REMARK H PARENT 9 10
REMARK Flexibility Score: inf
ROOT
ATOM      1  C   UNL     1     -11.818  61.972  39.461  1.00  0.00     0.160 A 
ATOM      2  C   UNL     1     -13.082  62.426  39.033  1.00  0.00     0.050 A 
ATOM      3  C   UNL     1     -14.228  61.669  39.297  1.00  0.00     0.004 A 
ATOM      4  C   UNL     1     -14.126  60.460  39.987  1.00  0.00     0.004 A 
ATOM      5  C   UNL     1     -12.878  60.002  40.414  1.00  0.00     0.050 A 
ATOM      6  C   UNL     1     -11.723  60.754  40.154  1.00  0.00     0.157 A 
ENDROOT
BRANCH   1   7
ATOM      7  O   UNL     1     -10.641  62.698  39.219  1.00  0.00    -0.493 OA
ATOM      8  C   UNL     1     -10.309  63.299  37.971  1.00  0.00     0.278 C 
ENDBRANCH   1   7
BRANCH   6   9
ATOM      9  O   UNL     1     -10.477  60.299  40.580  1.00  0.00    -0.504 OA
ATOM     10  H   UNL     1     -10.374  59.749  41.425  1.00  0.00     0.293 HD
ENDBRANCH   6   9
TORSDOF 2
ENDMDL
MODEL 4
REMARK VINA RESULT:    -4.900      1.179      1.606
REMARK INTER + INTRA:          -5.375
REMARK INTER:                  -5.347
REMARK INTRA:                  -0.027
REMARK UNBOUND:                -0.045
REMARK SMILES COc1ccccc1O
REMARK SMILES IDX 3 1 4 2 5 3 6 4 7 5 8 6 2 7 1 8 9 9
REMARK H PARENT 9 10
REMARK Flexibility Score: inf
ROOT
ATOM      1  C   UNL     1     -12.911  62.399  39.075  1.00  0.00     0.160 A 
ATOM      2  C   UNL     1     -12.530  61.045  39.172  1.00  0.00     0.050 A 
ATOM      3  C   UNL     1     -13.454  60.032  38.900  1.00  0.00     0.004 A 
ATOM      4  C   UNL     1     -14.761  60.356  38.531  1.00  0.00     0.004 A 
ATOM      5  C   UNL     1     -15.149  61.694  38.433  1.00  0.00     0.050 A 
ATOM      6  C   UNL     1     -14.228  62.717  38.703  1.00  0.00     0.157 A 
ENDROOT
BRANCH   1   7
ATOM      7  O   UNL     1     -12.018  63.448  39.337  1.00  0.00    -0.493 OA
ATOM      8  C   UNL     1     -10.603  63.300  39.420  1.00  0.00     0.278 C 
ENDBRANCH   1   7
BRANCH   6   9
ATOM      9  O   UNL     1     -14.613  64.053  38.605  1.00  0.00    -0.504 OA
ATOM     10  H   UNL     1     -13.953  64.777  38.348  1.00  0.00     0.293 HD
ENDBRANCH   6   9
TORSDOF 2
ENDMDL
MODEL 5
REMARK VINA RESULT:    -4.748     17.163     18.352
REMARK INTER + INTRA:          -5.210
REMARK INTER:                  -5.182
REMARK INTRA:                  -0.028
REMARK UNBOUND:                -0.045
REMARK SMILES COc1ccccc1O
REMARK SMILES IDX 3 1 4 2 5 3 6 4 7 5 8 6 2 7 1 8 9 9
REMARK H PARENT 9 10
REMARK Flexibility Score: inf
ROOT
ATOM      1  C   UNL     1     -12.117  50.358  53.395  1.00  0.00     0.160 A 
ATOM      2  C   UNL     1     -12.182  49.259  54.277  1.00  0.00     0.050 A 
ATOM      3  C   UNL     1     -13.175  48.288  54.120  1.00  0.00     0.004 A 
ATOM      4  C   UNL     1     -14.109  48.401  53.088  1.00  0.00     0.004 A 
ATOM      5  C   UNL     1     -14.054  49.485  52.211  1.00  0.00     0.050 A 
ATOM      6  C   UNL     1     -13.060  50.464  52.361  1.00  0.00     0.157 A 
ENDROOT
BRANCH   1   7
ATOM      7  O   UNL     1     -11.138  51.356  53.514  1.00  0.00    -0.493 OA
ATOM      8  C   UNL     1      -9.931  51.215  54.259  1.00  0.00     0.278 C 
ENDBRANCH   1   7
BRANCH   6   9
ATOM      9  O   UNL     1     -13.004  51.547  51.485  1.00  0.00    -0.504 OA
ATOM     10  H   UNL     1     -12.119  51.943  51.188  1.00  0.00     0.293 HD
ENDBRANCH   6   9
TORSDOF 2
ENDMDL
MODEL 6
REMARK VINA RESULT:    -4.740     13.682     15.583
REMARK INTER + INTRA:          -5.201
REMARK INTER:                  -5.155
REMARK INTRA:                  -0.046
REMARK UNBOUND:                -0.045
REMARK SMILES COc1ccccc1O
REMARK SMILES IDX 3 1 4 2 5 3 6 4 7 5 8 6 2 7 1 8 9 9
REMARK H PARENT 9 10
REMARK Flexibility Score: inf
ROOT
ATOM      1  C   UNL     1      -6.526  63.414  52.597  1.00  0.00     0.160 A 
ATOM      2  C   UNL     1      -5.722  62.330  53.003  1.00  0.00     0.050 A 
ATOM      3  C   UNL     1      -6.106  61.536  54.087  1.00  0.00     0.004 A 
ATOM      4  C   UNL     1      -7.289  61.813  54.776  1.00  0.00     0.004 A 
ATOM      5  C   UNL     1      -8.092  62.885  54.382  1.00  0.00     0.050 A 
ATOM      6  C   UNL     1      -7.715  63.687  53.294  1.00  0.00     0.157 A 
ENDROOT
BRANCH   1   7
ATOM      7  O   UNL     1      -6.181  64.237  51.514  1.00  0.00    -0.493 OA
ATOM      8  C   UNL     1      -6.367  63.887  50.146  1.00  0.00     0.278 C 
ENDBRANCH   1   7
BRANCH   6   9
ATOM      9  O   UNL     1      -8.515  64.757  52.899  1.00  0.00    -0.504 OA
ATOM     10  H   UNL     1      -9.139  65.220  53.549  1.00  0.00     0.293 HD
ENDBRANCH   6   9
TORSDOF 2
ENDMDL
MODEL 7
REMARK VINA RESULT:    -4.641     17.703     19.413
REMARK INTER + INTRA:          -5.094
REMARK INTER:                  -5.079
REMARK INTRA:                  -0.015
REMARK UNBOUND:                -0.045
REMARK SMILES COc1ccccc1O
REMARK SMILES IDX 3 1 4 2 5 3 6 4 7 5 8 6 2 7 1 8 9 9
REMARK H PARENT 9 10
REMARK Flexibility Score: inf
ROOT
ATOM      1  C   UNL     1     -11.927  50.279  53.628  1.00  0.00     0.160 A 
ATOM      2  C   UNL     1     -10.692  50.960  53.656  1.00  0.00     0.050 A 
ATOM      3  C   UNL     1      -9.635  50.467  54.426  1.00  0.00     0.004 A 
ATOM      4  C   UNL     1      -9.796  49.299  55.173  1.00  0.00     0.004 A 
ATOM      5  C   UNL     1     -11.015  48.618  55.152  1.00  0.00     0.050 A 
ATOM      6  C   UNL     1     -12.081  49.105  54.381  1.00  0.00     0.157 A 
ENDROOT
BRANCH   1   7
ATOM      7  O   UNL     1     -13.015  50.736  52.869  1.00  0.00    -0.493 OA
ATOM      8  C   UNL     1     -13.281  50.343  51.525  1.00  0.00     0.278 C 
ENDBRANCH   1   7
BRANCH   6   9
ATOM      9  O   UNL     1     -13.299  48.427  54.359  1.00  0.00    -0.504 OA
ATOM     10  H   UNL     1     -13.965  48.558  53.607  1.00  0.00     0.293 HD
ENDBRANCH   6   9
TORSDOF 2
ENDMDL
MODEL 8
REMARK VINA RESULT:    -4.625      4.322      5.332
REMARK INTER + INTRA:          -5.075
REMARK INTER:                  -5.038
REMARK INTRA:                  -0.037
REMARK UNBOUND:                -0.045
REMARK SMILES COc1ccccc1O
REMARK SMILES IDX 3 1 4 2 5 3 6 4 7 5 8 6 2 7 1 8 9 9
REMARK H PARENT 9 10
REMARK Flexibility Score: inf
ROOT
ATOM      1  C   UNL     1     -10.054  62.416  42.184  1.00  0.00     0.160 A 
ATOM      2  C   UNL     1      -9.744  63.780  42.356  1.00  0.00     0.050 A 
ATOM      3  C   UNL     1      -9.371  64.561  41.258  1.00  0.00     0.004 A 
ATOM      4  C   UNL     1      -9.303  63.993  39.984  1.00  0.00     0.004 A 
ATOM      5  C   UNL     1      -9.607  62.642  39.804  1.00  0.00     0.050 A 
ATOM      6  C   UNL     1      -9.983  61.851  40.900  1.00  0.00     0.157 A 
ENDROOT
BRANCH   1   7
ATOM      7  O   UNL     1     -10.433  61.594  43.257  1.00  0.00    -0.493 OA
ATOM      8  C   UNL     1      -9.700  61.465  44.471  1.00  0.00     0.278 C 
ENDBRANCH   1   7
BRANCH   6   9
ATOM      9  O   UNL     1     -10.287  60.503  40.722  1.00  0.00    -0.504 OA
ATOM     10  H   UNL     1      -9.576  59.829  40.464  1.00  0.00     0.293 HD
ENDBRANCH   6   9
TORSDOF 2
ENDMDL
MODEL 9
REMARK VINA RESULT:    -4.560      2.628      4.290
REMARK INTER + INTRA:          -5.005
REMARK INTER:                  -4.961
REMARK INTRA:                  -0.045
REMARK UNBOUND:                -0.045
REMARK SMILES COc1ccccc1O
REMARK SMILES IDX 3 1 4 2 5 3 6 4 7 5 8 6 2 7 1 8 9 9
REMARK H PARENT 9 10
REMARK Flexibility Score: inf
ROOT
ATOM      1  C   UNL     1     -11.060  61.458  40.040  1.00  0.00     0.160 A 
ATOM      2  C   UNL     1     -11.149  62.186  38.836  1.00  0.00     0.050 A 
ATOM      3  C   UNL     1     -10.366  63.327  38.644  1.00  0.00     0.004 A 
ATOM      4  C   UNL     1      -9.490  63.753  39.644  1.00  0.00     0.004 A 
ATOM      5  C   UNL     1      -9.394  63.039  40.840  1.00  0.00     0.050 A 
ATOM      6  C   UNL     1     -10.176  61.892  41.041  1.00  0.00     0.157 A 
ENDROOT
BRANCH   1   7
ATOM      7  O   UNL     1     -11.826  60.306  40.276  1.00  0.00    -0.493 OA
ATOM      8  C   UNL     1     -13.183  60.317  40.710  1.00  0.00     0.278 C 
ENDBRANCH   1   7
BRANCH   6   9
ATOM      9  O   UNL     1     -10.082  61.178  42.235  1.00  0.00    -0.504 OA
ATOM     10  H   UNL     1     -10.063  61.647  43.133  1.00  0.00     0.293 HD
ENDBRANCH   6   9
TORSDOF 2
ENDMDL
