MODEL 1
REMARK VINA RESULT:    -3.995      0.000      0.000
REMARK INTER + INTRA:          -4.372
REMARK INTER:                  -4.345
REMARK INTRA:                  -0.027
REMARK UNBOUND:                -0.027
REMARK SMILES O=C([O-])c1ccc(O)cc1
REMARK SMILES IDX 4 1 5 2 10 3 6 4 9 5 7 6 2 7 1 8 3 9 8 10
REMARK H PARENT 8 11
REMARK Flexibility Score: inf
ROOT
ATOM      1  C   UNL     1      15.882  16.022   8.149  1.00  0.00    -0.003 A 
ATOM      2  C   UNL     1      15.284  16.945   7.271  1.00  0.00     0.014 A 
ATOM      3  C   UNL     1      15.196  15.652   9.319  1.00  0.00     0.014 A 
ATOM      4  C   UNL     1      14.027  17.484   7.559  1.00  0.00     0.047 A 
ATOM      5  C   UNL     1      13.939  16.192   9.603  1.00  0.00     0.047 A 
ATOM      6  C   UNL     1      13.350  17.109   8.726  1.00  0.00     0.115 A 
ENDROOT
BRANCH   1   7
ATOM      7  C   UNL     1      17.213  15.448   7.849  1.00  0.00     0.071 C 
ATOM      8  O   UNL     1      18.239  15.854   8.459  1.00  0.00    -0.545 OA
ATOM      9  O   UNL     1      17.350  14.452   6.890  1.00  0.00    -0.545 OA
ENDBRANCH   1   7
BRANCH   6  10
ATOM     10  O   UNL     1      12.097  17.639   9.023  1.00  0.00    -0.508 OA
ATOM     11  H   UNL     1      11.951  18.639   9.108  1.00  0.00     0.293 HD
ENDBRANCH   6  10
TORSDOF 2
ENDMDL
MODEL 2
REMARK VINA RESULT:    -3.969      2.396      3.083
REMARK INTER + INTRA:          -4.344
REMARK INTER:                  -4.309
REMARK INTRA:                  -0.036
REMARK UNBOUND:                -0.027
REMARK SMILES O=C([O-])c1ccc(O)cc1
REMARK SMILES IDX 4 1 5 2 10 3 6 4 9 5 7 6 2 7 1 8 3 9 8 10
REMARK H PARENT 8 11
REMARK Flexibility Score: inf
ROOT
ATOM      1  C   UNL     1      13.570  16.989   9.371  1.00  0.00    -0.003 A 
ATOM      2  C   UNL     1      12.322  16.997   8.722  1.00  0.00     0.014 A 
ATOM      3  C   UNL     1      13.610  16.841  10.769  1.00  0.00     0.014 A 
ATOM      4  C   UNL     1      11.141  16.858   9.457  1.00  0.00     0.047 A 
ATOM      5  C   UNL     1      12.427  16.702  11.500  1.00  0.00     0.047 A 
ATOM      6  C   UNL     1      11.190  16.710  10.849  1.00  0.00     0.115 A 
ENDROOT
BRANCH   1   7
ATOM      7  C   UNL     1      14.824  17.136   8.599  1.00  0.00     0.071 C 
ATOM      8  O   UNL     1      15.919  17.349   9.186  1.00  0.00    -0.545 OA
ATOM      9  O   UNL     1      14.811  17.040   7.212  1.00  0.00    -0.545 OA
ENDBRANCH   1   7
BRANCH   6  10
ATOM     10  O   UNL     1      10.020  16.571  11.591  1.00  0.00    -0.508 OA
ATOM     11  H   UNL     1       9.968  15.946  12.387  1.00  0.00     0.293 HD
ENDBRANCH   6  10
TORSDOF 2
ENDMDL
MODEL 3
REMARK VINA RESULT:    -3.967      2.434      4.930
REMARK INTER + INTRA:          -4.342
REMARK INTER:                  -4.314
REMARK INTRA:                  -0.028
REMARK UNBOUND:                -0.027
REMARK SMILES O=C([O-])c1ccc(O)cc1
REMARK SMILES IDX 4 1 5 2 10 3 6 4 9 5 7 6 2 7 1 8 3 9 8 10
REMARK H PARENT 8 11
REMARK Flexibility Score: inf
ROOT
ATOM      1  C   UNL     1      12.470  17.020  10.219  1.00  0.00    -0.003 A 
ATOM      2  C   UNL     1      13.874  16.970  10.300  1.00  0.00     0.014 A 
ATOM      3  C   UNL     1      11.862  17.080   8.953  1.00  0.00     0.014 A 
ATOM      4  C   UNL     1      14.651  16.979   9.138  1.00  0.00     0.047 A 
ATOM      5  C   UNL     1      12.642  17.088   7.794  1.00  0.00     0.047 A 
ATOM      6  C   UNL     1      14.036  17.038   7.880  1.00  0.00     0.115 A 
ENDROOT
BRANCH   1   7
ATOM      7  C   UNL     1      11.642  17.011  11.447  1.00  0.00     0.071 C 
ATOM      8  O   UNL     1      11.036  18.051  11.819  1.00  0.00    -0.545 OA
ATOM      9  O   UNL     1      11.522  15.852  12.206  1.00  0.00    -0.545 OA
ENDBRANCH   1   7
BRANCH   6  10
ATOM     10  O   UNL     1      14.800  17.048   6.716  1.00  0.00    -0.508 OA
ATOM     11  H   UNL     1      14.404  17.322   5.824  1.00  0.00     0.293 HD
ENDBRANCH   6  10
TORSDOF 2
ENDMDL
MODEL 4
REMARK VINA RESULT:    -3.961      2.378      3.334
REMARK INTER + INTRA:          -4.336
REMARK INTER:                  -4.300
REMARK INTRA:                  -0.036
REMARK UNBOUND:                -0.027
REMARK SMILES O=C([O-])c1ccc(O)cc1
REMARK SMILES IDX 4 1 5 2 10 3 6 4 9 5 7 6 2 7 1 8 3 9 8 10
REMARK H PARENT 8 11
REMARK Flexibility Score: inf
ROOT
ATOM      1  C   UNL     1      13.601  17.002   9.368  1.00  0.00    -0.003 A 
ATOM      2  C   UNL     1      13.635  16.851  10.767  1.00  0.00     0.014 A 
ATOM      3  C   UNL     1      12.358  16.993   8.712  1.00  0.00     0.014 A 
ATOM      4  C   UNL     1      12.449  16.695  11.491  1.00  0.00     0.047 A 
ATOM      5  C   UNL     1      11.175  16.837   9.439  1.00  0.00     0.047 A 
ATOM      6  C   UNL     1      11.215  16.687  10.829  1.00  0.00     0.115 A 
ENDROOT
BRANCH   1   7
ATOM      7  C   UNL     1      14.853  17.168   8.596  1.00  0.00     0.071 C 
ATOM      8  O   UNL     1      15.953  17.337   9.187  1.00  0.00    -0.545 OA
ATOM      9  O   UNL     1      14.832  17.138   7.206  1.00  0.00    -0.545 OA
ENDBRANCH   1   7
BRANCH   6  10
ATOM     10  O   UNL     1      10.028  16.532  11.540  1.00  0.00    -0.508 OA
ATOM     11  H   UNL     1       9.973  15.931  12.354  1.00  0.00     0.293 HD
ENDBRANCH   6  10
TORSDOF 2
ENDMDL
MODEL 5
REMARK VINA RESULT:    -3.887      1.579      1.842
REMARK INTER + INTRA:          -4.255
REMARK INTER:                  -4.222
REMARK INTRA:                  -0.033
REMARK UNBOUND:                -0.027
REMARK SMILES O=C([O-])c1ccc(O)cc1
REMARK SMILES IDX 4 1 5 2 10 3 6 4 9 5 7 6 2 7 1 8 3 9 8 10
REMARK H PARENT 8 11
REMARK Flexibility Score: inf
ROOT
ATOM      1  C   UNL     1      14.932  16.943   8.976  1.00  0.00    -0.003 A 
ATOM      2  C   UNL     1      14.132  17.052   7.823  1.00  0.00     0.014 A 
ATOM      3  C   UNL     1      14.317  17.004  10.239  1.00  0.00     0.014 A 
ATOM      4  C   UNL     1      12.748  17.217   7.933  1.00  0.00     0.047 A 
ATOM      5  C   UNL     1      12.933  17.168  10.345  1.00  0.00     0.047 A 
ATOM      6  C   UNL     1      12.145  17.275   9.196  1.00  0.00     0.115 A 
ENDROOT
BRANCH   1   7
ATOM      7  C   UNL     1      16.397  16.768   8.865  1.00  0.00     0.071 C 
ATOM      8  O   UNL     1      17.031  17.271   7.899  1.00  0.00    -0.545 OA
ATOM      9  O   UNL     1      17.095  16.047   9.827  1.00  0.00    -0.545 OA
ENDBRANCH   1   7
BRANCH   6  10
ATOM     10  O   UNL     1      10.767  17.439   9.317  1.00  0.00    -0.508 OA
ATOM     11  H   UNL     1      10.344  18.360   9.354  1.00  0.00     0.293 HD
ENDBRANCH   6  10
TORSDOF 2
ENDMDL
MODEL 6
REMARK VINA RESULT:    -3.881      0.768      1.674
REMARK INTER + INTRA:          -4.249
REMARK INTER:                  -4.219
REMARK INTRA:                  -0.029
REMARK UNBOUND:                -0.027
REMARK SMILES O=C([O-])c1ccc(O)cc1
REMARK SMILES IDX 4 1 5 2 10 3 6 4 9 5 7 6 2 7 1 8 3 9 8 10
REMARK H PARENT 8 11
REMARK Flexibility Score: inf
ROOT
ATOM      1  C   UNL     1      16.123  16.602   8.518  1.00  0.00    -0.003 A 
ATOM      2  C   UNL     1      15.483  16.495   9.767  1.00  0.00     0.014 A 
ATOM      3  C   UNL     1      15.383  17.048   7.409  1.00  0.00     0.014 A 
ATOM      4  C   UNL     1      14.132  16.829   9.901  1.00  0.00     0.047 A 
ATOM      5  C   UNL     1      14.033  17.381   7.547  1.00  0.00     0.047 A 
ATOM      6  C   UNL     1      13.403  17.273   8.790  1.00  0.00     0.115 A 
ENDROOT
BRANCH   1   7
ATOM      7  C   UNL     1      17.553  16.250   8.371  1.00  0.00     0.071 C 
ATOM      8  O   UNL     1      18.428  16.807   9.088  1.00  0.00    -0.545 OA
ATOM      9  O   UNL     1      17.952  15.298   7.440  1.00  0.00    -0.545 OA
ENDBRANCH   1   7
BRANCH   6  10
ATOM     10  O   UNL     1      12.057  17.609   8.912  1.00  0.00    -0.508 OA
ATOM     11  H   UNL     1      11.396  17.428   8.164  1.00  0.00     0.293 HD
ENDBRANCH   6  10
TORSDOF 2
ENDMDL
MODEL 7
REMARK VINA RESULT:    -3.771      1.619      1.898
REMARK INTER + INTRA:          -4.129
REMARK INTER:                  -4.100
REMARK INTRA:                  -0.028
REMARK UNBOUND:                -0.027
REMARK SMILES O=C([O-])c1ccc(O)cc1
REMARK SMILES IDX 4 1 5 2 10 3 6 4 9 5 7 6 2 7 1 8 3 9 8 10
REMARK H PARENT 8 11
REMARK Flexibility Score: inf
ROOT
ATOM      1  C   UNL     1      16.630  16.623   9.096  1.00  0.00    -0.003 A 
ATOM      2  C   UNL     1      16.398  16.684   7.709  1.00  0.00     0.014 A 
ATOM      3  C   UNL     1      15.576  16.924   9.977  1.00  0.00     0.014 A 
ATOM      4  C   UNL     1      15.138  17.038   7.217  1.00  0.00     0.047 A 
ATOM      5  C   UNL     1      14.318  17.277   9.481  1.00  0.00     0.047 A 
ATOM      6  C   UNL     1      14.094  17.336   8.102  1.00  0.00     0.115 A 
ENDROOT
BRANCH   1   7
ATOM      7  C   UNL     1      17.961  16.249   9.623  1.00  0.00     0.071 C 
ATOM      8  O   UNL     1      18.111  15.196  10.299  1.00  0.00    -0.545 OA
ATOM      9  O   UNL     1      19.067  17.056   9.379  1.00  0.00    -0.545 OA
ENDBRANCH   1   7
BRANCH   6  10
ATOM     10  O   UNL     1      12.835  17.689   7.622  1.00  0.00    -0.508 OA
ATOM     11  H   UNL     1      12.692  17.956   6.655  1.00  0.00     0.293 HD
ENDBRANCH   6  10
TORSDOF 2
ENDMDL
MODEL 8
REMARK VINA RESULT:    -3.753      1.717      4.460
REMARK INTER + INTRA:          -4.110
REMARK INTER:                  -4.074
REMARK INTRA:                  -0.036
REMARK UNBOUND:                -0.027
REMARK SMILES O=C([O-])c1ccc(O)cc1
REMARK SMILES IDX 4 1 5 2 10 3 6 4 9 5 7 6 2 7 1 8 3 9 8 10
REMARK H PARENT 8 11
REMARK Flexibility Score: inf
ROOT
ATOM      1  C   UNL     1      14.149  17.119   8.705  1.00  0.00    -0.003 A 
ATOM      2  C   UNL     1      14.834  17.414   9.899  1.00  0.00     0.014 A 
ATOM      3  C   UNL     1      14.885  16.958   7.518  1.00  0.00     0.014 A 
ATOM      4  C   UNL     1      16.226  17.543   9.902  1.00  0.00     0.047 A 
ATOM      5  C   UNL     1      16.277  17.088   7.526  1.00  0.00     0.047 A 
ATOM      6  C   UNL     1      16.952  17.381   8.715  1.00  0.00     0.115 A 
ENDROOT
BRANCH   1   7
ATOM      7  C   UNL     1      12.675  16.980   8.695  1.00  0.00     0.071 C 
ATOM      8  O   UNL     1      12.083  16.502   7.691  1.00  0.00    -0.545 OA
ATOM      9  O   UNL     1      11.924  17.376   9.796  1.00  0.00    -0.545 OA
ENDBRANCH   1   7
BRANCH   6  10
ATOM     10  O   UNL     1      18.339  17.508   8.707  1.00  0.00    -0.508 OA
ATOM     11  H   UNL     1      18.903  17.213   9.496  1.00  0.00     0.293 HD
ENDBRANCH   6  10
TORSDOF 2
ENDMDL
MODEL 9
REMARK VINA RESULT:    -3.604      1.827      4.209
REMARK INTER + INTRA:          -3.948
REMARK INTER:                  -3.912
REMARK INTRA:                  -0.036
REMARK UNBOUND:                -0.027
REMARK SMILES O=C([O-])c1ccc(O)cc1
REMARK SMILES IDX 4 1 5 2 10 3 6 4 9 5 7 6 2 7 1 8 3 9 8 10
REMARK H PARENT 8 11
REMARK Flexibility Score: inf
ROOT
ATOM      1  C   UNL     1      14.996  17.101   9.083  1.00  0.00    -0.003 A 
ATOM      2  C   UNL     1      15.674  17.131   7.849  1.00  0.00     0.014 A 
ATOM      3  C   UNL     1      15.742  17.169  10.272  1.00  0.00     0.014 A 
ATOM      4  C   UNL     1      17.068  17.227   7.811  1.00  0.00     0.047 A 
ATOM      5  C   UNL     1      17.135  17.266  10.229  1.00  0.00     0.047 A 
ATOM      6  C   UNL     1      17.803  17.295   9.001  1.00  0.00     0.115 A 
ENDROOT
BRANCH   1   7
ATOM      7  C   UNL     1      13.520  16.999   9.130  1.00  0.00     0.071 C 
ATOM      8  O   UNL     1      12.918  16.913  10.234  1.00  0.00    -0.545 OA
ATOM      9  O   UNL     1      12.776  16.997   7.955  1.00  0.00    -0.545 OA
ENDBRANCH   1   7
BRANCH   6  10
ATOM     10  O   UNL     1      19.192  17.392   8.974  1.00  0.00    -0.508 OA
ATOM     11  H   UNL     1      19.716  17.254   8.117  1.00  0.00     0.293 HD
ENDBRANCH   6  10
TORSDOF 2
ENDMDL
