MODEL 1
REMARK VINA RESULT:    -3.061      0.000      0.000
REMARK INTER + INTRA:          -6.079
REMARK INTER:                  -4.851
REMARK INTRA:                  -1.228
REMARK UNBOUND:                -1.228
REMARK SMILES C=CCCCCCCCCCCC
REMARK SMILES IDX 7 1 8 2 9 3 10 4 11 5 12 6 13 7 6 8 5 9 4 10 3 11 2 12 1 13
REMARK H PARENT
REMARK Flexibility Score: inf
ROOT
ATOM      1  C   UNL     1     153.460 134.876 161.832  1.00  0.00     0.000 C 
ENDROOT
BRANCH   1   2
ATOM      2  C   UNL     1     151.998 135.059 161.395  1.00  0.00     0.000 C 
BRANCH   2   3
ATOM      3  C   UNL     1     151.387 136.378 161.900  1.00  0.00    -0.000 C 
BRANCH   3   4
ATOM      4  C   UNL     1     151.459 137.506 160.855  1.00  0.00    -0.000 C 
BRANCH   4   5
ATOM      5  C   UNL     1     151.761 137.041 159.415  1.00  0.00    -0.000 C 
BRANCH   5   6
ATOM      6  C   UNL     1     150.520 136.750 158.554  1.00  0.00    -0.003 C 
ATOM      7  C   UNL     1     150.845 136.615 157.066  1.00  0.00     0.004 C 
ENDBRANCH   5   6
ENDBRANCH   4   5
ENDBRANCH   3   4
ENDBRANCH   2   3
ENDBRANCH   1   2
BRANCH   1   8
ATOM      8  C   UNL     1     153.652 135.082 163.345  1.00  0.00     0.000 C 
BRANCH   8   9
ATOM      9  C   UNL     1     154.778 136.077 163.665  1.00  0.00     0.000 C 
BRANCH   9  10
ATOM     10  C   UNL     1     155.011 137.096 162.536  1.00  0.00     0.004 C 
BRANCH  10  11
ATOM     11  C   UNL     1     154.606 138.519 162.950  1.00  0.00     0.027 C 
BRANCH  11  12
ATOM     12  C   UNL     1     153.624 138.529 164.091  1.00  0.00    -0.035 C 
ATOM     13  C   UNL     1     153.765 139.355 165.133  1.00  0.00     0.004 C 
ENDBRANCH  11  12
ENDBRANCH  10  11
ENDBRANCH   9  10
ENDBRANCH   8   9
ENDBRANCH   1   8
TORSDOF 10
ENDMDL
MODEL 2
REMARK VINA RESULT:    -3.039      1.476      5.947
REMARK INTER + INTRA:          -6.044
REMARK INTER:                  -5.286
REMARK INTRA:                  -0.758
REMARK UNBOUND:                -1.228
REMARK SMILES C=CCCCCCCCCCCC
REMARK SMILES IDX 7 1 8 2 9 3 10 4 11 5 12 6 13 7 6 8 5 9 4 10 3 11 2 12 1 13
REMARK H PARENT
REMARK Flexibility Score: inf
ROOT
ATOM      1  C   UNL     1     151.499 136.961 161.070  1.00  0.00     0.000 C 
ENDROOT
BRANCH   1   2
ATOM      2  C   UNL     1     151.742 135.487 161.432  1.00  0.00     0.000 C 
BRANCH   2   3
ATOM      3  C   UNL     1     153.216 135.193 161.766  1.00  0.00    -0.000 C 
BRANCH   3   4
ATOM      4  C   UNL     1     153.710 135.962 163.005  1.00  0.00    -0.000 C 
BRANCH   4   5
ATOM      5  C   UNL     1     154.848 136.967 162.734  1.00  0.00    -0.000 C 
BRANCH   5   6
ATOM      6  C   UNL     1     154.509 138.433 163.056  1.00  0.00    -0.003 C 
ATOM      7  C   UNL     1     153.614 138.582 164.285  1.00  0.00     0.004 C 
ENDBRANCH   5   6
ENDBRANCH   4   5
ENDBRANCH   3   4
ENDBRANCH   2   3
ENDBRANCH   1   2
BRANCH   1   8
ATOM      8  C   UNL     1     150.783 137.124 159.718  1.00  0.00     0.000 C 
BRANCH   8   9
ATOM      9  C   UNL     1     151.740 136.985 158.524  1.00  0.00     0.000 C 
BRANCH   9  10
ATOM     10  C   UNL     1     151.000 136.761 157.193  1.00  0.00     0.004 C 
BRANCH  10  11
ATOM     11  C   UNL     1     151.749 137.383 156.004  1.00  0.00     0.027 C 
BRANCH  11  12
ATOM     12  C   UNL     1     153.155 137.790 156.359  1.00  0.00    -0.035 C 
ATOM     13  C   UNL     1     153.700 138.917 155.891  1.00  0.00     0.004 C 
ENDBRANCH  11  12
ENDBRANCH  10  11
ENDBRANCH   9  10
ENDBRANCH   8   9
ENDBRANCH   1   8
TORSDOF 10
ENDMDL
MODEL 3
REMARK VINA RESULT:    -2.845     21.472     22.982
REMARK INTER + INTRA:          -5.736
REMARK INTER:                  -4.915
REMARK INTRA:                  -0.821
REMARK UNBOUND:                -1.228
REMARK SMILES C=CCCCCCCCCCCC
REMARK SMILES IDX 7 1 8 2 9 3 10 4 11 5 12 6 13 7 6 8 5 9 4 10 3 11 2 12 1 13
REMARK H PARENT
REMARK Flexibility Score: inf
ROOT
ATOM      1  C   UNL     1     139.134 153.120 160.641  1.00  0.00     0.000 C 
ENDROOT
BRANCH   1   2
ATOM      2  C   UNL     1     139.030 154.176 161.753  1.00  0.00     0.000 C 
BRANCH   2   3
ATOM      3  C   UNL     1     137.710 154.965 161.702  1.00  0.00    -0.000 C 
BRANCH   3   4
ATOM      4  C   UNL     1     136.861 154.788 162.974  1.00  0.00    -0.000 C 
BRANCH   4   5
ATOM      5  C   UNL     1     135.710 153.769 162.851  1.00  0.00    -0.000 C 
BRANCH   5   6
ATOM      6  C   UNL     1     136.116 152.301 163.068  1.00  0.00    -0.003 C 
ATOM      7  C   UNL     1     137.115 152.121 164.211  1.00  0.00     0.004 C 
ENDBRANCH   5   6
ENDBRANCH   4   5
ENDBRANCH   3   4
ENDBRANCH   2   3
ENDBRANCH   1   2
BRANCH   1   8
ATOM      8  C   UNL     1     139.946 153.617 159.432  1.00  0.00     0.000 C 
BRANCH   8   9
ATOM      9  C   UNL     1     139.052 154.064 158.265  1.00  0.00     0.000 C 
BRANCH   9  10
ATOM     10  C   UNL     1     139.770 153.993 156.906  1.00  0.00     0.004 C 
BRANCH  10  11
ATOM     11  C   UNL     1     138.976 153.176 155.875  1.00  0.00     0.027 C 
BRANCH  11  12
ATOM     12  C   UNL     1     137.576 152.872 156.336  1.00  0.00    -0.035 C 
ATOM     13  C   UNL     1     136.981 151.707 156.061  1.00  0.00     0.004 C 
ENDBRANCH  11  12
ENDBRANCH  10  11
ENDBRANCH   9  10
ENDBRANCH   8   9
ENDBRANCH   1   8
TORSDOF 10
ENDMDL
MODEL 4
REMARK VINA RESULT:    -2.819      0.362      5.460
REMARK INTER + INTRA:          -5.696
REMARK INTER:                  -4.667
REMARK INTRA:                  -1.028
REMARK UNBOUND:                -1.228
REMARK SMILES C=CCCCCCCCCCCC
REMARK SMILES IDX 7 1 8 2 9 3 10 4 11 5 12 6 13 7 6 8 5 9 4 10 3 11 2 12 1 13
REMARK H PARENT
REMARK Flexibility Score: inf
ROOT
ATOM      1  C   UNL     1     153.289 134.889 161.784  1.00  0.00     0.000 C 
ENDROOT
BRANCH   1   2
ATOM      2  C   UNL     1     153.573 134.976 163.292  1.00  0.00     0.000 C 
BRANCH   2   3
ATOM      3  C   UNL     1     154.718 135.948 163.627  1.00  0.00    -0.000 C 
BRANCH   3   4
ATOM      4  C   UNL     1     154.895 137.048 162.564  1.00  0.00    -0.000 C 
BRANCH   4   5
ATOM      5  C   UNL     1     154.207 138.388 162.895  1.00  0.00    -0.000 C 
BRANCH   5   6
ATOM      6  C   UNL     1     153.439 138.412 164.228  1.00  0.00    -0.003 C 
ATOM      7  C   UNL     1     153.906 139.525 165.166  1.00  0.00     0.004 C 
ENDBRANCH   5   6
ENDBRANCH   4   5
ENDBRANCH   3   4
ENDBRANCH   2   3
ENDBRANCH   1   2
BRANCH   1   8
ATOM      8  C   UNL     1     151.802 135.103 161.452  1.00  0.00     0.000 C 
BRANCH   8   9
ATOM      9  C   UNL     1     151.336 136.541 161.732  1.00  0.00     0.000 C 
BRANCH   9  10
ATOM     10  C   UNL     1     151.008 137.320 160.446  1.00  0.00     0.004 C 
BRANCH  10  11
ATOM     11  C   UNL     1     151.436 136.557 159.183  1.00  0.00     0.027 C 
BRANCH  11  12
ATOM     12  C   UNL     1     150.488 136.768 158.033  1.00  0.00    -0.035 C 
ATOM     13  C   UNL     1     150.918 136.833 156.769  1.00  0.00     0.004 C 
ENDBRANCH  11  12
ENDBRANCH  10  11
ENDBRANCH   9  10
ENDBRANCH   8   9
ENDBRANCH   1   8
TORSDOF 10
ENDMDL
MODEL 5
REMARK VINA RESULT:    -2.737     21.637     22.640
REMARK INTER + INTRA:          -5.565
REMARK INTER:                  -4.836
REMARK INTRA:                  -0.729
REMARK UNBOUND:                -1.228
REMARK SMILES C=CCCCCCCCCCCC
REMARK SMILES IDX 7 1 8 2 9 3 10 4 11 5 12 6 13 7 6 8 5 9 4 10 3 11 2 12 1 13
REMARK H PARENT
REMARK Flexibility Score: inf
ROOT
ATOM      1  C   UNL     1     138.885 153.628 159.714  1.00  0.00     0.000 C 
ENDROOT
BRANCH   1   2
ATOM      2  C   UNL     1     139.812 154.091 158.579  1.00  0.00     0.000 C 
BRANCH   2   3
ATOM      3  C   UNL     1     139.306 153.669 157.188  1.00  0.00    -0.000 C 
BRANCH   3   4
ATOM      4  C   UNL     1     137.943 152.955 157.242  1.00  0.00    -0.000 C 
BRANCH   4   5
ATOM      5  C   UNL     1     137.397 152.491 155.876  1.00  0.00    -0.000 C 
BRANCH   5   6
ATOM      6  C   UNL     1     136.000 151.848 155.920  1.00  0.00    -0.003 C 
ATOM      7  C   UNL     1     136.044 150.343 156.187  1.00  0.00     0.004 C 
ENDBRANCH   5   6
ENDBRANCH   4   5
ENDBRANCH   3   4
ENDBRANCH   2   3
ENDBRANCH   1   2
BRANCH   1   8
ATOM      8  C   UNL     1     139.549 153.738 161.098  1.00  0.00     0.000 C 
BRANCH   8   9
ATOM      9  C   UNL     1     139.029 154.937 161.907  1.00  0.00     0.000 C 
BRANCH   9  10
ATOM     10  C   UNL     1     137.504 155.108 161.801  1.00  0.00     0.004 C 
BRANCH  10  11
ATOM     11  C   UNL     1     136.789 154.747 163.112  1.00  0.00     0.027 C 
BRANCH  11  12
ATOM     12  C   UNL     1     136.073 153.425 163.032  1.00  0.00    -0.035 C 
ATOM     13  C   UNL     1     136.731 152.263 163.098  1.00  0.00     0.004 C 
ENDBRANCH  11  12
ENDBRANCH  10  11
ENDBRANCH   9  10
ENDBRANCH   8   9
ENDBRANCH   1   8
TORSDOF 10
ENDMDL
MODEL 6
REMARK VINA RESULT:    -2.702      0.917      5.749
REMARK INTER + INTRA:          -5.509
REMARK INTER:                  -4.669
REMARK INTRA:                  -0.840
REMARK UNBOUND:                -1.228
REMARK SMILES C=CCCCCCCCCCCC
REMARK SMILES IDX 7 1 8 2 9 3 10 4 11 5 12 6 13 7 6 8 5 9 4 10 3 11 2 12 1 13
REMARK H PARENT
REMARK Flexibility Score: inf
ROOT
ATOM      1  C   UNL     1     151.713 135.227 161.060  1.00  0.00     0.000 C 
ENDROOT
BRANCH   1   2
ATOM      2  C   UNL     1     153.089 134.944 161.683  1.00  0.00     0.000 C 
BRANCH   2   3
ATOM      3  C   UNL     1     153.180 135.394 163.152  1.00  0.00    -0.000 C 
BRANCH   3   4
ATOM      4  C   UNL     1     154.559 135.978 163.512  1.00  0.00    -0.000 C 
BRANCH   4   5
ATOM      5  C   UNL     1     154.931 137.276 162.765  1.00  0.00    -0.000 C 
BRANCH   5   6
ATOM      6  C   UNL     1     153.949 138.443 162.964  1.00  0.00    -0.003 C 
ATOM      7  C   UNL     1     153.700 138.769 164.437  1.00  0.00     0.004 C 
ENDBRANCH   5   6
ENDBRANCH   4   5
ENDBRANCH   3   4
ENDBRANCH   2   3
ENDBRANCH   1   2
BRANCH   1   8
ATOM      8  C   UNL     1     151.316 136.710 161.161  1.00  0.00     0.000 C 
BRANCH   8   9
ATOM      9  C   UNL     1     150.781 137.270 159.834  1.00  0.00     0.000 C 
BRANCH   9  10
ATOM     10  C   UNL     1     151.537 136.721 158.611  1.00  0.00     0.004 C 
BRANCH  10  11
ATOM     11  C   UNL     1     150.660 136.705 157.350  1.00  0.00     0.027 C 
BRANCH  11  12
ATOM     12  C   UNL     1     151.423 137.097 156.113  1.00  0.00    -0.035 C 
ATOM     13  C   UNL     1     152.532 137.840 156.176  1.00  0.00     0.004 C 
ENDBRANCH  11  12
ENDBRANCH  10  11
ENDBRANCH   9  10
ENDBRANCH   8   9
ENDBRANCH   1   8
TORSDOF 10
ENDMDL
MODEL 7
REMARK VINA RESULT:    -1.734     21.336     22.580
REMARK INTER + INTRA:          -3.976
REMARK INTER:                  -3.208
REMARK INTRA:                  -0.768
REMARK UNBOUND:                -1.228
REMARK SMILES C=CCCCCCCCCCCC
REMARK SMILES IDX 7 1 8 2 9 3 10 4 11 5 12 6 13 7 6 8 5 9 4 10 3 11 2 12 1 13
REMARK H PARENT
REMARK Flexibility Score: inf
ROOT
ATOM      1  C   UNL     1     138.137 155.125 162.588  1.00  0.00     0.000 C 
ENDROOT
BRANCH   1   2
ATOM      2  C   UNL     1     139.225 154.948 161.517  1.00  0.00     0.000 C 
BRANCH   2   3
ATOM      3  C   UNL     1     139.160 153.575 160.825  1.00  0.00    -0.000 C 
BRANCH   3   4
ATOM      4  C   UNL     1     140.037 153.502 159.562  1.00  0.00    -0.000 C 
BRANCH   4   5
ATOM      5  C   UNL     1     139.563 154.386 158.390  1.00  0.00    -0.000 C 
BRANCH   5   6
ATOM      6  C   UNL     1     140.151 154.014 157.018  1.00  0.00    -0.003 C 
ATOM      7  C   UNL     1     139.120 153.395 156.075  1.00  0.00     0.004 C 
ENDBRANCH   5   6
ENDBRANCH   4   5
ENDBRANCH   3   4
ENDBRANCH   2   3
ENDBRANCH   1   2
BRANCH   1   8
ATOM      8  C   UNL     1     136.747 154.689 162.093  1.00  0.00     0.000 C 
BRANCH   8   9
ATOM      9  C   UNL     1     135.915 154.009 163.192  1.00  0.00     0.000 C 
BRANCH   9  10
ATOM     10  C   UNL     1     135.794 152.488 162.990  1.00  0.00     0.004 C 
BRANCH  10  11
ATOM     11  C   UNL     1     137.011 151.733 163.545  1.00  0.00     0.027 C 
BRANCH  11  12
ATOM     12  C   UNL     1     137.098 151.805 165.046  1.00  0.00    -0.035 C 
ATOM     13  C   UNL     1     136.748 150.773 165.822  1.00  0.00     0.004 C 
ENDBRANCH  11  12
ENDBRANCH  10  11
ENDBRANCH   9  10
ENDBRANCH   8   9
ENDBRANCH   1   8
TORSDOF 10
ENDMDL
MODEL 8
REMARK VINA RESULT:    -1.466     13.702     15.411
REMARK INTER + INTRA:          -3.552
REMARK INTER:                  -2.844
REMARK INTRA:                  -0.707
REMARK UNBOUND:                -1.228
REMARK SMILES C=CCCCCCCCCCCC
REMARK SMILES IDX 7 1 8 2 9 3 10 4 11 5 12 6 13 7 6 8 5 9 4 10 3 11 2 12 1 13
REMARK H PARENT
REMARK Flexibility Score: inf
ROOT
ATOM      1  C   UNL     1     139.096 135.744 161.872  1.00  0.00     0.000 C 
ENDROOT
BRANCH   1   2
ATOM      2  C   UNL     1     137.770 134.965 161.868  1.00  0.00     0.000 C 
BRANCH   2   3
ATOM      3  C   UNL     1     137.025 135.067 160.525  1.00  0.00    -0.000 C 
BRANCH   3   4
ATOM      4  C   UNL     1     135.528 135.384 160.698  1.00  0.00    -0.000 C 
BRANCH   4   5
ATOM      5  C   UNL     1     135.215 136.831 161.131  1.00  0.00    -0.000 C 
BRANCH   5   6
ATOM      6  C   UNL     1     134.876 137.003 162.622  1.00  0.00    -0.003 C 
ATOM      7  C   UNL     1     134.991 135.701 163.414  1.00  0.00     0.004 C 
ENDBRANCH   5   6
ENDBRANCH   4   5
ENDBRANCH   3   4
ENDBRANCH   2   3
ENDBRANCH   1   2
BRANCH   1   8
ATOM      8  C   UNL     1     138.925 137.193 162.360  1.00  0.00     0.000 C 
BRANCH   8   9
ATOM      9  C   UNL     1     138.137 137.283 163.676  1.00  0.00     0.000 C 
BRANCH   9  10
ATOM     10  C   UNL     1     138.772 136.455 164.807  1.00  0.00     0.004 C 
BRANCH  10  11
ATOM     11  C   UNL     1     139.883 137.227 165.535  1.00  0.00     0.027 C 
BRANCH  11  12
ATOM     12  C   UNL     1     140.683 136.349 166.461  1.00  0.00    -0.035 C 
ATOM     13  C   UNL     1     140.123 135.334 167.126  1.00  0.00     0.004 C 
ENDBRANCH  11  12
ENDBRANCH  10  11
ENDBRANCH   9  10
ENDBRANCH   8   9
ENDBRANCH   1   8
TORSDOF 10
ENDMDL
MODEL 9
REMARK VINA RESULT:    -0.715      1.595      3.020
REMARK INTER + INTRA:          -2.362
REMARK INTER:                  -1.635
REMARK INTRA:                  -0.727
REMARK UNBOUND:                -1.228
REMARK SMILES C=CCCCCCCCCCCC
REMARK SMILES IDX 7 1 8 2 9 3 10 4 11 5 12 6 13 7 6 8 5 9 4 10 3 11 2 12 1 13
REMARK H PARENT
REMARK Flexibility Score: inf
ROOT
ATOM      1  C   UNL     1     151.276 137.094 160.899  1.00  0.00     0.000 C 
ENDROOT
BRANCH   1   2
ATOM      2  C   UNL     1     150.663 137.196 159.493  1.00  0.00     0.000 C 
BRANCH   2   3
ATOM      3  C   UNL     1     151.623 136.716 158.390  1.00  0.00    -0.000 C 
BRANCH   3   4
ATOM      4  C   UNL     1     151.000 136.793 156.984  1.00  0.00    -0.000 C 
BRANCH   4   5
ATOM      5  C   UNL     1     151.886 137.469 155.917  1.00  0.00    -0.000 C 
BRANCH   5   6
ATOM      6  C   UNL     1     153.290 137.872 156.398  1.00  0.00    -0.003 C 
ATOM      7  C   UNL     1     153.730 139.239 155.875  1.00  0.00     0.004 C 
ENDBRANCH   5   6
ENDBRANCH   4   5
ENDBRANCH   3   4
ENDBRANCH   2   3
ENDBRANCH   1   2
BRANCH   1   8
ATOM      8  C   UNL     1     151.408 135.637 161.379  1.00  0.00     0.000 C 
BRANCH   8   9
ATOM      9  C   UNL     1     152.854 135.263 161.736  1.00  0.00     0.000 C 
BRANCH   9  10
ATOM     10  C   UNL     1     153.394 136.057 162.939  1.00  0.00     0.004 C 
BRANCH  10  11
ATOM     11  C   UNL     1     154.608 136.920 162.563  1.00  0.00     0.027 C 
BRANCH  11  12
ATOM     12  C   UNL     1     154.591 138.263 163.242  1.00  0.00    -0.035 C 
ATOM     13  C   UNL     1     153.623 138.608 164.098  1.00  0.00     0.004 C 
ENDBRANCH  11  12
ENDBRANCH  10  11
ENDBRANCH   9  10
ENDBRANCH   8   9
ENDBRANCH   1   8
TORSDOF 10
ENDMDL
