MODEL 1
REMARK VINA RESULT:     1.219      0.000      0.000
REMARK INTER + INTRA:           1.168
REMARK INTER:                   2.146
REMARK INTRA:                  -0.978
REMARK UNBOUND:                -0.978
REMARK SMILES CCCCCCC=CCCCCCCCC(=O)[O-]
REMARK SMILES IDX 10 1 11 2 12 3 13 4 14 5 15 6 16 7 17 8 18 9 9 10 8 11 7 12
REMARK SMILES IDX 6 13 5 14 4 15 3 16 2 17 1 18
REMARK H PARENT
REMARK Flexibility Score: inf
ROOT
ATOM      1  C   UNL     1      17.143   2.745  24.952  1.00  0.00     0.004 C 
ENDROOT
BRANCH   1   2
ATOM      2  C   UNL     1      16.560   3.344  26.240  1.00  0.00     0.000 C 
BRANCH   2   3
ATOM      3  C   UNL     1      15.041   3.521  26.120  1.00  0.00     0.000 C 
BRANCH   3   4
ATOM      4  C   UNL     1      14.394   2.302  25.445  1.00  0.00     0.000 C 
BRANCH   4   5
ATOM      5  C   UNL     1      13.377   2.692  24.357  1.00  0.00     0.006 C 
BRANCH   5   6
ATOM      6  C   UNL     1      13.960   3.548  23.221  1.00  0.00     0.053 C 
BRANCH   6   7
ATOM      7  C   UNL     1      13.017   4.628  22.790  1.00  0.00     0.041 C 
ATOM      8  O   UNL     1      11.864   4.334  22.378  1.00  0.00    -0.550 OA
ATOM      9  O   UNL     1      13.400   5.961  22.871  1.00  0.00    -0.550 OA
ENDBRANCH   6   7
ENDBRANCH   5   6
ENDBRANCH   4   5
ENDBRANCH   3   4
ENDBRANCH   2   3
ENDBRANCH   1   2
BRANCH   1  10
ATOM     10  C   UNL     1      17.676   1.320  25.147  1.00  0.00     0.027 C 
BRANCH  10  11
ATOM     11  C   UNL     1      19.187   1.275  25.125  1.00  0.00    -0.031 C 
ATOM     12  C   UNL     1      19.981   1.120  26.204  1.00  0.00    -0.031 C 
BRANCH  12  13
ATOM     13  C   UNL     1      19.498   0.955  27.625  1.00  0.00     0.027 C 
BRANCH  13  14
ATOM     14  C   UNL     1      19.110   2.297  28.265  1.00  0.00     0.004 C 
BRANCH  14  15
ATOM     15  C   UNL     1      19.469   2.348  29.760  1.00  0.00     0.000 C 
BRANCH  15  16
ATOM     16  C   UNL     1      19.356   3.777  30.332  1.00  0.00    -0.000 C 
BRANCH  16  17
ATOM     17  C   UNL     1      17.988   4.078  30.964  1.00  0.00    -0.003 C 
ATOM     18  C   UNL     1      16.993   4.671  29.971  1.00  0.00     0.004 C 
ENDBRANCH  16  17
ENDBRANCH  15  16
ENDBRANCH  14  15
ENDBRANCH  13  14
ENDBRANCH  12  13
ENDBRANCH  10  11
ENDBRANCH   1  10
TORSDOF 13
ENDMDL
MODEL 2
REMARK VINA RESULT:     1.656      0.886      1.391
REMARK INTER + INTRA:           1.937
REMARK INTER:                   2.234
REMARK INTRA:                  -0.297
REMARK UNBOUND:                -0.978
REMARK SMILES CCCCCCC=CCCCCCCCC(=O)[O-]
REMARK SMILES IDX 10 1 11 2 12 3 13 4 14 5 15 6 16 7 17 8 18 9 9 10 8 11 7 12
REMARK SMILES IDX 6 13 5 14 4 15 3 16 2 17 1 18
REMARK H PARENT
REMARK Flexibility Score: inf
ROOT
ATOM      1  C   UNL     1      17.915   1.351  25.367  1.00  0.00     0.004 C 
ENDROOT
BRANCH   1   2
ATOM      2  C   UNL     1      17.293   2.698  24.972  1.00  0.00     0.000 C 
BRANCH   2   3
ATOM      3  C   UNL     1      16.587   3.346  26.169  1.00  0.00     0.000 C 
BRANCH   3   4
ATOM      4  C   UNL     1      15.116   3.649  25.847  1.00  0.00     0.000 C 
BRANCH   4   5
ATOM      5  C   UNL     1      14.300   2.381  25.535  1.00  0.00     0.006 C 
BRANCH   5   6
ATOM      6  C   UNL     1      13.114   2.608  24.584  1.00  0.00     0.053 C 
BRANCH   6   7
ATOM      7  C   UNL     1      13.501   3.420  23.386  1.00  0.00     0.041 C 
ATOM      8  O   UNL     1      14.177   2.899  22.461  1.00  0.00    -0.550 OA
ATOM      9  O   UNL     1      13.090   4.742  23.279  1.00  0.00    -0.550 OA
ENDBRANCH   6   7
ENDBRANCH   5   6
ENDBRANCH   4   5
ENDBRANCH   3   4
ENDBRANCH   2   3
ENDBRANCH   1   2
BRANCH   1  10
ATOM     10  C   UNL     1      19.175   1.018  24.556  1.00  0.00     0.027 C 
BRANCH  10  11
ATOM     11  C   UNL     1      20.418   1.029  25.417  1.00  0.00    -0.031 C 
ATOM     12  C   UNL     1      20.436   1.018  26.765  1.00  0.00    -0.031 C 
BRANCH  12  13
ATOM     13  C   UNL     1      19.215   0.984  27.653  1.00  0.00     0.027 C 
BRANCH  13  14
ATOM     14  C   UNL     1      19.498   1.560  29.049  1.00  0.00     0.004 C 
BRANCH  14  15
ATOM     15  C   UNL     1      19.046   3.025  29.170  1.00  0.00     0.000 C 
BRANCH  15  16
ATOM     16  C   UNL     1      19.067   3.517  30.632  1.00  0.00    -0.000 C 
BRANCH  16  17
ATOM     17  C   UNL     1      17.837   4.355  31.015  1.00  0.00    -0.003 C 
ATOM     18  C   UNL     1      16.875   4.565  29.849  1.00  0.00     0.004 C 
ENDBRANCH  16  17
ENDBRANCH  15  16
ENDBRANCH  14  15
ENDBRANCH  13  14
ENDBRANCH  12  13
ENDBRANCH  10  11
ENDBRANCH   1  10
TORSDOF 13
ENDMDL
MODEL 3
REMARK VINA RESULT:     2.042      3.378      7.248
REMARK INTER + INTRA:           2.616
REMARK INTER:                   3.855
REMARK INTRA:                  -1.239
REMARK UNBOUND:                -0.978
REMARK SMILES CCCCCCC=CCCCCCCCC(=O)[O-]
REMARK SMILES IDX 10 1 11 2 12 3 13 4 14 5 15 6 16 7 17 8 18 9 9 10 8 11 7 12
REMARK SMILES IDX 6 13 5 14 4 15 3 16 2 17 1 18
REMARK H PARENT
REMARK Flexibility Score: inf
ROOT
ATOM      1  C   UNL     1      18.265   1.210  25.481  1.00  0.00     0.004 C 
ENDROOT
BRANCH   1   2
ATOM      2  C   UNL     1      19.797   1.242  25.372  1.00  0.00     0.000 C 
BRANCH   2   3
ATOM      3  C   UNL     1      20.443   1.235  26.763  1.00  0.00     0.000 C 
BRANCH   3   4
ATOM      4  C   UNL     1      19.409   0.904  27.851  1.00  0.00     0.000 C 
BRANCH   4   5
ATOM      5  C   UNL     1      19.559   1.786  29.104  1.00  0.00     0.006 C 
BRANCH   5   6
ATOM      6  C   UNL     1      18.726   3.077  29.074  1.00  0.00     0.053 C 
BRANCH   6   7
ATOM      7  C   UNL     1      18.662   3.737  30.417  1.00  0.00     0.041 C 
ATOM      8  O   UNL     1      19.590   3.565  31.250  1.00  0.00    -0.550 OA
ATOM      9  O   UNL     1      17.594   4.564  30.736  1.00  0.00    -0.550 OA
ENDBRANCH   6   7
ENDBRANCH   5   6
ENDBRANCH   4   5
ENDBRANCH   3   4
ENDBRANCH   2   3
ENDBRANCH   1   2
BRANCH   1  10
ATOM     10  C   UNL     1      17.589   2.334  24.686  1.00  0.00     0.027 C 
BRANCH  10  11
ATOM     11  C   UNL     1      16.850   3.297  25.588  1.00  0.00    -0.031 C 
ATOM     12  C   UNL     1      15.581   3.149  26.017  1.00  0.00    -0.031 C 
BRANCH  12  13
ATOM     13  C   UNL     1      14.675   1.989  25.679  1.00  0.00     0.027 C 
BRANCH  13  14
ATOM     14  C   UNL     1      13.264   2.452  25.285  1.00  0.00     0.004 C 
BRANCH  14  15
ATOM     15  C   UNL     1      13.046   2.407  23.763  1.00  0.00     0.000 C 
BRANCH  15  16
ATOM     16  C   UNL     1      13.721   3.596  23.048  1.00  0.00    -0.000 C 
BRANCH  16  17
ATOM     17  C   UNL     1      12.750   4.738  22.708  1.00  0.00    -0.003 C 
ATOM     18  C   UNL     1      13.352   6.120  22.948  1.00  0.00     0.004 C 
ENDBRANCH  16  17
ENDBRANCH  15  16
ENDBRANCH  14  15
ENDBRANCH  13  14
ENDBRANCH  12  13
ENDBRANCH  10  11
ENDBRANCH   1  10
TORSDOF 13
ENDMDL
MODEL 4
REMARK VINA RESULT:     2.413      2.976      6.653
REMARK INTER + INTRA:           3.269
REMARK INTER:                   4.362
REMARK INTRA:                  -1.093
REMARK UNBOUND:                -0.978
REMARK SMILES CCCCCCC=CCCCCCCCC(=O)[O-]
REMARK SMILES IDX 10 1 11 2 12 3 13 4 14 5 15 6 16 7 17 8 18 9 9 10 8 11 7 12
REMARK SMILES IDX 6 13 5 14 4 15 3 16 2 17 1 18
REMARK H PARENT
REMARK Flexibility Score: inf
ROOT
ATOM      1  C   UNL     1      20.537   1.246  25.763  1.00  0.00     0.004 C 
ENDROOT
BRANCH   1   2
ATOM      2  C   UNL     1      19.975   0.576  27.025  1.00  0.00     0.000 C 
BRANCH   2   3
ATOM      3  C   UNL     1      19.184   1.582  27.871  1.00  0.00     0.000 C 
BRANCH   3   4
ATOM      4  C   UNL     1      19.528   1.440  29.362  1.00  0.00     0.000 C 
BRANCH   4   5
ATOM      5  C   UNL     1      19.511   2.786  30.109  1.00  0.00     0.006 C 
BRANCH   5   6
ATOM      6  C   UNL     1      18.653   3.872  29.440  1.00  0.00     0.053 C 
BRANCH   6   7
ATOM      7  C   UNL     1      17.474   4.254  30.280  1.00  0.00     0.041 C 
ATOM      8  O   UNL     1      17.554   4.221  31.536  1.00  0.00    -0.550 OA
ATOM      9  O   UNL     1      16.296   4.676  29.676  1.00  0.00    -0.550 OA
ENDBRANCH   6   7
ENDBRANCH   5   6
ENDBRANCH   4   5
ENDBRANCH   3   4
ENDBRANCH   2   3
ENDBRANCH   1   2
BRANCH   1  10
ATOM     10  C   UNL     1      19.554   2.238  25.127  1.00  0.00     0.027 C 
BRANCH  10  11
ATOM     11  C   UNL     1      18.267   1.564  24.707  1.00  0.00    -0.031 C 
ATOM     12  C   UNL     1      17.026   1.970  25.042  1.00  0.00    -0.031 C 
BRANCH  12  13
ATOM     13  C   UNL     1      16.703   3.177  25.889  1.00  0.00     0.027 C 
BRANCH  13  14
ATOM     14  C   UNL     1      15.215   3.553  25.819  1.00  0.00     0.004 C 
BRANCH  14  15
ATOM     15  C   UNL     1      14.322   2.325  25.567  1.00  0.00     0.000 C 
BRANCH  15  16
ATOM     16  C   UNL     1      13.212   2.620  24.537  1.00  0.00    -0.000 C 
BRANCH  16  17
ATOM     17  C   UNL     1      13.733   3.257  23.239  1.00  0.00    -0.003 C 
ATOM     18  C   UNL     1      13.029   4.568  22.898  1.00  0.00     0.004 C 
ENDBRANCH  16  17
ENDBRANCH  15  16
ENDBRANCH  14  15
ENDBRANCH  13  14
ENDBRANCH  12  13
ENDBRANCH  10  11
ENDBRANCH   1  10
TORSDOF 13
ENDMDL
