MODEL 1
REMARK VINA RESULT:    -5.676      0.000      0.000
REMARK INTER + INTRA:         -11.458
REMARK INTER:                 -10.322
REMARK INTRA:                  -1.136
REMARK UNBOUND:                -1.136
REMARK SMILES CCCCCC=CCC=CCCCCCCCC(=O)[O-]
REMARK SMILES IDX 11 1 12 2 13 3 14 4 15 5 16 6 17 7 18 8 19 9 20 10 10 11
REMARK SMILES IDX 9 12 8 13 7 14 6 15 5 16 4 17 3 18 2 19 1 20
REMARK H PARENT
REMARK Flexibility Score: inf
ROOT
ATOM      1  C   UNL     1       3.303  -9.897  -6.279  1.00  0.00     0.027 C 
ENDROOT
BRANCH   1   2
ATOM      2  C   UNL     1       2.444  -9.751  -7.541  1.00  0.00     0.004 C 
BRANCH   2   3
ATOM      3  C   UNL     1       3.266  -9.174  -8.701  1.00  0.00     0.000 C 
BRANCH   3   4
ATOM      4  C   UNL     1       4.641  -8.698  -8.216  1.00  0.00     0.000 C 
BRANCH   4   5
ATOM      5  C   UNL     1       4.967  -7.303  -8.772  1.00  0.00     0.000 C 
BRANCH   5   6
ATOM      6  C   UNL     1       4.737  -6.187  -7.740  1.00  0.00     0.006 C 
BRANCH   6   7
ATOM      7  C   UNL     1       5.043  -6.635  -6.305  1.00  0.00     0.053 C 
BRANCH   7   8
ATOM      8  C   UNL     1       3.875  -6.358  -5.413  1.00  0.00     0.041 C 
ATOM      9  O   UNL     1       4.041  -6.244  -4.169  1.00  0.00    -0.550 OA
ATOM     10  O   UNL     1       2.597  -6.273  -5.948  1.00  0.00    -0.550 OA
ENDBRANCH   7   8
ENDBRANCH   6   7
ENDBRANCH   5   6
ENDBRANCH   4   5
ENDBRANCH   3   4
ENDBRANCH   2   3
ENDBRANCH   1   2
BRANCH   1  11
ATOM     11  C   UNL     1       3.808 -11.305  -6.125  1.00  0.00    -0.031 C 
ATOM     12  C   UNL     1       4.806 -11.606  -5.279  1.00  0.00    -0.027 C 
BRANCH  12  13
ATOM     13  C   UNL     1       5.298 -13.015  -5.112  1.00  0.00     0.054 C 
BRANCH  13  14
ATOM     14  C   UNL     1       5.782 -13.240  -3.707  1.00  0.00    -0.027 C 
ATOM     15  C   UNL     1       7.084 -13.408  -3.432  1.00  0.00    -0.031 C 
BRANCH  15  16
ATOM     16  C   UNL     1       7.564 -13.673  -2.032  1.00  0.00     0.027 C 
BRANCH  16  17
ATOM     17  C   UNL     1       7.531 -12.393  -1.186  1.00  0.00     0.004 C 
BRANCH  17  18
ATOM     18  C   UNL     1       8.708 -12.356  -0.199  1.00  0.00     0.000 C 
BRANCH  18  19
ATOM     19  C   UNL     1       9.032 -10.933   0.279  1.00  0.00    -0.003 C 
ATOM     20  C   UNL     1       7.958  -9.918  -0.112  1.00  0.00     0.004 C 
ENDBRANCH  18  19
ENDBRANCH  17  18
ENDBRANCH  16  17
ENDBRANCH  15  16
ENDBRANCH  13  14
ENDBRANCH  12  13
ENDBRANCH   1  11
TORSDOF 14
ENDMDL
MODEL 2
REMARK VINA RESULT:    -5.621      2.860      7.836
REMARK INTER + INTRA:         -11.358
REMARK INTER:                  -9.342
REMARK INTRA:                  -2.017
REMARK UNBOUND:                -1.136
REMARK SMILES CCCCCC=CCC=CCCCCCCCC(=O)[O-]
REMARK SMILES IDX 11 1 12 2 13 3 14 4 15 5 16 6 17 7 18 8 19 9 20 10 10 11
REMARK SMILES IDX 9 12 8 13 7 14 6 15 5 16 4 17 3 18 2 19 1 20
REMARK H PARENT
REMARK Flexibility Score: inf
ROOT
ATOM      1  C   UNL     1       4.017 -10.984  -4.157  1.00  0.00     0.027 C 
ENDROOT
BRANCH   1   2
ATOM      2  C   UNL     1       3.778 -12.423  -4.630  1.00  0.00     0.004 C 
BRANCH   2   3
ATOM      3  C   UNL     1       4.801 -13.381  -4.008  1.00  0.00     0.000 C 
BRANCH   3   4
ATOM      4  C   UNL     1       6.220 -13.060  -4.491  1.00  0.00     0.000 C 
BRANCH   4   5
ATOM      5  C   UNL     1       7.258 -13.391  -3.406  1.00  0.00     0.000 C 
BRANCH   5   6
ATOM      6  C   UNL     1       6.780 -13.013  -1.995  1.00  0.00     0.006 C 
BRANCH   6   7
ATOM      7  C   UNL     1       7.935 -12.901  -0.990  1.00  0.00     0.053 C 
BRANCH   7   8
ATOM      8  C   UNL     1       8.166 -11.469  -0.622  1.00  0.00     0.041 C 
ATOM      9  O   UNL     1       8.613 -11.173   0.518  1.00  0.00    -0.550 OA
ATOM     10  O   UNL     1       7.842 -10.460  -1.519  1.00  0.00    -0.550 OA
ENDBRANCH   7   8
ENDBRANCH   6   7
ENDBRANCH   5   6
ENDBRANCH   4   5
ENDBRANCH   3   4
ENDBRANCH   2   3
ENDBRANCH   1   2
BRANCH   1  11
ATOM     11  C   UNL     1       3.988 -10.020  -5.312  1.00  0.00    -0.031 C 
ATOM     12  C   UNL     1       4.235 -10.421  -6.569  1.00  0.00    -0.027 C 
BRANCH  12  13
ATOM     13  C   UNL     1       4.189  -9.463  -7.724  1.00  0.00     0.054 C 
BRANCH  13  14
ATOM     14  C   UNL     1       2.783  -9.323  -8.235  1.00  0.00    -0.027 C 
ATOM     15  C   UNL     1       1.929  -8.432  -7.707  1.00  0.00    -0.031 C 
BRANCH  15  16
ATOM     16  C   UNL     1       0.510  -8.320  -8.192  1.00  0.00     0.027 C 
BRANCH  16  17
ATOM     17  C   UNL     1      -0.426  -9.218  -7.372  1.00  0.00     0.004 C 
BRANCH  17  18
ATOM     18  C   UNL     1       0.066  -9.344  -5.922  1.00  0.00     0.000 C 
BRANCH  18  19
ATOM     19  C   UNL     1       0.213 -10.806  -5.474  1.00  0.00    -0.003 C 
ATOM     20  C   UNL     1       0.557 -11.747  -6.629  1.00  0.00     0.004 C 
ENDBRANCH  18  19
ENDBRANCH  17  18
ENDBRANCH  16  17
ENDBRANCH  15  16
ENDBRANCH  13  14
ENDBRANCH  12  13
ENDBRANCH   1  11
TORSDOF 14
ENDMDL
MODEL 3
REMARK VINA RESULT:    -5.618      3.466      7.075
REMARK INTER + INTRA:         -11.353
REMARK INTER:                  -8.639
REMARK INTRA:                  -2.714
REMARK UNBOUND:                -1.136
REMARK SMILES CCCCCC=CCC=CCCCCCCCC(=O)[O-]
REMARK SMILES IDX 11 1 12 2 13 3 14 4 15 5 16 6 17 7 18 8 19 9 20 10 10 11
REMARK SMILES IDX 9 12 8 13 7 14 6 15 5 16 4 17 3 18 2 19 1 20
REMARK H PARENT
REMARK Flexibility Score: inf
ROOT
ATOM      1  C   UNL     1       8.032 -10.646   0.120  1.00  0.00     0.027 C 
ENDROOT
BRANCH   1   2
ATOM      2  C   UNL     1       7.282  -9.414  -0.401  1.00  0.00     0.004 C 
BRANCH   2   3
ATOM      3  C   UNL     1       6.721  -9.667  -1.806  1.00  0.00     0.000 C 
BRANCH   3   4
ATOM      4  C   UNL     1       5.219  -9.364  -1.860  1.00  0.00     0.000 C 
BRANCH   4   5
ATOM      5  C   UNL     1       4.401 -10.660  -1.967  1.00  0.00     0.000 C 
BRANCH   5   6
ATOM      6  C   UNL     1       4.392 -11.465  -0.657  1.00  0.00     0.006 C 
BRANCH   6   7
ATOM      7  C   UNL     1       4.076 -12.950  -0.878  1.00  0.00     0.053 C 
BRANCH   7   8
ATOM      8  C   UNL     1       3.020 -13.405   0.079  1.00  0.00     0.041 C 
ATOM      9  O   UNL     1       2.393 -12.565   0.778  1.00  0.00    -0.550 OA
ATOM     10  O   UNL     1       2.762 -14.761   0.236  1.00  0.00    -0.550 OA
ENDBRANCH   7   8
ENDBRANCH   6   7
ENDBRANCH   5   6
ENDBRANCH   4   5
ENDBRANCH   3   4
ENDBRANCH   2   3
ENDBRANCH   1   2
BRANCH   1  11
ATOM     11  C   UNL     1       8.255 -11.651  -0.976  1.00  0.00    -0.031 C 
ATOM     12  C   UNL     1       7.786 -12.905  -0.888  1.00  0.00    -0.027 C 
BRANCH  12  13
ATOM     13  C   UNL     1       7.993 -13.903  -1.991  1.00  0.00     0.054 C 
BRANCH  13  14
ATOM     14  C   UNL     1       7.480 -13.360  -3.295  1.00  0.00    -0.027 C 
ATOM     15  C   UNL     1       6.169 -13.346  -3.583  1.00  0.00    -0.031 C 
BRANCH  15  16
ATOM     16  C   UNL     1       5.659 -12.840  -4.903  1.00  0.00     0.027 C 
BRANCH  16  17
ATOM     17  C   UNL     1       4.129 -12.928  -4.974  1.00  0.00     0.004 C 
BRANCH  17  18
ATOM     18  C   UNL     1       3.548 -11.756  -5.779  1.00  0.00     0.000 C 
BRANCH  18  19
ATOM     19  C   UNL     1       4.609 -10.706  -6.141  1.00  0.00    -0.003 C 
ATOM     20  C   UNL     1       4.371  -9.362  -5.452  1.00  0.00     0.004 C 
ENDBRANCH  18  19
ENDBRANCH  17  18
ENDBRANCH  16  17
ENDBRANCH  15  16
ENDBRANCH  13  14
ENDBRANCH  12  13
ENDBRANCH   1  11
TORSDOF 14
ENDMDL
MODEL 4
REMARK VINA RESULT:    -5.571      4.377      6.406
REMARK INTER + INTRA:         -11.266
REMARK INTER:                  -9.609
REMARK INTRA:                  -1.658
REMARK UNBOUND:                -1.136
REMARK SMILES CCCCCC=CCC=CCCCCCCCC(=O)[O-]
REMARK SMILES IDX 11 1 12 2 13 3 14 4 15 5 16 6 17 7 18 8 19 9 20 10 10 11
REMARK SMILES IDX 9 12 8 13 7 14 6 15 5 16 4 17 3 18 2 19 1 20
REMARK H PARENT
REMARK Flexibility Score: inf
ROOT
ATOM      1  C   UNL     1       1.751 -13.828  -4.386  1.00  0.00     0.027 C 
ENDROOT
BRANCH   1   2
ATOM      2  C   UNL     1       1.592 -15.353  -4.374  1.00  0.00     0.004 C 
BRANCH   2   3
ATOM      3  C   UNL     1       2.535 -15.995  -3.350  1.00  0.00     0.000 C 
BRANCH   3   4
ATOM      4  C   UNL     1       1.748 -16.793  -2.303  1.00  0.00     0.000 C 
BRANCH   4   5
ATOM      5  C   UNL     1       2.075 -16.309  -0.882  1.00  0.00     0.000 C 
BRANCH   5   6
ATOM      6  C   UNL     1       3.209 -15.271  -0.857  1.00  0.00     0.006 C 
BRANCH   6   7
ATOM      7  C   UNL     1       2.951 -14.137   0.144  1.00  0.00     0.053 C 
BRANCH   7   8
ATOM      8  C   UNL     1       3.034 -12.809  -0.540  1.00  0.00     0.041 C 
ATOM      9  O   UNL     1       4.147 -12.238  -0.682  1.00  0.00    -0.550 OA
ATOM     10  O   UNL     1       1.876 -12.180  -0.977  1.00  0.00    -0.550 OA
ENDBRANCH   7   8
ENDBRANCH   6   7
ENDBRANCH   5   6
ENDBRANCH   4   5
ENDBRANCH   3   4
ENDBRANCH   2   3
ENDBRANCH   1   2
BRANCH   1  11
ATOM     11  C   UNL     1       3.194 -13.431  -4.233  1.00  0.00    -0.031 C 
ATOM     12  C   UNL     1       3.992 -13.253  -5.298  1.00  0.00    -0.027 C 
BRANCH  12  13
ATOM     13  C   UNL     1       5.427 -12.839  -5.145  1.00  0.00     0.054 C 
BRANCH  13  14
ATOM     14  C   UNL     1       5.885 -13.041  -3.729  1.00  0.00    -0.027 C 
ATOM     15  C   UNL     1       7.130 -13.453  -3.444  1.00  0.00    -0.031 C 
BRANCH  15  16
ATOM     16  C   UNL     1       7.575 -13.694  -2.028  1.00  0.00     0.027 C 
BRANCH  16  17
ATOM     17  C   UNL     1       7.619 -12.383  -1.234  1.00  0.00     0.004 C 
BRANCH  17  18
ATOM     18  C   UNL     1       8.807 -12.370  -0.260  1.00  0.00     0.000 C 
BRANCH  18  19
ATOM     19  C   UNL     1       8.980 -11.015   0.442  1.00  0.00    -0.003 C 
ATOM     20  C   UNL     1       7.965  -9.971  -0.026  1.00  0.00     0.004 C 
ENDBRANCH  18  19
ENDBRANCH  17  18
ENDBRANCH  16  17
ENDBRANCH  15  16
ENDBRANCH  13  14
ENDBRANCH  12  13
ENDBRANCH   1  11
TORSDOF 14
ENDMDL
MODEL 5
REMARK VINA RESULT:    -5.547      1.973      5.186
REMARK INTER + INTRA:         -11.224
REMARK INTER:                  -9.075
REMARK INTRA:                  -2.149
REMARK UNBOUND:                -1.136
REMARK SMILES CCCCCC=CCC=CCCCCCCCC(=O)[O-]
REMARK SMILES IDX 11 1 12 2 13 3 14 4 15 5 16 6 17 7 18 8 19 9 20 10 10 11
REMARK SMILES IDX 9 12 8 13 7 14 6 15 5 16 4 17 3 18 2 19 1 20
REMARK H PARENT
REMARK Flexibility Score: inf
ROOT
ATOM      1  C   UNL     1       7.283 -13.540  -2.505  1.00  0.00     0.027 C 
ENDROOT
BRANCH   1   2
ATOM      2  C   UNL     1       6.746 -13.040  -3.852  1.00  0.00     0.004 C 
BRANCH   2   3
ATOM      3  C   UNL     1       5.272 -13.422  -4.031  1.00  0.00     0.000 C 
BRANCH   3   4
ATOM      4  C   UNL     1       4.726 -12.897  -5.364  1.00  0.00     0.000 C 
BRANCH   4   5
ATOM      5  C   UNL     1       5.251 -11.482  -5.654  1.00  0.00     0.000 C 
BRANCH   5   6
ATOM      6  C   UNL     1       4.250 -10.630  -6.451  1.00  0.00     0.006 C 
BRANCH   6   7
ATOM      7  C   UNL     1       4.223  -9.166  -5.993  1.00  0.00     0.053 C 
BRANCH   7   8
ATOM      8  C   UNL     1       4.467  -8.253  -7.152  1.00  0.00     0.041 C 
ATOM      9  O   UNL     1       5.608  -7.753  -7.336  1.00  0.00    -0.550 OA
ATOM     10  O   UNL     1       3.421  -7.914  -8.001  1.00  0.00    -0.550 OA
ENDBRANCH   7   8
ENDBRANCH   6   7
ENDBRANCH   5   6
ENDBRANCH   4   5
ENDBRANCH   3   4
ENDBRANCH   2   3
ENDBRANCH   1   2
BRANCH   1  11
ATOM     11  C   UNL     1       7.663 -12.391  -1.612  1.00  0.00    -0.031 C 
ATOM     12  C   UNL     1       8.402 -12.574  -0.506  1.00  0.00    -0.027 C 
BRANCH  12  13
ATOM     13  C   UNL     1       8.796 -11.425   0.376  1.00  0.00     0.054 C 
BRANCH  13  14
ATOM     14  C   UNL     1       8.306 -10.127  -0.201  1.00  0.00    -0.027 C 
ATOM     15  C   UNL     1       7.126  -9.599   0.160  1.00  0.00    -0.031 C 
BRANCH  15  16
ATOM     16  C   UNL     1       6.617  -8.321  -0.448  1.00  0.00     0.027 C 
BRANCH  16  17
ATOM     17  C   UNL     1       5.251  -8.532  -1.112  1.00  0.00     0.004 C 
BRANCH  17  18
ATOM     18  C   UNL     1       5.292  -9.714  -2.092  1.00  0.00     0.000 C 
BRANCH  18  19
ATOM     19  C   UNL     1       4.043 -10.603  -1.997  1.00  0.00    -0.003 C 
ATOM     20  C   UNL     1       4.184 -11.713  -0.955  1.00  0.00     0.004 C 
ENDBRANCH  18  19
ENDBRANCH  17  18
ENDBRANCH  16  17
ENDBRANCH  15  16
ENDBRANCH  13  14
ENDBRANCH  12  13
ENDBRANCH   1  11
TORSDOF 14
ENDMDL
MODEL 6
REMARK VINA RESULT:    -5.514      2.706      3.844
REMARK INTER + INTRA:         -11.164
REMARK INTER:                  -9.877
REMARK INTRA:                  -1.287
REMARK UNBOUND:                -1.136
REMARK SMILES CCCCCC=CCC=CCCCCCCCC(=O)[O-]
REMARK SMILES IDX 11 1 12 2 13 3 14 4 15 5 16 6 17 7 18 8 19 9 20 10 10 11
REMARK SMILES IDX 9 12 8 13 7 14 6 15 5 16 4 17 3 18 2 19 1 20
REMARK H PARENT
REMARK Flexibility Score: inf
ROOT
ATOM      1  C   UNL     1       4.262  -9.348  -6.603  1.00  0.00     0.027 C 
ENDROOT
BRANCH   1   2
ATOM      2  C   UNL     1       4.263  -9.168  -8.126  1.00  0.00     0.004 C 
BRANCH   2   3
ATOM      3  C   UNL     1       2.845  -8.906  -8.648  1.00  0.00     0.000 C 
BRANCH   3   4
ATOM      4  C   UNL     1       1.995  -8.187  -7.594  1.00  0.00     0.000 C 
BRANCH   4   5
ATOM      5  C   UNL     1       0.603  -8.828  -7.479  1.00  0.00     0.000 C 
BRANCH   5   6
ATOM      6  C   UNL     1       0.460  -9.715  -6.232  1.00  0.00     0.006 C 
BRANCH   6   7
ATOM      7  C   UNL     1      -0.476 -10.909  -6.459  1.00  0.00     0.053 C 
BRANCH   7   8
ATOM      8  C   UNL     1      -1.746 -10.730  -5.688  1.00  0.00     0.041 C 
ATOM      9  O   UNL     1      -2.298  -9.599  -5.632  1.00  0.00    -0.550 OA
ATOM     10  O   UNL     1      -2.292 -11.800  -4.992  1.00  0.00    -0.550 OA
ENDBRANCH   7   8
ENDBRANCH   6   7
ENDBRANCH   5   6
ENDBRANCH   4   5
ENDBRANCH   3   4
ENDBRANCH   2   3
ENDBRANCH   1   2
BRANCH   1  11
ATOM     11  C   UNL     1       4.829 -10.686  -6.214  1.00  0.00    -0.031 C 
ATOM     12  C   UNL     1       4.036 -11.733  -5.938  1.00  0.00    -0.027 C 
BRANCH  12  13
ATOM     13  C   UNL     1       4.602 -13.073  -5.567  1.00  0.00     0.054 C 
BRANCH  13  14
ATOM     14  C   UNL     1       5.356 -12.984  -4.270  1.00  0.00    -0.027 C 
ATOM     15  C   UNL     1       6.651 -13.327  -4.186  1.00  0.00    -0.031 C 
BRANCH  15  16
ATOM     16  C   UNL     1       7.395 -13.276  -2.880  1.00  0.00     0.027 C 
BRANCH  16  17
ATOM     17  C   UNL     1       6.786 -12.229  -1.939  1.00  0.00     0.004 C 
BRANCH  17  18
ATOM     18  C   UNL     1       7.604 -10.929  -1.961  1.00  0.00     0.000 C 
BRANCH  18  19
ATOM     19  C   UNL     1       7.890 -10.388  -0.552  1.00  0.00    -0.003 C 
ATOM     20  C   UNL     1       9.106 -11.048   0.099  1.00  0.00     0.004 C 
ENDBRANCH  18  19
ENDBRANCH  17  18
ENDBRANCH  16  17
ENDBRANCH  15  16
ENDBRANCH  13  14
ENDBRANCH  12  13
ENDBRANCH   1  11
TORSDOF 14
ENDMDL
MODEL 7
REMARK VINA RESULT:    -5.506      4.429      7.314
REMARK INTER + INTRA:         -11.149
REMARK INTER:                  -8.588
REMARK INTRA:                  -2.561
REMARK UNBOUND:                -1.136
REMARK SMILES CCCCCC=CCC=CCCCCCCCC(=O)[O-]
REMARK SMILES IDX 11 1 12 2 13 3 14 4 15 5 16 6 17 7 18 8 19 9 20 10 10 11
REMARK SMILES IDX 9 12 8 13 7 14 6 15 5 16 4 17 3 18 2 19 1 20
REMARK H PARENT
REMARK Flexibility Score: inf
ROOT
ATOM      1  C   UNL     1       6.505  -8.043   0.006  1.00  0.00     0.027 C 
ENDROOT
BRANCH   1   2
ATOM      2  C   UNL     1       5.555  -8.285  -1.174  1.00  0.00     0.004 C 
BRANCH   2   3
ATOM      3  C   UNL     1       4.458  -9.288  -0.799  1.00  0.00     0.000 C 
BRANCH   3   4
ATOM      4  C   UNL     1       4.525 -10.534  -1.690  1.00  0.00     0.000 C 
BRANCH   4   5
ATOM      5  C   UNL     1       4.206 -11.804  -0.885  1.00  0.00     0.000 C 
BRANCH   5   6
ATOM      6  C   UNL     1       3.463 -12.862  -1.717  1.00  0.00     0.006 C 
BRANCH   6   7
ATOM      7  C   UNL     1       3.817 -14.296  -1.301  1.00  0.00     0.053 C 
BRANCH   7   8
ATOM      8  C   UNL     1       2.856 -14.791  -0.268  1.00  0.00     0.041 C 
ATOM      9  O   UNL     1       3.056 -14.549   0.952  1.00  0.00    -0.550 OA
ATOM     10  O   UNL     1       1.764 -15.562  -0.647  1.00  0.00    -0.550 OA
ENDBRANCH   7   8
ENDBRANCH   6   7
ENDBRANCH   5   6
ENDBRANCH   4   5
ENDBRANCH   3   4
ENDBRANCH   2   3
ENDBRANCH   1   2
BRANCH   1  11
ATOM     11  C   UNL     1       7.129  -9.329   0.473  1.00  0.00    -0.031 C 
ATOM     12  C   UNL     1       8.080  -9.950  -0.242  1.00  0.00    -0.027 C 
BRANCH  12  13
ATOM     13  C   UNL     1       8.716 -11.225   0.233  1.00  0.00     0.054 C 
BRANCH  13  14
ATOM     14  C   UNL     1       8.160 -12.402  -0.518  1.00  0.00    -0.027 C 
ATOM     15  C   UNL     1       7.760 -12.295  -1.795  1.00  0.00    -0.031 C 
BRANCH  15  16
ATOM     16  C   UNL     1       7.166 -13.463  -2.533  1.00  0.00     0.027 C 
BRANCH  16  17
ATOM     17  C   UNL     1       7.197 -13.230  -4.049  1.00  0.00     0.004 C 
BRANCH  17  18
ATOM     18  C   UNL     1       5.779 -13.271  -4.640  1.00  0.00     0.000 C 
BRANCH  18  19
ATOM     19  C   UNL     1       5.274 -11.882  -5.057  1.00  0.00    -0.003 C 
ATOM     20  C   UNL     1       3.813 -11.894  -5.508  1.00  0.00     0.004 C 
ENDBRANCH  18  19
ENDBRANCH  17  18
ENDBRANCH  16  17
ENDBRANCH  15  16
ENDBRANCH  13  14
ENDBRANCH  12  13
ENDBRANCH   1  11
TORSDOF 14
ENDMDL
MODEL 8
REMARK VINA RESULT:    -5.485      2.118      3.558
REMARK INTER + INTRA:         -11.110
REMARK INTER:                  -9.163
REMARK INTRA:                  -1.947
REMARK UNBOUND:                -1.136
REMARK SMILES CCCCCC=CCC=CCCCCCCCC(=O)[O-]
REMARK SMILES IDX 11 1 12 2 13 3 14 4 15 5 16 6 17 7 18 8 19 9 20 10 10 11
REMARK SMILES IDX 9 12 8 13 7 14 6 15 5 16 4 17 3 18 2 19 1 20
REMARK H PARENT
REMARK Flexibility Score: inf
ROOT
ATOM      1  C   UNL     1       0.033  -9.257  -5.960  1.00  0.00     0.027 C 
ENDROOT
BRANCH   1   2
ATOM      2  C   UNL     1      -0.811  -9.379  -7.234  1.00  0.00     0.004 C 
BRANCH   2   3
ATOM      3  C   UNL     1      -0.236  -8.509  -8.359  1.00  0.00     0.000 C 
BRANCH   3   4
ATOM      4  C   UNL     1       1.205  -8.089  -8.046  1.00  0.00     0.000 C 
BRANCH   4   5
ATOM      5  C   UNL     1       2.205  -8.865  -8.917  1.00  0.00     0.000 C 
BRANCH   5   6
ATOM      6  C   UNL     1       3.533  -9.141  -8.193  1.00  0.00     0.006 C 
BRANCH   6   7
ATOM      7  C   UNL     1       3.782  -8.175  -7.027  1.00  0.00     0.053 C 
BRANCH   7   8
ATOM      8  C   UNL     1       4.856  -7.196  -7.384  1.00  0.00     0.041 C 
ATOM      9  O   UNL     1       5.643  -6.768  -6.499  1.00  0.00    -0.550 OA
ATOM     10  O   UNL     1       4.956  -6.718  -8.684  1.00  0.00    -0.550 OA
ENDBRANCH   7   8
ENDBRANCH   6   7
ENDBRANCH   5   6
ENDBRANCH   4   5
ENDBRANCH   3   4
ENDBRANCH   2   3
ENDBRANCH   1   2
BRANCH   1  11
ATOM     11  C   UNL     1       0.572 -10.595  -5.535  1.00  0.00    -0.031 C 
ATOM     12  C   UNL     1       1.100 -11.454  -6.421  1.00  0.00    -0.027 C 
BRANCH  12  13
ATOM     13  C   UNL     1       1.655 -12.783  -5.994  1.00  0.00     0.054 C 
BRANCH  13  14
ATOM     14  C   UNL     1       2.952 -12.599  -5.258  1.00  0.00    -0.027 C 
ATOM     15  C   UNL     1       4.015 -12.022  -5.840  1.00  0.00    -0.031 C 
BRANCH  15  16
ATOM     16  C   UNL     1       5.325 -11.875  -5.117  1.00  0.00     0.027 C 
BRANCH  16  17
ATOM     17  C   UNL     1       5.814 -13.226  -4.581  1.00  0.00     0.004 C 
BRANCH  17  18
ATOM     18  C   UNL     1       7.225 -13.104  -3.987  1.00  0.00     0.000 C 
BRANCH  18  19
ATOM     19  C   UNL     1       7.253 -13.365  -2.474  1.00  0.00    -0.003 C 
ATOM     20  C   UNL     1       5.863 -13.319  -1.839  1.00  0.00     0.004 C 
ENDBRANCH  18  19
ENDBRANCH  17  18
ENDBRANCH  16  17
ENDBRANCH  15  16
ENDBRANCH  13  14
ENDBRANCH  12  13
ENDBRANCH   1  11
TORSDOF 14
ENDMDL
MODEL 9
REMARK VINA RESULT:    -5.463      4.430      7.376
REMARK INTER + INTRA:         -11.071
REMARK INTER:                  -8.514
REMARK INTRA:                  -2.557
REMARK UNBOUND:                -1.136
REMARK SMILES CCCCCC=CCC=CCCCCCCCC(=O)[O-]
REMARK SMILES IDX 11 1 12 2 13 3 14 4 15 5 16 6 17 7 18 8 19 9 20 10 10 11
REMARK SMILES IDX 9 12 8 13 7 14 6 15 5 16 4 17 3 18 2 19 1 20
REMARK H PARENT
REMARK Flexibility Score: inf
ROOT
ATOM      1  C   UNL     1       8.031 -10.310  -0.186  1.00  0.00     0.027 C 
ENDROOT
BRANCH   1   2
ATOM      2  C   UNL     1       6.930  -9.291  -0.504  1.00  0.00     0.004 C 
BRANCH   2   3
ATOM      3  C   UNL     1       6.380  -9.501  -1.919  1.00  0.00     0.000 C 
BRANCH   3   4
ATOM      4  C   UNL     1       4.858  -9.691  -1.895  1.00  0.00     0.000 C 
BRANCH   4   5
ATOM      5  C   UNL     1       4.441 -10.632  -0.754  1.00  0.00     0.000 C 
BRANCH   5   6
ATOM      6  C   UNL     1       3.599 -11.822  -1.245  1.00  0.00     0.006 C 
BRANCH   6   7
ATOM      7  C   UNL     1       3.937 -13.127  -0.513  1.00  0.00     0.053 C 
BRANCH   7   8
ATOM      8  C   UNL     1       2.792 -13.550   0.352  1.00  0.00     0.041 C 
ATOM      9  O   UNL     1       1.709 -12.907   0.330  1.00  0.00    -0.550 OA
ATOM     10  O   UNL     1       2.937 -14.625   1.220  1.00  0.00    -0.550 OA
ENDBRANCH   7   8
ENDBRANCH   6   7
ENDBRANCH   5   6
ENDBRANCH   4   5
ENDBRANCH   3   4
ENDBRANCH   2   3
ENDBRANCH   1   2
BRANCH   1  11
ATOM     11  C   UNL     1       8.053 -11.420  -1.201  1.00  0.00    -0.031 C 
ATOM     12  C   UNL     1       7.668 -12.667  -0.889  1.00  0.00    -0.027 C 
BRANCH  12  13
ATOM     13  C   UNL     1       7.673 -13.771  -1.907  1.00  0.00     0.054 C 
BRANCH  13  14
ATOM     14  C   UNL     1       7.259 -13.247  -3.252  1.00  0.00    -0.027 C 
ATOM     15  C   UNL     1       5.970 -13.205  -3.624  1.00  0.00    -0.031 C 
BRANCH  15  16
ATOM     16  C   UNL     1       5.559 -12.718  -4.986  1.00  0.00     0.027 C 
BRANCH  16  17
ATOM     17  C   UNL     1       4.081 -13.026  -5.259  1.00  0.00     0.004 C 
BRANCH  17  18
ATOM     18  C   UNL     1       3.496 -13.929  -4.163  1.00  0.00     0.000 C 
BRANCH  18  19
ATOM     19  C   UNL     1       2.033 -14.312  -4.433  1.00  0.00    -0.003 C 
ATOM     20  C   UNL     1       1.895 -15.662  -5.137  1.00  0.00     0.004 C 
ENDBRANCH  18  19
ENDBRANCH  17  18
ENDBRANCH  16  17
ENDBRANCH  15  16
ENDBRANCH  13  14
ENDBRANCH  12  13
ENDBRANCH   1  11
TORSDOF 14
ENDMDL
