MODEL 1
REMARK VINA RESULT:    -3.081      0.000      0.000
REMARK INTER + INTRA:         -10.794
REMARK INTER:                  -8.124
REMARK INTRA:                  -2.670
REMARK UNBOUND:                -2.670
REMARK SMILES CCCCCCCCCCCCCCCCCCCCCCCCCCCCCC(=O)[O-]
REMARK SMILES IDX 16 1 17 2 18 3 19 4 20 5 21 6 22 7 23 8 24 9 25 10 26 11
REMARK SMILES IDX 27 12 28 13 29 14 30 15 31 16 32 17 15 18 14 19 13 20 12 21
REMARK SMILES IDX 11 22 10 23 9 24 8 25 7 26 6 27 5 28 4 29 3 30 2 31 1 32
REMARK H PARENT
REMARK Flexibility Score: inf
ROOT
ATOM      1  C   UNL     1     -14.423 -18.677   6.126  1.00  0.00     0.000 C 
ENDROOT
BRANCH   1   2
ATOM      2  C   UNL     1     -15.505 -17.734   5.573  1.00  0.00     0.000 C 
BRANCH   2   3
ATOM      3  C   UNL     1     -15.011 -16.287   5.425  1.00  0.00     0.000 C 
BRANCH   3   4
ATOM      4  C   UNL     1     -13.896 -16.195   4.373  1.00  0.00     0.000 C 
BRANCH   4   5
ATOM      5  C   UNL     1     -14.321 -15.425   3.108  1.00  0.00     0.000 C 
BRANCH   5   6
ATOM      6  C   UNL     1     -13.239 -15.315   2.018  1.00  0.00     0.000 C 
BRANCH   6   7
ATOM      7  C   UNL     1     -13.451 -14.116   1.080  1.00  0.00     0.000 C 
BRANCH   7   8
ATOM      8  C   UNL     1     -13.507 -12.799   1.869  1.00  0.00     0.000 C 
BRANCH   8   9
ATOM      9  C   UNL     1     -12.375 -12.681   2.904  1.00  0.00     0.000 C 
BRANCH   9  10
ATOM     10  C   UNL     1     -12.638 -11.586   3.949  1.00  0.00     0.000 C 
BRANCH  10  11
ATOM     11  C   UNL     1     -13.827 -11.959   4.845  1.00  0.00     0.000 C 
BRANCH  11  12
ATOM     12  C   UNL     1     -15.043 -11.037   4.644  1.00  0.00     0.000 C 
BRANCH  12  13
ATOM     13  C   UNL     1     -14.774  -9.535   4.863  1.00  0.00     0.006 C 
BRANCH  13  14
ATOM     14  C   UNL     1     -13.544  -8.999   4.105  1.00  0.00     0.053 C 
BRANCH  14  15
ATOM     15  C   UNL     1     -13.843  -7.755   3.322  1.00  0.00     0.041 C 
ATOM     16  O   UNL     1     -14.148  -7.829   2.102  1.00  0.00    -0.550 OA
ATOM     17  O   UNL     1     -13.832  -6.517   3.953  1.00  0.00    -0.550 OA
ENDBRANCH  14  15
ENDBRANCH  13  14
ENDBRANCH  12  13
ENDBRANCH  11  12
ENDBRANCH  10  11
ENDBRANCH   9  10
ENDBRANCH   8   9
ENDBRANCH   7   8
ENDBRANCH   6   7
ENDBRANCH   5   6
ENDBRANCH   4   5
ENDBRANCH   3   4
ENDBRANCH   2   3
ENDBRANCH   1   2
BRANCH   1  18
ATOM     18  C   UNL     1     -14.569 -20.155   5.709  1.00  0.00     0.000 C 
BRANCH  18  19
ATOM     19  C   UNL     1     -15.384 -20.393   4.423  1.00  0.00     0.000 C 
BRANCH  19  20
ATOM     20  C   UNL     1     -15.974 -21.808   4.345  1.00  0.00     0.000 C 
BRANCH  20  21
ATOM     21  C   UNL     1     -14.994 -22.848   4.905  1.00  0.00     0.000 C 
BRANCH  21  22
ATOM     22  C   UNL     1     -14.802 -24.054   3.967  1.00  0.00     0.000 C 
BRANCH  22  23
ATOM     23  C   UNL     1     -13.334 -24.462   3.718  1.00  0.00     0.000 C 
BRANCH  23  24
ATOM     24  C   UNL     1     -12.568 -23.566   2.727  1.00  0.00    -0.000 C 
BRANCH  24  25
ATOM     25  C   UNL     1     -13.425 -22.963   1.598  1.00  0.00    -0.000 C 
BRANCH  25  26
ATOM     26  C   UNL     1     -13.111 -21.479   1.305  1.00  0.00    -0.000 C 
BRANCH  26  27
ATOM     27  C   UNL     1     -11.616 -21.235   1.033  1.00  0.00    -0.000 C 
BRANCH  27  28
ATOM     28  C   UNL     1     -11.211 -19.772   1.271  1.00  0.00    -0.000 C 
BRANCH  28  29
ATOM     29  C   UNL     1     -12.256 -18.997   2.090  1.00  0.00    -0.000 C 
BRANCH  29  30
ATOM     30  C   UNL     1     -12.001 -19.108   3.607  1.00  0.00    -0.000 C 
BRANCH  30  31
ATOM     31  C   UNL     1     -10.559 -18.757   4.011  1.00  0.00    -0.003 C 
ATOM     32  C   UNL     1     -10.416 -18.425   5.495  1.00  0.00     0.004 C 
ENDBRANCH  30  31
ENDBRANCH  29  30
ENDBRANCH  28  29
ENDBRANCH  27  28
ENDBRANCH  26  27
ENDBRANCH  25  26
ENDBRANCH  24  25
ENDBRANCH  23  24
ENDBRANCH  22  23
ENDBRANCH  21  22
ENDBRANCH  20  21
ENDBRANCH  19  20
ENDBRANCH  18  19
ENDBRANCH   1  18
TORSDOF 28
ENDMDL
MODEL 2
REMARK VINA RESULT:    -2.140      2.202      5.854
REMARK INTER + INTRA:          -8.313
REMARK INTER:                  -5.714
REMARK INTRA:                  -2.599
REMARK UNBOUND:                -2.670
REMARK SMILES CCCCCCCCCCCCCCCCCCCCCCCCCCCCCC(=O)[O-]
REMARK SMILES IDX 16 1 17 2 18 3 19 4 20 5 21 6 22 7 23 8 24 9 25 10 26 11
REMARK SMILES IDX 27 12 28 13 29 14 30 15 31 16 32 17 15 18 14 19 13 20 12 21
REMARK SMILES IDX 11 22 10 23 9 24 8 25 7 26 6 27 5 28 4 29 3 30 2 31 1 32
REMARK H PARENT
REMARK Flexibility Score: inf
ROOT
ATOM      1  C   UNL     1     -15.024 -13.464   1.860  1.00  0.00     0.000 C 
ENDROOT
BRANCH   1   2
ATOM      2  C   UNL     1     -14.130 -12.222   1.704  1.00  0.00     0.000 C 
BRANCH   2   3
ATOM      3  C   UNL     1     -14.589 -11.046   2.579  1.00  0.00     0.000 C 
BRANCH   3   4
ATOM      4  C   UNL     1     -13.517 -10.685   3.618  1.00  0.00     0.000 C 
BRANCH   4   5
ATOM      5  C   UNL     1     -14.082 -10.543   5.044  1.00  0.00     0.000 C 
BRANCH   5   6
ATOM      6  C   UNL     1     -15.502  -9.952   5.127  1.00  0.00     0.000 C 
BRANCH   6   7
ATOM      7  C   UNL     1     -15.608  -8.556   4.496  1.00  0.00     0.000 C 
BRANCH   7   8
ATOM      8  C   UNL     1     -16.123  -7.526   5.513  1.00  0.00     0.000 C 
BRANCH   8   9
ATOM      9  C   UNL     1     -15.160  -6.339   5.692  1.00  0.00     0.000 C 
BRANCH   9  10
ATOM     10  C   UNL     1     -14.062  -6.301   4.619  1.00  0.00     0.000 C 
BRANCH  10  11
ATOM     11  C   UNL     1     -14.359  -5.220   3.569  1.00  0.00     0.000 C 
BRANCH  11  12
ATOM     12  C   UNL     1     -13.234  -5.067   2.530  1.00  0.00     0.000 C 
BRANCH  12  13
ATOM     13  C   UNL     1     -13.671  -5.221   1.060  1.00  0.00     0.006 C 
BRANCH  13  14
ATOM     14  C   UNL     1     -15.009  -5.963   0.875  1.00  0.00     0.053 C 
BRANCH  14  15
ATOM     15  C   UNL     1     -14.861  -7.453   0.959  1.00  0.00     0.041 C 
ATOM     16  O   UNL     1     -13.723  -7.973   1.100  1.00  0.00    -0.550 OA
ATOM     17  O   UNL     1     -15.987  -8.267   0.930  1.00  0.00    -0.550 OA
ENDBRANCH  14  15
ENDBRANCH  13  14
ENDBRANCH  12  13
ENDBRANCH  11  12
ENDBRANCH  10  11
ENDBRANCH   9  10
ENDBRANCH   8   9
ENDBRANCH   7   8
ENDBRANCH   6   7
ENDBRANCH   5   6
ENDBRANCH   4   5
ENDBRANCH   3   4
ENDBRANCH   2   3
ENDBRANCH   1   2
BRANCH   1  18
ATOM     18  C   UNL     1     -14.657 -14.653   0.949  1.00  0.00     0.000 C 
BRANCH  18  19
ATOM     19  C   UNL     1     -13.950 -15.824   1.657  1.00  0.00     0.000 C 
BRANCH  19  20
ATOM     20  C   UNL     1     -14.312 -17.190   1.057  1.00  0.00     0.000 C 
BRANCH  20  21
ATOM     21  C   UNL     1     -14.893 -18.128   2.124  1.00  0.00     0.000 C 
BRANCH  21  22
ATOM     22  C   UNL     1     -14.821 -19.612   1.720  1.00  0.00     0.000 C 
BRANCH  22  23
ATOM     23  C   UNL     1     -14.261 -20.557   2.804  1.00  0.00     0.000 C 
BRANCH  23  24
ATOM     24  C   UNL     1     -12.956 -20.084   3.472  1.00  0.00    -0.000 C 
BRANCH  24  25
ATOM     25  C   UNL     1     -13.133 -18.991   4.544  1.00  0.00    -0.000 C 
BRANCH  25  26
ATOM     26  C   UNL     1     -13.973 -19.444   5.759  1.00  0.00    -0.000 C 
BRANCH  26  27
ATOM     27  C   UNL     1     -14.293 -18.286   6.720  1.00  0.00    -0.000 C 
BRANCH  27  28
ATOM     28  C   UNL     1     -15.798 -17.984   6.788  1.00  0.00    -0.000 C 
BRANCH  28  29
ATOM     29  C   UNL     1     -16.118 -16.510   6.485  1.00  0.00    -0.000 C 
BRANCH  29  30
ATOM     30  C   UNL     1     -15.323 -15.984   5.272  1.00  0.00    -0.000 C 
BRANCH  30  31
ATOM     31  C   UNL     1     -15.363 -14.452   5.135  1.00  0.00    -0.003 C 
ATOM     32  C   UNL     1     -15.714 -13.743   6.442  1.00  0.00     0.004 C 
ENDBRANCH  30  31
ENDBRANCH  29  30
ENDBRANCH  28  29
ENDBRANCH  27  28
ENDBRANCH  26  27
ENDBRANCH  25  26
ENDBRANCH  24  25
ENDBRANCH  23  24
ENDBRANCH  22  23
ENDBRANCH  21  22
ENDBRANCH  20  21
ENDBRANCH  19  20
ENDBRANCH  18  19
ENDBRANCH   1  18
TORSDOF 28
ENDMDL
MODEL 3
REMARK VINA RESULT:    -1.960      1.417      3.515
REMARK INTER + INTRA:          -7.839
REMARK INTER:                  -4.343
REMARK INTRA:                  -3.495
REMARK UNBOUND:                -2.670
REMARK SMILES CCCCCCCCCCCCCCCCCCCCCCCCCCCCCC(=O)[O-]
REMARK SMILES IDX 16 1 17 2 18 3 19 4 20 5 21 6 22 7 23 8 24 9 25 10 26 11
REMARK SMILES IDX 27 12 28 13 29 14 30 15 31 16 32 17 15 18 14 19 13 20 12 21
REMARK SMILES IDX 11 22 10 23 9 24 8 25 7 26 6 27 5 28 4 29 3 30 2 31 1 32
REMARK H PARENT
REMARK Flexibility Score: inf
ROOT
ATOM      1  C   UNL     1     -12.510 -17.598   5.175  1.00  0.00     0.000 C 
ENDROOT
BRANCH   1   2
ATOM      2  C   UNL     1     -13.954 -17.654   4.649  1.00  0.00     0.000 C 
BRANCH   2   3
ATOM      3  C   UNL     1     -14.173 -16.758   3.420  1.00  0.00     0.000 C 
BRANCH   3   4
ATOM      4  C   UNL     1     -15.659 -16.710   3.036  1.00  0.00     0.000 C 
BRANCH   4   5
ATOM      5  C   UNL     1     -16.021 -15.481   2.179  1.00  0.00     0.000 C 
BRANCH   5   6
ATOM      6  C   UNL     1     -14.851 -14.525   1.883  1.00  0.00     0.000 C 
BRANCH   6   7
ATOM      7  C   UNL     1     -15.274 -13.048   1.864  1.00  0.00     0.000 C 
BRANCH   7   8
ATOM      8  C   UNL     1     -15.388 -12.486   3.289  1.00  0.00     0.000 C 
BRANCH   8   9
ATOM      9  C   UNL     1     -14.402 -13.148   4.267  1.00  0.00     0.000 C 
BRANCH   9  10
ATOM     10  C   UNL     1     -13.175 -12.270   4.557  1.00  0.00     0.000 C 
BRANCH  10  11
ATOM     11  C   UNL     1     -13.109 -11.083   3.586  1.00  0.00     0.000 C 
BRANCH  11  12
ATOM     12  C   UNL     1     -13.410  -9.735   4.264  1.00  0.00     0.000 C 
BRANCH  12  13
ATOM     13  C   UNL     1     -14.462  -8.861   3.552  1.00  0.00     0.006 C 
BRANCH  13  14
ATOM     14  C   UNL     1     -13.869  -7.671   2.774  1.00  0.00     0.053 C 
BRANCH  14  15
ATOM     15  C   UNL     1     -13.915  -6.389   3.551  1.00  0.00     0.041 C 
ATOM     16  O   UNL     1     -14.456  -6.353   4.688  1.00  0.00    -0.550 OA
ATOM     17  O   UNL     1     -13.316  -5.244   3.041  1.00  0.00    -0.550 OA
ENDBRANCH  14  15
ENDBRANCH  13  14
ENDBRANCH  12  13
ENDBRANCH  11  12
ENDBRANCH  10  11
ENDBRANCH   9  10
ENDBRANCH   8   9
ENDBRANCH   7   8
ENDBRANCH   6   7
ENDBRANCH   5   6
ENDBRANCH   4   5
ENDBRANCH   3   4
ENDBRANCH   2   3
ENDBRANCH   1   2
BRANCH   1  18
ATOM     18  C   UNL     1     -11.643 -18.830   4.837  1.00  0.00     0.000 C 
BRANCH  18  19
ATOM     19  C   UNL     1     -12.349 -19.915   4.002  1.00  0.00     0.000 C 
BRANCH  19  20
ATOM     20  C   UNL     1     -12.166 -19.717   2.491  1.00  0.00     0.000 C 
BRANCH  20  21
ATOM     21  C   UNL     1     -13.440 -20.100   1.724  1.00  0.00     0.000 C 
BRANCH  21  22
ATOM     22  C   UNL     1     -13.297 -21.423   0.949  1.00  0.00     0.000 C 
BRANCH  22  23
ATOM     23  C   UNL     1     -12.222 -22.387   1.496  1.00  0.00     0.000 C 
BRANCH  23  24
ATOM     24  C   UNL     1     -12.718 -23.379   2.564  1.00  0.00    -0.000 C 
BRANCH  24  25
ATOM     25  C   UNL     1     -13.177 -24.746   2.019  1.00  0.00    -0.000 C 
BRANCH  25  26
ATOM     26  C   UNL     1     -14.712 -24.900   1.943  1.00  0.00    -0.000 C 
BRANCH  26  27
ATOM     27  C   UNL     1     -15.451 -23.920   2.872  1.00  0.00    -0.000 C 
BRANCH  27  28
ATOM     28  C   UNL     1     -15.876 -24.578   4.194  1.00  0.00    -0.000 C 
BRANCH  28  29
ATOM     29  C   UNL     1     -15.752 -23.624   5.394  1.00  0.00    -0.000 C 
BRANCH  29  30
ATOM     30  C   UNL     1     -14.764 -22.472   5.118  1.00  0.00    -0.000 C 
BRANCH  30  31
ATOM     31  C   UNL     1     -15.389 -21.077   5.293  1.00  0.00    -0.003 C 
ATOM     32  C   UNL     1     -16.125 -20.590   4.047  1.00  0.00     0.004 C 
ENDBRANCH  30  31
ENDBRANCH  29  30
ENDBRANCH  28  29
ENDBRANCH  27  28
ENDBRANCH  26  27
ENDBRANCH  25  26
ENDBRANCH  24  25
ENDBRANCH  23  24
ENDBRANCH  22  23
ENDBRANCH  21  22
ENDBRANCH  20  21
ENDBRANCH  19  20
ENDBRANCH  18  19
ENDBRANCH   1  18
TORSDOF 28
ENDMDL
MODEL 4
REMARK VINA RESULT:    -1.945      1.767      2.895
REMARK INTER + INTRA:          -7.799
REMARK INTER:                  -6.003
REMARK INTRA:                  -1.796
REMARK UNBOUND:                -2.670
REMARK SMILES CCCCCCCCCCCCCCCCCCCCCCCCCCCCCC(=O)[O-]
REMARK SMILES IDX 16 1 17 2 18 3 19 4 20 5 21 6 22 7 23 8 24 9 25 10 26 11
REMARK SMILES IDX 27 12 28 13 29 14 30 15 31 16 32 17 15 18 14 19 13 20 12 21
REMARK SMILES IDX 11 22 10 23 9 24 8 25 7 26 6 27 5 28 4 29 3 30 2 31 1 32
REMARK H PARENT
REMARK Flexibility Score: inf
ROOT
ATOM      1  C   UNL     1     -16.012 -19.101   4.023  1.00  0.00     0.000 C 
ENDROOT
BRANCH   1   2
ATOM      2  C   UNL     1     -15.766 -17.631   3.646  1.00  0.00     0.000 C 
BRANCH   2   3
ATOM      3  C   UNL     1     -14.345 -17.160   3.993  1.00  0.00     0.000 C 
BRANCH   3   4
ATOM      4  C   UNL     1     -13.727 -16.379   2.824  1.00  0.00     0.000 C 
BRANCH   4   5
ATOM      5  C   UNL     1     -14.530 -15.119   2.447  1.00  0.00     0.000 C 
BRANCH   5   6
ATOM      6  C   UNL     1     -14.151 -14.484   1.097  1.00  0.00     0.000 C 
BRANCH   6   7
ATOM      7  C   UNL     1     -14.243 -12.950   1.109  1.00  0.00     0.000 C 
BRANCH   7   8
ATOM      8  C   UNL     1     -14.522 -12.423   2.524  1.00  0.00     0.000 C 
BRANCH   8   9
ATOM      9  C   UNL     1     -13.884 -11.046   2.779  1.00  0.00     0.000 C 
BRANCH   9  10
ATOM     10  C   UNL     1     -14.608  -9.911   2.038  1.00  0.00     0.000 C 
BRANCH  10  11
ATOM     11  C   UNL     1     -16.021  -9.702   2.603  1.00  0.00     0.000 C 
BRANCH  11  12
ATOM     12  C   UNL     1     -16.124  -8.474   3.523  1.00  0.00     0.000 C 
BRANCH  12  13
ATOM     13  C   UNL     1     -15.157  -8.468   4.724  1.00  0.00     0.006 C 
BRANCH  13  14
ATOM     14  C   UNL     1     -13.929  -7.557   4.539  1.00  0.00     0.053 C 
BRANCH  14  15
ATOM     15  C   UNL     1     -14.250  -6.104   4.732  1.00  0.00     0.041 C 
ATOM     16  O   UNL     1     -13.954  -5.524   5.810  1.00  0.00    -0.550 OA
ATOM     17  O   UNL     1     -14.834  -5.378   3.701  1.00  0.00    -0.550 OA
ENDBRANCH  14  15
ENDBRANCH  13  14
ENDBRANCH  12  13
ENDBRANCH  11  12
ENDBRANCH  10  11
ENDBRANCH   9  10
ENDBRANCH   8   9
ENDBRANCH   7   8
ENDBRANCH   6   7
ENDBRANCH   5   6
ENDBRANCH   4   5
ENDBRANCH   3   4
ENDBRANCH   2   3
ENDBRANCH   1   2
BRANCH   1  18
ATOM     18  C   UNL     1     -15.955 -20.097   2.846  1.00  0.00     0.000 C 
BRANCH  18  19
ATOM     19  C   UNL     1     -15.196 -19.595   1.603  1.00  0.00     0.000 C 
BRANCH  19  20
ATOM     20  C   UNL     1     -13.963 -20.446   1.272  1.00  0.00     0.000 C 
BRANCH  20  21
ATOM     21  C   UNL     1     -14.012 -21.797   2.000  1.00  0.00     0.000 C 
BRANCH  21  22
ATOM     22  C   UNL     1     -14.294 -22.977   1.052  1.00  0.00     0.000 C 
BRANCH  22  23
ATOM     23  C   UNL     1     -15.103 -24.136   1.674  1.00  0.00     0.000 C 
BRANCH  23  24
ATOM     24  C   UNL     1     -16.020 -23.736   2.845  1.00  0.00    -0.000 C 
BRANCH  24  25
ATOM     25  C   UNL     1     -15.796 -24.529   4.147  1.00  0.00    -0.000 C 
BRANCH  25  26
ATOM     26  C   UNL     1     -15.061 -23.727   5.243  1.00  0.00    -0.000 C 
BRANCH  26  27
ATOM     27  C   UNL     1     -13.889 -22.902   4.685  1.00  0.00    -0.000 C 
BRANCH  27  28
ATOM     28  C   UNL     1     -13.644 -21.617   5.491  1.00  0.00    -0.000 C 
BRANCH  28  29
ATOM     29  C   UNL     1     -13.047 -20.487   4.635  1.00  0.00    -0.000 C 
BRANCH  29  30
ATOM     30  C   UNL     1     -12.409 -19.381   5.500  1.00  0.00    -0.000 C 
BRANCH  30  31
ATOM     31  C   UNL     1     -11.293 -18.607   4.777  1.00  0.00    -0.003 C 
ATOM     32  C   UNL     1     -10.008 -18.505   5.596  1.00  0.00     0.004 C 
ENDBRANCH  30  31
ENDBRANCH  29  30
ENDBRANCH  28  29
ENDBRANCH  27  28
ENDBRANCH  26  27
ENDBRANCH  25  26
ENDBRANCH  24  25
ENDBRANCH  23  24
ENDBRANCH  22  23
ENDBRANCH  21  22
ENDBRANCH  20  21
ENDBRANCH  19  20
ENDBRANCH  18  19
ENDBRANCH   1  18
TORSDOF 28
ENDMDL
MODEL 5
REMARK VINA RESULT:    -1.881      2.151      3.083
REMARK INTER + INTRA:          -7.631
REMARK INTER:                  -4.320
REMARK INTRA:                  -3.312
REMARK UNBOUND:                -2.670
REMARK SMILES CCCCCCCCCCCCCCCCCCCCCCCCCCCCCC(=O)[O-]
REMARK SMILES IDX 16 1 17 2 18 3 19 4 20 5 21 6 22 7 23 8 24 9 25 10 26 11
REMARK SMILES IDX 27 12 28 13 29 14 30 15 31 16 32 17 15 18 14 19 13 20 12 21
REMARK SMILES IDX 11 22 10 23 9 24 8 25 7 26 6 27 5 28 4 29 3 30 2 31 1 32
REMARK H PARENT
REMARK Flexibility Score: inf
ROOT
ATOM      1  C   UNL     1     -14.843 -18.402   5.031  1.00  0.00     0.000 C 
ENDROOT
BRANCH   1   2
ATOM      2  C   UNL     1     -15.541 -17.041   4.871  1.00  0.00     0.000 C 
BRANCH   2   3
ATOM      3  C   UNL     1     -14.701 -15.876   5.418  1.00  0.00     0.000 C 
BRANCH   3   4
ATOM      4  C   UNL     1     -13.832 -15.261   4.312  1.00  0.00     0.000 C 
BRANCH   4   5
ATOM      5  C   UNL     1     -14.657 -14.708   3.133  1.00  0.00     0.000 C 
BRANCH   5   6
ATOM      6  C   UNL     1     -13.843 -14.371   1.870  1.00  0.00     0.000 C 
BRANCH   6   7
ATOM      7  C   UNL     1     -14.617 -13.493   0.875  1.00  0.00     0.000 C 
BRANCH   7   8
ATOM      8  C   UNL     1     -15.774 -12.757   1.568  1.00  0.00     0.000 C 
BRANCH   8   9
ATOM      9  C   UNL     1     -16.082 -11.397   0.919  1.00  0.00     0.000 C 
BRANCH   9  10
ATOM     10  C   UNL     1     -15.738 -10.212   1.834  1.00  0.00     0.000 C 
BRANCH  10  11
ATOM     11  C   UNL     1     -14.252 -10.232   2.220  1.00  0.00     0.000 C 
BRANCH  11  12
ATOM     12  C   UNL     1     -14.028 -10.313   3.741  1.00  0.00     0.000 C 
BRANCH  12  13
ATOM     13  C   UNL     1     -13.602 -11.696   4.270  1.00  0.00     0.006 C 
BRANCH  13  14
ATOM     14  C   UNL     1     -13.955 -11.939   5.751  1.00  0.00     0.053 C 
BRANCH  14  15
ATOM     15  C   UNL     1     -15.434 -11.991   5.993  1.00  0.00     0.041 C 
ATOM     16  O   UNL     1     -16.088 -10.929   6.172  1.00  0.00    -0.550 OA
ATOM     17  O   UNL     1     -16.100 -13.210   5.973  1.00  0.00    -0.550 OA
ENDBRANCH  14  15
ENDBRANCH  13  14
ENDBRANCH  12  13
ENDBRANCH  11  12
ENDBRANCH  10  11
ENDBRANCH   9  10
ENDBRANCH   8   9
ENDBRANCH   7   8
ENDBRANCH   6   7
ENDBRANCH   5   6
ENDBRANCH   4   5
ENDBRANCH   3   4
ENDBRANCH   2   3
ENDBRANCH   1   2
BRANCH   1  18
ATOM     18  C   UNL     1     -15.584 -19.596   4.392  1.00  0.00     0.000 C 
BRANCH  18  19
ATOM     19  C   UNL     1     -16.093 -19.356   2.959  1.00  0.00     0.000 C 
BRANCH  19  20
ATOM     20  C   UNL     1     -15.769 -20.517   2.008  1.00  0.00     0.000 C 
BRANCH  20  21
ATOM     21  C   UNL     1     -15.359 -21.773   2.789  1.00  0.00     0.000 C 
BRANCH  21  22
ATOM     22  C   UNL     1     -15.961 -23.064   2.203  1.00  0.00     0.000 C 
BRANCH  22  23
ATOM     23  C   UNL     1     -16.109 -24.229   3.205  1.00  0.00     0.000 C 
BRANCH  23  24
ATOM     24  C   UNL     1     -14.928 -24.406   4.178  1.00  0.00    -0.000 C 
BRANCH  24  25
ATOM     25  C   UNL     1     -13.661 -25.027   3.558  1.00  0.00    -0.000 C 
BRANCH  25  26
ATOM     26  C   UNL     1     -12.607 -23.984   3.125  1.00  0.00    -0.000 C 
BRANCH  26  27
ATOM     27  C   UNL     1     -12.233 -24.106   1.637  1.00  0.00    -0.000 C 
BRANCH  27  28
ATOM     28  C   UNL     1     -11.557 -22.835   1.100  1.00  0.00    -0.000 C 
BRANCH  28  29
ATOM     29  C   UNL     1     -12.120 -21.554   1.737  1.00  0.00    -0.000 C 
BRANCH  29  30
ATOM     30  C   UNL     1     -11.464 -20.284   1.157  1.00  0.00    -0.000 C 
BRANCH  30  31
ATOM     31  C   UNL     1     -11.475 -19.092   2.130  1.00  0.00    -0.003 C 
ATOM     32  C   UNL     1     -12.743 -18.248   2.029  1.00  0.00     0.004 C 
ENDBRANCH  30  31
ENDBRANCH  29  30
ENDBRANCH  28  29
ENDBRANCH  27  28
ENDBRANCH  26  27
ENDBRANCH  25  26
ENDBRANCH  24  25
ENDBRANCH  23  24
ENDBRANCH  22  23
ENDBRANCH  21  22
ENDBRANCH  20  21
ENDBRANCH  19  20
ENDBRANCH  18  19
ENDBRANCH   1  18
TORSDOF 28
ENDMDL
MODEL 6
REMARK VINA RESULT:    -1.795      3.316      9.334
REMARK INTER + INTRA:          -7.405
REMARK INTER:                  -5.523
REMARK INTRA:                  -1.881
REMARK UNBOUND:                -2.670
REMARK SMILES CCCCCCCCCCCCCCCCCCCCCCCCCCCCCC(=O)[O-]
REMARK SMILES IDX 16 1 17 2 18 3 19 4 20 5 21 6 22 7 23 8 24 9 25 10 26 11
REMARK SMILES IDX 27 12 28 13 29 14 30 15 31 16 32 17 15 18 14 19 13 20 12 21
REMARK SMILES IDX 11 22 10 23 9 24 8 25 7 26 6 27 5 28 4 29 3 30 2 31 1 32
REMARK H PARENT
REMARK Flexibility Score: inf
ROOT
ATOM      1  C   UNL     1     -13.702 -21.190   1.396  1.00  0.00     0.000 C 
ENDROOT
BRANCH   1   2
ATOM      2  C   UNL     1     -14.161 -22.658   1.400  1.00  0.00     0.000 C 
BRANCH   2   3
ATOM      3  C   UNL     1     -13.082 -23.618   0.875  1.00  0.00     0.000 C 
BRANCH   3   4
ATOM      4  C   UNL     1     -12.453 -24.415   2.027  1.00  0.00     0.000 C 
BRANCH   4   5
ATOM      5  C   UNL     1     -13.344 -24.468   3.283  1.00  0.00     0.000 C 
BRANCH   5   6
ATOM      6  C   UNL     1     -14.825 -24.797   3.017  1.00  0.00     0.000 C 
BRANCH   6   7
ATOM      7  C   UNL     1     -15.790 -23.830   3.719  1.00  0.00     0.000 C 
BRANCH   7   8
ATOM      8  C   UNL     1     -15.510 -23.767   5.228  1.00  0.00     0.000 C 
BRANCH   8   9
ATOM      9  C   UNL     1     -16.001 -22.455   5.866  1.00  0.00     0.000 C 
BRANCH   9  10
ATOM     10  C   UNL     1     -15.904 -21.258   4.909  1.00  0.00     0.000 C 
BRANCH  10  11
ATOM     11  C   UNL     1     -16.120 -19.936   5.661  1.00  0.00     0.000 C 
BRANCH  11  12
ATOM     12  C   UNL     1     -14.921 -18.978   5.547  1.00  0.00     0.000 C 
BRANCH  12  13
ATOM     13  C   UNL     1     -13.535 -19.652   5.574  1.00  0.00     0.006 C 
BRANCH  13  14
ATOM     14  C   UNL     1     -12.842 -19.720   4.199  1.00  0.00     0.053 C 
BRANCH  14  15
ATOM     15  C   UNL     1     -11.499 -19.052   4.193  1.00  0.00     0.041 C 
ATOM     16  O   UNL     1     -10.938 -18.760   3.104  1.00  0.00    -0.550 OA
ATOM     17  O   UNL     1     -10.888 -18.709   5.393  1.00  0.00    -0.550 OA
ENDBRANCH  14  15
ENDBRANCH  13  14
ENDBRANCH  12  13
ENDBRANCH  11  12
ENDBRANCH  10  11
ENDBRANCH   9  10
ENDBRANCH   8   9
ENDBRANCH   7   8
ENDBRANCH   6   7
ENDBRANCH   5   6
ENDBRANCH   4   5
ENDBRANCH   3   4
ENDBRANCH   2   3
ENDBRANCH   1   2
BRANCH   1  18
ATOM     18  C   UNL     1     -14.749 -20.179   0.886  1.00  0.00     0.000 C 
BRANCH  18  19
ATOM     19  C   UNL     1     -15.634 -19.549   1.978  1.00  0.00     0.000 C 
BRANCH  19  20
ATOM     20  C   UNL     1     -16.059 -18.111   1.645  1.00  0.00     0.000 C 
BRANCH  20  21
ATOM     21  C   UNL     1     -15.742 -17.158   2.807  1.00  0.00     0.000 C 
BRANCH  21  22
ATOM     22  C   UNL     1     -14.310 -16.596   2.744  1.00  0.00     0.000 C 
BRANCH  22  23
ATOM     23  C   UNL     1     -14.189 -15.084   3.033  1.00  0.00     0.000 C 
BRANCH  23  24
ATOM     24  C   UNL     1     -14.353 -14.687   4.512  1.00  0.00    -0.000 C 
BRANCH  24  25
ATOM     25  C   UNL     1     -15.404 -13.593   4.780  1.00  0.00    -0.000 C 
BRANCH  25  26
ATOM     26  C   UNL     1     -14.816 -12.305   5.397  1.00  0.00    -0.000 C 
BRANCH  26  27
ATOM     27  C   UNL     1     -13.277 -12.313   5.425  1.00  0.00    -0.000 C 
BRANCH  27  28
ATOM     28  C   UNL     1     -12.668 -11.567   4.228  1.00  0.00    -0.000 C 
BRANCH  28  29
ATOM     29  C   UNL     1     -13.725 -10.815   3.402  1.00  0.00    -0.000 C 
BRANCH  29  30
ATOM     30  C   UNL     1     -13.919  -9.366   3.892  1.00  0.00    -0.000 C 
BRANCH  30  31
ATOM     31  C   UNL     1     -13.472  -8.309   2.867  1.00  0.00    -0.003 C 
ATOM     32  C   UNL     1     -13.797  -6.881   3.299  1.00  0.00     0.004 C 
ENDBRANCH  30  31
ENDBRANCH  29  30
ENDBRANCH  28  29
ENDBRANCH  27  28
ENDBRANCH  26  27
ENDBRANCH  25  26
ENDBRANCH  24  25
ENDBRANCH  23  24
ENDBRANCH  22  23
ENDBRANCH  21  22
ENDBRANCH  20  21
ENDBRANCH  19  20
ENDBRANCH  18  19
ENDBRANCH   1  18
TORSDOF 28
ENDMDL
MODEL 7
REMARK VINA RESULT:    -1.549      2.241      8.421
REMARK INTER + INTRA:          -6.756
REMARK INTER:                  -4.551
REMARK INTRA:                  -2.204
REMARK UNBOUND:                -2.670
REMARK SMILES CCCCCCCCCCCCCCCCCCCCCCCCCCCCCC(=O)[O-]
REMARK SMILES IDX 16 1 17 2 18 3 19 4 20 5 21 6 22 7 23 8 24 9 25 10 26 11
REMARK SMILES IDX 27 12 28 13 29 14 30 15 31 16 32 17 15 18 14 19 13 20 12 21
REMARK SMILES IDX 11 22 10 23 9 24 8 25 7 26 6 27 5 28 4 29 3 30 2 31 1 32
REMARK H PARENT
REMARK Flexibility Score: inf
ROOT
ATOM      1  C   UNL     1     -13.853 -21.341   1.859  1.00  0.00     0.000 C 
ENDROOT
BRANCH   1   2
ATOM      2  C   UNL     1     -15.025 -21.889   2.690  1.00  0.00     0.000 C 
BRANCH   2   3
ATOM      3  C   UNL     1     -14.681 -23.206   3.405  1.00  0.00     0.000 C 
BRANCH   3   4
ATOM      4  C   UNL     1     -14.390 -22.960   4.892  1.00  0.00     0.000 C 
BRANCH   4   5
ATOM      5  C   UNL     1     -13.832 -21.551   5.174  1.00  0.00     0.000 C 
BRANCH   5   6
ATOM      6  C   UNL     1     -14.808 -20.594   5.883  1.00  0.00     0.000 C 
BRANCH   6   7
ATOM      7  C   UNL     1     -16.038 -20.250   5.029  1.00  0.00     0.000 C 
BRANCH   7   8
ATOM      8  C   UNL     1     -16.066 -18.756   4.675  1.00  0.00     0.000 C 
BRANCH   8   9
ATOM      9  C   UNL     1     -14.742 -18.045   5.004  1.00  0.00     0.000 C 
BRANCH   9  10
ATOM     10  C   UNL     1     -14.790 -17.292   6.342  1.00  0.00     0.000 C 
BRANCH  10  11
ATOM     11  C   UNL     1     -16.048 -16.415   6.433  1.00  0.00     0.000 C 
BRANCH  11  12
ATOM     12  C   UNL     1     -16.045 -15.256   5.421  1.00  0.00     0.000 C 
BRANCH  12  13
ATOM     13  C   UNL     1     -14.991 -14.161   5.678  1.00  0.00     0.006 C 
BRANCH  13  14
ATOM     14  C   UNL     1     -14.610 -13.349   4.425  1.00  0.00     0.053 C 
BRANCH  14  15
ATOM     15  C   UNL     1     -14.103 -11.976   4.756  1.00  0.00     0.041 C 
ATOM     16  O   UNL     1     -14.872 -11.120   5.266  1.00  0.00    -0.550 OA
ATOM     17  O   UNL     1     -12.766 -11.659   4.545  1.00  0.00    -0.550 OA
ENDBRANCH  14  15
ENDBRANCH  13  14
ENDBRANCH  12  13
ENDBRANCH  11  12
ENDBRANCH  10  11
ENDBRANCH   9  10
ENDBRANCH   8   9
ENDBRANCH   7   8
ENDBRANCH   6   7
ENDBRANCH   5   6
ENDBRANCH   4   5
ENDBRANCH   3   4
ENDBRANCH   2   3
ENDBRANCH   1   2
BRANCH   1  18
ATOM     18  C   UNL     1     -14.164 -20.062   1.055  1.00  0.00     0.000 C 
BRANCH  18  19
ATOM     19  C   UNL     1     -14.011 -18.745   1.839  1.00  0.00     0.000 C 
BRANCH  19  20
ATOM     20  C   UNL     1     -14.613 -17.539   1.104  1.00  0.00     0.000 C 
BRANCH  20  21
ATOM     21  C   UNL     1     -14.208 -16.221   1.779  1.00  0.00     0.000 C 
BRANCH  21  22
ATOM     22  C   UNL     1     -14.609 -14.981   0.958  1.00  0.00     0.000 C 
BRANCH  22  23
ATOM     23  C   UNL     1     -15.917 -14.295   1.407  1.00  0.00     0.000 C 
BRANCH  23  24
ATOM     24  C   UNL     1     -16.119 -12.864   0.875  1.00  0.00    -0.000 C 
BRANCH  24  25
ATOM     25  C   UNL     1     -14.994 -11.873   1.230  1.00  0.00    -0.000 C 
BRANCH  25  26
ATOM     26  C   UNL     1     -15.505 -10.528   1.791  1.00  0.00    -0.000 C 
BRANCH  26  27
ATOM     27  C   UNL     1     -14.372  -9.510   2.010  1.00  0.00    -0.000 C 
BRANCH  27  28
ATOM     28  C   UNL     1     -14.884  -8.182   2.589  1.00  0.00    -0.000 C 
BRANCH  28  29
ATOM     29  C   UNL     1     -14.362  -7.919   4.011  1.00  0.00    -0.000 C 
BRANCH  29  30
ATOM     30  C   UNL     1     -14.019  -6.432   4.235  1.00  0.00    -0.000 C 
BRANCH  30  31
ATOM     31  C   UNL     1     -15.185  -5.618   4.824  1.00  0.00    -0.003 C 
ATOM     32  C   UNL     1     -15.154  -5.545   6.349  1.00  0.00     0.004 C 
ENDBRANCH  30  31
ENDBRANCH  29  30
ENDBRANCH  28  29
ENDBRANCH  27  28
ENDBRANCH  26  27
ENDBRANCH  25  26
ENDBRANCH  24  25
ENDBRANCH  23  24
ENDBRANCH  22  23
ENDBRANCH  21  22
ENDBRANCH  20  21
ENDBRANCH  19  20
ENDBRANCH  18  19
ENDBRANCH   1  18
TORSDOF 28
ENDMDL
MODEL 8
REMARK VINA RESULT:    -1.271      1.806      2.315
REMARK INTER + INTRA:          -6.022
REMARK INTER:                  -4.014
REMARK INTRA:                  -2.008
REMARK UNBOUND:                -2.670
REMARK SMILES CCCCCCCCCCCCCCCCCCCCCCCCCCCCCC(=O)[O-]
REMARK SMILES IDX 16 1 17 2 18 3 19 4 20 5 21 6 22 7 23 8 24 9 25 10 26 11
REMARK SMILES IDX 27 12 28 13 29 14 30 15 31 16 32 17 15 18 14 19 13 20 12 21
REMARK SMILES IDX 11 22 10 23 9 24 8 25 7 26 6 27 5 28 4 29 3 30 2 31 1 32
REMARK H PARENT
REMARK Flexibility Score: inf
ROOT
ATOM      1  C   UNL     1     -14.549 -18.665   5.711  1.00  0.00     0.000 C 
ENDROOT
BRANCH   1   2
ATOM      2  C   UNL     1     -15.475 -17.496   5.335  1.00  0.00     0.000 C 
BRANCH   2   3
ATOM      3  C   UNL     1     -14.771 -16.133   5.413  1.00  0.00     0.000 C 
BRANCH   3   4
ATOM      4  C   UNL     1     -14.157 -15.755   4.058  1.00  0.00     0.000 C 
BRANCH   4   5
ATOM      5  C   UNL     1     -15.073 -14.851   3.211  1.00  0.00     0.000 C 
BRANCH   5   6
ATOM      6  C   UNL     1     -14.504 -14.451   1.837  1.00  0.00     0.000 C 
BRANCH   6   7
ATOM      7  C   UNL     1     -15.408 -13.470   1.076  1.00  0.00     0.000 C 
BRANCH   7   8
ATOM      8  C   UNL     1     -15.434 -12.095   1.760  1.00  0.00     0.000 C 
BRANCH   8   9
ATOM      9  C   UNL     1     -14.840 -10.984   0.877  1.00  0.00     0.000 C 
BRANCH   9  10
ATOM     10  C   UNL     1     -14.479  -9.722   1.676  1.00  0.00     0.000 C 
BRANCH  10  11
ATOM     11  C   UNL     1     -14.233 -10.060   3.153  1.00  0.00     0.000 C 
BRANCH  11  12
ATOM     12  C   UNL     1     -15.511 -10.499   3.890  1.00  0.00     0.000 C 
BRANCH  12  13
ATOM     13  C   UNL     1     -15.306 -10.952   5.349  1.00  0.00     0.006 C 
BRANCH  13  14
ATOM     14  C   UNL     1     -14.745 -12.379   5.492  1.00  0.00     0.053 C 
BRANCH  14  15
ATOM     15  C   UNL     1     -13.256 -12.436   5.320  1.00  0.00     0.041 C 
ATOM     16  O   UNL     1     -12.498 -12.417   6.326  1.00  0.00    -0.550 OA
ATOM     17  O   UNL     1     -12.707 -12.561   4.050  1.00  0.00    -0.550 OA
ENDBRANCH  14  15
ENDBRANCH  13  14
ENDBRANCH  12  13
ENDBRANCH  11  12
ENDBRANCH  10  11
ENDBRANCH   9  10
ENDBRANCH   8   9
ENDBRANCH   7   8
ENDBRANCH   6   7
ENDBRANCH   5   6
ENDBRANCH   4   5
ENDBRANCH   3   4
ENDBRANCH   2   3
ENDBRANCH   1   2
BRANCH   1  18
ATOM     18  C   UNL     1     -15.091 -20.067   5.364  1.00  0.00     0.000 C 
BRANCH  18  19
ATOM     19  C   UNL     1     -15.562 -20.242   3.908  1.00  0.00     0.000 C 
BRANCH  19  20
ATOM     20  C   UNL     1     -16.125 -21.642   3.627  1.00  0.00     0.000 C 
BRANCH  20  21
ATOM     21  C   UNL     1     -15.237 -22.730   4.247  1.00  0.00     0.000 C 
BRANCH  21  22
ATOM     22  C   UNL     1     -15.080 -23.963   3.339  1.00  0.00     0.000 C 
BRANCH  22  23
ATOM     23  C   UNL     1     -13.669 -24.590   3.326  1.00  0.00     0.000 C 
BRANCH  23  24
ATOM     24  C   UNL     1     -12.596 -23.764   2.592  1.00  0.00    -0.000 C 
BRANCH  24  25
ATOM     25  C   UNL     1     -13.080 -23.060   1.309  1.00  0.00    -0.000 C 
BRANCH  25  26
ATOM     26  C   UNL     1     -12.933 -21.524   1.351  1.00  0.00    -0.000 C 
BRANCH  26  27
ATOM     27  C   UNL     1     -11.465 -21.069   1.272  1.00  0.00    -0.000 C 
BRANCH  27  28
ATOM     28  C   UNL     1     -11.320 -19.543   1.387  1.00  0.00    -0.000 C 
BRANCH  28  29
ATOM     29  C   UNL     1     -12.423 -18.910   2.252  1.00  0.00    -0.000 C 
BRANCH  29  30
ATOM     30  C   UNL     1     -12.062 -18.924   3.751  1.00  0.00    -0.000 C 
BRANCH  30  31
ATOM     31  C   UNL     1     -10.579 -18.619   4.026  1.00  0.00    -0.003 C 
ATOM     32  C   UNL     1     -10.265 -18.464   5.512  1.00  0.00     0.004 C 
ENDBRANCH  30  31
ENDBRANCH  29  30
ENDBRANCH  28  29
ENDBRANCH  27  28
ENDBRANCH  26  27
ENDBRANCH  25  26
ENDBRANCH  24  25
ENDBRANCH  23  24
ENDBRANCH  22  23
ENDBRANCH  21  22
ENDBRANCH  20  21
ENDBRANCH  19  20
ENDBRANCH  18  19
ENDBRANCH   1  18
TORSDOF 28
ENDMDL
