MODEL 1
REMARK VINA RESULT:     3.985      0.000      0.000
REMARK INTER + INTRA:           7.150
REMARK INTER:                   5.848
REMARK INTRA:                   1.302
REMARK UNBOUND:                 1.302
REMARK SMILES C=C1C=C[C@H](C(C)C)CCC(C)=CCC1
REMARK SMILES IDX 3 1 4 2 5 3 9 4 10 5 11 6 12 7 13 8 6 10 7 11 8 12 2 13 1 14
REMARK SMILES IDX 15 15 14 16
REMARK H PARENT
REMARK Flexibility Score: 70.00
ROOT
ATOM      1  C   UNL     1       8.652   7.126  11.979  1.00  0.00    -0.001 C 
ATOM      2  C   UNL     1       7.508   6.670  11.448  1.00  0.00    -0.023 C 
ENDROOT
BRANCH   2   3
ATOM      3  C   UNL     1       6.158   6.673  12.134  1.00  0.00     0.014 C 
BRANCH   3   4
ATOM      4  C   UNL     1       5.109   7.367  11.233  1.00  0.00     0.012 C 
BRANCH   4   5
ATOM      5  C   UNL     1       4.329   8.483  11.951  1.00  0.00     0.031 C 
BRANCH   5   6
ATOM      6  C   UNL     1       4.222   8.244  13.448  1.00  0.00    -0.077 C 
ATOM      7  C   UNL     1       2.936   7.667  13.982  1.00  0.00     0.039 C 
ATOM      8  C   UNL     1       5.217   8.494  14.334  1.00  0.00    -0.028 CG0
ATOM      9  G   UNL     1       6.610   8.987  14.011  1.00  0.00     0.000 G0
ENDBRANCH   5   6
ENDBRANCH   4   5
ENDBRANCH   3   4
BRANCH   3  10
ATOM     10  C   UNL     1       5.767   5.221  12.547  1.00  0.00    -0.010 C 
ATOM     11  C   UNL     1       4.264   4.922  12.411  1.00  0.00     0.008 C 
ATOM     12  C   UNL     1       6.248   4.878  13.967  1.00  0.00     0.008 C 
ENDBRANCH   3  10
ENDBRANCH   2   3
BRANCH   1  13
ATOM     13  C   UNL     1       8.789   7.806  13.289  1.00  0.00    -0.055 C 
ATOM     14  C   UNL     1       9.957   8.391  13.566  1.00  0.00     0.012 C 
BRANCH  13  15
ATOM     15  C   UNL     1       7.665   7.903  14.308  1.00  0.00     0.039 C 
BRANCH  15  16
ATOM     16  C   UNL     1       6.611   9.003  14.031  1.00  0.00     0.032 CG0
ATOM     17  G   UNL     1       5.216   8.512  14.341  1.00  0.00     0.000 G0
ENDBRANCH  15  16
ENDBRANCH  13  15
ENDBRANCH   1  13
TORSDOF 1
ENDMDL
MODEL 2
REMARK VINA RESULT:     4.757      1.552      2.594
REMARK INTER + INTRA:           8.284
REMARK INTER:                   3.341
REMARK INTRA:                   4.943
REMARK UNBOUND:                 1.302
REMARK SMILES C=C1C=C[C@H](C(C)C)CCC(C)=CCC1
REMARK SMILES IDX 3 1 4 2 5 3 9 4 10 5 11 6 12 7 13 8 6 10 7 11 8 12 2 13 1 14
REMARK SMILES IDX 15 15 14 16
REMARK H PARENT
REMARK Flexibility Score: 70.00
ROOT
ATOM      1  C   UNL     1       8.424   7.765  13.043  1.00  0.00    -0.001 C 
ATOM      2  C   UNL     1       8.195   7.043  14.150  1.00  0.00    -0.023 C 
ENDROOT
BRANCH   2   3
ATOM      3  C   UNL     1       6.903   6.327  14.482  1.00  0.00     0.014 C 
BRANCH   3   4
ATOM      4  C   UNL     1       5.715   7.315  14.400  1.00  0.00     0.012 C 
BRANCH   4   5
ATOM      5  C   UNL     1       4.523   6.772  13.591  1.00  0.00     0.031 C 
BRANCH   5   6
ATOM      6  C   UNL     1       3.633   7.881  13.055  1.00  0.00    -0.077 C 
ATOM      7  C   UNL     1       2.379   8.214  13.823  1.00  0.00     0.039 C 
ATOM      8  C   UNL     1       3.903   8.607  11.943  1.00  0.00    -0.028 CG0
ATOM      9  G   UNL     1       5.139   8.504  11.077  1.00  0.00     0.000 G0
ENDBRANCH   5   6
ENDBRANCH   4   5
ENDBRANCH   3   4
BRANCH   3  10
ATOM     10  C   UNL     1       6.738   5.074  13.569  1.00  0.00    -0.010 C 
ATOM     11  C   UNL     1       7.889   4.882  12.566  1.00  0.00     0.008 C 
ATOM     12  C   UNL     1       5.389   5.073  12.831  1.00  0.00     0.008 C 
ENDBRANCH   3  10
ENDBRANCH   2   3
BRANCH   1  13
ATOM     13  C   UNL     1       7.493   7.913  11.898  1.00  0.00    -0.055 C 
ATOM     14  C   UNL     1       7.628   7.064  10.875  1.00  0.00     0.012 C 
BRANCH  13  15
ATOM     15  C   UNL     1       6.380   8.947  11.846  1.00  0.00     0.039 C 
BRANCH  15  16
ATOM     16  C   UNL     1       5.114   8.519  11.065  1.00  0.00     0.032 CG0
ATOM     17  G   UNL     1       3.883   8.592  11.942  1.00  0.00     0.000 G0
ENDBRANCH  15  16
ENDBRANCH  13  15
ENDBRANCH   1  13
TORSDOF 1
ENDMDL
MODEL 3
REMARK VINA RESULT:     5.300      1.562      4.459
REMARK INTER + INTRA:           9.082
REMARK INTER:                   7.333
REMARK INTRA:                   1.748
REMARK UNBOUND:                 1.302
REMARK SMILES C=C1C=C[C@H](C(C)C)CCC(C)=CCC1
REMARK SMILES IDX 3 1 4 2 5 3 9 4 10 5 11 6 12 7 13 8 6 10 7 11 8 12 2 13 1 14
REMARK SMILES IDX 15 15 14 16
REMARK H PARENT
REMARK Flexibility Score: 70.00
ROOT
ATOM      1  C   UNL     1       3.722   6.326  13.799  1.00  0.00    -0.001 C 
ATOM      2  C   UNL     1       3.663   7.666  13.799  1.00  0.00    -0.023 C 
ENDROOT
BRANCH   2   3
ATOM      3  C   UNL     1       4.660   8.590  13.133  1.00  0.00     0.014 C 
BRANCH   3   4
ATOM      4  C   UNL     1       6.017   8.527  13.875  1.00  0.00     0.012 C 
BRANCH   4   5
ATOM      5  C   UNL     1       7.230   8.714  12.946  1.00  0.00     0.031 C 
BRANCH   5   6
ATOM      6  C   UNL     1       8.371   7.770  13.286  1.00  0.00    -0.077 C 
ATOM      7  C   UNL     1       9.596   8.350  13.947  1.00  0.00     0.039 C 
ATOM      8  C   UNL     1       8.352   6.434  13.055  1.00  0.00    -0.028 CG0
ATOM      9  G   UNL     1       7.201   5.634  12.488  1.00  0.00     0.000 G0
ENDBRANCH   5   6
ENDBRANCH   4   5
ENDBRANCH   3   4
BRANCH   3  10
ATOM     10  C   UNL     1       4.762   8.258  11.613  1.00  0.00    -0.010 C 
ATOM     11  C   UNL     1       5.924   8.970  10.899  1.00  0.00     0.008 C 
ATOM     12  C   UNL     1       3.441   8.532  10.875  1.00  0.00     0.008 C 
ENDBRANCH   3  10
ENDBRANCH   2   3
BRANCH   1  13
ATOM     13  C   UNL     1       4.714   5.503  13.067  1.00  0.00    -0.055 C 
ATOM     14  C   UNL     1       4.326   4.938  11.920  1.00  0.00     0.012 C 
BRANCH  13  15
ATOM     15  C   UNL     1       6.148   5.302  13.531  1.00  0.00     0.039 C 
BRANCH  15  16
ATOM     16  C   UNL     1       7.237   5.630  12.480  1.00  0.00     0.032 CG0
ATOM     17  G   UNL     1       8.346   6.461  13.086  1.00  0.00     0.000 G0
ENDBRANCH  15  16
ENDBRANCH  13  15
ENDBRANCH   1  13
TORSDOF 1
ENDMDL
MODEL 4
REMARK VINA RESULT:     6.185      1.580      4.109
REMARK INTER + INTRA:          10.380
REMARK INTER:                   7.707
REMARK INTRA:                   2.673
REMARK UNBOUND:                 1.302
REMARK SMILES C=C1C=C[C@H](C(C)C)CCC(C)=CCC1
REMARK SMILES IDX 3 1 4 2 5 3 9 4 10 5 11 6 12 7 13 8 6 10 7 11 8 12 2 13 1 14
REMARK SMILES IDX 15 15 14 16
REMARK H PARENT
REMARK Flexibility Score: 70.00
ROOT
ATOM      1  C   UNL     1       4.771   6.466  11.356  1.00  0.00    -0.001 C 
ATOM      2  C   UNL     1       4.397   5.956  12.538  1.00  0.00    -0.023 C 
ENDROOT
BRANCH   2   3
ATOM      3  C   UNL     1       4.811   6.486  13.895  1.00  0.00     0.014 C 
BRANCH   3   4
ATOM      4  C   UNL     1       6.348   6.389  14.053  1.00  0.00     0.012 C 
BRANCH   4   5
ATOM      5  C   UNL     1       6.992   7.687  14.573  1.00  0.00     0.031 C 
BRANCH   5   6
ATOM      6  C   UNL     1       8.366   7.934  13.972  1.00  0.00    -0.077 C 
ATOM      7  C   UNL     1       9.389   8.647  14.818  1.00  0.00     0.039 C 
ATOM      8  C   UNL     1       8.739   7.534  12.732  1.00  0.00    -0.028 CG0
ATOM      9  G   UNL     1       7.909   6.733  11.755  1.00  0.00     0.000 G0
ENDBRANCH   5   6
ENDBRANCH   4   5
ENDBRANCH   3   4
BRANCH   3  10
ATOM     10  C   UNL     1       4.251   7.926  14.099  1.00  0.00    -0.010 C 
ATOM     11  C   UNL     1       4.021   8.298  15.574  1.00  0.00     0.008 C 
ATOM     12  C   UNL     1       2.966   8.163  13.289  1.00  0.00     0.008 C 
ENDBRANCH   3  10
ENDBRANCH   2   3
BRANCH   1  13
ATOM     13  C   UNL     1       5.574   7.697  11.158  1.00  0.00    -0.055 C 
ATOM     14  C   UNL     1       4.948   8.872  11.270  1.00  0.00     0.012 C 
BRANCH  13  15
ATOM     15  C   UNL     1       7.068   7.690  10.875  1.00  0.00     0.039 C 
BRANCH  15  16
ATOM     16  C   UNL     1       7.906   6.733  11.759  1.00  0.00     0.032 CG0
ATOM     17  G   UNL     1       8.743   7.504  12.754  1.00  0.00     0.000 G0
ENDBRANCH  15  16
ENDBRANCH  13  15
ENDBRANCH   1  13
TORSDOF 1
ENDMDL
MODEL 5
REMARK VINA RESULT:     6.598      1.383      2.180
REMARK INTER + INTRA:          10.986
REMARK INTER:                   8.834
REMARK INTRA:                   2.152
REMARK UNBOUND:                 1.302
REMARK SMILES C=C1C=C[C@H](C(C)C)CCC(C)=CCC1
REMARK SMILES IDX 3 1 4 2 5 3 9 4 10 5 11 6 12 7 13 8 6 10 7 11 8 12 2 13 1 14
REMARK SMILES IDX 15 15 14 16
REMARK H PARENT
REMARK Flexibility Score: 70.00
ROOT
ATOM      1  C   UNL     1       8.499   8.920  13.118  1.00  0.00    -0.001 C 
ATOM      2  C   UNL     1       7.842   8.557  12.007  1.00  0.00    -0.023 C 
ENDROOT
BRANCH   2   3
ATOM      3  C   UNL     1       6.838   7.427  11.909  1.00  0.00     0.014 C 
BRANCH   3   4
ATOM      4  C   UNL     1       5.613   7.880  11.079  1.00  0.00     0.012 C 
BRANCH   4   5
ATOM      5  C   UNL     1       4.266   7.570  11.758  1.00  0.00     0.031 C 
BRANCH   5   6
ATOM      6  C   UNL     1       4.370   6.430  12.757  1.00  0.00    -0.077 C 
ATOM      7  C   UNL     1       3.755   5.106  12.384  1.00  0.00     0.039 C 
ATOM      8  C   UNL     1       5.000   6.519  13.954  1.00  0.00    -0.028 CG0
ATOM      9  G   UNL     1       5.756   7.714  14.489  1.00  0.00     0.000 G0
ENDBRANCH   5   6
ENDBRANCH   4   5
ENDBRANCH   3   4
BRANCH   3  10
ATOM     10  C   UNL     1       7.531   6.145  11.355  1.00  0.00    -0.010 C 
ATOM     11  C   UNL     1       7.527   4.964  12.340  1.00  0.00     0.008 C 
ATOM     12  C   UNL     1       8.964   6.428  10.875  1.00  0.00     0.008 C 
ENDBRANCH   3  10
ENDBRANCH   2   3
BRANCH   1  13
ATOM     13  C   UNL     1       8.292   8.352  14.472  1.00  0.00    -0.055 C 
ATOM     14  C   UNL     1       9.038   8.836  15.469  1.00  0.00     0.012 C 
BRANCH  13  15
ATOM     15  C   UNL     1       7.258   7.282  14.787  1.00  0.00     0.039 C 
BRANCH  15  16
ATOM     16  C   UNL     1       5.786   7.687  14.527  1.00  0.00     0.032 CG0
ATOM     17  G   UNL     1       5.001   6.537  13.938  1.00  0.00     0.000 G0
ENDBRANCH  15  16
ENDBRANCH  13  15
ENDBRANCH   1  13
TORSDOF 1
ENDMDL
MODEL 6
REMARK VINA RESULT:     6.684      0.988      3.610
REMARK INTER + INTRA:          11.113
REMARK INTER:                   6.257
REMARK INTRA:                   4.856
REMARK UNBOUND:                 1.302
REMARK SMILES C=C1C=C[C@H](C(C)C)CCC(C)=CCC1
REMARK SMILES IDX 3 1 4 2 5 3 9 4 10 5 11 6 12 7 13 8 6 10 7 11 8 12 2 13 1 14
REMARK SMILES IDX 15 15 14 16
REMARK H PARENT
REMARK Flexibility Score: 70.00
ROOT
ATOM      1  C   UNL     1       3.500   6.222  13.123  1.00  0.00    -0.001 C 
ATOM      2  C   UNL     1       4.270   5.482  12.313  1.00  0.00    -0.023 C 
ENDROOT
BRANCH   2   3
ATOM      3  C   UNL     1       5.703   5.794  11.933  1.00  0.00     0.014 C 
BRANCH   3   4
ATOM      4  C   UNL     1       5.980   7.306  12.115  1.00  0.00     0.012 C 
BRANCH   4   5
ATOM      5  C   UNL     1       7.448   7.693  11.858  1.00  0.00     0.031 C 
BRANCH   5   6
ATOM      6  C   UNL     1       8.156   8.151  13.122  1.00  0.00    -0.077 C 
ATOM      7  C   UNL     1       9.663   8.109  13.143  1.00  0.00     0.039 C 
ATOM      8  C   UNL     1       7.522   8.616  14.227  1.00  0.00    -0.028 CG0
ATOM      9  G   UNL     1       6.034   8.825  14.391  1.00  0.00     0.000 G0
ENDBRANCH   5   6
ENDBRANCH   4   5
ENDBRANCH   3   4
BRANCH   3  10
ATOM     10  C   UNL     1       6.678   4.878  12.733  1.00  0.00    -0.010 C 
ATOM     11  C   UNL     1       6.641   5.112  14.253  1.00  0.00     0.008 C 
ATOM     12  C   UNL     1       8.123   4.988  12.216  1.00  0.00     0.008 C 
ENDBRANCH   3  10
ENDBRANCH   2   3
BRANCH   1  13
ATOM     13  C   UNL     1       3.936   7.425  13.872  1.00  0.00    -0.055 C 
ATOM     14  C   UNL     1       3.096   8.462  13.925  1.00  0.00     0.012 C 
BRANCH  13  15
ATOM     15  C   UNL     1       5.264   7.523  14.607  1.00  0.00     0.039 C 
BRANCH  15  16
ATOM     16  C   UNL     1       6.039   8.848  14.400  1.00  0.00     0.032 CG0
ATOM     17  G   UNL     1       7.520   8.591  14.229  1.00  0.00     0.000 G0
ENDBRANCH  15  16
ENDBRANCH  13  15
ENDBRANCH   1  13
TORSDOF 1
ENDMDL
