MODEL 1
REMARK VINA RESULT:    -5.581      0.000      0.000
REMARK INTER + INTRA:          -5.744
REMARK INTER:                  -5.744
REMARK INTRA:                   0.000
REMARK UNBOUND:                 0.000
REMARK SMILES Oc1ccc2[nH]ccc2c1
REMARK SMILES IDX 3 1 4 2 5 3 9 4 8 5 7 6 6 7 10 8 2 9 1 11
REMARK H PARENT 6 10 1 12
REMARK Flexibility Score: inf
ROOT
ATOM      1  C   UNL     1     134.915 122.873 140.395  1.00  0.00     0.048 A 
ATOM      2  C   UNL     1     136.304 122.737 140.571  1.00  0.00     0.030 A 
ATOM      3  C   UNL     1     136.835 121.448 140.583  1.00  0.00     0.046 A 
ATOM      4  C   UNL     1     136.044 120.342 140.429  1.00  0.00     0.003 A 
ATOM      5  C   UNL     1     136.864 119.237 140.486  1.00  0.00     0.028 A 
ATOM      6  C   UNL     1     138.145 119.745 140.678  1.00  0.00     0.083 A 
ATOM      7  N   UNL     1     138.122 121.097 140.735  1.00  0.00    -0.361 N 
ATOM      8  C   UNL     1     134.665 120.441 140.253  1.00  0.00     0.056 A 
ATOM      9  C   UNL     1     134.094 121.729 140.235  1.00  0.00     0.116 A 
ATOM     10  H   UNL     1     138.940 121.732 140.872  1.00  0.00     0.166 HD
ENDROOT
BRANCH   9  11
ATOM     11  O   UNL     1     132.719 121.865 140.060  1.00  0.00    -0.508 OA
ATOM     12  H   UNL     1     132.334 122.488 139.361  1.00  0.00     0.293 HD
ENDBRANCH   9  11
TORSDOF 1
ENDMDL
MODEL 2
REMARK VINA RESULT:    -5.530      2.382      3.593
REMARK INTER + INTRA:          -5.691
REMARK INTER:                  -5.691
REMARK INTRA:                   0.000
REMARK UNBOUND:                 0.000
REMARK SMILES Oc1ccc2[nH]ccc2c1
REMARK SMILES IDX 3 1 4 2 5 3 9 4 8 5 7 6 6 7 10 8 2 9 1 11
REMARK H PARENT 6 10 1 12
REMARK Flexibility Score: inf
ROOT
ATOM      1  C   UNL     1     137.807 118.327 138.678  1.00  0.00     0.048 A 
ATOM      2  C   UNL     1     138.398 119.229 139.583  1.00  0.00     0.030 A 
ATOM      3  C   UNL     1     137.677 120.371 139.928  1.00  0.00     0.046 A 
ATOM      4  C   UNL     1     136.433 120.620 139.411  1.00  0.00     0.003 A 
ATOM      5  C   UNL     1     135.997 121.813 139.945  1.00  0.00     0.028 A 
ATOM      6  C   UNL     1     137.028 122.237 140.779  1.00  0.00     0.083 A 
ATOM      7  N   UNL     1     138.051 121.351 140.765  1.00  0.00    -0.361 N 
ATOM      8  C   UNL     1     135.820 119.749 138.514  1.00  0.00     0.056 A 
ATOM      9  C   UNL     1     136.520 118.584 138.144  1.00  0.00     0.116 A 
ATOM     10  H   UNL     1     138.947 121.421 141.297  1.00  0.00     0.166 HD
ENDROOT
BRANCH   9  11
ATOM     11  O   UNL     1     135.936 117.690 137.249  1.00  0.00    -0.508 OA
ATOM     12  H   UNL     1     135.327 116.946 137.567  1.00  0.00     0.293 HD
ENDBRANCH   9  11
TORSDOF 1
ENDMDL
MODEL 3
REMARK VINA RESULT:    -5.393      3.721      4.593
REMARK INTER + INTRA:          -5.550
REMARK INTER:                  -5.550
REMARK INTRA:                   0.000
REMARK UNBOUND:                 0.000
REMARK SMILES Oc1ccc2[nH]ccc2c1
REMARK SMILES IDX 3 1 4 2 5 3 9 4 8 5 7 6 6 7 10 8 2 9 1 11
REMARK H PARENT 6 10 1 12
REMARK Flexibility Score: inf
ROOT
ATOM      1  C   UNL     1     136.118 119.393 140.051  1.00  0.00     0.048 A 
ATOM      2  C   UNL     1     135.320 118.680 139.136  1.00  0.00     0.030 A 
ATOM      3  C   UNL     1     135.892 118.320 137.917  1.00  0.00     0.046 A 
ATOM      4  C   UNL     1     137.186 118.642 137.606  1.00  0.00     0.003 A 
ATOM      5  C   UNL     1     137.441 118.148 136.346  1.00  0.00     0.028 A 
ATOM      6  C   UNL     1     136.256 117.536 135.948  1.00  0.00     0.083 A 
ATOM      7  N   UNL     1     135.313 117.643 136.913  1.00  0.00    -0.361 N 
ATOM      8  C   UNL     1     138.002 119.346 138.488  1.00  0.00     0.056 A 
ATOM      9  C   UNL     1     137.457 119.726 139.730  1.00  0.00     0.116 A 
ATOM     10  H   UNL     1     134.336 117.275 136.878  1.00  0.00     0.166 HD
ENDROOT
BRANCH   9  11
ATOM     11  O   UNL     1     138.246 120.432 140.636  1.00  0.00    -0.508 OA
ATOM     12  H   UNL     1     137.844 120.876 141.453  1.00  0.00     0.293 HD
ENDBRANCH   9  11
TORSDOF 1
ENDMDL
MODEL 4
REMARK VINA RESULT:    -5.289      2.653      3.489
REMARK INTER + INTRA:          -5.444
REMARK INTER:                  -5.444
REMARK INTRA:                   0.000
REMARK UNBOUND:                 0.000
REMARK SMILES Oc1ccc2[nH]ccc2c1
REMARK SMILES IDX 3 1 4 2 5 3 9 4 8 5 7 6 6 7 10 8 2 9 1 11
REMARK H PARENT 6 10 1 12
REMARK Flexibility Score: inf
ROOT
ATOM      1  C   UNL     1     137.960 120.345 140.676  1.00  0.00     0.048 A 
ATOM      2  C   UNL     1     138.455 119.284 139.895  1.00  0.00     0.030 A 
ATOM      3  C   UNL     1     137.772 118.965 138.723  1.00  0.00     0.046 A 
ATOM      4  C   UNL     1     136.654 119.653 138.332  1.00  0.00     0.003 A 
ATOM      5  C   UNL     1     136.224 119.099 137.147  1.00  0.00     0.028 A 
ATOM      6  C   UNL     1     137.127 118.076 136.874  1.00  0.00     0.083 A 
ATOM      7  N   UNL     1     138.072 117.999 137.841  1.00  0.00    -0.361 N 
ATOM      8  C   UNL     1     136.138 120.707 139.081  1.00  0.00     0.056 A 
ATOM      9  C   UNL     1     136.804 121.057 140.272  1.00  0.00     0.116 A 
ATOM     10  H   UNL     1     138.868 117.324 137.887  1.00  0.00     0.166 HD
ENDROOT
BRANCH   9  11
ATOM     11  O   UNL     1     136.315 122.108 141.046  1.00  0.00    -0.508 OA
ATOM     12  H   UNL     1     136.893 122.567 141.740  1.00  0.00     0.293 HD
ENDBRANCH   9  11
TORSDOF 1
ENDMDL
MODEL 5
REMARK VINA RESULT:    -5.270      2.594      4.244
REMARK INTER + INTRA:          -5.424
REMARK INTER:                  -5.424
REMARK INTRA:                   0.000
REMARK UNBOUND:                 0.000
REMARK SMILES Oc1ccc2[nH]ccc2c1
REMARK SMILES IDX 3 1 4 2 5 3 9 4 8 5 7 6 6 7 10 8 2 9 1 11
REMARK H PARENT 6 10 1 12
REMARK Flexibility Score: inf
ROOT
ATOM      1  C   UNL     1     136.051 120.337 140.583  1.00  0.00     0.048 A 
ATOM      2  C   UNL     1     134.654 120.366 140.413  1.00  0.00     0.030 A 
ATOM      3  C   UNL     1     134.044 121.607 140.243  1.00  0.00     0.046 A 
ATOM      4  C   UNL     1     134.767 122.770 140.239  1.00  0.00     0.003 A 
ATOM      5  C   UNL     1     133.881 123.806 140.051  1.00  0.00     0.028 A 
ATOM      6  C   UNL     1     132.631 123.202 139.949  1.00  0.00     0.083 A 
ATOM      7  N   UNL     1     132.737 121.857 140.067  1.00  0.00    -0.361 N 
ATOM      8  C   UNL     1     136.151 122.777 140.404  1.00  0.00     0.056 A 
ATOM      9  C   UNL     1     136.800 121.540 140.578  1.00  0.00     0.116 A 
ATOM     10  H   UNL     1     131.959 121.162 140.028  1.00  0.00     0.166 HD
ENDROOT
BRANCH   9  11
ATOM     11  O   UNL     1     138.183 121.510 140.746  1.00  0.00    -0.508 OA
ATOM     12  H   UNL     1     138.755 122.327 140.564  1.00  0.00     0.293 HD
ENDBRANCH   9  11
TORSDOF 1
ENDMDL
MODEL 6
REMARK VINA RESULT:    -5.231      8.566      9.611
REMARK INTER + INTRA:          -5.384
REMARK INTER:                  -5.384
REMARK INTRA:                   0.000
REMARK UNBOUND:                 0.000
REMARK SMILES Oc1ccc2[nH]ccc2c1
REMARK SMILES IDX 3 1 4 2 5 3 9 4 8 5 7 6 6 7 10 8 2 9 1 11
REMARK H PARENT 6 10 1 12
REMARK Flexibility Score: inf
ROOT
ATOM      1  C   UNL     1     135.877 128.877 147.885  1.00  0.00     0.048 A 
ATOM      2  C   UNL     1     135.254 129.109 146.645  1.00  0.00     0.030 A 
ATOM      3  C   UNL     1     134.591 128.043 146.040  1.00  0.00     0.046 A 
ATOM      4  C   UNL     1     134.541 126.804 146.620  1.00  0.00     0.003 A 
ATOM      5  C   UNL     1     133.821 125.984 145.780  1.00  0.00     0.028 A 
ATOM      6  C   UNL     1     133.464 126.790 144.703  1.00  0.00     0.083 A 
ATOM      7  N   UNL     1     133.937 128.048 144.867  1.00  0.00    -0.361 N 
ATOM      8  C   UNL     1     135.147 126.540 147.847  1.00  0.00     0.056 A 
ATOM      9  C   UNL     1     135.824 127.595 148.488  1.00  0.00     0.116 A 
ATOM     10  H   UNL     1     133.816 128.854 144.214  1.00  0.00     0.166 HD
ENDROOT
BRANCH   9  11
ATOM     11  O   UNL     1     136.441 127.366 149.716  1.00  0.00    -0.508 OA
ATOM     12  H   UNL     1     137.364 127.730 149.919  1.00  0.00     0.293 HD
ENDBRANCH   9  11
TORSDOF 1
ENDMDL
MODEL 7
REMARK VINA RESULT:    -5.189      2.908      4.087
REMARK INTER + INTRA:          -5.340
REMARK INTER:                  -5.340
REMARK INTRA:                   0.000
REMARK UNBOUND:                 0.000
REMARK SMILES Oc1ccc2[nH]ccc2c1
REMARK SMILES IDX 3 1 4 2 5 3 9 4 8 5 7 6 6 7 10 8 2 9 1 11
REMARK H PARENT 6 10 1 12
REMARK Flexibility Score: inf
ROOT
ATOM      1  C   UNL     1     135.955 118.007 138.559  1.00  0.00     0.048 A 
ATOM      2  C   UNL     1     135.246 118.993 139.271  1.00  0.00     0.030 A 
ATOM      3  C   UNL     1     135.981 119.996 139.900  1.00  0.00     0.046 A 
ATOM      4  C   UNL     1     137.348 120.035 139.836  1.00  0.00     0.003 A 
ATOM      5  C   UNL     1     137.763 121.135 140.552  1.00  0.00     0.028 A 
ATOM      6  C   UNL     1     136.594 121.723 141.026  1.00  0.00     0.083 A 
ATOM      7  N   UNL     1     135.508 121.023 140.624  1.00  0.00    -0.361 N 
ATOM      8  C   UNL     1     138.080 119.075 139.140  1.00  0.00     0.056 A 
ATOM      9  C   UNL     1     137.370 118.047 138.492  1.00  0.00     0.116 A 
ATOM     10  H   UNL     1     134.508 121.239 140.837  1.00  0.00     0.166 HD
ENDROOT
BRANCH   9  11
ATOM     11  O   UNL     1     138.071 117.071 137.786  1.00  0.00    -0.508 OA
ATOM     12  H   UNL     1     138.659 117.309 136.997  1.00  0.00     0.293 HD
ENDBRANCH   9  11
TORSDOF 1
ENDMDL
MODEL 8
REMARK VINA RESULT:    -5.177      9.018     10.324
REMARK INTER + INTRA:          -5.329
REMARK INTER:                  -5.329
REMARK INTRA:                   0.000
REMARK UNBOUND:                 0.000
REMARK SMILES Oc1ccc2[nH]ccc2c1
REMARK SMILES IDX 3 1 4 2 5 3 9 4 8 5 7 6 6 7 10 8 2 9 1 11
REMARK H PARENT 6 10 1 12
REMARK Flexibility Score: inf
ROOT
ATOM      1  C   UNL     1     135.370 126.372 147.748  1.00  0.00     0.048 A 
ATOM      2  C   UNL     1     134.728 126.594 146.516  1.00  0.00     0.030 A 
ATOM      3  C   UNL     1     134.547 127.914 146.105  1.00  0.00     0.046 A 
ATOM      4  C   UNL     1     134.975 128.969 146.865  1.00  0.00     0.003 A 
ATOM      5  C   UNL     1     134.650 130.123 146.187  1.00  0.00     0.028 A 
ATOM      6  C   UNL     1     134.024 129.696 145.020  1.00  0.00     0.083 A 
ATOM      7  N   UNL     1     133.965 128.344 144.975  1.00  0.00    -0.361 N 
ATOM      8  C   UNL     1     135.614 128.784 148.089  1.00  0.00     0.056 A 
ATOM      9  C   UNL     1     135.814 127.464 148.535  1.00  0.00     0.116 A 
ATOM     10  H   UNL     1     133.549 127.760 144.215  1.00  0.00     0.166 HD
ENDROOT
BRANCH   9  11
ATOM     11  O   UNL     1     136.450 127.243 149.754  1.00  0.00    -0.508 OA
ATOM     12  H   UNL     1     137.460 127.201 149.824  1.00  0.00     0.293 HD
ENDBRANCH   9  11
TORSDOF 1
ENDMDL
MODEL 9
REMARK VINA RESULT:    -5.071      2.405      3.032
REMARK INTER + INTRA:          -5.219
REMARK INTER:                  -5.219
REMARK INTRA:                   0.000
REMARK UNBOUND:                 0.000
REMARK SMILES Oc1ccc2[nH]ccc2c1
REMARK SMILES IDX 3 1 4 2 5 3 9 4 8 5 7 6 6 7 10 8 2 9 1 11
REMARK H PARENT 6 10 1 12
REMARK Flexibility Score: inf
ROOT
ATOM      1  C   UNL     1     135.324 121.505 140.548  1.00  0.00     0.048 A 
ATOM      2  C   UNL     1     134.801 120.324 139.989  1.00  0.00     0.030 A 
ATOM      3  C   UNL     1     135.700 119.396 139.467  1.00  0.00     0.046 A 
ATOM      4  C   UNL     1     137.052 119.612 139.492  1.00  0.00     0.003 A 
ATOM      5  C   UNL     1     137.654 118.520 138.907  1.00  0.00     0.028 A 
ATOM      6  C   UNL     1     136.607 117.676 138.548  1.00  0.00     0.083 A 
ATOM      7  N   UNL     1     135.415 118.216 138.894  1.00  0.00    -0.361 N 
ATOM      8  C   UNL     1     137.603 120.769 140.038  1.00  0.00     0.056 A 
ATOM      9  C   UNL     1     136.723 121.728 140.575  1.00  0.00     0.116 A 
ATOM     10  H   UNL     1     134.470 117.798 138.742  1.00  0.00     0.166 HD
ENDROOT
BRANCH   9  11
ATOM     11  O   UNL     1     137.241 122.897 141.129  1.00  0.00    -0.508 OA
ATOM     12  H   UNL     1     137.473 122.958 142.113  1.00  0.00     0.293 HD
ENDBRANCH   9  11
TORSDOF 1
ENDMDL
