MODEL 1
REMARK VINA RESULT:    -3.450      0.000      0.000
REMARK INTER + INTRA:          -4.425
REMARK INTER:                  -4.055
REMARK INTRA:                  -0.369
REMARK UNBOUND:                -0.369
REMARK SMILES [NH3+][C@H](CO)C(=O)[O-]
REMARK SMILES IDX 3 1 2 2 1 3 5 7 6 8 7 9 4 10
REMARK H PARENT 1 4 1 5 1 6 4 11
REMARK Flexibility Score: inf
ROOT
ATOM      1  C   UNL     1       6.728  23.673  20.807  1.00  0.00     0.227 C 
ENDROOT
BRANCH   1   2
ATOM      2  C   UNL     1       7.875  24.610  21.215  1.00  0.00     0.253 C 
BRANCH   2   3
ATOM      3  N   UNL     1       9.159  24.141  20.678  1.00  0.00    -0.348 N 
ATOM      4  H   UNL     1       9.566  23.416  21.313  1.00  0.00     0.345 HD
ATOM      5  H   UNL     1       9.035  23.731  19.723  1.00  0.00     0.345 HD
ATOM      6  H   UNL     1       9.833  24.940  20.625  1.00  0.00     0.345 HD
ENDBRANCH   2   3
BRANCH   2   7
ATOM      7  C   UNL     1       7.590  26.012  20.746  1.00  0.00     0.102 C 
ATOM      8  O   UNL     1       7.327  26.923  21.575  1.00  0.00    -0.544 OA
ATOM      9  O   UNL     1       7.633  26.311  19.389  1.00  0.00    -0.544 OA
ENDBRANCH   2   7
ENDBRANCH   1   2
BRANCH   1  10
ATOM     10  O   UNL     1       5.585  24.422  20.493  1.00  0.00    -0.390 OA
ATOM     11  H   UNL     1       4.874  24.111  21.111  1.00  0.00     0.210 HD
ENDBRANCH   1  10
TORSDOF 4
ENDMDL
MODEL 2
REMARK VINA RESULT:    -3.439      2.066      2.884
REMARK INTER + INTRA:          -4.412
REMARK INTER:                  -4.003
REMARK INTRA:                  -0.409
REMARK UNBOUND:                -0.369
REMARK SMILES [NH3+][C@H](CO)C(=O)[O-]
REMARK SMILES IDX 3 1 2 2 1 3 5 7 6 8 7 9 4 10
REMARK H PARENT 1 4 1 5 1 6 4 11
REMARK Flexibility Score: inf
ROOT
ATOM      1  C   UNL     1       8.744  25.044  21.511  1.00  0.00     0.227 C 
ENDROOT
BRANCH   1   2
ATOM      2  C   UNL     1       7.301  25.476  21.210  1.00  0.00     0.253 C 
BRANCH   2   3
ATOM      3  N   UNL     1       7.247  26.878  20.774  1.00  0.00    -0.348 N 
ATOM      4  H   UNL     1       6.276  27.120  20.471  1.00  0.00     0.345 HD
ATOM      5  H   UNL     1       7.535  27.519  21.549  1.00  0.00     0.345 HD
ATOM      6  H   UNL     1       7.886  27.018  19.956  1.00  0.00     0.345 HD
ENDBRANCH   2   3
BRANCH   2   7
ATOM      7  C   UNL     1       6.698  24.577  20.165  1.00  0.00     0.102 C 
ATOM      8  O   UNL     1       6.628  24.950  18.963  1.00  0.00    -0.544 OA
ATOM      9  O   UNL     1       6.226  23.319  20.520  1.00  0.00    -0.544 OA
ENDBRANCH   2   7
ENDBRANCH   1   2
BRANCH   1  10
ATOM     10  O   UNL     1       9.165  24.092  20.572  1.00  0.00    -0.390 OA
ATOM     11  H   UNL     1       9.230  23.232  21.063  1.00  0.00     0.210 HD
ENDBRANCH   1  10
TORSDOF 4
ENDMDL
MODEL 3
REMARK VINA RESULT:    -3.326      1.906      2.748
REMARK INTER + INTRA:          -4.279
REMARK INTER:                  -4.055
REMARK INTRA:                  -0.224
REMARK UNBOUND:                -0.369
REMARK SMILES [NH3+][C@H](CO)C(=O)[O-]
REMARK SMILES IDX 3 1 2 2 1 3 5 7 6 8 7 9 4 10
REMARK H PARENT 1 4 1 5 1 6 4 11
REMARK Flexibility Score: inf
ROOT
ATOM      1  C   UNL     1       8.285  24.646  21.701  1.00  0.00     0.227 C 
ENDROOT
BRANCH   1   2
ATOM      2  C   UNL     1       7.305  23.618  21.115  1.00  0.00     0.253 C 
BRANCH   2   3
ATOM      3  N   UNL     1       6.485  23.006  22.168  1.00  0.00    -0.348 N 
ATOM      4  H   UNL     1       6.105  23.749  22.800  1.00  0.00     0.345 HD
ATOM      5  H   UNL     1       5.688  22.469  21.754  1.00  0.00     0.345 HD
ATOM      6  H   UNL     1       7.073  22.360  22.745  1.00  0.00     0.345 HD
ENDBRANCH   2   3
BRANCH   2   7
ATOM      7  C   UNL     1       6.430  24.269  20.078  1.00  0.00     0.102 C 
ATOM      8  O   UNL     1       5.216  23.948  19.974  1.00  0.00    -0.544 OA
ATOM      9  O   UNL     1       6.956  25.242  19.238  1.00  0.00    -0.544 OA
ENDBRANCH   2   7
ENDBRANCH   1   2
BRANCH   1  10
ATOM     10  O   UNL     1       9.338  24.871  20.804  1.00  0.00    -0.390 OA
ATOM     11  H   UNL     1       9.515  25.848  20.828  1.00  0.00     0.210 HD
ENDBRANCH   1  10
TORSDOF 4
ENDMDL
MODEL 4
REMARK VINA RESULT:    -3.296      1.097      2.557
REMARK INTER + INTRA:          -4.244
REMARK INTER:                  -4.037
REMARK INTRA:                  -0.206
REMARK UNBOUND:                -0.369
REMARK SMILES [NH3+][C@H](CO)C(=O)[O-]
REMARK SMILES IDX 3 1 2 2 1 3 5 7 6 8 7 9 4 10
REMARK H PARENT 1 4 1 5 1 6 4 11
REMARK Flexibility Score: inf
ROOT
ATOM      1  C   UNL     1       7.547  26.384  19.828  1.00  0.00     0.227 C 
ENDROOT
BRANCH   1   2
ATOM      2  C   UNL     1       7.977  24.915  19.960  1.00  0.00     0.253 C 
BRANCH   2   3
ATOM      3  N   UNL     1       9.175  24.786  20.800  1.00  0.00    -0.348 N 
ATOM      4  H   UNL     1       8.921  24.919  21.805  1.00  0.00     0.345 HD
ATOM      5  H   UNL     1       9.614  23.844  20.678  1.00  0.00     0.345 HD
ATOM      6  H   UNL     1       9.870  25.525  20.540  1.00  0.00     0.345 HD
ENDBRANCH   2   3
BRANCH   2   7
ATOM      7  C   UNL     1       6.849  24.094  20.525  1.00  0.00     0.102 C 
ATOM      8  O   UNL     1       7.051  23.304  21.485  1.00  0.00    -0.544 OA
ATOM      9  O   UNL     1       5.570  24.215  19.996  1.00  0.00    -0.544 OA
ENDBRANCH   2   7
ENDBRANCH   1   2
BRANCH   1  10
ATOM     10  O   UNL     1       7.022  26.841  21.045  1.00  0.00    -0.390 OA
ATOM     11  H   UNL     1       7.744  26.724  21.717  1.00  0.00     0.210 HD
ENDBRANCH   1  10
TORSDOF 4
ENDMDL
MODEL 5
REMARK VINA RESULT:    -3.218      4.425      5.624
REMARK INTER + INTRA:          -4.152
REMARK INTER:                  -4.028
REMARK INTRA:                  -0.124
REMARK UNBOUND:                -0.369
REMARK SMILES [NH3+][C@H](CO)C(=O)[O-]
REMARK SMILES IDX 3 1 2 2 1 3 5 7 6 8 7 9 4 10
REMARK H PARENT 1 4 1 5 1 6 4 11
REMARK Flexibility Score: inf
ROOT
ATOM      1  C   UNL     1       9.170  29.993  17.816  1.00  0.00     0.227 C 
ENDROOT
BRANCH   1   2
ATOM      2  C   UNL     1       7.663  29.869  18.086  1.00  0.00     0.253 C 
BRANCH   2   3
ATOM      3  N   UNL     1       6.930  29.533  16.858  1.00  0.00    -0.348 N 
ATOM      4  H   UNL     1       6.557  30.404  16.416  1.00  0.00     0.345 HD
ATOM      5  H   UNL     1       7.555  29.042  16.176  1.00  0.00     0.345 HD
ATOM      6  H   UNL     1       6.119  28.913  17.089  1.00  0.00     0.345 HD
ENDBRANCH   2   3
BRANCH   2   7
ATOM      7  C   UNL     1       7.410  28.834  19.149  1.00  0.00     0.102 C 
ATOM      8  O   UNL     1       7.661  27.619  18.931  1.00  0.00    -0.544 OA
ATOM      9  O   UNL     1       6.910  29.218  20.387  1.00  0.00    -0.544 OA
ENDBRANCH   2   7
ENDBRANCH   1   2
BRANCH   1  10
ATOM     10  O   UNL     1       9.532  29.178  16.735  1.00  0.00    -0.390 OA
ATOM     11  H   UNL     1       9.462  28.243  17.060  1.00  0.00     0.210 HD
ENDBRANCH   1  10
TORSDOF 4
ENDMDL
MODEL 6
REMARK VINA RESULT:    -3.015      8.551      9.139
REMARK INTER + INTRA:          -3.914
REMARK INTER:                  -3.519
REMARK INTRA:                  -0.395
REMARK UNBOUND:                -0.369
REMARK SMILES [NH3+][C@H](CO)C(=O)[O-]
REMARK SMILES IDX 3 1 2 2 1 3 5 7 6 8 7 9 4 10
REMARK H PARENT 1 4 1 5 1 6 4 11
REMARK Flexibility Score: inf
ROOT
ATOM      1  C   UNL     1       0.489  19.957  20.467  1.00  0.00     0.227 C 
ENDROOT
BRANCH   1   2
ATOM      2  C   UNL     1       1.868  19.419  20.879  1.00  0.00     0.253 C 
BRANCH   2   3
ATOM      3  N   UNL     1       2.010  19.390  22.341  1.00  0.00    -0.348 N 
ATOM      4  H   UNL     1       1.090  19.161  22.784  1.00  0.00     0.345 HD
ATOM      5  H   UNL     1       2.718  18.676  22.632  1.00  0.00     0.345 HD
ATOM      6  H   UNL     1       2.310  20.332  22.686  1.00  0.00     0.345 HD
ENDBRANCH   2   3
BRANCH   2   7
ATOM      7  C   UNL     1       2.082  18.044  20.304  1.00  0.00     0.102 C 
ATOM      8  O   UNL     1       2.780  17.886  19.268  1.00  0.00    -0.544 OA
ATOM      9  O   UNL     1       1.519  16.937  20.926  1.00  0.00    -0.544 OA
ENDBRANCH   2   7
ENDBRANCH   1   2
BRANCH   1  10
ATOM     10  O   UNL     1      -0.168  19.020  19.657  1.00  0.00    -0.390 OA
ATOM     11  H   UNL     1      -0.185  18.173  20.175  1.00  0.00     0.210 HD
ENDBRANCH   1  10
TORSDOF 4
ENDMDL
MODEL 7
REMARK VINA RESULT:    -3.004      7.877      9.059
REMARK INTER + INTRA:          -3.900
REMARK INTER:                  -3.707
REMARK INTRA:                  -0.193
REMARK UNBOUND:                -0.369
REMARK SMILES [NH3+][C@H](CO)C(=O)[O-]
REMARK SMILES IDX 3 1 2 2 1 3 5 7 6 8 7 9 4 10
REMARK H PARENT 1 4 1 5 1 6 4 11
REMARK Flexibility Score: inf
ROOT
ATOM      1  C   UNL     1       2.301  16.308  20.483  1.00  0.00     0.227 C 
ENDROOT
BRANCH   1   2
ATOM      2  C   UNL     1       3.115  17.367  19.724  1.00  0.00     0.253 C 
BRANCH   2   3
ATOM      3  N   UNL     1       3.006  17.178  18.271  1.00  0.00    -0.348 N 
ATOM      4  H   UNL     1       3.947  16.963  17.868  1.00  0.00     0.345 HD
ATOM      5  H   UNL     1       2.350  16.393  18.047  1.00  0.00     0.345 HD
ATOM      6  H   UNL     1       2.656  18.057  17.825  1.00  0.00     0.345 HD
ENDBRANCH   2   3
BRANCH   2   7
ATOM      7  C   UNL     1       2.656  18.748  20.109  1.00  0.00     0.102 C 
ATOM      8  O   UNL     1       3.482  19.605  20.520  1.00  0.00    -0.544 OA
ATOM      9  O   UNL     1       1.313  19.089  19.997  1.00  0.00    -0.544 OA
ENDBRANCH   2   7
ENDBRANCH   1   2
BRANCH   1  10
ATOM     10  O   UNL     1       1.156  15.967  19.750  1.00  0.00    -0.390 OA
ATOM     11  H   UNL     1       0.963  15.018  19.969  1.00  0.00     0.210 HD
ENDBRANCH   1  10
TORSDOF 4
ENDMDL
MODEL 8
REMARK VINA RESULT:    -2.940     15.640     16.166
REMARK INTER + INTRA:          -3.825
REMARK INTER:                  -3.807
REMARK INTRA:                  -0.018
REMARK UNBOUND:                -0.369
REMARK SMILES [NH3+][C@H](CO)C(=O)[O-]
REMARK SMILES IDX 3 1 2 2 1 3 5 7 6 8 7 9 4 10
REMARK H PARENT 1 4 1 5 1 6 4 11
REMARK Flexibility Score: inf
ROOT
ATOM      1  C   UNL     1      -5.150  16.465  15.416  1.00  0.00     0.227 C 
ENDROOT
BRANCH   1   2
ATOM      2  C   UNL     1      -4.636  15.275  16.240  1.00  0.00     0.253 C 
BRANCH   2   3
ATOM      3  N   UNL     1      -3.177  15.336  16.406  1.00  0.00    -0.348 N 
ATOM      4  H   UNL     1      -2.758  14.395  16.224  1.00  0.00     0.345 HD
ATOM      5  H   UNL     1      -2.758  16.032  15.747  1.00  0.00     0.345 HD
ATOM      6  H   UNL     1      -2.944  15.610  17.389  1.00  0.00     0.345 HD
ENDBRANCH   2   3
BRANCH   2   7
ATOM      7  C   UNL     1      -5.316  15.241  17.582  1.00  0.00     0.102 C 
ATOM      8  O   UNL     1      -6.197  16.092  17.874  1.00  0.00    -0.544 OA
ATOM      9  O   UNL     1      -4.984  14.256  18.504  1.00  0.00    -0.544 OA
ENDBRANCH   2   7
ENDBRANCH   1   2
BRANCH   1  10
ATOM     10  O   UNL     1      -4.076  17.123  14.801  1.00  0.00    -0.390 OA
ATOM     11  H   UNL     1      -4.117  18.065  15.111  1.00  0.00     0.210 HD
ENDBRANCH   1  10
TORSDOF 4
ENDMDL
MODEL 9
REMARK VINA RESULT:    -2.937     15.327     16.194
REMARK INTER + INTRA:          -3.822
REMARK INTER:                  -3.574
REMARK INTRA:                  -0.247
REMARK UNBOUND:                -0.369
REMARK SMILES [NH3+][C@H](CO)C(=O)[O-]
REMARK SMILES IDX 3 1 2 2 1 3 5 7 6 8 7 9 4 10
REMARK H PARENT 1 4 1 5 1 6 4 11
REMARK Flexibility Score: inf
ROOT
ATOM      1  C   UNL     1      -2.524  14.689  17.948  1.00  0.00     0.227 C 
ENDROOT
BRANCH   1   2
ATOM      2  C   UNL     1      -3.753  15.343  17.299  1.00  0.00     0.253 C 
BRANCH   2   3
ATOM      3  N   UNL     1      -3.481  15.715  15.904  1.00  0.00    -0.348 N 
ATOM      4  H   UNL     1      -2.589  15.273  15.585  1.00  0.00     0.345 HD
ATOM      5  H   UNL     1      -4.261  15.405  15.279  1.00  0.00     0.345 HD
ATOM      6  H   UNL     1      -3.373  16.754  15.830  1.00  0.00     0.345 HD
ENDBRANCH   2   3
BRANCH   2   7
ATOM      7  C   UNL     1      -4.934  14.413  17.374  1.00  0.00     0.102 C 
ATOM      8  O   UNL     1      -5.162  13.750  18.421  1.00  0.00    -0.544 OA
ATOM      9  O   UNL     1      -5.792  14.292  16.287  1.00  0.00    -0.544 OA
ENDBRANCH   2   7
ENDBRANCH   1   2
BRANCH   1  10
ATOM     10  O   UNL     1      -2.386  13.370  17.493  1.00  0.00    -0.390 OA
ATOM     11  H   UNL     1      -3.230  12.907  17.732  1.00  0.00     0.210 HD
ENDBRANCH   1  10
TORSDOF 4
ENDMDL
