MODEL 1
REMARK VINA RESULT:    -1.338      0.000      0.000
REMARK INTER + INTRA:          -1.667
REMARK INTER:                  -1.573
REMARK INTRA:                  -0.094
REMARK UNBOUND:                -0.094
REMARK SMILES O=C([O-])CCC(=O)[O-]
REMARK SMILES IDX 4 1 2 2 1 3 3 4 5 5 6 6 7 7 8 8
REMARK H PARENT
REMARK Flexibility Score: inf
ROOT
ATOM      1  C   UNL     1      30.110 -11.047  13.759  1.00  0.00     0.059 C 
ENDROOT
BRANCH   1   2
ATOM      2  C   UNL     1      30.595 -10.066  12.739  1.00  0.00     0.042 C 
ATOM      3  O   UNL     1      31.123  -8.983  13.102  1.00  0.00    -0.550 OA
ATOM      4  O   UNL     1      30.508 -10.370  11.386  1.00  0.00    -0.550 OA
ENDBRANCH   1   2
BRANCH   1   5
ATOM      5  C   UNL     1      30.972 -10.978  15.021  1.00  0.00     0.059 C 
BRANCH   5   6
ATOM      6  C   UNL     1      30.124 -10.684  16.217  1.00  0.00     0.042 C 
ATOM      7  O   UNL     1      30.610 -10.772  17.375  1.00  0.00    -0.550 OA
ATOM      8  O   UNL     1      28.809 -10.266  16.053  1.00  0.00    -0.550 OA
ENDBRANCH   5   6
ENDBRANCH   1   5
TORSDOF 3
ENDMDL
MODEL 2
REMARK VINA RESULT:    -1.331      1.890      4.507
REMARK INTER + INTRA:          -1.659
REMARK INTER:                  -1.551
REMARK INTRA:                  -0.108
REMARK UNBOUND:                -0.094
REMARK SMILES O=C([O-])CCC(=O)[O-]
REMARK SMILES IDX 4 1 2 2 1 3 3 4 5 5 6 6 7 7 8 8
REMARK H PARENT
REMARK Flexibility Score: inf
ROOT
ATOM      1  C   UNL     1      29.631 -11.104  17.703  1.00  0.00     0.059 C 
ENDROOT
BRANCH   1   2
ATOM      2  C   UNL     1      29.885  -9.909  18.568  1.00  0.00     0.042 C 
ATOM      3  O   UNL     1      28.970  -9.071  18.775  1.00  0.00    -0.550 OA
ATOM      4  O   UNL     1      31.119  -9.749  19.185  1.00  0.00    -0.550 OA
ENDBRANCH   1   2
BRANCH   1   5
ATOM      5  C   UNL     1      30.601 -11.125  16.520  1.00  0.00     0.059 C 
BRANCH   5   6
ATOM      6  C   UNL     1      29.949 -10.561  15.298  1.00  0.00     0.042 C 
ATOM      7  O   UNL     1      30.618 -10.390  14.245  1.00  0.00    -0.550 OA
ATOM      8  O   UNL     1      28.591 -10.270  15.306  1.00  0.00    -0.550 OA
ENDBRANCH   5   6
ENDBRANCH   1   5
TORSDOF 3
ENDMDL
MODEL 3
REMARK VINA RESULT:    -1.328      0.810      3.966
REMARK INTER + INTRA:          -1.655
REMARK INTER:                  -1.595
REMARK INTRA:                  -0.060
REMARK UNBOUND:                -0.094
REMARK SMILES O=C([O-])CCC(=O)[O-]
REMARK SMILES IDX 4 1 2 2 1 3 3 4 5 5 6 6 7 7 8 8
REMARK H PARENT
REMARK Flexibility Score: inf
ROOT
ATOM      1  C   UNL     1      30.583 -11.115  14.710  1.00  0.00     0.059 C 
ENDROOT
BRANCH   1   2
ATOM      2  C   UNL     1      30.087 -10.678  16.052  1.00  0.00     0.042 C 
ATOM      3  O   UNL     1      30.828 -10.775  17.065  1.00  0.00    -0.550 OA
ATOM      4  O   UNL     1      28.822 -10.118  16.176  1.00  0.00    -0.550 OA
ENDBRANCH   1   2
BRANCH   1   5
ATOM      5  C   UNL     1      29.441 -11.125  13.693  1.00  0.00     0.059 C 
BRANCH   5   6
ATOM      6  C   UNL     1      29.897 -10.556  12.388  1.00  0.00     0.042 C 
ATOM      7  O   UNL     1      31.107 -10.252  12.218  1.00  0.00    -0.550 OA
ATOM      8  O   UNL     1      28.997 -10.406  11.341  1.00  0.00    -0.550 OA
ENDBRANCH   5   6
ENDBRANCH   1   5
TORSDOF 3
ENDMDL
MODEL 4
REMARK VINA RESULT:    -1.288      3.623      6.483
REMARK INTER + INTRA:          -1.608
REMARK INTER:                  -1.486
REMARK INTRA:                  -0.122
REMARK UNBOUND:                -0.094
REMARK SMILES O=C([O-])CCC(=O)[O-]
REMARK SMILES IDX 4 1 2 2 1 3 3 4 5 5 6 6 7 7 8 8
REMARK H PARENT
REMARK Flexibility Score: inf
ROOT
ATOM      1  C   UNL     1      28.544  -9.814  19.799  1.00  0.00     0.059 C 
ENDROOT
BRANCH   1   2
ATOM      2  C   UNL     1      28.902 -10.195  21.201  1.00  0.00     0.042 C 
ATOM      3  O   UNL     1      30.110 -10.270  21.548  1.00  0.00    -0.550 OA
ATOM      4  O   UNL     1      27.902 -10.419  22.138  1.00  0.00    -0.550 OA
ENDBRANCH   1   2
BRANCH   1   5
ATOM      5  C   UNL     1      28.791 -10.985  18.846  1.00  0.00     0.059 C 
BRANCH   5   6
ATOM      6  C   UNL     1      29.853 -10.636  17.854  1.00  0.00     0.042 C 
ATOM      7  O   UNL     1      30.923 -10.092  18.235  1.00  0.00    -0.550 OA
ATOM      8  O   UNL     1      29.685 -10.957  16.512  1.00  0.00    -0.550 OA
ENDBRANCH   5   6
ENDBRANCH   1   5
TORSDOF 3
ENDMDL
MODEL 5
REMARK VINA RESULT:    -1.262      3.488      5.050
REMARK INTER + INTRA:          -1.577
REMARK INTER:                  -1.463
REMARK INTRA:                  -0.115
REMARK UNBOUND:                -0.094
REMARK SMILES O=C([O-])CCC(=O)[O-]
REMARK SMILES IDX 4 1 2 2 1 3 3 4 5 5 6 6 7 7 8 8
REMARK H PARENT
REMARK Flexibility Score: inf
ROOT
ATOM      1  C   UNL     1      28.792  -9.967  18.490  1.00  0.00     0.059 C 
ENDROOT
BRANCH   1   2
ATOM      2  C   UNL     1      29.950 -10.343  17.621  1.00  0.00     0.042 C 
ATOM      3  O   UNL     1      31.123 -10.035  17.959  1.00  0.00    -0.550 OA
ATOM      4  O   UNL     1      29.738 -11.078  16.461  1.00  0.00    -0.550 OA
ENDBRANCH   1   2
BRANCH   1   5
ATOM      5  C   UNL     1      28.431 -11.118  19.431  1.00  0.00     0.059 C 
BRANCH   5   6
ATOM      6  C   UNL     1      28.740 -10.753  20.847  1.00  0.00     0.042 C 
ATOM      7  O   UNL     1      27.979 -11.125  21.778  1.00  0.00    -0.550 OA
ATOM      8  O   UNL     1      29.896 -10.042  21.146  1.00  0.00    -0.550 OA
ENDBRANCH   5   6
ENDBRANCH   1   5
TORSDOF 3
ENDMDL
MODEL 6
REMARK VINA RESULT:    -1.228      0.873      1.632
REMARK INTER + INTRA:          -1.537
REMARK INTER:                  -1.418
REMARK INTRA:                  -0.119
REMARK UNBOUND:                -0.094
REMARK SMILES O=C([O-])CCC(=O)[O-]
REMARK SMILES IDX 4 1 2 2 1 3 3 4 5 5 6 6 7 7 8 8
REMARK H PARENT
REMARK Flexibility Score: inf
ROOT
ATOM      1  C   UNL     1      29.371 -10.527  14.017  1.00  0.00     0.059 C 
ENDROOT
BRANCH   1   2
ATOM      2  C   UNL     1      30.137 -10.143  12.791  1.00  0.00     0.042 C 
ATOM      3  O   UNL     1      29.858 -10.665  11.680  1.00  0.00    -0.550 OA
ATOM      4  O   UNL     1      31.125  -9.170  12.865  1.00  0.00    -0.550 OA
ENDBRANCH   1   2
BRANCH   1   5
ATOM      5  C   UNL     1      30.308 -11.124  15.069  1.00  0.00     0.059 C 
BRANCH   5   6
ATOM      6  C   UNL     1      30.266 -10.316  16.326  1.00  0.00     0.042 C 
ATOM      7  O   UNL     1      30.212  -9.059  16.270  1.00  0.00    -0.550 OA
ATOM      8  O   UNL     1      30.238 -10.951  17.561  1.00  0.00    -0.550 OA
ENDBRANCH   5   6
ENDBRANCH   1   5
TORSDOF 3
ENDMDL
MODEL 7
REMARK VINA RESULT:    -1.210      3.484      5.081
REMARK INTER + INTRA:          -1.517
REMARK INTER:                  -1.479
REMARK INTRA:                  -0.037
REMARK UNBOUND:                -0.094
REMARK SMILES O=C([O-])CCC(=O)[O-]
REMARK SMILES IDX 4 1 2 2 1 3 3 4 5 5 6 6 7 7 8 8
REMARK H PARENT
REMARK Flexibility Score: inf
ROOT
ATOM      1  C   UNL     1      31.115  -9.625  18.916  1.00  0.00     0.059 C 
ENDROOT
BRANCH   1   2
ATOM      2  C   UNL     1      30.805  -9.981  17.496  1.00  0.00     0.042 C 
ATOM      3  O   UNL     1      30.362 -11.124  17.211  1.00  0.00    -0.550 OA
ATOM      4  O   UNL     1      30.960  -9.032  16.494  1.00  0.00    -0.550 OA
ENDBRANCH   1   2
BRANCH   1   5
ATOM      5  C   UNL     1      29.834  -9.257  19.668  1.00  0.00     0.059 C 
BRANCH   5   6
ATOM      6  C   UNL     1      29.900  -9.739  21.081  1.00  0.00     0.042 C 
ATOM      7  O   UNL     1      30.506  -9.064  21.954  1.00  0.00    -0.550 OA
ATOM      8  O   UNL     1      29.250 -10.912  21.448  1.00  0.00    -0.550 OA
ENDBRANCH   5   6
ENDBRANCH   1   5
TORSDOF 3
ENDMDL
MODEL 8
REMARK VINA RESULT:    -1.192      2.246      2.875
REMARK INTER + INTRA:          -1.495
REMARK INTER:                  -1.374
REMARK INTRA:                  -0.121
REMARK UNBOUND:                -0.094
REMARK SMILES O=C([O-])CCC(=O)[O-]
REMARK SMILES IDX 4 1 2 2 1 3 3 4 5 5 6 6 7 7 8 8
REMARK H PARENT
REMARK Flexibility Score: inf
ROOT
ATOM      1  C   UNL     1      28.958  -9.494  16.006  1.00  0.00     0.059 C 
ENDROOT
BRANCH   1   2
ATOM      2  C   UNL     1      29.025 -10.354  14.784  1.00  0.00     0.042 C 
ATOM      3  O   UNL     1      28.080 -10.347  13.952  1.00  0.00    -0.550 OA
ATOM      4  O   UNL     1      30.153 -11.125  14.538  1.00  0.00    -0.550 OA
ENDBRANCH   1   2
BRANCH   1   5
ATOM      5  C   UNL     1      28.785 -10.355  17.258  1.00  0.00     0.059 C 
BRANCH   5   6
ATOM      6  C   UNL     1      29.962 -10.199  18.167  1.00  0.00     0.042 C 
ATOM      7  O   UNL     1      31.124 -10.116  17.691  1.00  0.00    -0.550 OA
ATOM      8  O   UNL     1      29.773 -10.095  19.540  1.00  0.00    -0.550 OA
ENDBRANCH   5   6
ENDBRANCH   1   5
TORSDOF 3
ENDMDL
MODEL 9
REMARK VINA RESULT:    -1.154      2.735      4.039
REMARK INTER + INTRA:          -1.450
REMARK INTER:                  -1.328
REMARK INTRA:                  -0.122
REMARK UNBOUND:                -0.094
REMARK SMILES O=C([O-])CCC(=O)[O-]
REMARK SMILES IDX 4 1 2 2 1 3 3 4 5 5 6 6 7 7 8 8
REMARK H PARENT
REMARK Flexibility Score: inf
ROOT
ATOM      1  C   UNL     1      28.957 -10.687  17.521  1.00  0.00     0.059 C 
ENDROOT
BRANCH   1   2
ATOM      2  C   UNL     1      30.446 -10.566  17.433  1.00  0.00     0.042 C 
ATOM      3  O   UNL     1      31.091 -10.000  18.353  1.00  0.00    -0.550 OA
ATOM      4  O   UNL     1      31.125 -11.123  16.357  1.00  0.00    -0.550 OA
ENDBRANCH   1   2
BRANCH   1   5
ATOM      5  C   UNL     1      28.283  -9.440  16.946  1.00  0.00     0.059 C 
BRANCH   5   6
ATOM      6  C   UNL     1      27.897  -9.665  15.519  1.00  0.00     0.042 C 
ATOM      7  O   UNL     1      28.714  -9.414  14.594  1.00  0.00    -0.550 OA
ATOM      8  O   UNL     1      26.652 -10.198  15.211  1.00  0.00    -0.550 OA
ENDBRANCH   5   6
ENDBRANCH   1   5
TORSDOF 3
ENDMDL
