MODEL 1
REMARK VINA RESULT:    -4.293      0.000      0.000
REMARK INTER + INTRA:          -6.775
REMARK INTER:                  -6.551
REMARK INTRA:                  -0.223
REMARK UNBOUND:                -0.223
REMARK SMILES O=C([O-])CCCCCCCCC(=O)[O-]
REMARK SMILES IDX 7 1 6 2 5 3 4 4 2 5 1 6 3 7 8 8 9 9 10 10 11 11 12 12 13 13
REMARK SMILES IDX 14 14
REMARK H PARENT
REMARK Flexibility Score: inf
ROOT
ATOM      1  C   UNL     1     -23.588  29.039   8.282  1.00  0.00     0.000 C 
ENDROOT
BRANCH   1   2
ATOM      2  C   UNL     1     -24.005  30.317   7.532  1.00  0.00     0.000 C 
BRANCH   2   3
ATOM      3  C   UNL     1     -23.507  31.599   8.231  1.00  0.00     0.006 C 
BRANCH   3   4
ATOM      4  C   UNL     1     -22.163  31.422   8.954  1.00  0.00     0.053 C 
BRANCH   4   5
ATOM      5  C   UNL     1     -20.996  31.589   8.033  1.00  0.00     0.041 C 
ATOM      6  O   UNL     1     -21.181  31.795   6.805  1.00  0.00    -0.550 OA
ATOM      7  O   UNL     1     -19.701  31.540   8.536  1.00  0.00    -0.550 OA
ENDBRANCH   4   5
ENDBRANCH   3   4
ENDBRANCH   2   3
ENDBRANCH   1   2
BRANCH   1   8
ATOM      8  C   UNL     1     -24.124  27.757   7.621  1.00  0.00     0.000 C 
BRANCH   8   9
ATOM      9  C   UNL     1     -23.990  26.477   8.470  1.00  0.00     0.000 C 
BRANCH   9  10
ATOM     10  C   UNL     1     -23.218  26.648   9.790  1.00  0.00     0.006 C 
BRANCH  10  11
ATOM     11  C   UNL     1     -23.258  25.392  10.670  1.00  0.00     0.053 C 
BRANCH  11  12
ATOM     12  C   UNL     1     -22.079  24.517  10.384  1.00  0.00     0.041 C 
ATOM     13  O   UNL     1     -21.340  24.752   9.392  1.00  0.00    -0.550 OA
ATOM     14  O   UNL     1     -21.766  23.470  11.242  1.00  0.00    -0.550 OA
ENDBRANCH  11  12
ENDBRANCH  10  11
ENDBRANCH   9  10
ENDBRANCH   8   9
ENDBRANCH   1   8
TORSDOF 9
ENDMDL
MODEL 2
REMARK VINA RESULT:    -4.012      1.584      6.758
REMARK INTER + INTRA:          -6.346
REMARK INTER:                  -5.912
REMARK INTRA:                  -0.434
REMARK UNBOUND:                -0.223
REMARK SMILES O=C([O-])CCCCCCCCC(=O)[O-]
REMARK SMILES IDX 7 1 6 2 5 3 4 4 2 5 1 6 3 7 8 8 9 9 10 10 11 11 12 12 13 13
REMARK SMILES IDX 14 14
REMARK H PARENT
REMARK Flexibility Score: inf
ROOT
ATOM      1  C   UNL     1     -22.706  25.873   8.282  1.00  0.00     0.000 C 
ENDROOT
BRANCH   1   2
ATOM      2  C   UNL     1     -22.732  24.405   8.739  1.00  0.00     0.000 C 
BRANCH   2   3
ATOM      3  C   UNL     1     -24.071  24.017   9.400  1.00  0.00     0.006 C 
BRANCH   3   4
ATOM      4  C   UNL     1     -23.907  23.352  10.776  1.00  0.00     0.053 C 
BRANCH   4   5
ATOM      5  C   UNL     1     -23.051  24.160  11.699  1.00  0.00     0.041 C 
ATOM      6  O   UNL     1     -22.033  23.647  12.232  1.00  0.00    -0.550 OA
ATOM      7  O   UNL     1     -23.367  25.490  11.954  1.00  0.00    -0.550 OA
ENDBRANCH   4   5
ENDBRANCH   3   4
ENDBRANCH   2   3
ENDBRANCH   1   2
BRANCH   1   8
ATOM      8  C   UNL     1     -24.104  26.418   7.941  1.00  0.00     0.000 C 
BRANCH   8   9
ATOM      9  C   UNL     1     -24.124  27.834   7.330  1.00  0.00     0.000 C 
BRANCH   9  10
ATOM     10  C   UNL     1     -23.694  28.963   8.284  1.00  0.00     0.006 C 
BRANCH  10  11
ATOM     11  C   UNL     1     -23.797  30.353   7.646  1.00  0.00     0.053 C 
BRANCH  11  12
ATOM     12  C   UNL     1     -22.686  31.232   8.128  1.00  0.00     0.041 C 
ATOM     13  O   UNL     1     -22.562  31.481   9.356  1.00  0.00    -0.550 OA
ATOM     14  O   UNL     1     -21.757  31.736   7.226  1.00  0.00    -0.550 OA
ENDBRANCH  11  12
ENDBRANCH  10  11
ENDBRANCH   9  10
ENDBRANCH   8   9
ENDBRANCH   1   8
TORSDOF 9
ENDMDL
MODEL 3
REMARK VINA RESULT:    -3.892      4.304      6.847
REMARK INTER + INTRA:          -6.163
REMARK INTER:                  -5.654
REMARK INTRA:                  -0.509
REMARK UNBOUND:                -0.223
REMARK SMILES O=C([O-])CCCCCCCCC(=O)[O-]
REMARK SMILES IDX 7 1 6 2 5 3 4 4 2 5 1 6 3 7 8 8 9 9 10 10 11 11 12 12 13 13
REMARK SMILES IDX 14 14
REMARK H PARENT
REMARK Flexibility Score: inf
ROOT
ATOM      1  C   UNL     1     -22.902  23.623  12.632  1.00  0.00     0.000 C 
ENDROOT
BRANCH   1   2
ATOM      2  C   UNL     1     -23.712  24.532  11.692  1.00  0.00     0.000 C 
BRANCH   2   3
ATOM      3  C   UNL     1     -22.926  25.786  11.261  1.00  0.00     0.006 C 
BRANCH   3   4
ATOM      4  C   UNL     1     -23.116  26.152   9.781  1.00  0.00     0.053 C 
BRANCH   4   5
ATOM      5  C   UNL     1     -22.762  25.023   8.866  1.00  0.00     0.041 C 
ATOM      6  O   UNL     1     -23.668  24.349   8.310  1.00  0.00    -0.550 OA
ATOM      7  O   UNL     1     -21.428  24.728   8.609  1.00  0.00    -0.550 OA
ENDBRANCH   4   5
ENDBRANCH   3   4
ENDBRANCH   2   3
ENDBRANCH   1   2
BRANCH   1   8
ATOM      8  C   UNL     1     -21.528  23.239  12.055  1.00  0.00     0.000 C 
BRANCH   8   9
ATOM      9  C   UNL     1     -20.402  23.073  13.096  1.00  0.00     0.000 C 
BRANCH   9  10
ATOM     10  C   UNL     1     -20.649  23.780  14.441  1.00  0.00     0.006 C 
BRANCH  10  11
ATOM     11  C   UNL     1     -19.357  24.024  15.230  1.00  0.00     0.053 C 
BRANCH  11  12
ATOM     12  C   UNL     1     -19.530  23.605  16.656  1.00  0.00     0.041 C 
ATOM     13  O   UNL     1     -18.524  23.342  17.366  1.00  0.00    -0.550 OA
ATOM     14  O   UNL     1     -20.801  23.554  17.216  1.00  0.00    -0.550 OA
ENDBRANCH  11  12
ENDBRANCH  10  11
ENDBRANCH   9  10
ENDBRANCH   8   9
ENDBRANCH   1   8
TORSDOF 9
ENDMDL
MODEL 4
REMARK VINA RESULT:    -3.549     12.278     14.146
REMARK INTER + INTRA:          -5.640
REMARK INTER:                  -5.098
REMARK INTRA:                  -0.542
REMARK UNBOUND:                -0.223
REMARK SMILES O=C([O-])CCCCCCCCC(=O)[O-]
REMARK SMILES IDX 7 1 6 2 5 3 4 4 2 5 1 6 3 7 8 8 9 9 10 10 11 11 12 12 13 13
REMARK SMILES IDX 14 14
REMARK H PARENT
REMARK Flexibility Score: inf
ROOT
ATOM      1  C   UNL     1     -20.170  30.694  22.306  1.00  0.00     0.000 C 
ENDROOT
BRANCH   1   2
ATOM      2  C   UNL     1     -19.383  29.646  21.500  1.00  0.00     0.000 C 
BRANCH   2   3
ATOM      3  C   UNL     1     -19.808  29.602  20.018  1.00  0.00     0.006 C 
BRANCH   3   4
ATOM      4  C   UNL     1     -20.481  28.282  19.611  1.00  0.00     0.053 C 
BRANCH   4   5
ATOM      5  C   UNL     1     -21.972  28.394  19.567  1.00  0.00     0.041 C 
ATOM      6  O   UNL     1     -22.534  29.491  19.823  1.00  0.00    -0.550 OA
ATOM      7  O   UNL     1     -22.742  27.289  19.220  1.00  0.00    -0.550 OA
ENDBRANCH   4   5
ENDBRANCH   3   4
ENDBRANCH   2   3
ENDBRANCH   1   2
BRANCH   1   8
ATOM      8  C   UNL     1     -19.275  31.516  23.250  1.00  0.00     0.000 C 
BRANCH   8   9
ATOM      9  C   UNL     1     -19.628  33.014  23.348  1.00  0.00     0.000 C 
BRANCH   9  10
ATOM     10  C   UNL     1     -21.131  33.336  23.266  1.00  0.00     0.006 C 
BRANCH  10  11
ATOM     11  C   UNL     1     -21.441  34.484  22.297  1.00  0.00     0.053 C 
BRANCH  11  12
ATOM     12  C   UNL     1     -22.149  33.965  21.085  1.00  0.00     0.041 C 
ATOM     13  O   UNL     1     -22.724  32.846  21.116  1.00  0.00    -0.550 OA
ATOM     14  O   UNL     1     -22.215  34.742  19.934  1.00  0.00    -0.550 OA
ENDBRANCH  11  12
ENDBRANCH  10  11
ENDBRANCH   9  10
ENDBRANCH   8   9
ENDBRANCH   1   8
TORSDOF 9
ENDMDL
MODEL 5
REMARK VINA RESULT:    -3.518     11.898     13.866
REMARK INTER + INTRA:          -5.592
REMARK INTER:                  -4.998
REMARK INTRA:                  -0.593
REMARK UNBOUND:                -0.223
REMARK SMILES O=C([O-])CCCCCCCCC(=O)[O-]
REMARK SMILES IDX 7 1 6 2 5 3 4 4 2 5 1 6 3 7 8 8 9 9 10 10 11 11 12 12 13 13
REMARK SMILES IDX 14 14
REMARK H PARENT
REMARK Flexibility Score: inf
ROOT
ATOM      1  C   UNL     1     -21.476  31.541  21.548  1.00  0.00     0.000 C 
ENDROOT
BRANCH   1   2
ATOM      2  C   UNL     1     -20.857  30.320  22.250  1.00  0.00     0.000 C 
BRANCH   2   3
ATOM      3  C   UNL     1     -19.644  29.753  21.485  1.00  0.00     0.006 C 
BRANCH   3   4
ATOM      4  C   UNL     1     -19.856  29.682  19.964  1.00  0.00     0.053 C 
BRANCH   4   5
ATOM      5  C   UNL     1     -20.677  28.499  19.559  1.00  0.00     0.041 C 
ATOM      6  O   UNL     1     -20.197  27.338  19.632  1.00  0.00    -0.550 OA
ATOM      7  O   UNL     1     -21.985  28.678  19.121  1.00  0.00    -0.550 OA
ENDBRANCH   4   5
ENDBRANCH   3   4
ENDBRANCH   2   3
ENDBRANCH   1   2
BRANCH   1   8
ATOM      8  C   UNL     1     -23.014  31.495  21.517  1.00  0.00     0.000 C 
BRANCH   8   9
ATOM      9  C   UNL     1     -23.669  32.252  20.343  1.00  0.00     0.000 C 
BRANCH   9  10
ATOM     10  C   UNL     1     -23.854  33.764  20.564  1.00  0.00     0.006 C 
BRANCH  10  11
ATOM     11  C   UNL     1     -22.665  34.589  20.056  1.00  0.00     0.053 C 
BRANCH  11  12
ATOM     12  C   UNL     1     -22.160  35.494  21.135  1.00  0.00     0.041 C 
ATOM     13  O   UNL     1     -21.361  35.060  22.005  1.00  0.00    -0.550 OA
ATOM     14  O   UNL     1     -22.534  36.833  21.150  1.00  0.00    -0.550 OA
ENDBRANCH  11  12
ENDBRANCH  10  11
ENDBRANCH   9  10
ENDBRANCH   8   9
ENDBRANCH   1   8
TORSDOF 9
ENDMDL
MODEL 6
REMARK VINA RESULT:    -3.498     12.413     13.370
REMARK INTER + INTRA:          -5.562
REMARK INTER:                  -5.109
REMARK INTRA:                  -0.453
REMARK UNBOUND:                -0.223
REMARK SMILES O=C([O-])CCCCCCCCC(=O)[O-]
REMARK SMILES IDX 7 1 6 2 5 3 4 4 2 5 1 6 3 7 8 8 9 9 10 10 11 11 12 12 13 13
REMARK SMILES IDX 14 14
REMARK H PARENT
REMARK Flexibility Score: inf
ROOT
ATOM      1  C   UNL     1     -19.310  31.508  23.342  1.00  0.00     0.000 C 
ENDROOT
BRANCH   1   2
ATOM      2  C   UNL     1     -19.686  32.999  23.350  1.00  0.00     0.000 C 
BRANCH   2   3
ATOM      3  C   UNL     1     -20.997  33.281  22.588  1.00  0.00     0.006 C 
BRANCH   3   4
ATOM      4  C   UNL     1     -21.460  34.744  22.684  1.00  0.00     0.053 C 
BRANCH   4   5
ATOM      5  C   UNL     1     -21.933  35.278  21.369  1.00  0.00     0.041 C 
ATOM      6  O   UNL     1     -21.815  34.586  20.324  1.00  0.00    -0.550 OA
ATOM      7  O   UNL     1     -22.527  36.533  21.302  1.00  0.00    -0.550 OA
ENDBRANCH   4   5
ENDBRANCH   3   4
ENDBRANCH   2   3
ENDBRANCH   1   2
BRANCH   1   8
ATOM      8  C   UNL     1     -20.201  30.672  22.405  1.00  0.00     0.000 C 
BRANCH   8   9
ATOM      9  C   UNL     1     -19.448  29.670  21.507  1.00  0.00     0.000 C 
BRANCH   9  10
ATOM     10  C   UNL     1     -19.879  29.668  20.029  1.00  0.00     0.006 C 
BRANCH  10  11
ATOM     11  C   UNL     1     -20.437  28.314  19.574  1.00  0.00     0.053 C 
BRANCH  11  12
ATOM     12  C   UNL     1     -21.933  28.348  19.551  1.00  0.00     0.041 C 
ATOM     13  O   UNL     1     -22.588  27.298  19.318  1.00  0.00    -0.550 OA
ATOM     14  O   UNL     1     -22.606  29.530  19.837  1.00  0.00    -0.550 OA
ENDBRANCH  11  12
ENDBRANCH  10  11
ENDBRANCH   9  10
ENDBRANCH   8   9
ENDBRANCH   1   8
TORSDOF 9
ENDMDL
MODEL 7
REMARK VINA RESULT:    -3.490     12.516     14.366
REMARK INTER + INTRA:          -5.550
REMARK INTER:                  -5.007
REMARK INTRA:                  -0.543
REMARK UNBOUND:                -0.223
REMARK SMILES O=C([O-])CCCCCCCCC(=O)[O-]
REMARK SMILES IDX 7 1 6 2 5 3 4 4 2 5 1 6 3 7 8 8 9 9 10 10 11 11 12 12 13 13
REMARK SMILES IDX 14 14
REMARK H PARENT
REMARK Flexibility Score: inf
ROOT
ATOM      1  C   UNL     1     -19.304  30.884  23.608  1.00  0.00     0.000 C 
ENDROOT
BRANCH   1   2
ATOM      2  C   UNL     1     -20.122  30.194  22.503  1.00  0.00     0.000 C 
BRANCH   2   3
ATOM      3  C   UNL     1     -19.230  29.495  21.458  1.00  0.00     0.006 C 
BRANCH   3   4
ATOM      4  C   UNL     1     -19.721  29.675  20.013  1.00  0.00     0.053 C 
BRANCH   4   5
ATOM      5  C   UNL     1     -20.612  28.558  19.571  1.00  0.00     0.041 C 
ATOM      6  O   UNL     1     -20.222  27.364  19.656  1.00  0.00    -0.550 OA
ATOM      7  O   UNL     1     -21.885  28.834  19.087  1.00  0.00    -0.550 OA
ENDBRANCH   4   5
ENDBRANCH   3   4
ENDBRANCH   2   3
ENDBRANCH   1   2
BRANCH   1   8
ATOM      8  C   UNL     1     -19.137  32.396  23.372  1.00  0.00     0.000 C 
BRANCH   8   9
ATOM      9  C   UNL     1     -20.352  33.259  23.768  1.00  0.00     0.000 C 
BRANCH   9  10
ATOM     10  C   UNL     1     -21.002  34.039  22.611  1.00  0.00     0.006 C 
BRANCH  10  11
ATOM     11  C   UNL     1     -22.162  33.277  21.958  1.00  0.00     0.053 C 
BRANCH  11  12
ATOM     12  C   UNL     1     -22.609  33.975  20.712  1.00  0.00     0.041 C 
ATOM     13  O   UNL     1     -23.664  33.617  20.128  1.00  0.00    -0.550 OA
ATOM     14  O   UNL     1     -21.885  35.057  20.224  1.00  0.00    -0.550 OA
ENDBRANCH  11  12
ENDBRANCH  10  11
ENDBRANCH   9  10
ENDBRANCH   8   9
ENDBRANCH   1   8
TORSDOF 9
ENDMDL
MODEL 8
REMARK VINA RESULT:    -3.439     12.035     13.665
REMARK INTER + INTRA:          -5.472
REMARK INTER:                  -4.945
REMARK INTRA:                  -0.527
REMARK UNBOUND:                -0.223
REMARK SMILES O=C([O-])CCCCCCCCC(=O)[O-]
REMARK SMILES IDX 7 1 6 2 5 3 4 4 2 5 1 6 3 7 8 8 9 9 10 10 11 11 12 12 13 13
REMARK SMILES IDX 14 14
REMARK H PARENT
REMARK Flexibility Score: inf
ROOT
ATOM      1  C   UNL     1     -21.914  28.858  19.303  1.00  0.00     0.000 C 
ENDROOT
BRANCH   1   2
ATOM      2  C   UNL     1     -20.377  28.890  19.249  1.00  0.00     0.000 C 
BRANCH   2   3
ATOM      3  C   UNL     1     -19.758  29.593  20.474  1.00  0.00     0.006 C 
BRANCH   3   4
ATOM      4  C   UNL     1     -19.076  28.628  21.457  1.00  0.00     0.053 C 
BRANCH   4   5
ATOM      5  C   UNL     1     -18.497  29.336  22.640  1.00  0.00     0.041 C 
ATOM      6  O   UNL     1     -17.266  29.250  22.891  1.00  0.00    -0.550 OA
ATOM      7  O   UNL     1     -19.314  30.110  23.455  1.00  0.00    -0.550 OA
ENDBRANCH   4   5
ENDBRANCH   3   4
ENDBRANCH   2   3
ENDBRANCH   1   2
BRANCH   1   8
ATOM      8  C   UNL     1     -22.489  29.718  20.442  1.00  0.00     0.000 C 
BRANCH   8   9
ATOM      9  C   UNL     1     -23.818  30.430  20.119  1.00  0.00     0.000 C 
BRANCH   9  10
ATOM     10  C   UNL     1     -23.832  31.943  20.401  1.00  0.00     0.006 C 
BRANCH  10  11
ATOM     11  C   UNL     1     -22.654  32.396  21.272  1.00  0.00     0.053 C 
BRANCH  11  12
ATOM     12  C   UNL     1     -22.307  33.822  20.978  1.00  0.00     0.041 C 
ATOM     13  O   UNL     1     -22.861  34.426  20.023  1.00  0.00    -0.550 OA
ATOM     14  O   UNL     1     -21.406  34.499  21.792  1.00  0.00    -0.550 OA
ENDBRANCH  11  12
ENDBRANCH  10  11
ENDBRANCH   9  10
ENDBRANCH   8   9
ENDBRANCH   1   8
TORSDOF 9
ENDMDL
MODEL 9
REMARK VINA RESULT:    -3.433     12.004     12.850
REMARK INTER + INTRA:          -5.463
REMARK INTER:                  -5.014
REMARK INTRA:                  -0.449
REMARK UNBOUND:                -0.223
REMARK SMILES O=C([O-])CCCCCCCCC(=O)[O-]
REMARK SMILES IDX 7 1 6 2 5 3 4 4 2 5 1 6 3 7 8 8 9 9 10 10 11 11 12 12 13 13
REMARK SMILES IDX 14 14
REMARK H PARENT
REMARK Flexibility Score: inf
ROOT
ATOM      1  C   UNL     1     -21.896  32.299  21.504  1.00  0.00     0.000 C 
ENDROOT
BRANCH   1   2
ATOM      2  C   UNL     1     -23.287  32.702  20.986  1.00  0.00     0.000 C 
BRANCH   2   3
ATOM      3  C   UNL     1     -23.293  34.103  20.342  1.00  0.00     0.006 C 
BRANCH   3   4
ATOM      4  C   UNL     1     -21.988  34.885  20.560  1.00  0.00     0.053 C 
BRANCH   4   5
ATOM      5  C   UNL     1     -22.144  35.984  21.563  1.00  0.00     0.041 C 
ATOM      6  O   UNL     1     -22.599  37.103  21.211  1.00  0.00    -0.550 OA
ATOM      7  O   UNL     1     -21.806  35.764  22.893  1.00  0.00    -0.550 OA
ENDBRANCH   4   5
ENDBRANCH   3   4
ENDBRANCH   2   3
ENDBRANCH   1   2
BRANCH   1   8
ATOM      8  C   UNL     1     -21.602  30.799  21.318  1.00  0.00     0.000 C 
BRANCH   8   9
ATOM      9  C   UNL     1     -20.169  30.363  21.685  1.00  0.00     0.000 C 
BRANCH   9  10
ATOM     10  C   UNL     1     -19.463  29.490  20.632  1.00  0.00     0.006 C 
BRANCH  10  11
ATOM     11  C   UNL     1     -20.436  28.885  19.612  1.00  0.00     0.053 C 
BRANCH  11  12
ATOM     12  C   UNL     1     -20.809  27.492  20.010  1.00  0.00     0.041 C 
ATOM     13  O   UNL     1     -20.084  26.520  19.671  1.00  0.00    -0.550 OA
ATOM     14  O   UNL     1     -21.932  27.271  20.799  1.00  0.00    -0.550 OA
ENDBRANCH  11  12
ENDBRANCH  10  11
ENDBRANCH   9  10
ENDBRANCH   8   9
ENDBRANCH   1   8
TORSDOF 9
ENDMDL
