MODEL 1
REMARK VINA RESULT:    29.089      0.000      0.000
REMARK INTER + INTRA:          44.843
REMARK INTER:                  44.394
REMARK INTRA:                   0.449
REMARK UNBOUND:                 0.449
REMARK SMILES CC1=CCC[C@@H](C)C(=O)C[C@H](C(C)C)C(=O)C1
REMARK SMILES IDX 8 1 9 2 6 3 7 4 5 5 4 6 3 7 2 8 1 9 10 11 11 12 15 13 16 14
REMARK SMILES IDX 17 15 12 17 13 18 14 19
REMARK H PARENT
REMARK Flexibility Score: 70.00
ROOT
ATOM      1  C   UNL     1      -0.579 -18.379 -16.509  1.00  0.00     0.136 C 
ATOM      2  O   UNL     1      -0.672 -19.541 -16.877  1.00  0.00    -0.299 OA
ENDROOT
BRANCH   1   3
ATOM      3  C   UNL     1       0.696 -17.615 -16.841  1.00  0.00     0.053 C 
ATOM      4  C   UNL     1       1.924 -18.145 -16.087  1.00  0.00     0.016 C 
BRANCH   3   5
ATOM      5  C   UNL     1       0.519 -16.080 -16.744  1.00  0.00     0.015 C 
BRANCH   5   6
ATOM      6  C   UNL     1       1.243 -15.397 -15.564  1.00  0.00     0.028 C 
BRANCH   6   7
ATOM      7  C   UNL     1       0.525 -14.141 -15.143  1.00  0.00    -0.028 C 
ATOM      8  C   UNL     1      -0.367 -14.070 -14.125  1.00  0.00    -0.070 CG0
ATOM      9  C   UNL     1      -1.052 -12.750 -13.875  1.00  0.00     0.039 C 
ATOM     10  G   UNL     1      -0.691 -15.254 -13.224  1.00  0.00     0.000 G0
ENDBRANCH   6   7
ENDBRANCH   5   6
ENDBRANCH   3   5
ENDBRANCH   1   3
BRANCH   1  11
ATOM     11  C   UNL     1      -1.725 -17.778 -15.723  1.00  0.00     0.087 C 
BRANCH  11  12
ATOM     12  C   UNL     1      -1.429 -17.576 -14.211  1.00  0.00     0.066 C 
BRANCH  12  13
ATOM     13  C   UNL     1      -1.759 -16.151 -13.791  1.00  0.00     0.140 C 
ATOM     14  O   UNL     1      -2.911 -15.745 -13.869  1.00  0.00    -0.299 OA
BRANCH  13  15
ATOM     15  C   UNL     1      -0.692 -15.255 -13.213  1.00  0.00     0.106 CG0
ATOM     16  G   UNL     1      -0.370 -14.074 -14.118  1.00  0.00     0.000 G0
ENDBRANCH  13  15
ENDBRANCH  12  13
BRANCH  12  17
ATOM     17  C   UNL     1      -2.102 -18.626 -13.264  1.00  0.00    -0.006 C 
ATOM     18  C   UNL     1      -3.625 -18.408 -13.202  1.00  0.00     0.008 C 
ATOM     19  C   UNL     1      -1.538 -18.583 -11.833  1.00  0.00     0.008 C 
ENDBRANCH  12  17
ENDBRANCH  11  12
ENDBRANCH   1  11
TORSDOF 1
ENDMDL
MODEL 2
REMARK VINA RESULT:    29.921      2.018      3.962
REMARK INTER + INTRA:          46.113
REMARK INTER:                  44.791
REMARK INTRA:                   1.322
REMARK UNBOUND:                 0.449
REMARK SMILES CC1=CCC[C@@H](C)C(=O)C[C@H](C(C)C)C(=O)C1
REMARK SMILES IDX 8 1 9 2 6 3 7 4 5 5 4 6 3 7 2 8 1 9 10 11 11 12 15 13 16 14
REMARK SMILES IDX 17 15 12 17 13 18 14 19
REMARK H PARENT
REMARK Flexibility Score: 70.00
ROOT
ATOM      1  C   UNL     1       0.149 -14.695 -14.613  1.00  0.00     0.136 C 
ATOM      2  O   UNL     1      -0.601 -13.745 -14.441  1.00  0.00    -0.299 OA
ENDROOT
BRANCH   1   3
ATOM      3  C   UNL     1       1.322 -14.527 -15.570  1.00  0.00     0.053 C 
ATOM      4  C   UNL     1       2.332 -13.471 -15.098  1.00  0.00     0.016 C 
BRANCH   3   5
ATOM      5  C   UNL     1       0.876 -14.349 -17.042  1.00  0.00     0.015 C 
BRANCH   5   6
ATOM      6  C   UNL     1       0.490 -15.646 -17.786  1.00  0.00     0.028 C 
BRANCH   6   7
ATOM      7  C   UNL     1       1.336 -16.805 -17.325  1.00  0.00    -0.028 C 
ATOM      8  C   UNL     1       0.853 -17.911 -16.709  1.00  0.00    -0.070 CG0
ATOM      9  C   UNL     1       1.841 -18.952 -16.247  1.00  0.00     0.039 C 
ATOM     10  G   UNL     1      -0.634 -18.150 -16.480  1.00  0.00     0.000 G0
ENDBRANCH   6   7
ENDBRANCH   5   6
ENDBRANCH   3   5
ENDBRANCH   1   3
BRANCH   1  11
ATOM     11  C   UNL     1      -0.147 -15.989 -13.884  1.00  0.00     0.087 C 
BRANCH  11  12
ATOM     12  C   UNL     1      -1.401 -16.744 -14.403  1.00  0.00     0.066 C 
BRANCH  12  13
ATOM     13  C   UNL     1      -1.000 -18.072 -15.031  1.00  0.00     0.140 C 
ATOM     14  O   UNL     1      -1.048 -19.098 -14.366  1.00  0.00    -0.299 OA
BRANCH  13  15
ATOM     15  C   UNL     1      -0.609 -18.145 -16.486  1.00  0.00     0.106 CG0
ATOM     16  G   UNL     1       0.878 -17.900 -16.702  1.00  0.00     0.000 G0
ENDBRANCH  13  15
ENDBRANCH  12  13
BRANCH  12  17
ATOM     17  C   UNL     1      -2.542 -16.929 -13.346  1.00  0.00    -0.006 C 
ATOM     18  C   UNL     1      -2.496 -18.341 -12.733  1.00  0.00     0.008 C 
ATOM     19  C   UNL     1      -3.943 -16.692 -13.937  1.00  0.00     0.008 C 
ENDBRANCH  12  17
ENDBRANCH  11  12
ENDBRANCH   1  11
TORSDOF 1
ENDMDL
MODEL 3
REMARK VINA RESULT:    30.067      9.418     11.309
REMARK INTER + INTRA:          46.336
REMARK INTER:                  31.728
REMARK INTRA:                  14.608
REMARK UNBOUND:                 0.449
REMARK SMILES CC1=CCC[C@@H](C)C(=O)C[C@H](C(C)C)C(=O)C1
REMARK SMILES IDX 8 1 9 2 6 3 7 4 5 5 4 6 3 7 2 8 1 9 10 11 11 12 15 13 16 14
REMARK SMILES IDX 17 15 12 17 13 18 14 19
REMARK H PARENT
REMARK Flexibility Score: 70.00
ROOT
ATOM      1  C   UNL     1      -2.719  -5.997 -15.018  1.00  0.00     0.136 C 
ATOM      2  O   UNL     1      -3.398  -6.837 -15.591  1.00  0.00    -0.299 OA
ENDROOT
BRANCH   1   3
ATOM      3  C   UNL     1      -3.428  -4.946 -14.175  1.00  0.00     0.053 C 
ATOM      4  C   UNL     1      -2.910  -4.889 -12.730  1.00  0.00     0.016 C 
BRANCH   3   5
ATOM      5  C   UNL     1      -4.970  -5.029 -14.282  1.00  0.00     0.015 C 
BRANCH   5   6
ATOM      6  C   UNL     1      -5.520  -6.212 -15.107  1.00  0.00     0.028 C 
BRANCH   6   7
ATOM      7  C   UNL     1      -5.255  -6.015 -16.578  1.00  0.00    -0.028 C 
ATOM      8  C   UNL     1      -4.241  -6.599 -17.260  1.00  0.00    -0.070 CG0
ATOM      9  C   UNL     1      -4.071  -6.243 -18.716  1.00  0.00     0.039 C 
ATOM     10  G   UNL     1      -3.284  -7.600 -16.628  1.00  0.00     0.000 G0
ENDBRANCH   6   7
ENDBRANCH   5   6
ENDBRANCH   3   5
ENDBRANCH   1   3
BRANCH   1  11
ATOM     11  C   UNL     1      -1.216  -6.038 -15.201  1.00  0.00     0.087 C 
BRANCH  11  12
ATOM     12  C   UNL     1      -0.718  -7.157 -16.157  1.00  0.00     0.066 C 
BRANCH  12  13
ATOM     13  C   UNL     1      -1.827  -7.572 -17.113  1.00  0.00     0.140 C 
ATOM     14  O   UNL     1      -1.552  -7.896 -18.260  1.00  0.00    -0.299 OA
BRANCH  13  15
ATOM     15  C   UNL     1      -3.257  -7.654 -16.640  1.00  0.00     0.106 CG0
ATOM     16  G   UNL     1      -4.147  -6.605 -17.292  1.00  0.00     0.000 G0
ENDBRANCH  13  15
ENDBRANCH  12  13
BRANCH  12  17
ATOM     17  C   UNL     1       0.607  -6.825 -16.922  1.00  0.00    -0.006 C 
ATOM     18  C   UNL     1       1.592  -8.008 -16.846  1.00  0.00     0.008 C 
ATOM     19  C   UNL     1       1.307  -5.565 -16.381  1.00  0.00     0.008 C 
ENDBRANCH  12  17
ENDBRANCH  11  12
ENDBRANCH   1  11
TORSDOF 1
ENDMDL
MODEL 4
REMARK VINA RESULT:    30.441      1.617      4.126
REMARK INTER + INTRA:          46.906
REMARK INTER:                  46.108
REMARK INTRA:                   0.798
REMARK UNBOUND:                 0.449
REMARK SMILES CC1=CCC[C@@H](C)C(=O)C[C@H](C(C)C)C(=O)C1
REMARK SMILES IDX 8 1 9 2 6 3 7 4 5 5 4 6 3 7 2 8 1 9 10 11 11 12 15 13 16 14
REMARK SMILES IDX 17 15 12 17 13 18 14 19
REMARK H PARENT
REMARK Flexibility Score: 70.00
ROOT
ATOM      1  C   UNL     1       0.905 -16.433 -16.507  1.00  0.00     0.136 C 
ATOM      2  O   UNL     1       0.657 -15.968 -17.610  1.00  0.00    -0.299 OA
ENDROOT
BRANCH   1   3
ATOM      3  C   UNL     1       0.746 -17.934 -16.302  1.00  0.00     0.053 C 
ATOM      4  C   UNL     1       1.535 -18.763 -17.327  1.00  0.00     0.016 C 
BRANCH   3   5
ATOM      5  C   UNL     1      -0.733 -18.367 -16.154  1.00  0.00     0.015 C 
BRANCH   5   6
ATOM      6  C   UNL     1      -1.224 -18.582 -14.707  1.00  0.00     0.028 C 
BRANCH   6   7
ATOM      7  C   UNL     1      -2.356 -17.643 -14.375  1.00  0.00    -0.028 C 
ATOM      8  C   UNL     1      -2.197 -16.410 -13.837  1.00  0.00    -0.070 CG0
ATOM      9  C   UNL     1      -3.438 -15.622 -13.498  1.00  0.00     0.039 C 
ATOM     10  G   UNL     1      -0.832 -15.788 -13.577  1.00  0.00     0.000 G0
ENDBRANCH   6   7
ENDBRANCH   5   6
ENDBRANCH   3   5
ENDBRANCH   1   3
BRANCH   1  11
ATOM     11  C   UNL     1       1.330 -15.486 -15.405  1.00  0.00     0.087 C 
BRANCH  11  12
ATOM     12  C   UNL     1       0.438 -14.222 -15.267  1.00  0.00     0.066 C 
BRANCH  12  13
ATOM     13  C   UNL     1      -0.605 -14.424 -14.177  1.00  0.00     0.140 C 
ATOM     14  O   UNL     1      -1.333 -13.496 -13.852  1.00  0.00    -0.299 OA
BRANCH  13  15
ATOM     15  C   UNL     1      -0.798 -15.779 -13.542  1.00  0.00     0.106 CG0
ATOM     16  G   UNL     1      -2.171 -16.369 -13.835  1.00  0.00     0.000 G0
ENDBRANCH  13  15
ENDBRANCH  12  13
BRANCH  12  17
ATOM     17  C   UNL     1       1.223 -12.881 -15.071  1.00  0.00    -0.006 C 
ATOM     18  C   UNL     1       0.316 -11.670 -15.357  1.00  0.00     0.008 C 
ATOM     19  C   UNL     1       2.470 -12.786 -15.968  1.00  0.00     0.008 C 
ENDBRANCH  12  17
ENDBRANCH  11  12
ENDBRANCH   1  11
TORSDOF 1
ENDMDL
MODEL 5
REMARK VINA RESULT:    30.469      1.810      4.219
REMARK INTER + INTRA:          46.949
REMARK INTER:                  45.823
REMARK INTRA:                   1.126
REMARK UNBOUND:                 0.449
REMARK SMILES CC1=CCC[C@@H](C)C(=O)C[C@H](C(C)C)C(=O)C1
REMARK SMILES IDX 8 1 9 2 6 3 7 4 5 5 4 6 3 7 2 8 1 9 10 11 11 12 15 13 16 14
REMARK SMILES IDX 17 15 12 17 13 18 14 19
REMARK H PARENT
REMARK Flexibility Score: 70.00
ROOT
ATOM      1  C   UNL     1       0.733 -16.745 -16.296  1.00  0.00     0.136 C 
ATOM      2  O   UNL     1       0.847 -16.539 -17.495  1.00  0.00    -0.299 OA
ENDROOT
BRANCH   1   3
ATOM      3  C   UNL     1      -0.015 -17.992 -15.844  1.00  0.00     0.053 C 
ATOM      4  C   UNL     1       0.141 -19.169 -16.819  1.00  0.00     0.016 C 
BRANCH   3   5
ATOM      5  C   UNL     1      -1.483 -17.702 -15.447  1.00  0.00     0.015 C 
BRANCH   5   6
ATOM      6  C   UNL     1      -1.729 -17.437 -13.946  1.00  0.00     0.028 C 
BRANCH   6   7
ATOM      7  C   UNL     1      -2.563 -16.197 -13.746  1.00  0.00    -0.028 C 
ATOM      8  C   UNL     1      -2.059 -14.960 -13.521  1.00  0.00    -0.070 CG0
ATOM      9  C   UNL     1      -3.032 -13.835 -13.271  1.00  0.00     0.039 C 
ATOM     10  G   UNL     1      -0.567 -14.660 -13.525  1.00  0.00     0.000 G0
ENDBRANCH   6   7
ENDBRANCH   5   6
ENDBRANCH   3   5
ENDBRANCH   1   3
BRANCH   1  11
ATOM     11  C   UNL     1       1.321 -15.736 -15.332  1.00  0.00     0.087 C 
BRANCH  11  12
ATOM     12  C   UNL     1       0.936 -14.262 -15.634  1.00  0.00     0.066 C 
BRANCH  12  13
ATOM     13  C   UNL     1      -0.094 -13.765 -14.629  1.00  0.00     0.140 C 
ATOM     14  O   UNL     1      -0.605 -12.663 -14.777  1.00  0.00    -0.299 OA
BRANCH  13  15
ATOM     15  C   UNL     1      -0.542 -14.647 -13.491  1.00  0.00     0.106 CG0
ATOM     16  G   UNL     1      -2.035 -14.943 -13.537  1.00  0.00     0.000 G0
ENDBRANCH  13  15
ENDBRANCH  12  13
BRANCH  12  17
ATOM     17  C   UNL     1       2.148 -13.277 -15.752  1.00  0.00    -0.006 C 
ATOM     18  C   UNL     1       1.749 -11.863 -15.288  1.00  0.00     0.008 C 
ATOM     19  C   UNL     1       2.705 -13.189 -17.183  1.00  0.00     0.008 C 
ENDBRANCH  12  17
ENDBRANCH  11  12
ENDBRANCH   1  11
TORSDOF 1
ENDMDL
MODEL 6
REMARK VINA RESULT:    30.783      1.910      4.225
REMARK INTER + INTRA:          47.429
REMARK INTER:                  47.064
REMARK INTRA:                   0.366
REMARK UNBOUND:                 0.449
REMARK SMILES CC1=CCC[C@@H](C)C(=O)C[C@H](C(C)C)C(=O)C1
REMARK SMILES IDX 8 1 9 2 6 3 7 4 5 5 4 6 3 7 2 8 1 9 10 11 11 12 15 13 16 14
REMARK SMILES IDX 17 15 12 17 13 18 14 19
REMARK H PARENT
REMARK Flexibility Score: 70.00
ROOT
ATOM      1  C   UNL     1      -3.216 -16.533 -13.494  1.00  0.00     0.136 C 
ATOM      2  O   UNL     1      -3.955 -16.415 -12.528  1.00  0.00    -0.299 OA
ENDROOT
BRANCH   1   3
ATOM      3  C   UNL     1      -2.697 -17.922 -13.843  1.00  0.00     0.053 C 
ATOM      4  C   UNL     1      -1.774 -18.504 -12.762  1.00  0.00     0.016 C 
BRANCH   3   5
ATOM      5  C   UNL     1      -2.111 -18.002 -15.274  1.00  0.00     0.015 C 
BRANCH   5   6
ATOM      6  C   UNL     1      -0.621 -18.394 -15.364  1.00  0.00     0.028 C 
BRANCH   6   7
ATOM      7  C   UNL     1       0.148 -17.409 -16.207  1.00  0.00    -0.028 C 
ATOM      8  C   UNL     1       0.545 -16.184 -15.785  1.00  0.00    -0.070 CG0
ATOM      9  C   UNL     1       1.247 -15.289 -16.776  1.00  0.00     0.039 C 
ATOM     10  G   UNL     1       0.328 -15.685 -14.363  1.00  0.00     0.000 G0
ENDBRANCH   6   7
ENDBRANCH   5   6
ENDBRANCH   3   5
ENDBRANCH   1   3
BRANCH   1  11
ATOM     11  C   UNL     1      -2.840 -15.288 -14.270  1.00  0.00     0.087 C 
BRANCH  11  12
ATOM     12  C   UNL     1      -1.824 -14.364 -13.544  1.00  0.00     0.066 C 
BRANCH  12  13
ATOM     13  C   UNL     1      -0.481 -14.386 -14.260  1.00  0.00     0.140 C 
ATOM     14  O   UNL     1      -0.024 -13.352 -14.729  1.00  0.00    -0.299 OA
BRANCH  13  15
ATOM     15  C   UNL     1       0.327 -15.657 -14.335  1.00  0.00     0.106 CG0
ATOM     16  G   UNL     1       0.520 -16.140 -15.766  1.00  0.00     0.000 G0
ENDBRANCH  13  15
ENDBRANCH  12  13
BRANCH  12  17
ATOM     17  C   UNL     1      -2.324 -12.900 -13.303  1.00  0.00    -0.006 C 
ATOM     18  C   UNL     1      -1.370 -12.145 -12.358  1.00  0.00     0.008 C 
ATOM     19  C   UNL     1      -3.745 -12.846 -12.715  1.00  0.00     0.008 C 
ENDBRANCH  12  17
ENDBRANCH  11  12
ENDBRANCH   1  11
TORSDOF 1
ENDMDL
MODEL 7
REMARK VINA RESULT:    31.120      9.475     11.514
REMARK INTER + INTRA:          47.942
REMARK INTER:                  42.882
REMARK INTRA:                   5.060
REMARK UNBOUND:                 0.449
REMARK SMILES CC1=CCC[C@@H](C)C(=O)C[C@H](C(C)C)C(=O)C1
REMARK SMILES IDX 8 1 9 2 6 3 7 4 5 5 4 6 3 7 2 8 1 9 10 11 11 12 15 13 16 14
REMARK SMILES IDX 17 15 12 17 13 18 14 19
REMARK H PARENT
REMARK Flexibility Score: 70.00
ROOT
ATOM      1  C   UNL     1      -4.076  -5.595 -14.448  1.00  0.00     0.136 C 
ATOM      2  O   UNL     1      -3.625  -4.918 -13.535  1.00  0.00    -0.299 OA
ENDROOT
BRANCH   1   3
ATOM      3  C   UNL     1      -3.252  -6.772 -14.951  1.00  0.00     0.053 C 
ATOM      4  C   UNL     1      -3.903  -8.130 -14.650  1.00  0.00     0.016 C 
BRANCH   3   5
ATOM      5  C   UNL     1      -1.764  -6.687 -14.532  1.00  0.00     0.015 C 
BRANCH   5   6
ATOM      6  C   UNL     1      -0.755  -6.489 -15.683  1.00  0.00     0.028 C 
BRANCH   6   7
ATOM      7  C   UNL     1      -1.125  -7.331 -16.877  1.00  0.00    -0.028 C 
ATOM      8  C   UNL     1      -2.199  -7.107 -17.672  1.00  0.00    -0.070 CG0
ATOM      9  C   UNL     1      -2.469  -8.085 -18.788  1.00  0.00     0.039 C 
ATOM     10  G   UNL     1      -3.126  -5.912 -17.495  1.00  0.00     0.000 G0
ENDBRANCH   6   7
ENDBRANCH   5   6
ENDBRANCH   3   5
ENDBRANCH   1   3
BRANCH   1  11
ATOM     11  C   UNL     1      -5.416  -5.208 -15.038  1.00  0.00     0.087 C 
BRANCH  11  12
ATOM     12  C   UNL     1      -5.440  -5.156 -16.591  1.00  0.00     0.066 C 
BRANCH  12  13
ATOM     13  C   UNL     1      -4.527  -6.225 -17.173  1.00  0.00     0.140 C 
ATOM     14  O   UNL     1      -4.967  -7.345 -17.397  1.00  0.00    -0.299 OA
BRANCH  13  15
ATOM     15  C   UNL     1      -3.101  -5.898 -17.541  1.00  0.00     0.106 CG0
ATOM     16  G   UNL     1      -2.231  -7.142 -17.660  1.00  0.00     0.000 G0
ENDBRANCH  13  15
ENDBRANCH  12  13
BRANCH  12  17
ATOM     17  C   UNL     1      -6.870  -5.211 -17.227  1.00  0.00    -0.006 C 
ATOM     18  C   UNL     1      -7.617  -6.483 -16.784  1.00  0.00     0.008 C 
ATOM     19  C   UNL     1      -6.838  -5.169 -18.766  1.00  0.00     0.008 C 
ENDBRANCH  12  17
ENDBRANCH  11  12
ENDBRANCH   1  11
TORSDOF 1
ENDMDL
MODEL 8
REMARK VINA RESULT:    31.300      1.463      3.850
REMARK INTER + INTRA:          48.218
REMARK INTER:                  48.132
REMARK INTRA:                   0.086
REMARK UNBOUND:                 0.449
REMARK SMILES CC1=CCC[C@@H](C)C(=O)C[C@H](C(C)C)C(=O)C1
REMARK SMILES IDX 8 1 9 2 6 3 7 4 5 5 4 6 3 7 2 8 1 9 10 11 11 12 15 13 16 14
REMARK SMILES IDX 17 15 12 17 13 18 14 19
REMARK H PARENT
REMARK Flexibility Score: 70.00
ROOT
ATOM      1  C   UNL     1      -1.516 -14.706 -13.636  1.00  0.00     0.136 C 
ATOM      2  O   UNL     1      -2.724 -14.616 -13.804  1.00  0.00    -0.299 OA
ENDROOT
BRANCH   1   3
ATOM      3  C   UNL     1      -0.698 -13.424 -13.571  1.00  0.00     0.053 C 
ATOM      4  C   UNL     1      -1.500 -12.228 -13.036  1.00  0.00     0.016 C 
BRANCH   3   5
ATOM      5  C   UNL     1       0.060 -13.127 -14.888  1.00  0.00     0.015 C 
BRANCH   5   6
ATOM      6  C   UNL     1       1.225 -14.084 -15.219  1.00  0.00     0.028 C 
BRANCH   6   7
ATOM      7  C   UNL     1       1.007 -14.763 -16.547  1.00  0.00    -0.028 C 
ATOM      8  C   UNL     1       0.870 -16.101 -16.711  1.00  0.00    -0.070 CG0
ATOM      9  C   UNL     1       0.728 -16.630 -18.117  1.00  0.00     0.039 C 
ATOM     10  G   UNL     1       0.839 -17.081 -15.546  1.00  0.00     0.000 G0
ENDBRANCH   6   7
ENDBRANCH   5   6
ENDBRANCH   3   5
ENDBRANCH   1   3
BRANCH   1  11
ATOM     11  C   UNL     1      -0.905 -16.087 -13.527  1.00  0.00     0.087 C 
BRANCH  11  12
ATOM     12  C   UNL     1      -1.554 -17.150 -14.455  1.00  0.00     0.066 C 
BRANCH  12  13
ATOM     13  C   UNL     1      -0.507 -17.762 -15.375  1.00  0.00     0.140 C 
ATOM     14  O   UNL     1      -0.780 -18.760 -16.028  1.00  0.00    -0.299 OA
BRANCH  13  15
ATOM     15  C   UNL     1       0.841 -17.108 -15.544  1.00  0.00     0.106 CG0
ATOM     16  G   UNL     1       0.866 -16.114 -16.697  1.00  0.00     0.000 G0
ENDBRANCH  13  15
ENDBRANCH  12  13
BRANCH  12  17
ATOM     17  C   UNL     1      -2.383 -18.252 -13.713  1.00  0.00    -0.006 C 
ATOM     18  C   UNL     1      -3.787 -17.729 -13.353  1.00  0.00     0.008 C 
ATOM     19  C   UNL     1      -1.696 -18.748 -12.429  1.00  0.00     0.008 C 
ENDBRANCH  12  17
ENDBRANCH  11  12
ENDBRANCH   1  11
TORSDOF 1
ENDMDL
MODEL 9
REMARK VINA RESULT:    31.905      1.632      3.909
REMARK INTER + INTRA:          49.141
REMARK INTER:                  47.638
REMARK INTRA:                   1.503
REMARK UNBOUND:                 0.449
REMARK SMILES CC1=CCC[C@@H](C)C(=O)C[C@H](C(C)C)C(=O)C1
REMARK SMILES IDX 8 1 9 2 6 3 7 4 5 5 4 6 3 7 2 8 1 9 10 11 11 12 15 13 16 14
REMARK SMILES IDX 17 15 12 17 13 18 14 19
REMARK H PARENT
REMARK Flexibility Score: 70.00
ROOT
ATOM      1  C   UNL     1      -2.062 -17.653 -13.446  1.00  0.00     0.136 C 
ATOM      2  O   UNL     1      -2.520 -18.733 -13.101  1.00  0.00    -0.299 OA
ENDROOT
BRANCH   1   3
ATOM      3  C   UNL     1      -2.923 -16.410 -13.263  1.00  0.00     0.053 C 
ATOM      4  C   UNL     1      -4.390 -16.635 -13.658  1.00  0.00     0.016 C 
BRANCH   3   5
ATOM      5  C   UNL     1      -2.293 -15.145 -13.895  1.00  0.00     0.015 C 
BRANCH   5   6
ATOM      6  C   UNL     1      -0.832 -14.853 -13.493  1.00  0.00     0.028 C 
BRANCH   6   7
ATOM      7  C   UNL     1      -0.124 -14.062 -14.563  1.00  0.00    -0.028 C 
ATOM      8  C   UNL     1       0.874 -14.544 -15.342  1.00  0.00    -0.070 CG0
ATOM      9  C   UNL     1       1.526 -13.599 -16.320  1.00  0.00     0.039 C 
ATOM     10  G   UNL     1       1.348 -15.989 -15.281  1.00  0.00     0.000 G0
ENDBRANCH   6   7
ENDBRANCH   5   6
ENDBRANCH   3   5
ENDBRANCH   1   3
BRANCH   1  11
ATOM     11  C   UNL     1      -0.677 -17.620 -14.057  1.00  0.00     0.087 C 
BRANCH  11  12
ATOM     12  C   UNL     1      -0.661 -17.665 -15.610  1.00  0.00     0.066 C 
BRANCH  12  13
ATOM     13  C   UNL     1       0.573 -16.956 -16.149  1.00  0.00     0.140 C 
ATOM     14  O   UNL     1       0.904 -17.113 -17.316  1.00  0.00    -0.299 OA
BRANCH  13  15
ATOM     15  C   UNL     1       1.354 -16.006 -15.276  1.00  0.00     0.106 CG0
ATOM     16  G   UNL     1       0.860 -14.570 -15.389  1.00  0.00     0.000 G0
ENDBRANCH  13  15
ENDBRANCH  12  13
BRANCH  12  17
ATOM     17  C   UNL     1      -0.820 -19.095 -16.228  1.00  0.00    -0.006 C 
ATOM     18  C   UNL     1       0.558 -19.730 -16.494  1.00  0.00     0.008 C 
ATOM     19  C   UNL     1      -1.623 -19.089 -17.541  1.00  0.00     0.008 C 
ENDBRANCH  12  17
ENDBRANCH  11  12
ENDBRANCH   1  11
TORSDOF 1
ENDMDL
