MODEL 1
REMARK VINA RESULT:    -5.909      0.000      0.000
REMARK INTER + INTRA:          -9.231
REMARK INTER:                  -8.154
REMARK INTRA:                  -1.077
REMARK UNBOUND:                -1.077
REMARK SMILES O=C([O-])[C@@H]1O[C@@H](Oc2cc3oc(-c4ccccc4)cc(=O)c3c(O)c2O)[C@H](O)[C@H](O)[C@H]1O
REMARK SMILES IDX 7 1 6 2 4 3 31 4 5 5 29 6 27 7 2 8 1 9 3 10 32 11 30 13
REMARK SMILES IDX 28 15 8 17 25 18 9 19 23 20 10 21 22 22 11 23 20 24 12 25
REMARK SMILES IDX 19 26 21 27 26 28 24 30 13 32 14 33 18 34 15 35 17 36 16 37
REMARK H PARENT 32 12 30 14 28 16 26 29 24 31
REMARK Flexibility Score: inf
ROOT
ATOM      1  O   UNL     1      69.250   9.964 357.014  1.00  0.00    -0.458 OA
ENDROOT
BRANCH   1   2
ATOM      2  C   UNL     1      69.698   9.331 355.807  1.00  0.00     0.339 C 
ATOM      3  C   UNL     1      67.989  10.303 354.510  1.00  0.00     0.199 C 
ATOM      4  C   UNL     1      67.267   8.952 354.292  1.00  0.00     0.180 C 
ATOM      5  O   UNL     1      69.390  10.120 354.665  1.00  0.00    -0.328 OA
ATOM      6  C   UNL     1      67.575   8.006 355.464  1.00  0.00     0.181 C 
ATOM      7  C   UNL     1      69.094   7.917 355.691  1.00  0.00     0.214 C 
BRANCH   3   8
ATOM      8  C   UNL     1      67.767  11.208 353.331  1.00  0.00     0.073 C 
ATOM      9  O   UNL     1      66.993  10.858 352.399  1.00  0.00    -0.547 OA
ATOM     10  O   UNL     1      68.427  12.429 353.254  1.00  0.00    -0.547 OA
ENDBRANCH   3   8
BRANCH   4  11
ATOM     11  O   UNL     1      65.875   9.147 354.224  1.00  0.00    -0.387 OA
ATOM     12  H   UNL     1      65.482   8.319 353.847  1.00  0.00     0.211 HD
ENDBRANCH   4  11
BRANCH   6  13
ATOM     13  O   UNL     1      67.046   6.734 355.192  1.00  0.00    -0.387 OA
ATOM     14  H   UNL     1      66.542   6.455 356.000  1.00  0.00     0.211 HD
ENDBRANCH   6  13
BRANCH   7  15
ATOM     15  O   UNL     1      69.694   7.228 354.620  1.00  0.00    -0.384 OA
ATOM     16  H   UNL     1      69.710   7.852 353.849  1.00  0.00     0.211 HD
ENDBRANCH   7  15
ENDBRANCH   1   2
BRANCH   1  17
ATOM     17  C   UNL     1      70.072  10.725 357.861  1.00  0.00     0.172 A 
ATOM     18  C   UNL     1      70.725  11.898 357.428  1.00  0.00     0.201 A 
ATOM     19  C   UNL     1      70.264  10.262 359.162  1.00  0.00     0.098 A 
ATOM     20  C   UNL     1      71.504  12.650 358.346  1.00  0.00     0.176 A 
ATOM     21  C   UNL     1      71.050  10.972 360.066  1.00  0.00     0.146 A 
ATOM     22  C   UNL     1      71.679  12.174 359.671  1.00  0.00     0.111 A 
ATOM     23  O   UNL     1      71.192  10.505 361.302  1.00  0.00    -0.456 OA
ATOM     24  C   UNL     1      72.456  12.848 360.638  1.00  0.00     0.197 A 
ATOM     25  C   UNL     1      71.918  11.113 362.236  1.00  0.00     0.138 A 
ATOM     26  C   UNL     1      72.571  12.317 361.924  1.00  0.00     0.100 A 
ATOM     27  O   UNL     1      73.053  13.925 360.368  1.00  0.00    -0.289 OA
BRANCH  18  28
ATOM     28  O   UNL     1      70.630  12.260 356.083  1.00  0.00    -0.502 OA
ATOM     29  H   UNL     1      70.828  13.185 355.726  1.00  0.00     0.293 HD
ENDBRANCH  18  28
BRANCH  20  30
ATOM     30  O   UNL     1      72.096  13.862 357.972  1.00  0.00    -0.504 OA
ATOM     31  H   UNL     1      73.076  14.077 358.091  1.00  0.00     0.293 HD
ENDBRANCH  20  30
BRANCH  25  32
ATOM     32  C   UNL     1      72.000  10.502 363.586  1.00  0.00     0.017 A 
ATOM     33  C   UNL     1      70.930   9.762 364.132  1.00  0.00     0.012 A 
ATOM     34  C   UNL     1      73.161  10.686 364.360  1.00  0.00     0.012 A 
ATOM     35  C   UNL     1      71.034   9.210 365.413  1.00  0.00     0.001 A 
ATOM     36  C   UNL     1      73.259  10.131 365.640  1.00  0.00     0.001 A 
ATOM     37  C   UNL     1      72.198   9.392 366.165  1.00  0.00     0.000 A 
ENDBRANCH  25  32
ENDBRANCH   1  17
TORSDOF 9
ENDMDL
MODEL 2
REMARK VINA RESULT:    -5.846      1.666      3.474
REMARK INTER + INTRA:          -9.144
REMARK INTER:                  -8.035
REMARK INTRA:                  -1.109
REMARK UNBOUND:                -1.077
REMARK SMILES O=C([O-])[C@@H]1O[C@@H](Oc2cc3oc(-c4ccccc4)cc(=O)c3c(O)c2O)[C@H](O)[C@H](O)[C@H]1O
REMARK SMILES IDX 7 1 6 2 4 3 31 4 5 5 29 6 27 7 2 8 1 9 3 10 32 11 30 13
REMARK SMILES IDX 28 15 8 17 25 18 9 19 23 20 10 21 22 22 11 23 20 24 12 25
REMARK SMILES IDX 19 26 21 27 26 28 24 30 13 32 14 33 18 34 15 35 17 36 16 37
REMARK H PARENT 32 12 30 14 28 16 26 29 24 31
REMARK Flexibility Score: inf
ROOT
ATOM      1  O   UNL     1      70.518  11.914 357.682  1.00  0.00    -0.458 OA
ENDROOT
BRANCH   1   2
ATOM      2  C   UNL     1      69.129  12.224 357.500  1.00  0.00     0.339 C 
ATOM      3  C   UNL     1      68.719  10.259 356.267  1.00  0.00     0.199 C 
ATOM      4  C   UNL     1      68.493  11.032 354.946  1.00  0.00     0.180 C 
ATOM      5  O   UNL     1      68.345  11.042 357.393  1.00  0.00    -0.328 OA
ATOM      6  C   UNL     1      69.271  12.356 354.981  1.00  0.00     0.181 C 
ATOM      7  C   UNL     1      68.942  13.133 356.269  1.00  0.00     0.214 C 
BRANCH   3   8
ATOM      8  C   UNL     1      67.896   9.002 356.282  1.00  0.00     0.073 C 
ATOM      9  O   UNL     1      68.302   7.970 355.684  1.00  0.00    -0.547 OA
ATOM     10  O   UNL     1      66.673   8.976 356.944  1.00  0.00    -0.547 OA
ENDBRANCH   3   8
BRANCH   4  11
ATOM     11  O   UNL     1      68.945  10.272 353.852  1.00  0.00    -0.387 OA
ATOM     12  H   UNL     1      68.804   9.317 354.081  1.00  0.00     0.211 HD
ENDBRANCH   4  11
BRANCH   6  13
ATOM     13  O   UNL     1      68.945  13.123 353.851  1.00  0.00    -0.387 OA
ATOM     14  H   UNL     1      68.987  14.075 354.130  1.00  0.00     0.211 HD
ENDBRANCH   6  13
BRANCH   7  15
ATOM     15  O   UNL     1      67.616  13.599 356.216  1.00  0.00    -0.384 OA
ATOM     16  H   UNL     1      67.609  14.379 355.603  1.00  0.00     0.211 HD
ENDBRANCH   7  15
ENDBRANCH   1   2
BRANCH   1  17
ATOM     17  C   UNL     1      71.178  11.933 358.922  1.00  0.00     0.172 A 
ATOM     18  C   UNL     1      72.243  12.814 359.199  1.00  0.00     0.201 A 
ATOM     19  C   UNL     1      70.770  11.010 359.884  1.00  0.00     0.098 A 
ATOM     20  C   UNL     1      72.837  12.818 360.488  1.00  0.00     0.176 A 
ATOM     21  C   UNL     1      71.364  10.979 361.143  1.00  0.00     0.146 A 
ATOM     22  C   UNL     1      72.404  11.882 361.462  1.00  0.00     0.111 A 
ATOM     23  O   UNL     1      70.933  10.095 362.038  1.00  0.00    -0.456 OA
ATOM     24  C   UNL     1      72.957  11.803 362.758  1.00  0.00     0.197 A 
ATOM     25  C   UNL     1      71.434   9.993 363.266  1.00  0.00     0.138 A 
ATOM     26  C   UNL     1      72.467  10.858 363.662  1.00  0.00     0.100 A 
ATOM     27  O   UNL     1      73.889  12.569 363.124  1.00  0.00    -0.289 OA
BRANCH  18  28
ATOM     28  O   UNL     1      72.724  13.629 358.172  1.00  0.00    -0.502 OA
ATOM     29  H   UNL     1      72.325  14.522 357.918  1.00  0.00     0.293 HD
ENDBRANCH  18  28
BRANCH  20  30
ATOM     30  O   UNL     1      73.839  13.736 360.822  1.00  0.00    -0.504 OA
ATOM     31  H   UNL     1      73.664  14.677 361.144  1.00  0.00     0.293 HD
ENDBRANCH  20  30
BRANCH  25  32
ATOM     32  C   UNL     1      70.870   8.971 364.182  1.00  0.00     0.017 A 
ATOM     33  C   UNL     1      71.069   9.034 365.577  1.00  0.00     0.012 A 
ATOM     34  C   UNL     1      70.140   7.892 363.650  1.00  0.00     0.012 A 
ATOM     35  C   UNL     1      70.536   8.047 366.412  1.00  0.00     0.001 A 
ATOM     36  C   UNL     1      69.608   6.908 364.491  1.00  0.00     0.001 A 
ATOM     37  C   UNL     1      69.804   6.987 365.870  1.00  0.00     0.000 A 
ENDBRANCH  25  32
ENDBRANCH   1  17
TORSDOF 9
ENDMDL
MODEL 3
REMARK VINA RESULT:    -5.799      3.310      8.762
REMARK INTER + INTRA:          -9.080
REMARK INTER:                  -8.062
REMARK INTRA:                  -1.017
REMARK UNBOUND:                -1.077
REMARK SMILES O=C([O-])[C@@H]1O[C@@H](Oc2cc3oc(-c4ccccc4)cc(=O)c3c(O)c2O)[C@H](O)[C@H](O)[C@H]1O
REMARK SMILES IDX 7 1 6 2 4 3 31 4 5 5 29 6 27 7 2 8 1 9 3 10 32 11 30 13
REMARK SMILES IDX 28 15 8 17 25 18 9 19 23 20 10 21 22 22 11 23 20 24 12 25
REMARK SMILES IDX 19 26 21 27 26 28 24 30 13 32 14 33 18 34 15 35 17 36 16 37
REMARK H PARENT 32 12 30 14 28 16 26 29 24 31
REMARK Flexibility Score: inf
ROOT
ATOM      1  O   UNL     1      69.375   8.754 362.194  1.00  0.00    -0.458 OA
ENDROOT
BRANCH   1   2
ATOM      2  C   UNL     1      68.436   9.034 363.243  1.00  0.00     0.339 C 
ATOM      3  C   UNL     1      70.019   8.640 364.942  1.00  0.00     0.199 C 
ATOM      4  C   UNL     1      69.315   7.346 365.417  1.00  0.00     0.180 C 
ATOM      5  O   UNL     1      69.087   9.562 364.392  1.00  0.00    -0.328 OA
ATOM      6  C   UNL     1      68.542   6.718 364.246  1.00  0.00     0.181 C 
ATOM      7  C   UNL     1      67.628   7.767 363.588  1.00  0.00     0.214 C 
BRANCH   3   8
ATOM      8  C   UNL     1      70.709   9.310 366.096  1.00  0.00     0.073 C 
ATOM      9  O   UNL     1      71.895   9.003 366.393  1.00  0.00    -0.547 OA
ATOM     10  O   UNL     1      70.036  10.263 366.854  1.00  0.00    -0.547 OA
ENDBRANCH   3   8
BRANCH   4  11
ATOM     11  O   UNL     1      70.264   6.417 365.881  1.00  0.00    -0.387 OA
ATOM     12  H   UNL     1      69.766   5.606 366.161  1.00  0.00     0.211 HD
ENDBRANCH   4  11
BRANCH   6  13
ATOM     13  O   UNL     1      67.784   5.633 364.712  1.00  0.00    -0.387 OA
ATOM     14  H   UNL     1      67.144   5.400 363.991  1.00  0.00     0.211 HD
ENDBRANCH   6  13
BRANCH   7  15
ATOM     15  O   UNL     1      66.577   8.096 364.464  1.00  0.00    -0.384 OA
ATOM     16  H   UNL     1      66.829   7.750 365.359  1.00  0.00     0.211 HD
ENDBRANCH   7  15
ENDBRANCH   1   2
BRANCH   1  17
ATOM     17  C   UNL     1      70.000   9.734 361.408  1.00  0.00     0.172 A 
ATOM     18  C   UNL     1      71.283  10.241 361.707  1.00  0.00     0.201 A 
ATOM     19  C   UNL     1      69.291  10.237 360.318  1.00  0.00     0.098 A 
ATOM     20  C   UNL     1      71.881  11.196 360.845  1.00  0.00     0.176 A 
ATOM     21  C   UNL     1      69.853  11.198 359.480  1.00  0.00     0.146 A 
ATOM     22  C   UNL     1      71.154  11.689 359.732  1.00  0.00     0.111 A 
ATOM     23  O   UNL     1      69.149  11.638 358.442  1.00  0.00    -0.456 OA
ATOM     24  C   UNL     1      71.666  12.657 358.841  1.00  0.00     0.197 A 
ATOM     25  C   UNL     1      69.601  12.549 357.585  1.00  0.00     0.138 A 
ATOM     26  C   UNL     1      70.887  13.084 357.763  1.00  0.00     0.100 A 
ATOM     27  O   UNL     1      72.816  13.149 358.994  1.00  0.00    -0.289 OA
BRANCH  18  28
ATOM     28  O   UNL     1      71.910   9.823 362.883  1.00  0.00    -0.502 OA
ATOM     29  H   UNL     1      71.929   8.868 363.211  1.00  0.00     0.293 HD
ENDBRANCH  18  28
BRANCH  20  30
ATOM     30  O   UNL     1      73.184  11.656 361.067  1.00  0.00    -0.504 OA
ATOM     31  H   UNL     1      74.007  11.071 361.041  1.00  0.00     0.293 HD
ENDBRANCH  20  30
BRANCH  25  32
ATOM     32  C   UNL     1      68.728  12.960 356.457  1.00  0.00     0.017 A 
ATOM     33  C   UNL     1      67.451  13.519 356.671  1.00  0.00     0.012 A 
ATOM     34  C   UNL     1      69.168  12.762 355.134  1.00  0.00     0.012 A 
ATOM     35  C   UNL     1      66.648  13.883 355.586  1.00  0.00     0.001 A 
ATOM     36  C   UNL     1      68.361  13.130 354.053  1.00  0.00     0.001 A 
ATOM     37  C   UNL     1      67.103  13.691 354.278  1.00  0.00     0.000 A 
ENDBRANCH  25  32
ENDBRANCH   1  17
TORSDOF 9
ENDMDL
MODEL 4
REMARK VINA RESULT:    -5.744      5.010      7.622
REMARK INTER + INTRA:          -9.003
REMARK INTER:                  -8.002
REMARK INTRA:                  -1.002
REMARK UNBOUND:                -1.077
REMARK SMILES O=C([O-])[C@@H]1O[C@@H](Oc2cc3oc(-c4ccccc4)cc(=O)c3c(O)c2O)[C@H](O)[C@H](O)[C@H]1O
REMARK SMILES IDX 7 1 6 2 4 3 31 4 5 5 29 6 27 7 2 8 1 9 3 10 32 11 30 13
REMARK SMILES IDX 28 15 8 17 25 18 9 19 23 20 10 21 22 22 11 23 20 24 12 25
REMARK SMILES IDX 19 26 21 27 26 28 24 30 13 32 14 33 18 34 15 35 17 36 16 37
REMARK H PARENT 32 12 30 14 28 16 26 29 24 31
REMARK Flexibility Score: inf
ROOT
ATOM      1  O   UNL     1      74.020  12.663 361.893  1.00  0.00    -0.458 OA
ENDROOT
BRANCH   1   2
ATOM      2  C   UNL     1      73.716  12.114 360.603  1.00  0.00     0.339 C 
ATOM      3  C   UNL     1      75.433  13.324 359.538  1.00  0.00     0.199 C 
ATOM      4  C   UNL     1      74.438  14.229 358.772  1.00  0.00     0.180 C 
ATOM      5  O   UNL     1      74.877  12.040 359.786  1.00  0.00    -0.328 OA
ATOM      6  C   UNL     1      73.124  14.338 359.561  1.00  0.00     0.181 C 
ATOM      7  C   UNL     1      72.602  12.935 359.922  1.00  0.00     0.214 C 
BRANCH   3   8
ATOM      8  C   UNL     1      76.691  13.139 358.739  1.00  0.00     0.073 C 
ATOM      9  O   UNL     1      76.771  13.595 357.566  1.00  0.00    -0.547 OA
ATOM     10  O   UNL     1      77.769  12.448 359.282  1.00  0.00    -0.547 OA
ENDBRANCH   3   8
BRANCH   4  11
ATOM     11  O   UNL     1      74.976  15.519 358.611  1.00  0.00    -0.387 OA
ATOM     12  H   UNL     1      75.963  15.431 358.650  1.00  0.00     0.211 HD
ENDBRANCH   4  11
BRANCH   6  13
ATOM     13  O   UNL     1      72.173  15.030 358.796  1.00  0.00    -0.387 OA
ATOM     14  H   UNL     1      72.672  15.517 358.091  1.00  0.00     0.211 HD
ENDBRANCH   6  13
BRANCH   7  15
ATOM     15  O   UNL     1      72.167  12.277 358.758  1.00  0.00    -0.384 OA
ATOM     16  H   UNL     1      71.222  12.017 358.911  1.00  0.00     0.211 HD
ENDBRANCH   7  15
ENDBRANCH   1   2
BRANCH   1  17
ATOM     17  C   UNL     1      73.427  12.241 363.094  1.00  0.00     0.172 A 
ATOM     18  C   UNL     1      73.668  12.885 364.325  1.00  0.00     0.201 A 
ATOM     19  C   UNL     1      72.602  11.117 363.047  1.00  0.00     0.098 A 
ATOM     20  C   UNL     1      73.000  12.441 365.496  1.00  0.00     0.176 A 
ATOM     21  C   UNL     1      71.964  10.650 364.193  1.00  0.00     0.146 A 
ATOM     22  C   UNL     1      72.153  11.305 365.431  1.00  0.00     0.111 A 
ATOM     23  O   UNL     1      71.172   9.586 364.100  1.00  0.00    -0.456 OA
ATOM     24  C   UNL     1      71.471  10.784 366.552  1.00  0.00     0.197 A 
ATOM     25  C   UNL     1      70.517   9.069 365.136  1.00  0.00     0.138 A 
ATOM     26  C   UNL     1      70.649   9.665 366.401  1.00  0.00     0.100 A 
ATOM     27  O   UNL     1      71.587  11.306 367.693  1.00  0.00    -0.289 OA
BRANCH  18  28
ATOM     28  O   UNL     1      74.607  13.918 364.368  1.00  0.00    -0.502 OA
ATOM     29  H   UNL     1      75.584  13.811 364.131  1.00  0.00     0.293 HD
ENDBRANCH  18  28
BRANCH  20  30
ATOM     30  O   UNL     1      73.153  13.109 366.716  1.00  0.00    -0.504 OA
ATOM     31  H   UNL     1      73.220  12.650 367.612  1.00  0.00     0.293 HD
ENDBRANCH  20  30
BRANCH  25  32
ATOM     32  C   UNL     1      69.655   7.882 364.913  1.00  0.00     0.017 A 
ATOM     33  C   UNL     1      70.156   6.568 365.028  1.00  0.00     0.012 A 
ATOM     34  C   UNL     1      68.308   8.064 364.548  1.00  0.00     0.012 A 
ATOM     35  C   UNL     1      69.321   5.471 364.798  1.00  0.00     0.001 A 
ATOM     36  C   UNL     1      67.477   6.962 364.320  1.00  0.00     0.001 A 
ATOM     37  C   UNL     1      67.982   5.666 364.446  1.00  0.00     0.000 A 
ENDBRANCH  25  32
ENDBRANCH   1  17
TORSDOF 9
ENDMDL
MODEL 5
REMARK VINA RESULT:    -5.689      1.666      3.076
REMARK INTER + INTRA:          -8.927
REMARK INTER:                  -7.832
REMARK INTRA:                  -1.095
REMARK UNBOUND:                -1.077
REMARK SMILES O=C([O-])[C@@H]1O[C@@H](Oc2cc3oc(-c4ccccc4)cc(=O)c3c(O)c2O)[C@H](O)[C@H](O)[C@H]1O
REMARK SMILES IDX 7 1 6 2 4 3 31 4 5 5 29 6 27 7 2 8 1 9 3 10 32 11 30 13
REMARK SMILES IDX 28 15 8 17 25 18 9 19 23 20 10 21 22 22 11 23 20 24 12 25
REMARK SMILES IDX 19 26 21 27 26 28 24 30 13 32 14 33 18 34 15 35 17 36 16 37
REMARK H PARENT 32 12 30 14 28 16 26 29 24 31
REMARK Flexibility Score: inf
ROOT
ATOM      1  O   UNL     1      70.770  10.944 357.837  1.00  0.00    -0.458 OA
ENDROOT
BRANCH   1   2
ATOM      2  C   UNL     1      69.364  10.678 357.949  1.00  0.00     0.339 C 
ATOM      3  C   UNL     1      69.252   9.680 355.817  1.00  0.00     0.199 C 
ATOM      4  C   UNL     1      68.419  10.841 355.223  1.00  0.00     0.180 C 
ATOM      5  O   UNL     1      68.997   9.521 357.207  1.00  0.00    -0.328 OA
ATOM      6  C   UNL     1      68.716  12.138 355.992  1.00  0.00     0.181 C 
ATOM      7  C   UNL     1      68.550  11.910 357.505  1.00  0.00     0.214 C 
BRANCH   3   8
ATOM      8  C   UNL     1      68.908   8.389 355.132  1.00  0.00     0.073 C 
ATOM      9  O   UNL     1      67.776   8.233 354.601  1.00  0.00    -0.547 OA
ATOM     10  O   UNL     1      69.833   7.350 355.094  1.00  0.00    -0.547 OA
ENDBRANCH   3   8
BRANCH   4  11
ATOM     11  O   UNL     1      68.747  11.034 353.869  1.00  0.00    -0.387 OA
ATOM     12  H   UNL     1      67.894  11.094 353.367  1.00  0.00     0.211 HD
ENDBRANCH   4  11
BRANCH   6  13
ATOM     13  O   UNL     1      67.851  13.153 355.554  1.00  0.00    -0.387 OA
ATOM     14  H   UNL     1      67.815  13.830 356.278  1.00  0.00     0.211 HD
ENDBRANCH   6  13
BRANCH   7  15
ATOM     15  O   UNL     1      67.190  11.719 357.810  1.00  0.00    -0.384 OA
ATOM     16  H   UNL     1      66.764  11.340 356.998  1.00  0.00     0.211 HD
ENDBRANCH   7  15
ENDBRANCH   1   2
BRANCH   1  17
ATOM     17  C   UNL     1      71.490  11.776 358.708  1.00  0.00     0.172 A 
ATOM     18  C   UNL     1      71.913  13.071 358.342  1.00  0.00     0.201 A 
ATOM     19  C   UNL     1      71.819  11.267 359.964  1.00  0.00     0.098 A 
ATOM     20  C   UNL     1      72.595  13.883 359.285  1.00  0.00     0.176 A 
ATOM     21  C   UNL     1      72.516  12.039 360.890  1.00  0.00     0.146 A 
ATOM     22  C   UNL     1      72.913  13.356 360.563  1.00  0.00     0.111 A 
ATOM     23  O   UNL     1      72.794  11.521 362.082  1.00  0.00    -0.456 OA
ATOM     24  C   UNL     1      73.609  14.087 361.550  1.00  0.00     0.197 A 
ATOM     25  C   UNL     1      73.450  12.182 363.032  1.00  0.00     0.138 A 
ATOM     26  C   UNL     1      73.874  13.498 362.788  1.00  0.00     0.100 A 
ATOM     27  O   UNL     1      74.001  15.267 361.340  1.00  0.00    -0.289 OA
BRANCH  18  28
ATOM     28  O   UNL     1      71.693  13.502 357.032  1.00  0.00    -0.502 OA
ATOM     29  H   UNL     1      71.274  12.935 356.308  1.00  0.00     0.293 HD
ENDBRANCH  18  28
BRANCH  20  30
ATOM     30  O   UNL     1      72.955  15.201 358.982  1.00  0.00    -0.504 OA
ATOM     31  H   UNL     1      73.867  15.598 359.159  1.00  0.00     0.293 HD
ENDBRANCH  20  30
BRANCH  25  32
ATOM     32  C   UNL     1      73.699  11.504 364.328  1.00  0.00     0.017 A 
ATOM     33  C   UNL     1      74.482  10.333 364.416  1.00  0.00     0.012 A 
ATOM     34  C   UNL     1      73.117  12.019 365.502  1.00  0.00     0.012 A 
ATOM     35  C   UNL     1      74.686   9.711 365.651  1.00  0.00     0.001 A 
ATOM     36  C   UNL     1      73.327  11.392 366.735  1.00  0.00     0.001 A 
ATOM     37  C   UNL     1      74.111  10.240 366.810  1.00  0.00     0.000 A 
ENDBRANCH  25  32
ENDBRANCH   1  17
TORSDOF 9
ENDMDL
MODEL 6
REMARK VINA RESULT:    -5.674      3.003      5.456
REMARK INTER + INTRA:          -8.907
REMARK INTER:                  -7.918
REMARK INTRA:                  -0.989
REMARK UNBOUND:                -1.077
REMARK SMILES O=C([O-])[C@@H]1O[C@@H](Oc2cc3oc(-c4ccccc4)cc(=O)c3c(O)c2O)[C@H](O)[C@H](O)[C@H]1O
REMARK SMILES IDX 7 1 6 2 4 3 31 4 5 5 29 6 27 7 2 8 1 9 3 10 32 11 30 13
REMARK SMILES IDX 28 15 8 17 25 18 9 19 23 20 10 21 22 22 11 23 20 24 12 25
REMARK SMILES IDX 19 26 21 27 26 28 24 30 13 32 14 33 18 34 15 35 17 36 16 37
REMARK H PARENT 32 12 30 14 28 16 26 29 24 31
REMARK Flexibility Score: inf
ROOT
ATOM      1  O   UNL     1      70.012  10.306 359.001  1.00  0.00    -0.458 OA
ENDROOT
BRANCH   1   2
ATOM      2  C   UNL     1      68.887  11.057 358.520  1.00  0.00     0.339 C 
ATOM      3  C   UNL     1      68.519   9.595 356.710  1.00  0.00     0.199 C 
ATOM      4  C   UNL     1      68.960  10.644 355.661  1.00  0.00     0.180 C 
ATOM      5  O   UNL     1      67.951  10.218 357.855  1.00  0.00    -0.328 OA
ATOM      6  C   UNL     1      69.948  11.631 356.301  1.00  0.00     0.181 C 
ATOM      7  C   UNL     1      69.362  12.203 357.604  1.00  0.00     0.214 C 
BRANCH   3   8
ATOM      8  C   UNL     1      67.487   8.674 356.124  1.00  0.00     0.073 C 
ATOM      9  O   UNL     1      66.281   8.765 356.476  1.00  0.00    -0.547 OA
ATOM     10  O   UNL     1      67.861   7.704 355.200  1.00  0.00    -0.547 OA
ENDBRANCH   3   8
BRANCH   4  11
ATOM     11  O   UNL     1      69.592  10.012 354.575  1.00  0.00    -0.387 OA
ATOM     12  H   UNL     1      68.889   9.808 353.906  1.00  0.00     0.211 HD
ENDBRANCH   4  11
BRANCH   6  13
ATOM     13  O   UNL     1      70.229  12.668 355.396  1.00  0.00    -0.387 OA
ATOM     14  H   UNL     1      69.741  13.469 355.719  1.00  0.00     0.211 HD
ENDBRANCH   6  13
BRANCH   7  15
ATOM     15  O   UNL     1      68.283  13.054 357.305  1.00  0.00    -0.384 OA
ATOM     16  H   UNL     1      67.461  12.602 357.628  1.00  0.00     0.211 HD
ENDBRANCH   7  15
ENDBRANCH   1   2
BRANCH   1  17
ATOM     17  C   UNL     1      70.993  10.816 359.866  1.00  0.00     0.172 A 
ATOM     18  C   UNL     1      70.801  10.902 361.261  1.00  0.00     0.201 A 
ATOM     19  C   UNL     1      72.177  11.282 359.296  1.00  0.00     0.098 A 
ATOM     20  C   UNL     1      71.851  11.382 362.087  1.00  0.00     0.176 A 
ATOM     21  C   UNL     1      73.204  11.785 360.091  1.00  0.00     0.146 A 
ATOM     22  C   UNL     1      73.055  11.841 361.495  1.00  0.00     0.111 A 
ATOM     23  O   UNL     1      74.324  12.203 359.509  1.00  0.00    -0.456 OA
ATOM     24  C   UNL     1      74.137  12.354 362.243  1.00  0.00     0.197 A 
ATOM     25  C   UNL     1      75.360  12.693 360.183  1.00  0.00     0.138 A 
ATOM     26  C   UNL     1      75.293  12.778 361.583  1.00  0.00     0.100 A 
ATOM     27  O   UNL     1      74.087  12.441 363.499  1.00  0.00    -0.289 OA
BRANCH  18  28
ATOM     28  O   UNL     1      69.554  10.561 361.788  1.00  0.00    -0.502 OA
ATOM     29  H   UNL     1      69.406  10.224 362.729  1.00  0.00     0.293 HD
ENDBRANCH  18  28
BRANCH  20  30
ATOM     30  O   UNL     1      71.724  11.402 363.481  1.00  0.00    -0.504 OA
ATOM     31  H   UNL     1      70.843  11.456 363.972  1.00  0.00     0.293 HD
ENDBRANCH  20  30
BRANCH  25  32
ATOM     32  C   UNL     1      76.562  13.124 359.426  1.00  0.00     0.017 A 
ATOM     33  C   UNL     1      76.461  13.872 358.234  1.00  0.00     0.012 A 
ATOM     34  C   UNL     1      77.839  12.754 359.889  1.00  0.00     0.012 A 
ATOM     35  C   UNL     1      77.614  14.250 357.538  1.00  0.00     0.001 A 
ATOM     36  C   UNL     1      78.988  13.137 359.188  1.00  0.00     0.001 A 
ATOM     37  C   UNL     1      78.875  13.885 358.015  1.00  0.00     0.000 A 
ENDBRANCH  25  32
ENDBRANCH   1  17
TORSDOF 9
ENDMDL
MODEL 7
REMARK VINA RESULT:    -5.604      2.469      9.641
REMARK INTER + INTRA:          -8.811
REMARK INTER:                  -7.753
REMARK INTRA:                  -1.059
REMARK UNBOUND:                -1.077
REMARK SMILES O=C([O-])[C@@H]1O[C@@H](Oc2cc3oc(-c4ccccc4)cc(=O)c3c(O)c2O)[C@H](O)[C@H](O)[C@H]1O
REMARK SMILES IDX 7 1 6 2 4 3 31 4 5 5 29 6 27 7 2 8 1 9 3 10 32 11 30 13
REMARK SMILES IDX 28 15 8 17 25 18 9 19 23 20 10 21 22 22 11 23 20 24 12 25
REMARK SMILES IDX 19 26 21 27 26 28 24 30 13 32 14 33 18 34 15 35 17 36 16 37
REMARK H PARENT 32 12 30 14 28 16 26 29 24 31
REMARK Flexibility Score: inf
ROOT
ATOM      1  O   UNL     1      71.296  12.004 357.971  1.00  0.00    -0.458 OA
ENDROOT
BRANCH   1   2
ATOM      2  C   UNL     1      70.965  12.785 359.129  1.00  0.00     0.339 C 
ATOM      3  C   UNL     1      73.224  13.156 359.685  1.00  0.00     0.199 C 
ATOM      4  C   UNL     1      73.147  12.267 360.950  1.00  0.00     0.180 C 
ATOM      5  O   UNL     1      71.967  13.757 359.401  1.00  0.00    -0.328 OA
ATOM      6  C   UNL     1      72.054  11.203 360.770  1.00  0.00     0.181 C 
ATOM      7  C   UNL     1      70.731  11.865 360.344  1.00  0.00     0.214 C 
BRANCH   3   8
ATOM      8  C   UNL     1      74.229  14.254 359.881  1.00  0.00     0.073 C 
ATOM      9  O   UNL     1      75.404  13.982 360.248  1.00  0.00    -0.547 OA
ATOM     10  O   UNL     1      73.864  15.581 359.674  1.00  0.00    -0.547 OA
ENDBRANCH   3   8
BRANCH   4  11
ATOM     11  O   UNL     1      74.377  11.619 361.165  1.00  0.00    -0.387 OA
ATOM     12  H   UNL     1      75.018  12.305 361.484  1.00  0.00     0.211 HD
ENDBRANCH   4  11
BRANCH   6  13
ATOM     13  O   UNL     1      71.882  10.497 361.971  1.00  0.00    -0.387 OA
ATOM     14  H   UNL     1      70.975  10.096 361.940  1.00  0.00     0.211 HD
ENDBRANCH   6  13
BRANCH   7  15
ATOM     15  O   UNL     1      70.209  12.612 361.416  1.00  0.00    -0.384 OA
ATOM     16  H   UNL     1      70.983  12.939 361.943  1.00  0.00     0.211 HD
ENDBRANCH   7  15
ENDBRANCH   1   2
BRANCH   1  17
ATOM     17  C   UNL     1      70.372  11.610 356.991  1.00  0.00     0.172 A 
ATOM     18  C   UNL     1      69.806  10.318 356.960  1.00  0.00     0.201 A 
ATOM     19  C   UNL     1      70.046  12.536 356.000  1.00  0.00     0.098 A 
ATOM     20  C   UNL     1      68.840   9.996 355.971  1.00  0.00     0.176 A 
ATOM     21  C   UNL     1      69.124  12.225 355.005  1.00  0.00     0.146 A 
ATOM     22  C   UNL     1      68.508  10.952 354.977  1.00  0.00     0.111 A 
ATOM     23  O   UNL     1      68.828  13.143 354.090  1.00  0.00    -0.456 OA
ATOM     24  C   UNL     1      67.577  10.704 353.946  1.00  0.00     0.197 A 
ATOM     25  C   UNL     1      67.958  12.941 353.105  1.00  0.00     0.138 A 
ATOM     26  C   UNL     1      67.300  11.704 353.011  1.00  0.00     0.100 A 
ATOM     27  O   UNL     1      66.985   9.596 353.847  1.00  0.00    -0.289 OA
BRANCH  18  28
ATOM     28  O   UNL     1      70.256   9.368 357.878  1.00  0.00    -0.502 OA
ATOM     29  H   UNL     1      70.916   9.558 358.618  1.00  0.00     0.293 HD
ENDBRANCH  18  28
BRANCH  20  30
ATOM     30  O   UNL     1      68.198   8.753 355.963  1.00  0.00    -0.504 OA
ATOM     31  H   UNL     1      68.383   8.012 356.624  1.00  0.00     0.293 HD
ENDBRANCH  20  30
BRANCH  25  32
ATOM     32  C   UNL     1      67.702  14.042 352.143  1.00  0.00     0.017 A 
ATOM     33  C   UNL     1      66.684  14.994 352.358  1.00  0.00     0.012 A 
ATOM     34  C   UNL     1      68.473  14.127 350.968  1.00  0.00     0.012 A 
ATOM     35  C   UNL     1      66.460  16.012 351.425  1.00  0.00     0.001 A 
ATOM     36  C   UNL     1      68.244  15.148 350.040  1.00  0.00     0.001 A 
ATOM     37  C   UNL     1      67.240  16.090 350.269  1.00  0.00     0.000 A 
ENDBRANCH  25  32
ENDBRANCH   1  17
TORSDOF 9
ENDMDL
MODEL 8
REMARK VINA RESULT:    -5.487      2.959     10.236
REMARK INTER + INTRA:          -8.649
REMARK INTER:                  -7.365
REMARK INTRA:                  -1.285
REMARK UNBOUND:                -1.077
REMARK SMILES O=C([O-])[C@@H]1O[C@@H](Oc2cc3oc(-c4ccccc4)cc(=O)c3c(O)c2O)[C@H](O)[C@H](O)[C@H]1O
REMARK SMILES IDX 7 1 6 2 4 3 31 4 5 5 29 6 27 7 2 8 1 9 3 10 32 11 30 13
REMARK SMILES IDX 28 15 8 17 25 18 9 19 23 20 10 21 22 22 11 23 20 24 12 25
REMARK SMILES IDX 19 26 21 27 26 28 24 30 13 32 14 33 18 34 15 35 17 36 16 37
REMARK H PARENT 32 12 30 14 28 16 26 29 24 31
REMARK Flexibility Score: inf
ROOT
ATOM      1  O   UNL     1      69.364  12.786 357.096  1.00  0.00    -0.458 OA
ENDROOT
BRANCH   1   2
ATOM      2  C   UNL     1      70.743  12.644 357.467  1.00  0.00     0.339 C 
ATOM      3  C   UNL     1      70.218  11.772 359.591  1.00  0.00     0.199 C 
ATOM      4  C   UNL     1      70.725  13.034 360.330  1.00  0.00     0.180 C 
ATOM      5  O   UNL     1      70.926  11.566 358.376  1.00  0.00    -0.328 OA
ATOM      6  C   UNL     1      70.607  14.256 359.407  1.00  0.00     0.181 C 
ATOM      7  C   UNL     1      71.277  13.968 358.052  1.00  0.00     0.214 C 
BRANCH   3   8
ATOM      8  C   UNL     1      70.406  10.554 360.450  1.00  0.00     0.073 C 
ATOM      9  O   UNL     1      69.657   9.551 360.304  1.00  0.00    -0.547 OA
ATOM     10  O   UNL     1      71.399  10.534 361.424  1.00  0.00    -0.547 OA
ENDBRANCH   3   8
BRANCH   4  11
ATOM     11  O   UNL     1      69.956  13.264 361.486  1.00  0.00    -0.387 OA
ATOM     12  H   UNL     1      70.434  13.947 362.023  1.00  0.00     0.211 HD
ENDBRANCH   4  11
BRANCH   6  13
ATOM     13  O   UNL     1      71.206  15.368 360.021  1.00  0.00    -0.387 OA
ATOM     14  H   UNL     1      72.098  15.073 360.338  1.00  0.00     0.211 HD
ENDBRANCH   6  13
BRANCH   7  15
ATOM     15  O   UNL     1      72.671  13.888 358.220  1.00  0.00    -0.384 OA
ATOM     16  H   UNL     1      73.003  13.224 357.562  1.00  0.00     0.211 HD
ENDBRANCH   7  15
ENDBRANCH   1   2
BRANCH   1  17
ATOM     17  C   UNL     1      68.803  12.263 355.921  1.00  0.00     0.172 A 
ATOM     18  C   UNL     1      68.326  10.938 355.833  1.00  0.00     0.201 A 
ATOM     19  C   UNL     1      68.761  13.092 354.801  1.00  0.00     0.098 A 
ATOM     20  C   UNL     1      67.725  10.484 354.631  1.00  0.00     0.176 A 
ATOM     21  C   UNL     1      68.202  12.651 353.604  1.00  0.00     0.146 A 
ATOM     22  C   UNL     1      67.677  11.343 353.503  1.00  0.00     0.111 A 
ATOM     23  O   UNL     1      68.166  13.480 352.565  1.00  0.00    -0.456 OA
ATOM     24  C   UNL     1      67.118  10.961 352.264  1.00  0.00     0.197 A 
ATOM     25  C   UNL     1      67.649  13.152 351.385  1.00  0.00     0.138 A 
ATOM     26  C   UNL     1      67.102  11.871 351.204  1.00  0.00     0.100 A 
ATOM     27  O   UNL     1      66.630   9.813 352.088  1.00  0.00    -0.289 OA
BRANCH  18  28
ATOM     28  O   UNL     1      68.510  10.086 356.925  1.00  0.00    -0.502 OA
ATOM     29  H   UNL     1      67.760   9.626 357.421  1.00  0.00     0.293 HD
ENDBRANCH  18  28
BRANCH  20  30
ATOM     30  O   UNL     1      67.167   9.203 354.538  1.00  0.00    -0.504 OA
ATOM     31  H   UNL     1      67.168   8.642 353.698  1.00  0.00     0.293 HD
ENDBRANCH  20  30
BRANCH  25  32
ATOM     32  C   UNL     1      67.658  14.163 350.298  1.00  0.00     0.017 A 
ATOM     33  C   UNL     1      66.587  14.283 349.387  1.00  0.00     0.012 A 
ATOM     34  C   UNL     1      68.774  15.007 350.147  1.00  0.00     0.012 A 
ATOM     35  C   UNL     1      66.633  15.236 348.365  1.00  0.00     0.001 A 
ATOM     36  C   UNL     1      68.812  15.960 349.124  1.00  0.00     0.001 A 
ATOM     37  C   UNL     1      67.742  16.076 348.235  1.00  0.00     0.000 A 
ENDBRANCH  25  32
ENDBRANCH   1  17
TORSDOF 9
ENDMDL
MODEL 9
REMARK VINA RESULT:    -5.470      4.325      8.106
REMARK INTER + INTRA:          -8.626
REMARK INTER:                  -7.634
REMARK INTRA:                  -0.993
REMARK UNBOUND:                -1.077
REMARK SMILES O=C([O-])[C@@H]1O[C@@H](Oc2cc3oc(-c4ccccc4)cc(=O)c3c(O)c2O)[C@H](O)[C@H](O)[C@H]1O
REMARK SMILES IDX 7 1 6 2 4 3 31 4 5 5 29 6 27 7 2 8 1 9 3 10 32 11 30 13
REMARK SMILES IDX 28 15 8 17 25 18 9 19 23 20 10 21 22 22 11 23 20 24 12 25
REMARK SMILES IDX 19 26 21 27 26 28 24 30 13 32 14 33 18 34 15 35 17 36 16 37
REMARK H PARENT 32 12 30 14 28 16 26 29 24 31
REMARK Flexibility Score: inf
ROOT
ATOM      1  O   UNL     1      69.957   9.637 362.715  1.00  0.00    -0.458 OA
ENDROOT
BRANCH   1   2
ATOM      2  C   UNL     1      70.804   9.065 363.722  1.00  0.00     0.339 C 
ATOM      3  C   UNL     1      69.158   7.531 364.421  1.00  0.00     0.199 C 
ATOM      4  C   UNL     1      68.955   8.238 365.783  1.00  0.00     0.180 C 
ATOM      5  O   UNL     1      70.488   7.697 363.947  1.00  0.00    -0.328 OA
ATOM      6  C   UNL     1      69.314   9.727 365.652  1.00  0.00     0.181 C 
ATOM      7  C   UNL     1      70.711   9.884 365.025  1.00  0.00     0.214 C 
BRANCH   3   8
ATOM      8  C   UNL     1      68.892   6.059 364.554  1.00  0.00     0.073 C 
ATOM      9  O   UNL     1      67.722   5.610 364.421  1.00  0.00    -0.547 OA
ATOM     10  O   UNL     1      69.935   5.185 364.841  1.00  0.00    -0.547 OA
ENDBRANCH   3   8
BRANCH   4  11
ATOM     11  O   UNL     1      67.613   8.132 366.192  1.00  0.00    -0.387 OA
ATOM     12  H   UNL     1      67.605   8.174 367.183  1.00  0.00     0.211 HD
ENDBRANCH   4  11
BRANCH   6  13
ATOM     13  O   UNL     1      69.276  10.332 366.918  1.00  0.00    -0.387 OA
ATOM     14  H   UNL     1      68.718   9.750 367.496  1.00  0.00     0.211 HD
ENDBRANCH   6  13
BRANCH   7  15
ATOM     15  O   UNL     1      71.691   9.446 365.935  1.00  0.00    -0.384 OA
ATOM     16  H   UNL     1      71.684  10.084 366.695  1.00  0.00     0.211 HD
ENDBRANCH   7  15
ENDBRANCH   1   2
BRANCH   1  17
ATOM     17  C   UNL     1      70.379  10.585 361.770  1.00  0.00     0.172 A 
ATOM     18  C   UNL     1      69.480  11.241 360.902  1.00  0.00     0.201 A 
ATOM     19  C   UNL     1      71.746  10.842 361.679  1.00  0.00     0.098 A 
ATOM     20  C   UNL     1      69.963  12.225 360.001  1.00  0.00     0.176 A 
ATOM     21  C   UNL     1      72.239  11.783 360.778  1.00  0.00     0.146 A 
ATOM     22  C   UNL     1      71.355  12.487 359.929  1.00  0.00     0.111 A 
ATOM     23  O   UNL     1      73.548  12.011 360.737  1.00  0.00    -0.456 OA
ATOM     24  C   UNL     1      71.920  13.432 359.045  1.00  0.00     0.197 A 
ATOM     25  C   UNL     1      74.111  12.892 359.915  1.00  0.00     0.138 A 
ATOM     26  C   UNL     1      73.301  13.636 359.042  1.00  0.00     0.100 A 
ATOM     27  O   UNL     1      71.204  14.100 358.252  1.00  0.00    -0.289 OA
BRANCH  18  28
ATOM     28  O   UNL     1      68.137  10.860 360.916  1.00  0.00    -0.502 OA
ATOM     29  H   UNL     1      67.651  10.514 361.732  1.00  0.00     0.293 HD
ENDBRANCH  18  28
BRANCH  20  30
ATOM     30  O   UNL     1      69.089  12.953 359.186  1.00  0.00    -0.504 OA
ATOM     31  H   UNL     1      68.158  13.235 359.459  1.00  0.00     0.293 HD
ENDBRANCH  20  30
BRANCH  25  32
ATOM     32  C   UNL     1      75.585  13.068 359.961  1.00  0.00     0.017 A 
ATOM     33  C   UNL     1      76.178  14.232 360.492  1.00  0.00     0.012 A 
ATOM     34  C   UNL     1      76.418  12.062 359.435  1.00  0.00     0.012 A 
ATOM     35  C   UNL     1      77.569  14.372 360.507  1.00  0.00     0.001 A 
ATOM     36  C   UNL     1      77.809  12.208 359.454  1.00  0.00     0.001 A 
ATOM     37  C   UNL     1      78.384  13.361 359.992  1.00  0.00     0.000 A 
ENDBRANCH  25  32
ENDBRANCH   1  17
TORSDOF 9
ENDMDL
