MODEL 1
REMARK VINA RESULT:    -4.637      0.000      0.000
REMARK INTER + INTRA:         -11.098
REMARK INTER:                  -8.974
REMARK INTRA:                  -2.124
REMARK UNBOUND:                -2.124
REMARK SMILES CCCCCCCCCCCCCCCCCC(=O)[O-]
REMARK SMILES IDX 10 1 11 2 12 3 13 4 14 5 15 6 16 7 17 8 18 9 19 10 20 11
REMARK SMILES IDX 9 12 8 13 7 14 6 15 5 16 4 17 3 18 2 19 1 20
REMARK H PARENT
REMARK Flexibility Score: inf
ROOT
ATOM      1  C   UNL     1      10.231   7.320  27.005  1.00  0.00     0.000 C 
ENDROOT
BRANCH   1   2
ATOM      2  C   UNL     1      11.360   6.678  26.181  1.00  0.00     0.000 C 
BRANCH   2   3
ATOM      3  C   UNL     1      12.737   6.841  26.842  1.00  0.00     0.000 C 
BRANCH   3   4
ATOM      4  C   UNL     1      13.893   6.807  25.825  1.00  0.00     0.000 C 
BRANCH   4   5
ATOM      5  C   UNL     1      14.547   8.183  25.633  1.00  0.00     0.000 C 
BRANCH   5   6
ATOM      6  C   UNL     1      14.019   8.919  24.389  1.00  0.00     0.000 C 
BRANCH   6   7
ATOM      7  C   UNL     1      14.169   8.098  23.094  1.00  0.00     0.006 C 
BRANCH   7   8
ATOM      8  C   UNL     1      13.262   8.573  21.946  1.00  0.00     0.053 C 
BRANCH   8   9
ATOM      9  C   UNL     1      12.242   7.550  21.552  1.00  0.00     0.041 C 
ATOM     10  O   UNL     1      12.059   7.269  20.337  1.00  0.00    -0.550 OA
ATOM     11  O   UNL     1      11.512   6.885  22.528  1.00  0.00    -0.550 OA
ENDBRANCH   8   9
ENDBRANCH   7   8
ENDBRANCH   6   7
ENDBRANCH   5   6
ENDBRANCH   4   5
ENDBRANCH   3   4
ENDBRANCH   2   3
ENDBRANCH   1   2
BRANCH   1  12
ATOM     12  C   UNL     1      10.692   8.580  27.756  1.00  0.00     0.000 C 
BRANCH  12  13
ATOM     13  C   UNL     1       9.858   8.858  29.019  1.00  0.00    -0.000 C 
BRANCH  13  14
ATOM     14  C   UNL     1       9.027   7.641  29.454  1.00  0.00    -0.000 C 
BRANCH  14  15
ATOM     15  C   UNL     1       9.417   7.128  30.851  1.00  0.00    -0.000 C 
BRANCH  15  16
ATOM     16  C   UNL     1       9.446   5.593  30.928  1.00  0.00    -0.000 C 
BRANCH  16  17
ATOM     17  C   UNL     1      10.843   5.016  30.643  1.00  0.00    -0.000 C 
BRANCH  17  18
ATOM     18  C   UNL     1      10.974   4.464  29.214  1.00  0.00    -0.000 C 
BRANCH  18  19
ATOM     19  C   UNL     1       9.618   4.093  28.599  1.00  0.00    -0.003 C 
ATOM     20  C   UNL     1       9.797   3.371  27.267  1.00  0.00     0.004 C 
ENDBRANCH  18  19
ENDBRANCH  17  18
ENDBRANCH  16  17
ENDBRANCH  15  16
ENDBRANCH  14  15
ENDBRANCH  13  14
ENDBRANCH  12  13
ENDBRANCH   1  12
TORSDOF 16
ENDMDL
MODEL 2
REMARK VINA RESULT:    -4.575      1.353      2.376
REMARK INTER + INTRA:         -10.978
REMARK INTER:                  -8.200
REMARK INTRA:                  -2.778
REMARK UNBOUND:                -2.124
REMARK SMILES CCCCCCCCCCCCCCCCCC(=O)[O-]
REMARK SMILES IDX 10 1 11 2 12 3 13 4 14 5 15 6 16 7 17 8 18 9 19 10 20 11
REMARK SMILES IDX 9 12 8 13 7 14 6 15 5 16 4 17 3 18 2 19 1 20
REMARK H PARENT
REMARK Flexibility Score: inf
ROOT
ATOM      1  C   UNL     1      12.161   6.128  27.043  1.00  0.00     0.000 C 
ENDROOT
BRANCH   1   2
ATOM      2  C   UNL     1      13.098   5.833  25.859  1.00  0.00     0.000 C 
BRANCH   2   3
ATOM      3  C   UNL     1      14.209   6.885  25.711  1.00  0.00     0.000 C 
BRANCH   3   4
ATOM      4  C   UNL     1      13.660   8.320  25.619  1.00  0.00     0.000 C 
BRANCH   4   5
ATOM      5  C   UNL     1      12.988   8.607  24.268  1.00  0.00     0.000 C 
BRANCH   5   6
ATOM      6  C   UNL     1      11.528   9.066  24.422  1.00  0.00     0.000 C 
BRANCH   6   7
ATOM      7  C   UNL     1      10.531   8.174  23.657  1.00  0.00     0.006 C 
BRANCH   7   8
ATOM      8  C   UNL     1      11.192   7.011  22.897  1.00  0.00     0.053 C 
BRANCH   8   9
ATOM      9  C   UNL     1      10.947   7.070  21.420  1.00  0.00     0.041 C 
ATOM     10  O   UNL     1      11.592   6.322  20.638  1.00  0.00    -0.550 OA
ATOM     11  O   UNL     1       9.985   7.931  20.909  1.00  0.00    -0.550 OA
ENDBRANCH   8   9
ENDBRANCH   7   8
ENDBRANCH   6   7
ENDBRANCH   5   6
ENDBRANCH   4   5
ENDBRANCH   3   4
ENDBRANCH   2   3
ENDBRANCH   1   2
BRANCH   1  12
ATOM     12  C   UNL     1      10.681   5.901  26.694  1.00  0.00     0.000 C 
BRANCH  12  13
ATOM     13  C   UNL     1       9.786   7.084  27.105  1.00  0.00    -0.000 C 
BRANCH  13  14
ATOM     14  C   UNL     1      10.514   8.082  28.019  1.00  0.00    -0.000 C 
BRANCH  14  15
ATOM     15  C   UNL     1       9.648   8.534  29.208  1.00  0.00    -0.000 C 
BRANCH  15  16
ATOM     16  C   UNL     1       8.812   7.386  29.798  1.00  0.00    -0.000 C 
BRANCH  16  17
ATOM     17  C   UNL     1       9.667   6.382  30.590  1.00  0.00    -0.000 C 
BRANCH  17  18
ATOM     18  C   UNL     1       9.451   4.931  30.132  1.00  0.00    -0.000 C 
BRANCH  18  19
ATOM     19  C   UNL     1      10.535   3.979  30.656  1.00  0.00    -0.003 C 
ATOM     20  C   UNL     1      11.928   4.564  30.446  1.00  0.00     0.004 C 
ENDBRANCH  18  19
ENDBRANCH  17  18
ENDBRANCH  16  17
ENDBRANCH  15  16
ENDBRANCH  14  15
ENDBRANCH  13  14
ENDBRANCH  12  13
ENDBRANCH   1  12
TORSDOF 16
ENDMDL
MODEL 3
REMARK VINA RESULT:    -4.552      1.119      2.692
REMARK INTER + INTRA:         -10.934
REMARK INTER:                  -9.082
REMARK INTRA:                  -1.852
REMARK UNBOUND:                -2.124
REMARK SMILES CCCCCCCCCCCCCCCCCC(=O)[O-]
REMARK SMILES IDX 10 1 11 2 12 3 13 4 14 5 15 6 16 7 17 8 18 9 19 10 20 11
REMARK SMILES IDX 9 12 8 13 7 14 6 15 5 16 4 17 3 18 2 19 1 20
REMARK H PARENT
REMARK Flexibility Score: inf
ROOT
ATOM      1  C   UNL     1      12.471   7.571  25.980  1.00  0.00     0.000 C 
ENDROOT
BRANCH   1   2
ATOM      2  C   UNL     1      13.774   6.772  25.813  1.00  0.00     0.000 C 
BRANCH   2   3
ATOM      3  C   UNL     1      15.016   7.676  25.745  1.00  0.00     0.000 C 
BRANCH   3   4
ATOM      4  C   UNL     1      15.561   7.829  24.314  1.00  0.00     0.000 C 
BRANCH   4   5
ATOM      5  C   UNL     1      15.467   9.274  23.801  1.00  0.00     0.000 C 
BRANCH   5   6
ATOM      6  C   UNL     1      14.230   9.506  22.916  1.00  0.00     0.000 C 
BRANCH   6   7
ATOM      7  C   UNL     1      13.833   8.264  22.097  1.00  0.00     0.006 C 
BRANCH   7   8
ATOM      8  C   UNL     1      12.397   7.777  22.358  1.00  0.00     0.053 C 
BRANCH   8   9
ATOM      9  C   UNL     1      11.606   7.602  21.097  1.00  0.00     0.041 C 
ATOM     10  O   UNL     1      11.804   8.362  20.112  1.00  0.00    -0.550 OA
ATOM     11  O   UNL     1      10.669   6.582  21.001  1.00  0.00    -0.550 OA
ENDBRANCH   8   9
ENDBRANCH   7   8
ENDBRANCH   6   7
ENDBRANCH   5   6
ENDBRANCH   4   5
ENDBRANCH   3   4
ENDBRANCH   2   3
ENDBRANCH   1   2
BRANCH   1  12
ATOM     12  C   UNL     1      11.684   7.161  27.236  1.00  0.00     0.000 C 
BRANCH  12  13
ATOM     13  C   UNL     1      11.602   5.634  27.412  1.00  0.00    -0.000 C 
BRANCH  13  14
ATOM     14  C   UNL     1      10.243   5.064  26.976  1.00  0.00    -0.000 C 
BRANCH  14  15
ATOM     15  C   UNL     1       9.672   4.059  27.991  1.00  0.00    -0.000 C 
BRANCH  15  16
ATOM     16  C   UNL     1      10.374   4.138  29.357  1.00  0.00    -0.000 C 
BRANCH  16  17
ATOM     17  C   UNL     1       9.485   4.773  30.441  1.00  0.00    -0.000 C 
BRANCH  17  18
ATOM     18  C   UNL     1      10.042   6.113  30.949  1.00  0.00    -0.000 C 
BRANCH  18  19
ATOM     19  C   UNL     1       9.041   7.266  30.790  1.00  0.00    -0.003 C 
ATOM     20  C   UNL     1       8.894   7.667  29.326  1.00  0.00     0.004 C 
ENDBRANCH  18  19
ENDBRANCH  17  18
ENDBRANCH  16  17
ENDBRANCH  15  16
ENDBRANCH  14  15
ENDBRANCH  13  14
ENDBRANCH  12  13
ENDBRANCH   1  12
TORSDOF 16
ENDMDL
MODEL 4
REMARK VINA RESULT:    -4.523      9.571     13.975
REMARK INTER + INTRA:         -10.879
REMARK INTER:                  -8.532
REMARK INTRA:                  -2.347
REMARK UNBOUND:                -2.124
REMARK SMILES CCCCCCCCCCCCCCCCCC(=O)[O-]
REMARK SMILES IDX 10 1 11 2 12 3 13 4 14 5 15 6 16 7 17 8 18 9 19 10 20 11
REMARK SMILES IDX 9 12 8 13 7 14 6 15 5 16 4 17 3 18 2 19 1 20
REMARK H PARENT
REMARK Flexibility Score: inf
ROOT
ATOM      1  C   UNL     1       4.954   7.210  16.170  1.00  0.00     0.000 C 
ENDROOT
BRANCH   1   2
ATOM      2  C   UNL     1       3.426   7.055  16.094  1.00  0.00     0.000 C 
BRANCH   2   3
ATOM      3  C   UNL     1       2.729   8.329  15.592  1.00  0.00     0.000 C 
BRANCH   3   4
ATOM      4  C   UNL     1       1.833   8.978  16.663  1.00  0.00     0.000 C 
BRANCH   4   5
ATOM      5  C   UNL     1       2.638   9.510  17.859  1.00  0.00     0.000 C 
BRANCH   5   6
ATOM      6  C   UNL     1       2.173   8.909  19.197  1.00  0.00     0.000 C 
BRANCH   6   7
ATOM      7  C   UNL     1       3.342   8.519  20.121  1.00  0.00     0.006 C 
BRANCH   7   8
ATOM      8  C   UNL     1       4.722   8.588  19.444  1.00  0.00     0.053 C 
BRANCH   8   9
ATOM      9  C   UNL     1       5.669   7.544  19.950  1.00  0.00     0.041 C 
ATOM     10  O   UNL     1       6.706   7.254  19.295  1.00  0.00    -0.550 OA
ATOM     11  O   UNL     1       5.422   6.910  21.161  1.00  0.00    -0.550 OA
ENDBRANCH   8   9
ENDBRANCH   7   8
ENDBRANCH   6   7
ENDBRANCH   5   6
ENDBRANCH   4   5
ENDBRANCH   3   4
ENDBRANCH   2   3
ENDBRANCH   1   2
BRANCH   1  12
ATOM     12  C   UNL     1       5.445   8.527  15.545  1.00  0.00     0.000 C 
BRANCH  12  13
ATOM     13  C   UNL     1       6.967   8.547  15.320  1.00  0.00    -0.000 C 
BRANCH  13  14
ATOM     14  C   UNL     1       7.346   9.007  13.904  1.00  0.00    -0.000 C 
BRANCH  14  15
ATOM     15  C   UNL     1       8.353   8.063  13.226  1.00  0.00    -0.000 C 
BRANCH  15  16
ATOM     16  C   UNL     1       8.367   6.662  13.859  1.00  0.00    -0.000 C 
BRANCH  16  17
ATOM     17  C   UNL     1       7.478   5.663  13.097  1.00  0.00    -0.000 C 
BRANCH  17  18
ATOM     18  C   UNL     1       7.277   6.055  11.624  1.00  0.00    -0.000 C 
BRANCH  18  19
ATOM     19  C   UNL     1       5.797   6.223  11.255  1.00  0.00    -0.003 C 
ATOM     20  C   UNL     1       4.941   6.433  12.500  1.00  0.00     0.004 C 
ENDBRANCH  18  19
ENDBRANCH  17  18
ENDBRANCH  16  17
ENDBRANCH  15  16
ENDBRANCH  14  15
ENDBRANCH  13  14
ENDBRANCH  12  13
ENDBRANCH   1  12
TORSDOF 16
ENDMDL
MODEL 5
REMARK VINA RESULT:    -4.514      2.833      3.425
REMARK INTER + INTRA:         -10.860
REMARK INTER:                  -8.884
REMARK INTRA:                  -1.975
REMARK UNBOUND:                -2.124
REMARK SMILES CCCCCCCCCCCCCCCCCC(=O)[O-]
REMARK SMILES IDX 10 1 11 2 12 3 13 4 14 5 15 6 16 7 17 8 18 9 19 10 20 11
REMARK SMILES IDX 9 12 8 13 7 14 6 15 5 16 4 17 3 18 2 19 1 20
REMARK H PARENT
REMARK Flexibility Score: inf
ROOT
ATOM      1  C   UNL     1      11.769   6.772  27.218  1.00  0.00     0.000 C 
ENDROOT
BRANCH   1   2
ATOM      2  C   UNL     1      12.554   5.799  26.322  1.00  0.00     0.000 C 
BRANCH   2   3
ATOM      3  C   UNL     1      13.794   6.451  25.690  1.00  0.00     0.000 C 
BRANCH   3   4
ATOM      4  C   UNL     1      13.451   7.304  24.455  1.00  0.00     0.000 C 
BRANCH   4   5
ATOM      5  C   UNL     1      13.331   8.799  24.788  1.00  0.00     0.000 C 
BRANCH   5   6
ATOM      6  C   UNL     1      14.695   9.450  25.074  1.00  0.00     0.000 C 
BRANCH   6   7
ATOM      7  C   UNL     1      15.733   9.188  23.967  1.00  0.00     0.006 C 
BRANCH   7   8
ATOM      8  C   UNL     1      17.069   9.920  24.178  1.00  0.00     0.053 C 
BRANCH   8   9
ATOM      9  C   UNL     1      17.921   9.280  25.232  1.00  0.00     0.041 C 
ATOM     10  O   UNL     1      18.251   9.926  26.262  1.00  0.00    -0.550 OA
ATOM     11  O   UNL     1      18.327   7.960  25.089  1.00  0.00    -0.550 OA
ENDBRANCH   8   9
ENDBRANCH   7   8
ENDBRANCH   6   7
ENDBRANCH   5   6
ENDBRANCH   4   5
ENDBRANCH   3   4
ENDBRANCH   2   3
ENDBRANCH   1   2
BRANCH   1  12
ATOM     12  C   UNL     1      10.387   7.121  26.640  1.00  0.00     0.000 C 
BRANCH  12  13
ATOM     13  C   UNL     1       9.286   7.159  27.714  1.00  0.00    -0.000 C 
BRANCH  13  14
ATOM     14  C   UNL     1       9.633   8.100  28.878  1.00  0.00    -0.000 C 
BRANCH  14  15
ATOM     15  C   UNL     1       9.124   7.577  30.232  1.00  0.00    -0.000 C 
BRANCH  15  16
ATOM     16  C   UNL     1       9.006   6.044  30.265  1.00  0.00    -0.000 C 
BRANCH  16  17
ATOM     17  C   UNL     1      10.338   5.358  30.613  1.00  0.00    -0.000 C 
BRANCH  17  18
ATOM     18  C   UNL     1      10.667   4.193  29.665  1.00  0.00    -0.000 C 
BRANCH  18  19
ATOM     19  C   UNL     1       9.455   3.746  28.837  1.00  0.00    -0.003 C 
ATOM     20  C   UNL     1       9.854   3.449  27.395  1.00  0.00     0.004 C 
ENDBRANCH  18  19
ENDBRANCH  17  18
ENDBRANCH  16  17
ENDBRANCH  15  16
ENDBRANCH  14  15
ENDBRANCH  13  14
ENDBRANCH  12  13
ENDBRANCH   1  12
TORSDOF 16
ENDMDL
MODEL 6
REMARK VINA RESULT:    -4.471      2.396      6.880
REMARK INTER + INTRA:         -10.777
REMARK INTER:                  -8.166
REMARK INTRA:                  -2.611
REMARK UNBOUND:                -2.124
REMARK SMILES CCCCCCCCCCCCCCCCCC(=O)[O-]
REMARK SMILES IDX 10 1 11 2 12 3 13 4 14 5 15 6 16 7 17 8 18 9 19 10 20 11
REMARK SMILES IDX 9 12 8 13 7 14 6 15 5 16 4 17 3 18 2 19 1 20
REMARK H PARENT
REMARK Flexibility Score: inf
ROOT
ATOM      1  C   UNL     1      11.928   6.361  25.943  1.00  0.00     0.000 C 
ENDROOT
BRANCH   1   2
ATOM      2  C   UNL     1      11.858   7.300  27.159  1.00  0.00     0.000 C 
BRANCH   2   3
ATOM      3  C   UNL     1      10.512   8.036  27.258  1.00  0.00     0.000 C 
BRANCH   3   4
ATOM      4  C   UNL     1      10.178   8.474  28.695  1.00  0.00     0.000 C 
BRANCH   4   5
ATOM      5  C   UNL     1       9.076   7.613  29.331  1.00  0.00     0.000 C 
BRANCH   5   6
ATOM      6  C   UNL     1       9.610   6.710  30.456  1.00  0.00     0.000 C 
BRANCH   6   7
ATOM      7  C   UNL     1       9.356   5.212  30.200  1.00  0.00     0.006 C 
BRANCH   7   8
ATOM      8  C   UNL     1      10.323   4.580  29.183  1.00  0.00     0.053 C 
BRANCH   8   9
ATOM      9  C   UNL     1       9.656   4.229  27.889  1.00  0.00     0.041 C 
ATOM     10  O   UNL     1       8.857   5.038  27.345  1.00  0.00    -0.550 OA
ATOM     11  O   UNL     1       9.939   3.021  27.266  1.00  0.00    -0.550 OA
ENDBRANCH   8   9
ENDBRANCH   7   8
ENDBRANCH   6   7
ENDBRANCH   5   6
ENDBRANCH   4   5
ENDBRANCH   3   4
ENDBRANCH   2   3
ENDBRANCH   1   2
BRANCH   1  12
ATOM     12  C   UNL     1      13.372   6.096  25.485  1.00  0.00     0.000 C 
BRANCH  12  13
ATOM     13  C   UNL     1      14.320   7.267  25.802  1.00  0.00    -0.000 C 
BRANCH  13  14
ATOM     14  C   UNL     1      15.185   7.665  24.597  1.00  0.00    -0.000 C 
BRANCH  14  15
ATOM     15  C   UNL     1      14.601   8.856  23.818  1.00  0.00    -0.000 C 
BRANCH  15  16
ATOM     16  C   UNL     1      13.748   9.778  24.704  1.00  0.00    -0.000 C 
BRANCH  16  17
ATOM     17  C   UNL     1      12.278   9.835  24.251  1.00  0.00    -0.000 C 
BRANCH  17  18
ATOM     18  C   UNL     1      12.038   9.088  22.929  1.00  0.00    -0.000 C 
BRANCH  18  19
ATOM     19  C   UNL     1      10.905   8.057  23.031  1.00  0.00    -0.003 C 
ATOM     20  C   UNL     1      11.230   6.803  22.226  1.00  0.00     0.004 C 
ENDBRANCH  18  19
ENDBRANCH  17  18
ENDBRANCH  16  17
ENDBRANCH  15  16
ENDBRANCH  14  15
ENDBRANCH  13  14
ENDBRANCH  12  13
ENDBRANCH   1  12
TORSDOF 16
ENDMDL
MODEL 7
REMARK VINA RESULT:    -4.468      2.988      7.541
REMARK INTER + INTRA:         -10.771
REMARK INTER:                  -8.937
REMARK INTRA:                  -1.834
REMARK UNBOUND:                -2.124
REMARK SMILES CCCCCCCCCCCCCCCCCC(=O)[O-]
REMARK SMILES IDX 10 1 11 2 12 3 13 4 14 5 15 6 16 7 17 8 18 9 19 10 20 11
REMARK SMILES IDX 9 12 8 13 7 14 6 15 5 16 4 17 3 18 2 19 1 20
REMARK H PARENT
REMARK Flexibility Score: inf
ROOT
ATOM      1  C   UNL     1      12.629   6.659  27.245  1.00  0.00     0.000 C 
ENDROOT
BRANCH   1   2
ATOM      2  C   UNL     1      11.358   6.096  26.585  1.00  0.00     0.000 C 
BRANCH   2   3
ATOM      3  C   UNL     1      10.162   7.055  26.697  1.00  0.00     0.000 C 
BRANCH   3   4
ATOM      4  C   UNL     1      10.166   7.860  28.010  1.00  0.00     0.000 C 
BRANCH   4   5
ATOM      5  C   UNL     1       8.996   7.486  28.932  1.00  0.00     0.000 C 
BRANCH   5   6
ATOM      6  C   UNL     1       9.348   7.638  30.422  1.00  0.00     0.000 C 
BRANCH   6   7
ATOM      7  C   UNL     1       9.832   6.325  31.064  1.00  0.00     0.006 C 
BRANCH   7   8
ATOM      8  C   UNL     1       9.340   5.059  30.343  1.00  0.00     0.053 C 
BRANCH   8   9
ATOM      9  C   UNL     1      10.444   4.318  29.653  1.00  0.00     0.041 C 
ATOM     10  O   UNL     1      10.190   3.557  28.682  1.00  0.00    -0.550 OA
ATOM     11  O   UNL     1      11.759   4.491  30.064  1.00  0.00    -0.550 OA
ENDBRANCH   8   9
ENDBRANCH   7   8
ENDBRANCH   6   7
ENDBRANCH   5   6
ENDBRANCH   4   5
ENDBRANCH   3   4
ENDBRANCH   2   3
ENDBRANCH   1   2
BRANCH   1  12
ATOM     12  C   UNL     1      13.754   6.918  26.229  1.00  0.00     0.000 C 
BRANCH  12  13
ATOM     13  C   UNL     1      13.252   7.609  24.949  1.00  0.00    -0.000 C 
BRANCH  13  14
ATOM     14  C   UNL     1      12.860   9.075  25.188  1.00  0.00    -0.000 C 
BRANCH  14  15
ATOM     15  C   UNL     1      13.734  10.058  24.389  1.00  0.00    -0.000 C 
BRANCH  15  16
ATOM     16  C   UNL     1      14.850   9.349  23.604  1.00  0.00    -0.000 C 
BRANCH  16  17
ATOM     17  C   UNL     1      16.255   9.789  24.051  1.00  0.00    -0.000 C 
BRANCH  17  18
ATOM     18  C   UNL     1      16.522   9.495  25.536  1.00  0.00    -0.000 C 
BRANCH  18  19
ATOM     19  C   UNL     1      17.552   8.374  25.739  1.00  0.00    -0.003 C 
ATOM     20  C   UNL     1      17.804   7.618  24.438  1.00  0.00     0.004 C 
ENDBRANCH  18  19
ENDBRANCH  17  18
ENDBRANCH  16  17
ENDBRANCH  15  16
ENDBRANCH  14  15
ENDBRANCH  13  14
ENDBRANCH  12  13
ENDBRANCH   1  12
TORSDOF 16
ENDMDL
MODEL 8
REMARK VINA RESULT:    -4.468      2.979      7.451
REMARK INTER + INTRA:         -10.770
REMARK INTER:                  -8.774
REMARK INTRA:                  -1.997
REMARK UNBOUND:                -2.124
REMARK SMILES CCCCCCCCCCCCCCCCCC(=O)[O-]
REMARK SMILES IDX 10 1 11 2 12 3 13 4 14 5 15 6 16 7 17 8 18 9 19 10 20 11
REMARK SMILES IDX 9 12 8 13 7 14 6 15 5 16 4 17 3 18 2 19 1 20
REMARK H PARENT
REMARK Flexibility Score: inf
ROOT
ATOM      1  C   UNL     1      14.114   7.203  25.571  1.00  0.00     0.000 C 
ENDROOT
BRANCH   1   2
ATOM      2  C   UNL     1      13.804   6.445  26.873  1.00  0.00     0.000 C 
BRANCH   2   3
ATOM      3  C   UNL     1      12.308   6.128  27.028  1.00  0.00     0.000 C 
BRANCH   3   4
ATOM      4  C   UNL     1      11.438   7.395  27.114  1.00  0.00     0.000 C 
BRANCH   4   5
ATOM      5  C   UNL     1       9.961   7.075  27.390  1.00  0.00     0.000 C 
BRANCH   5   6
ATOM      6  C   UNL     1       9.531   7.463  28.815  1.00  0.00     0.000 C 
BRANCH   6   7
ATOM      7  C   UNL     1       9.025   6.265  29.640  1.00  0.00     0.006 C 
BRANCH   7   8
ATOM      8  C   UNL     1      10.060   5.712  30.635  1.00  0.00     0.053 C 
BRANCH   8   9
ATOM      9  C   UNL     1      10.843   4.562  30.079  1.00  0.00     0.041 C 
ATOM     10  O   UNL     1      11.988   4.294  30.531  1.00  0.00    -0.550 OA
ATOM     11  O   UNL     1      10.296   3.768  29.079  1.00  0.00    -0.550 OA
ENDBRANCH   8   9
ENDBRANCH   7   8
ENDBRANCH   6   7
ENDBRANCH   5   6
ENDBRANCH   4   5
ENDBRANCH   3   4
ENDBRANCH   2   3
ENDBRANCH   1   2
BRANCH   1  12
ATOM     12  C   UNL     1      15.466   7.933  25.622  1.00  0.00     0.000 C 
BRANCH  12  13
ATOM     13  C   UNL     1      15.372   9.391  25.137  1.00  0.00    -0.000 C 
BRANCH  13  14
ATOM     14  C   UNL     1      14.200   9.614  24.169  1.00  0.00    -0.000 C 
BRANCH  14  15
ATOM     15  C   UNL     1      14.654   9.696  22.701  1.00  0.00    -0.000 C 
BRANCH  15  16
ATOM     16  C   UNL     1      13.521   9.370  21.715  1.00  0.00    -0.000 C 
BRANCH  16  17
ATOM     17  C   UNL     1      13.394   7.861  21.441  1.00  0.00    -0.000 C 
BRANCH  17  18
ATOM     18  C   UNL     1      11.958   7.346  21.626  1.00  0.00    -0.000 C 
BRANCH  18  19
ATOM     19  C   UNL     1      11.619   7.060  23.095  1.00  0.00    -0.003 C 
ATOM     20  C   UNL     1      10.644   8.096  23.646  1.00  0.00     0.004 C 
ENDBRANCH  18  19
ENDBRANCH  17  18
ENDBRANCH  16  17
ENDBRANCH  15  16
ENDBRANCH  14  15
ENDBRANCH  13  14
ENDBRANCH  12  13
ENDBRANCH   1  12
TORSDOF 16
ENDMDL
MODEL 9
REMARK VINA RESULT:    -4.428      9.191     11.976
REMARK INTER + INTRA:         -10.695
REMARK INTER:                  -8.176
REMARK INTRA:                  -2.519
REMARK UNBOUND:                -2.124
REMARK SMILES CCCCCCCCCCCCCCCCCC(=O)[O-]
REMARK SMILES IDX 10 1 11 2 12 3 13 4 14 5 15 6 16 7 17 8 18 9 19 10 20 11
REMARK SMILES IDX 9 12 8 13 7 14 6 15 5 16 4 17 3 18 2 19 1 20
REMARK H PARENT
REMARK Flexibility Score: inf
ROOT
ATOM      1  C   UNL     1       2.823   7.844  17.792  1.00  0.00     0.000 C 
ENDROOT
BRANCH   1   2
ATOM      2  C   UNL     1       2.813   8.856  16.634  1.00  0.00     0.000 C 
BRANCH   2   3
ATOM      3  C   UNL     1       3.122   8.202  15.278  1.00  0.00     0.000 C 
BRANCH   3   4
ATOM      4  C   UNL     1       4.632   8.061  15.016  1.00  0.00     0.000 C 
BRANCH   4   5
ATOM      5  C   UNL     1       5.012   6.661  14.510  1.00  0.00     0.000 C 
BRANCH   5   6
ATOM      6  C   UNL     1       6.438   6.254  14.919  1.00  0.00     0.000 C 
BRANCH   6   7
ATOM      7  C   UNL     1       7.508   7.266  14.466  1.00  0.00     0.006 C 
BRANCH   7   8
ATOM      8  C   UNL     1       8.162   6.921  13.117  1.00  0.00     0.053 C 
BRANCH   8   9
ATOM      9  C   UNL     1       7.486   7.587  11.958  1.00  0.00     0.041 C 
ATOM     10  O   UNL     1       6.609   6.973  11.294  1.00  0.00    -0.550 OA
ATOM     11  O   UNL     1       7.806   8.897  11.627  1.00  0.00    -0.550 OA
ENDBRANCH   8   9
ENDBRANCH   7   8
ENDBRANCH   6   7
ENDBRANCH   5   6
ENDBRANCH   4   5
ENDBRANCH   3   4
ENDBRANCH   2   3
ENDBRANCH   1   2
BRANCH   1  12
ATOM     12  C   UNL     1       2.269   8.437  19.098  1.00  0.00     0.000 C 
BRANCH  12  13
ATOM     13  C   UNL     1       2.823   9.842  19.395  1.00  0.00    -0.000 C 
BRANCH  13  14
ATOM     14  C   UNL     1       3.657   9.884  20.685  1.00  0.00    -0.000 C 
BRANCH  14  15
ATOM     15  C   UNL     1       3.775   8.505  21.356  1.00  0.00    -0.000 C 
BRANCH  15  16
ATOM     16  C   UNL     1       5.232   8.025  21.463  1.00  0.00    -0.000 C 
BRANCH  16  17
ATOM     17  C   UNL     1       5.631   7.094  20.305  1.00  0.00    -0.000 C 
BRANCH  17  18
ATOM     18  C   UNL     1       6.862   7.602  19.537  1.00  0.00    -0.000 C 
BRANCH  18  19
ATOM     19  C   UNL     1       6.527   8.025  18.100  1.00  0.00    -0.003 C 
ATOM     20  C   UNL     1       6.273   9.527  18.015  1.00  0.00     0.004 C 
ENDBRANCH  18  19
ENDBRANCH  17  18
ENDBRANCH  16  17
ENDBRANCH  15  16
ENDBRANCH  14  15
ENDBRANCH  13  14
ENDBRANCH  12  13
ENDBRANCH   1  12
TORSDOF 16
ENDMDL
