MODEL 1
REMARK VINA RESULT:     6.974      0.000      0.000
REMARK INTER + INTRA:           9.419
REMARK INTER:                   9.216
REMARK INTRA:                   0.204
REMARK UNBOUND:                 0.204
REMARK SMILES C=C(CC[C@H](C)[C@H]1CC[C@@]2(C)[C@@H]3CC[C@@H]4C(C)(C)[C@H](O)CC[C@]45C[C@]35CC[C@@]12C)C(C)C
REMARK SMILES IDX 4 1 3 2 2 3 1 4 30 5 31 6 32 7 5 8 6 9 7 10 8 11 28 12 9 13
REMARK SMILES IDX 10 14 27 15 29 16 11 17 12 18 26 19 25 20 13 21 23 22 24 23
REMARK SMILES IDX 14 24 15 25 22 26 16 27 21 28 19 29 17 30 18 31 20 32
REMARK H PARENT 20 33
REMARK Flexibility Score: inf
ROOT
ATOM      1  C   UNL     1     134.298 124.714 137.367  1.00  0.00     0.008 C 
ENDROOT
BRANCH   1   2
ATOM      2  C   UNL     1     132.840 124.873 137.842  1.00  0.00     0.031 C 
BRANCH   2   3
ATOM      3  C   UNL     1     132.066 125.811 136.936  1.00  0.00    -0.075 C 
ATOM      4  C   UNL     1     132.690 126.372 135.884  1.00  0.00     0.008 C 
BRANCH   3   5
ATOM      5  C   UNL     1     130.617 126.166 137.234  1.00  0.00     0.008 C 
ATOM      6  C   UNL     1     130.049 127.117 136.175  1.00  0.00     0.012 C 
ATOM      7  C   UNL     1     130.469 126.756 138.640  1.00  0.00     0.012 C 
ENDBRANCH   3   5
ENDBRANCH   2   3
ENDBRANCH   1   2
BRANCH   1   8
ATOM      8  C   UNL     1     134.831 123.251 137.409  1.00  0.00    -0.010 C 
ATOM      9  C   UNL     1     133.649 122.251 137.379  1.00  0.00     0.008 C 
BRANCH   8  10
ATOM     10  C   UNL     1     135.947 123.050 138.517  1.00  0.00    -0.002 C 
ATOM     11  C   UNL     1     137.336 123.684 138.279  1.00  0.00     0.005 C 
ATOM     12  C   UNL     1     135.603 123.409 140.003  1.00  0.00    -0.024 C 
ATOM     13  C   UNL     1     137.900 124.045 139.667  1.00  0.00     0.008 C 
ATOM     14  C   UNL     1     137.009 123.335 140.717  1.00  0.00    -0.024 C 
ATOM     15  C   UNL     1     135.010 124.859 140.038  1.00  0.00     0.008 C 
ATOM     16  C   UNL     1     134.582 122.408 140.604  1.00  0.00     0.012 C 
ATOM     17  C   UNL     1     137.547 121.858 140.810  1.00  0.00     0.012 C 
ATOM     18  C   UNL     1     137.076 124.073 142.145  1.00  0.00     0.002 C 
ATOM     19  C   UNL     1     135.194 125.681 141.316  1.00  0.00     0.008 C 
ATOM     20  C   UNL     1     135.790 124.887 142.479  1.00  0.00    -0.020 C 
ATOM     21  C   UNL     1     137.502 123.162 143.332  1.00  0.00     0.005 C 
ATOM     22  C   UNL     1     135.817 125.602 143.860  1.00  0.00    -0.020 C 
ATOM     23  C   UNL     1     134.809 124.477 143.597  1.00  0.00     0.015 C 
ATOM     24  C   UNL     1     137.571 123.851 144.706  1.00  0.00     0.005 C 
ATOM     25  C   UNL     1     137.063 125.316 144.753  1.00  0.00     0.004 C 
ATOM     26  C   UNL     1     135.263 127.050 143.913  1.00  0.00     0.010 C 
ATOM     27  C   UNL     1     136.874 125.864 146.220  1.00  0.00    -0.006 C 
ATOM     28  C   UNL     1     135.139 127.565 145.344  1.00  0.00     0.033 C 
ATOM     29  C   UNL     1     136.446 127.368 146.136  1.00  0.00     0.120 C 
ATOM     30  C   UNL     1     135.825 125.036 147.013  1.00  0.00     0.014 C 
ATOM     31  C   UNL     1     138.222 125.794 146.984  1.00  0.00     0.014 C 
BRANCH  29  32
ATOM     32  O   UNL     1     136.362 127.970 147.409  1.00  0.00    -0.393 OA
ATOM     33  H   UNL     1     135.781 128.772 147.345  1.00  0.00     0.210 HD
ENDBRANCH  29  32
ENDBRANCH   8  10
ENDBRANCH   1   8
TORSDOF 6
ENDMDL
MODEL 2
REMARK VINA RESULT:     8.506      3.170      8.594
REMARK INTER + INTRA:          11.444
REMARK INTER:                  11.047
REMARK INTRA:                   0.397
REMARK UNBOUND:                 0.204
REMARK SMILES C=C(CC[C@H](C)[C@H]1CC[C@@]2(C)[C@@H]3CC[C@@H]4C(C)(C)[C@H](O)CC[C@]45C[C@]35CC[C@@]12C)C(C)C
REMARK SMILES IDX 4 1 3 2 2 3 1 4 30 5 31 6 32 7 5 8 6 9 7 10 8 11 28 12 9 13
REMARK SMILES IDX 10 14 27 15 29 16 11 17 12 18 26 19 25 20 13 21 23 22 24 23
REMARK SMILES IDX 14 24 15 25 22 26 16 27 21 28 19 29 17 30 18 31 20 32
REMARK H PARENT 20 33
REMARK Flexibility Score: inf
ROOT
ATOM      1  C   UNL     1     139.283 125.922 146.289  1.00  0.00     0.008 C 
ENDROOT
BRANCH   1   2
ATOM      2  C   UNL     1     139.730 127.129 145.441  1.00  0.00     0.031 C 
BRANCH   2   3
ATOM      3  C   UNL     1     141.193 127.018 145.057  1.00  0.00    -0.075 C 
ATOM      4  C   UNL     1     142.122 126.925 146.026  1.00  0.00     0.008 C 
BRANCH   3   5
ATOM      5  C   UNL     1     141.624 127.067 143.599  1.00  0.00     0.008 C 
ATOM      6  C   UNL     1     141.451 125.702 142.922  1.00  0.00     0.012 C 
ATOM      7  C   UNL     1     143.065 127.570 143.463  1.00  0.00     0.012 C 
ENDBRANCH   3   5
ENDBRANCH   2   3
ENDBRANCH   1   2
BRANCH   1   8
ATOM      8  C   UNL     1     137.938 126.134 147.048  1.00  0.00    -0.010 C 
ATOM      9  C   UNL     1     137.977 125.406 148.414  1.00  0.00     0.008 C 
BRANCH   8  10
ATOM     10  C   UNL     1     136.679 125.897 146.115  1.00  0.00    -0.002 C 
ATOM     11  C   UNL     1     136.009 127.130 145.466  1.00  0.00     0.005 C 
ATOM     12  C   UNL     1     136.791 124.856 144.951  1.00  0.00    -0.024 C 
ATOM     13  C   UNL     1     135.434 126.659 144.116  1.00  0.00     0.008 C 
ATOM     14  C   UNL     1     135.472 125.110 144.122  1.00  0.00    -0.024 C 
ATOM     15  C   UNL     1     138.074 125.184 144.115  1.00  0.00     0.008 C 
ATOM     16  C   UNL     1     136.875 123.406 145.497  1.00  0.00     0.012 C 
ATOM     17  C   UNL     1     134.185 124.651 144.905  1.00  0.00     0.012 C 
ATOM     18  C   UNL     1     135.492 124.514 142.629  1.00  0.00     0.002 C 
ATOM     19  C   UNL     1     138.088 124.794 142.633  1.00  0.00     0.008 C 
ATOM     20  C   UNL     1     136.884 123.954 142.207  1.00  0.00    -0.020 C 
ATOM     21  C   UNL     1     134.349 123.507 142.312  1.00  0.00     0.005 C 
ATOM     22  C   UNL     1     136.934 123.356 140.771  1.00  0.00    -0.020 C 
ATOM     23  C   UNL     1     137.147 122.449 141.989  1.00  0.00     0.015 C 
ATOM     24  C   UNL     1     134.353 122.926 140.887  1.00  0.00     0.005 C 
ATOM     25  C   UNL     1     135.575 123.300 140.008  1.00  0.00     0.004 C 
ATOM     26  C   UNL     1     138.181 123.693 139.913  1.00  0.00     0.010 C 
ATOM     27  C   UNL     1     135.678 122.445 138.686  1.00  0.00    -0.006 C 
ATOM     28  C   UNL     1     138.223 122.883 138.620  1.00  0.00     0.033 C 
ATOM     29  C   UNL     1     136.893 122.972 137.849  1.00  0.00     0.120 C 
ATOM     30  C   UNL     1     135.836 120.930 138.991  1.00  0.00     0.014 C 
ATOM     31  C   UNL     1     134.395 122.636 137.836  1.00  0.00     0.014 C 
BRANCH  29  32
ATOM     32  O   UNL     1     136.991 122.335 136.595  1.00  0.00    -0.393 OA
ATOM     33  H   UNL     1     136.730 121.383 136.698  1.00  0.00     0.210 HD
ENDBRANCH  29  32
ENDBRANCH   8  10
ENDBRANCH   1   8
TORSDOF 6
ENDMDL
