MODEL 1
REMARK VINA RESULT:    -4.326      0.000      0.000
REMARK INTER + INTRA:          -4.979
REMARK INTER:                  -4.832
REMARK INTRA:                  -0.147
REMARK UNBOUND:                -0.147
REMARK SMILES O=C([O-])C=Cc1ccccc1
REMARK SMILES IDX 4 1 5 2 2 3 1 4 3 5 6 6 7 7 11 8 8 9 10 10 9 11
REMARK H PARENT
REMARK Flexibility Score: inf
ROOT
ATOM      1  C   UNL     1      -3.294   3.389   3.465  1.00  0.00     0.025 C 
ATOM      2  C   UNL     1      -3.594   3.771   2.214  1.00  0.00     0.010 C 
ENDROOT
BRANCH   1   3
ATOM      3  C   UNL     1      -3.250   1.970   3.863  1.00  0.00     0.064 C 
ATOM      4  O   UNL     1      -3.733   1.070   3.125  1.00  0.00    -0.545 OA
ATOM      5  O   UNL     1      -2.664   1.619   5.071  1.00  0.00    -0.545 OA
ENDBRANCH   1   3
BRANCH   2   6
ATOM      6  C   UNL     1      -3.656   5.183   1.749  1.00  0.00    -0.026 A 
ATOM      7  C   UNL     1      -3.288   6.196   2.654  1.00  0.00     0.008 A 
ATOM      8  C   UNL     1      -4.063   5.555   0.448  1.00  0.00     0.008 A 
ATOM      9  C   UNL     1      -3.325   7.541   2.274  1.00  0.00     0.001 A 
ATOM     10  C   UNL     1      -4.098   6.903   0.075  1.00  0.00     0.001 A 
ATOM     11  C   UNL     1      -3.729   7.894   0.986  1.00  0.00     0.000 A 
ENDBRANCH   2   6
TORSDOF 2
ENDMDL
MODEL 2
REMARK VINA RESULT:    -4.239      0.839      1.663
REMARK INTER + INTRA:          -4.882
REMARK INTER:                  -4.737
REMARK INTRA:                  -0.145
REMARK UNBOUND:                -0.147
REMARK SMILES O=C([O-])C=Cc1ccccc1
REMARK SMILES IDX 4 1 5 2 2 3 1 4 3 5 6 6 7 7 11 8 8 9 10 10 9 11
REMARK H PARENT
REMARK Flexibility Score: inf
ROOT
ATOM      1  C   UNL     1      -3.662   3.280   2.743  1.00  0.00     0.025 C 
ATOM      2  C   UNL     1      -3.324   4.568   2.911  1.00  0.00     0.010 C 
ENDROOT
BRANCH   1   3
ATOM      3  C   UNL     1      -3.437   2.268   3.790  1.00  0.00     0.064 C 
ATOM      4  O   UNL     1      -2.724   1.252   3.574  1.00  0.00    -0.545 OA
ATOM      5  O   UNL     1      -4.020   2.438   5.039  1.00  0.00    -0.545 OA
ENDBRANCH   1   3
BRANCH   2   6
ATOM      6  C   UNL     1      -3.524   5.638   1.896  1.00  0.00    -0.026 A 
ATOM      7  C   UNL     1      -4.177   5.300   0.696  1.00  0.00     0.008 A 
ATOM      8  C   UNL     1      -3.093   6.971   2.078  1.00  0.00     0.008 A 
ATOM      9  C   UNL     1      -4.394   6.262  -0.295  1.00  0.00     0.001 A 
ATOM     10  C   UNL     1      -3.313   7.928   1.081  1.00  0.00     0.001 A 
ATOM     11  C   UNL     1      -3.962   7.576  -0.102  1.00  0.00     0.000 A 
ENDBRANCH   2   6
TORSDOF 2
ENDMDL
MODEL 3
REMARK VINA RESULT:    -3.436      6.577      8.170
REMARK INTER + INTRA:          -3.985
REMARK INTER:                  -3.841
REMARK INTRA:                  -0.144
REMARK UNBOUND:                -0.147
REMARK SMILES O=C([O-])C=Cc1ccccc1
REMARK SMILES IDX 4 1 5 2 2 3 1 4 3 5 6 6 7 7 11 8 8 9 10 10 9 11
REMARK H PARENT
REMARK Flexibility Score: inf
ROOT
ATOM      1  C   UNL     1      -2.667   7.565   7.432  1.00  0.00     0.025 C 
ATOM      2  C   UNL     1      -2.747   6.441   8.160  1.00  0.00     0.010 C 
ENDROOT
BRANCH   1   3
ATOM      3  C   UNL     1      -3.852   8.185   6.813  1.00  0.00     0.064 C 
ATOM      4  O   UNL     1      -4.521   7.579   5.933  1.00  0.00    -0.545 OA
ATOM      5  O   UNL     1      -4.239   9.458   7.207  1.00  0.00    -0.545 OA
ENDBRANCH   1   3
BRANCH   2   6
ATOM      6  C   UNL     1      -1.591   5.766   8.811  1.00  0.00    -0.026 A 
ATOM      7  C   UNL     1      -0.407   6.505   8.991  1.00  0.00     0.008 A 
ATOM      8  C   UNL     1      -1.625   4.426   9.257  1.00  0.00     0.008 A 
ATOM      9  C   UNL     1       0.712   5.925   9.596  1.00  0.00     0.001 A 
ATOM     10  C   UNL     1      -0.502   3.852   9.862  1.00  0.00     0.001 A 
ATOM     11  C   UNL     1       0.665   4.600  10.032  1.00  0.00     0.000 A 
ENDBRANCH   2   6
TORSDOF 2
ENDMDL
MODEL 4
REMARK VINA RESULT:    -3.433      6.578      8.262
REMARK INTER + INTRA:          -3.981
REMARK INTER:                  -3.849
REMARK INTRA:                  -0.132
REMARK UNBOUND:                -0.147
REMARK SMILES O=C([O-])C=Cc1ccccc1
REMARK SMILES IDX 4 1 5 2 2 3 1 4 3 5 6 6 7 7 11 8 8 9 10 10 9 11
REMARK H PARENT
REMARK Flexibility Score: inf
ROOT
ATOM      1  C   UNL     1      -2.634   7.745   7.473  1.00  0.00     0.025 C 
ATOM      2  C   UNL     1      -2.680   6.551   8.084  1.00  0.00     0.010 C 
ENDROOT
BRANCH   1   3
ATOM      3  C   UNL     1      -3.815   8.337   6.820  1.00  0.00     0.064 C 
ATOM      4  O   UNL     1      -4.182   9.515   7.076  1.00  0.00    -0.545 OA
ATOM      5  O   UNL     1      -4.536   7.584   5.903  1.00  0.00    -0.545 OA
ENDBRANCH   1   3
BRANCH   2   6
ATOM      6  C   UNL     1      -1.526   5.898   8.761  1.00  0.00    -0.026 A 
ATOM      7  C   UNL     1      -1.675   4.565   9.187  1.00  0.00     0.008 A 
ATOM      8  C   UNL     1      -0.294   6.548   8.994  1.00  0.00     0.008 A 
ATOM      9  C   UNL     1      -0.626   3.899   9.828  1.00  0.00     0.001 A 
ATOM     10  C   UNL     1       0.751   5.875   9.637  1.00  0.00     0.001 A 
ATOM     11  C   UNL     1       0.586   4.553  10.053  1.00  0.00     0.000 A 
ENDBRANCH   2   6
TORSDOF 2
ENDMDL
MODEL 5
REMARK VINA RESULT:    -3.363      6.774      7.888
REMARK INTER + INTRA:          -3.903
REMARK INTER:                  -3.763
REMARK INTRA:                  -0.140
REMARK UNBOUND:                -0.147
REMARK SMILES O=C([O-])C=Cc1ccccc1
REMARK SMILES IDX 4 1 5 2 2 3 1 4 3 5 6 6 7 7 11 8 8 9 10 10 9 11
REMARK H PARENT
REMARK Flexibility Score: inf
ROOT
ATOM      1  C   UNL     1       0.530   3.180   9.960  1.00  0.00     0.025 C 
ATOM      2  C   UNL     1      -0.699   3.721   9.959  1.00  0.00     0.010 C 
ENDROOT
BRANCH   1   3
ATOM      3  C   UNL     1       0.823   1.901  10.629  1.00  0.00     0.064 C 
ATOM      4  O   UNL     1       0.884   1.819  11.884  1.00  0.00    -0.545 OA
ATOM      5  O   UNL     1       1.034   0.763   9.861  1.00  0.00    -0.545 OA
ENDBRANCH   1   3
BRANCH   2   6
ATOM      6  C   UNL     1      -1.061   5.007   9.304  1.00  0.00    -0.026 A 
ATOM      7  C   UNL     1      -0.107   6.041   9.302  1.00  0.00     0.008 A 
ATOM      8  C   UNL     1      -2.310   5.238   8.685  1.00  0.00     0.008 A 
ATOM      9  C   UNL     1      -0.390   7.272   8.701  1.00  0.00     0.001 A 
ATOM     10  C   UNL     1      -2.585   6.473   8.086  1.00  0.00     0.001 A 
ATOM     11  C   UNL     1      -1.628   7.488   8.094  1.00  0.00     0.000 A 
ENDBRANCH   2   6
TORSDOF 2
ENDMDL
MODEL 6
REMARK VINA RESULT:    -3.353      6.836      8.063
REMARK INTER + INTRA:          -3.892
REMARK INTER:                  -3.763
REMARK INTRA:                  -0.129
REMARK UNBOUND:                -0.147
REMARK SMILES O=C([O-])C=Cc1ccccc1
REMARK SMILES IDX 4 1 5 2 2 3 1 4 3 5 6 6 7 7 11 8 8 9 10 10 9 11
REMARK H PARENT
REMARK Flexibility Score: inf
ROOT
ATOM      1  C   UNL     1       0.690   3.078  10.015  1.00  0.00     0.025 C 
ATOM      2  C   UNL     1      -0.539   3.618  10.016  1.00  0.00     0.010 C 
ENDROOT
BRANCH   1   3
ATOM      3  C   UNL     1       0.981   1.791  10.669  1.00  0.00     0.064 C 
ATOM      4  O   UNL     1       1.170   1.718  11.913  1.00  0.00    -0.545 OA
ATOM      5  O   UNL     1       1.047   0.636   9.902  1.00  0.00    -0.545 OA
ENDBRANCH   1   3
BRANCH   2   6
ATOM      6  C   UNL     1      -0.900   4.912   9.375  1.00  0.00    -0.026 A 
ATOM      7  C   UNL     1      -2.180   5.034   8.803  1.00  0.00     0.008 A 
ATOM      8  C   UNL     1      -0.025   6.019   9.316  1.00  0.00     0.008 A 
ATOM      9  C   UNL     1      -2.576   6.225   8.187  1.00  0.00     0.001 A 
ATOM     10  C   UNL     1      -0.428   7.208   8.698  1.00  0.00     0.001 A 
ATOM     11  C   UNL     1      -1.701   7.311   8.135  1.00  0.00     0.000 A 
ENDBRANCH   2   6
TORSDOF 2
ENDMDL
MODEL 7
REMARK VINA RESULT:    -3.124      7.482      8.763
REMARK INTER + INTRA:          -3.636
REMARK INTER:                  -3.507
REMARK INTRA:                  -0.129
REMARK UNBOUND:                -0.147
REMARK SMILES O=C([O-])C=Cc1ccccc1
REMARK SMILES IDX 4 1 5 2 2 3 1 4 3 5 6 6 7 7 11 8 8 9 10 10 9 11
REMARK H PARENT
REMARK Flexibility Score: inf
ROOT
ATOM      1  C   UNL     1       2.024   3.816   9.707  1.00  0.00     0.025 C 
ATOM      2  C   UNL     1       1.245   4.835  10.103  1.00  0.00     0.010 C 
ENDROOT
BRANCH   1   3
ATOM      3  C   UNL     1       3.326   3.534  10.336  1.00  0.00     0.064 C 
ATOM      4  O   UNL     1       3.541   3.813  11.546  1.00  0.00    -0.545 OA
ATOM      5  O   UNL     1       4.334   2.949   9.583  1.00  0.00    -0.545 OA
ENDBRANCH   1   3
BRANCH   2   6
ATOM      6  C   UNL     1      -0.077   5.174   9.511  1.00  0.00    -0.026 A 
ATOM      7  C   UNL     1      -0.255   6.465   8.981  1.00  0.00     0.008 A 
ATOM      8  C   UNL     1      -1.158   4.266   9.454  1.00  0.00     0.008 A 
ATOM      9  C   UNL     1      -1.476   6.842   8.411  1.00  0.00     0.001 A 
ATOM     10  C   UNL     1      -2.376   4.650   8.883  1.00  0.00     0.001 A 
ATOM     11  C   UNL     1      -2.535   5.935   8.362  1.00  0.00     0.000 A 
ENDBRANCH   2   6
TORSDOF 2
ENDMDL
MODEL 8
REMARK VINA RESULT:    -3.086      7.522      8.835
REMARK INTER + INTRA:          -3.594
REMARK INTER:                  -3.449
REMARK INTRA:                  -0.145
REMARK UNBOUND:                -0.147
REMARK SMILES O=C([O-])C=Cc1ccccc1
REMARK SMILES IDX 4 1 5 2 2 3 1 4 3 5 6 6 7 7 11 8 8 9 10 10 9 11
REMARK H PARENT
REMARK Flexibility Score: inf
ROOT
ATOM      1  C   UNL     1      -0.020   8.904   7.965  1.00  0.00     0.025 C 
ATOM      2  C   UNL     1      -1.121   8.137   7.935  1.00  0.00     0.010 C 
ENDROOT
BRANCH   1   3
ATOM      3  C   UNL     1      -0.000  10.270   7.411  1.00  0.00     0.064 C 
ATOM      4  O   UNL     1       0.403  10.493   6.239  1.00  0.00    -0.545 OA
ATOM      5  O   UNL     1      -0.436  11.329   8.195  1.00  0.00    -0.545 OA
ENDBRANCH   1   3
BRANCH   2   6
ATOM      6  C   UNL     1      -1.208   6.753   8.476  1.00  0.00    -0.026 A 
ATOM      7  C   UNL     1      -0.087   6.234   9.151  1.00  0.00     0.008 A 
ATOM      8  C   UNL     1      -2.355   5.940   8.347  1.00  0.00     0.008 A 
ATOM      9  C   UNL     1      -0.109   4.940   9.681  1.00  0.00     0.001 A 
ATOM     10  C   UNL     1      -2.370   4.646   8.879  1.00  0.00     0.001 A 
ATOM     11  C   UNL     1      -1.250   4.147   9.546  1.00  0.00     0.000 A 
ENDBRANCH   2   6
TORSDOF 2
ENDMDL
MODEL 9
REMARK VINA RESULT:    -3.005     10.714     11.283
REMARK INTER + INTRA:          -3.504
REMARK INTER:                  -3.369
REMARK INTRA:                  -0.135
REMARK UNBOUND:                -0.147
REMARK SMILES O=C([O-])C=Cc1ccccc1
REMARK SMILES IDX 4 1 5 2 2 3 1 4 3 5 6 6 7 7 11 8 8 9 10 10 9 11
REMARK H PARENT
REMARK Flexibility Score: inf
ROOT
ATOM      1  C   UNL     1      -4.839  -4.369   7.292  1.00  0.00     0.025 C 
ATOM      2  C   UNL     1      -4.495  -4.543   8.577  1.00  0.00     0.010 C 
ENDROOT
BRANCH   1   3
ATOM      3  C   UNL     1      -4.797  -5.469   6.312  1.00  0.00     0.064 C 
ATOM      4  O   UNL     1      -3.969  -5.467   5.363  1.00  0.00    -0.545 OA
ATOM      5  O   UNL     1      -5.686  -6.528   6.439  1.00  0.00    -0.545 OA
ENDBRANCH   1   3
BRANCH   2   6
ATOM      6  C   UNL     1      -4.515  -3.477   9.615  1.00  0.00    -0.026 A 
ATOM      7  C   UNL     1      -5.697  -2.730   9.775  1.00  0.00     0.008 A 
ATOM      8  C   UNL     1      -3.411  -3.180  10.444  1.00  0.00     0.008 A 
ATOM      9  C   UNL     1      -5.776  -1.715  10.734  1.00  0.00     0.001 A 
ATOM     10  C   UNL     1      -3.497  -2.163  11.401  1.00  0.00     0.001 A 
ATOM     11  C   UNL     1      -4.677  -1.432  11.546  1.00  0.00     0.000 A 
ENDBRANCH   2   6
TORSDOF 2
ENDMDL
