MODEL 1
REMARK VINA RESULT:    -4.136      0.000      0.000
REMARK INTER + INTRA:          -9.555
REMARK INTER:                  -7.521
REMARK INTRA:                  -2.034
REMARK UNBOUND:                -2.034
REMARK SMILES CCCCCCCCCCCCCCCC(=O)[O-]
REMARK SMILES IDX 9 1 10 2 11 3 12 4 13 5 14 6 15 7 16 8 17 9 18 10 8 11 7 12
REMARK SMILES IDX 6 13 5 14 4 15 3 16 2 17 1 18
REMARK H PARENT
REMARK Flexibility Score: inf
ROOT
ATOM      1  C   UNL     1     173.565 171.345 150.139  1.00  0.00     0.000 C 
ENDROOT
BRANCH   1   2
ATOM      2  C   UNL     1     175.101 171.196 150.209  1.00  0.00     0.000 C 
BRANCH   2   3
ATOM      3  C   UNL     1     175.551 169.725 150.170  1.00  0.00     0.000 C 
BRANCH   3   4
ATOM      4  C   UNL     1     174.489 168.764 150.728  1.00  0.00     0.000 C 
BRANCH   4   5
ATOM      5  C   UNL     1     174.471 167.412 149.994  1.00  0.00     0.000 C 
BRANCH   5   6
ATOM      6  C   UNL     1     173.751 167.493 148.632  1.00  0.00     0.006 C 
BRANCH   6   7
ATOM      7  C   UNL     1     172.364 168.151 148.710  1.00  0.00     0.053 C 
BRANCH   7   8
ATOM      8  C   UNL     1     171.258 167.143 148.745  1.00  0.00     0.041 C 
ATOM      9  O   UNL     1     170.334 167.185 147.890  1.00  0.00    -0.550 OA
ATOM     10  O   UNL     1     171.234 166.172 149.738  1.00  0.00    -0.550 OA
ENDBRANCH   7   8
ENDBRANCH   6   7
ENDBRANCH   5   6
ENDBRANCH   4   5
ENDBRANCH   3   4
ENDBRANCH   2   3
ENDBRANCH   1   2
BRANCH   1  11
ATOM     11  C   UNL     1     173.092 172.801 149.962  1.00  0.00     0.000 C 
BRANCH  11  12
ATOM     12  C   UNL     1     174.099 173.869 150.424  1.00  0.00    -0.000 C 
BRANCH  12  13
ATOM     13  C   UNL     1     174.036 174.225 151.924  1.00  0.00    -0.000 C 
BRANCH  13  14
ATOM     14  C   UNL     1     175.356 174.049 152.698  1.00  0.00    -0.000 C 
BRANCH  14  15
ATOM     15  C   UNL     1     175.241 173.037 153.851  1.00  0.00    -0.000 C 
BRANCH  15  16
ATOM     16  C   UNL     1     173.819 172.475 154.003  1.00  0.00    -0.000 C 
BRANCH  16  17
ATOM     17  C   UNL     1     173.738 170.973 153.692  1.00  0.00    -0.003 C 
ATOM     18  C   UNL     1     174.920 170.223 154.299  1.00  0.00     0.004 C 
ENDBRANCH  16  17
ENDBRANCH  15  16
ENDBRANCH  14  15
ENDBRANCH  13  14
ENDBRANCH  12  13
ENDBRANCH  11  12
ENDBRANCH   1  11
TORSDOF 14
ENDMDL
MODEL 2
REMARK VINA RESULT:    -3.977      1.676      2.472
REMARK INTER + INTRA:          -9.267
REMARK INTER:                  -6.958
REMARK INTRA:                  -2.308
REMARK UNBOUND:                -2.034
REMARK SMILES CCCCCCCCCCCCCCCC(=O)[O-]
REMARK SMILES IDX 9 1 10 2 11 3 12 4 13 5 14 6 15 7 16 8 17 9 18 10 8 11 7 12
REMARK SMILES IDX 6 13 5 14 4 15 3 16 2 17 1 18
REMARK H PARENT
REMARK Flexibility Score: inf
ROOT
ATOM      1  C   UNL     1     173.990 173.109 149.908  1.00  0.00     0.000 C 
ENDROOT
BRANCH   1   2
ATOM      2  C   UNL     1     173.883 171.582 150.117  1.00  0.00     0.000 C 
BRANCH   2   3
ATOM      3  C   UNL     1     175.258 170.893 150.148  1.00  0.00     0.000 C 
BRANCH   3   4
ATOM      4  C   UNL     1     175.153 169.360 150.169  1.00  0.00     0.000 C 
BRANCH   4   5
ATOM      5  C   UNL     1     173.701 168.865 150.053  1.00  0.00     0.000 C 
BRANCH   5   6
ATOM      6  C   UNL     1     173.607 167.466 149.410  1.00  0.00     0.006 C 
BRANCH   6   7
ATOM      7  C   UNL     1     174.618 166.460 149.982  1.00  0.00     0.053 C 
BRANCH   7   8
ATOM      8  C   UNL     1     174.287 166.057 151.385  1.00  0.00     0.041 C 
ATOM      9  O   UNL     1     173.278 165.341 151.618  1.00  0.00    -0.550 OA
ATOM     10  O   UNL     1     175.081 166.494 152.439  1.00  0.00    -0.550 OA
ENDBRANCH   7   8
ENDBRANCH   6   7
ENDBRANCH   5   6
ENDBRANCH   4   5
ENDBRANCH   3   4
ENDBRANCH   2   3
ENDBRANCH   1   2
BRANCH   1  11
ATOM     11  C   UNL     1     172.982 173.921 150.742  1.00  0.00     0.000 C 
BRANCH  11  12
ATOM     12  C   UNL     1     173.409 174.185 152.197  1.00  0.00    -0.000 C 
BRANCH  12  13
ATOM     13  C   UNL     1     174.930 174.151 152.450  1.00  0.00    -0.000 C 
BRANCH  13  14
ATOM     14  C   UNL     1     175.393 173.173 153.545  1.00  0.00    -0.000 C 
BRANCH  14  15
ATOM     15  C   UNL     1     174.277 172.219 154.006  1.00  0.00    -0.000 C 
BRANCH  15  16
ATOM     16  C   UNL     1     174.609 170.744 153.727  1.00  0.00    -0.000 C 
BRANCH  16  17
ATOM     17  C   UNL     1     173.356 169.864 153.619  1.00  0.00    -0.003 C 
ATOM     18  C   UNL     1     172.156 170.675 153.140  1.00  0.00     0.004 C 
ENDBRANCH  16  17
ENDBRANCH  15  16
ENDBRANCH  14  15
ENDBRANCH  13  14
ENDBRANCH  12  13
ENDBRANCH  11  12
ENDBRANCH   1  11
TORSDOF 14
ENDMDL
MODEL 3
REMARK VINA RESULT:    -3.974      2.580      5.809
REMARK INTER + INTRA:          -9.261
REMARK INTER:                  -7.216
REMARK INTRA:                  -2.044
REMARK UNBOUND:                -2.034
REMARK SMILES CCCCCCCCCCCCCCCC(=O)[O-]
REMARK SMILES IDX 9 1 10 2 11 3 12 4 13 5 14 6 15 7 16 8 17 9 18 10 8 11 7 12
REMARK SMILES IDX 6 13 5 14 4 15 3 16 2 17 1 18
REMARK H PARENT
REMARK Flexibility Score: inf
ROOT
ATOM      1  C   UNL     1     174.526 173.520 149.986  1.00  0.00     0.000 C 
ENDROOT
BRANCH   1   2
ATOM      2  C   UNL     1     174.844 174.177 151.347  1.00  0.00     0.000 C 
BRANCH   2   3
ATOM      3  C   UNL     1     173.637 174.171 152.301  1.00  0.00     0.000 C 
BRANCH   3   4
ATOM      4  C   UNL     1     173.999 173.687 153.714  1.00  0.00     0.000 C 
BRANCH   4   5
ATOM      5  C   UNL     1     175.391 173.034 153.776  1.00  0.00     0.000 C 
BRANCH   5   6
ATOM      6  C   UNL     1     175.464 171.906 154.825  1.00  0.00     0.006 C 
BRANCH   6   7
ATOM      7  C   UNL     1     174.262 170.949 154.781  1.00  0.00     0.053 C 
BRANCH   7   8
ATOM      8  C   UNL     1     174.635 169.551 155.161  1.00  0.00     0.041 C 
ATOM      9  O   UNL     1     174.464 168.605 154.348  1.00  0.00    -0.550 OA
ATOM     10  O   UNL     1     175.148 169.287 156.426  1.00  0.00    -0.550 OA
ENDBRANCH   7   8
ENDBRANCH   6   7
ENDBRANCH   5   6
ENDBRANCH   4   5
ENDBRANCH   3   4
ENDBRANCH   2   3
ENDBRANCH   1   2
BRANCH   1  11
ATOM     11  C   UNL     1     173.107 172.924 149.903  1.00  0.00     0.000 C 
BRANCH  11  12
ATOM     12  C   UNL     1     173.051 171.385 149.889  1.00  0.00    -0.000 C 
BRANCH  12  13
ATOM     13  C   UNL     1     173.503 170.701 151.195  1.00  0.00    -0.000 C 
BRANCH  13  14
ATOM     14  C   UNL     1     174.952 170.179 151.198  1.00  0.00    -0.000 C 
BRANCH  14  15
ATOM     15  C   UNL     1     175.272 169.298 149.977  1.00  0.00    -0.000 C 
BRANCH  15  16
ATOM     16  C   UNL     1     174.613 167.912 150.062  1.00  0.00    -0.000 C 
BRANCH  16  17
ATOM     17  C   UNL     1     174.037 167.445 148.718  1.00  0.00    -0.003 C 
ATOM     18  C   UNL     1     172.570 167.843 148.582  1.00  0.00     0.004 C 
ENDBRANCH  16  17
ENDBRANCH  15  16
ENDBRANCH  14  15
ENDBRANCH  13  14
ENDBRANCH  12  13
ENDBRANCH  11  12
ENDBRANCH   1  11
TORSDOF 14
ENDMDL
MODEL 4
REMARK VINA RESULT:    -3.943      3.431      6.364
REMARK INTER + INTRA:          -9.205
REMARK INTER:                  -6.999
REMARK INTRA:                  -2.206
REMARK UNBOUND:                -2.034
REMARK SMILES CCCCCCCCCCCCCCCC(=O)[O-]
REMARK SMILES IDX 9 1 10 2 11 3 12 4 13 5 14 6 15 7 16 8 17 9 18 10 8 11 7 12
REMARK SMILES IDX 6 13 5 14 4 15 3 16 2 17 1 18
REMARK H PARENT
REMARK Flexibility Score: inf
ROOT
ATOM      1  C   UNL     1     173.287 170.771 151.601  1.00  0.00     0.000 C 
ENDROOT
BRANCH   1   2
ATOM      2  C   UNL     1     172.810 171.376 150.263  1.00  0.00     0.000 C 
BRANCH   2   3
ATOM      3  C   UNL     1     172.774 172.914 150.292  1.00  0.00     0.000 C 
BRANCH   3   4
ATOM      4  C   UNL     1     174.002 173.549 149.621  1.00  0.00     0.000 C 
BRANCH   4   5
ATOM      5  C   UNL     1     174.989 174.147 150.639  1.00  0.00     0.000 C 
BRANCH   5   6
ATOM      6  C   UNL     1     174.396 174.215 152.061  1.00  0.00     0.006 C 
BRANCH   6   7
ATOM      7  C   UNL     1     175.330 173.649 153.143  1.00  0.00     0.053 C 
BRANCH   7   8
ATOM      8  C   UNL     1     174.619 173.404 154.436  1.00  0.00     0.041 C 
ATOM      9  O   UNL     1     174.406 172.227 154.830  1.00  0.00    -0.550 OA
ATOM     10  O   UNL     1     174.166 174.476 155.195  1.00  0.00    -0.550 OA
ENDBRANCH   7   8
ENDBRANCH   6   7
ENDBRANCH   5   6
ENDBRANCH   4   5
ENDBRANCH   3   4
ENDBRANCH   2   3
ENDBRANCH   1   2
BRANCH   1  11
ATOM     11  C   UNL     1     174.746 170.275 151.572  1.00  0.00     0.000 C 
BRANCH  11  12
ATOM     12  C   UNL     1     175.394 170.253 150.176  1.00  0.00    -0.000 C 
BRANCH  12  13
ATOM     13  C   UNL     1     175.635 168.848 149.587  1.00  0.00    -0.000 C 
BRANCH  13  14
ATOM     14  C   UNL     1     174.364 168.026 149.306  1.00  0.00    -0.000 C 
BRANCH  14  15
ATOM     15  C   UNL     1     174.348 166.678 150.048  1.00  0.00    -0.000 C 
BRANCH  15  16
ATOM     16  C   UNL     1     173.604 166.753 151.391  1.00  0.00    -0.000 C 
BRANCH  16  17
ATOM     17  C   UNL     1     174.555 166.768 152.597  1.00  0.00    -0.003 C 
ATOM     18  C   UNL     1     173.876 167.370 153.824  1.00  0.00     0.004 C 
ENDBRANCH  16  17
ENDBRANCH  15  16
ENDBRANCH  14  15
ENDBRANCH  13  14
ENDBRANCH  12  13
ENDBRANCH  11  12
ENDBRANCH   1  11
TORSDOF 14
ENDMDL
MODEL 5
REMARK VINA RESULT:    -3.924      1.866      3.510
REMARK INTER + INTRA:          -9.171
REMARK INTER:                  -6.809
REMARK INTRA:                  -2.362
REMARK UNBOUND:                -2.034
REMARK SMILES CCCCCCCCCCCCCCCC(=O)[O-]
REMARK SMILES IDX 9 1 10 2 11 3 12 4 13 5 14 6 15 7 16 8 17 9 18 10 8 11 7 12
REMARK SMILES IDX 6 13 5 14 4 15 3 16 2 17 1 18
REMARK H PARENT
REMARK Flexibility Score: inf
ROOT
ATOM      1  C   UNL     1     173.545 171.844 153.722  1.00  0.00     0.000 C 
ENDROOT
BRANCH   1   2
ATOM      2  C   UNL     1     174.613 170.785 153.374  1.00  0.00     0.000 C 
BRANCH   2   3
ATOM      3  C   UNL     1     174.236 169.952 152.136  1.00  0.00     0.000 C 
BRANCH   3   4
ATOM      4  C   UNL     1     175.309 170.005 151.037  1.00  0.00     0.000 C 
BRANCH   4   5
ATOM      5  C   UNL     1     175.034 169.011 149.895  1.00  0.00     0.000 C 
BRANCH   5   6
ATOM      6  C   UNL     1     173.535 168.676 149.755  1.00  0.00     0.006 C 
BRANCH   6   7
ATOM      7  C   UNL     1     173.245 167.167 149.717  1.00  0.00     0.053 C 
BRANCH   7   8
ATOM      8  C   UNL     1     173.958 166.424 150.802  1.00  0.00     0.041 C 
ATOM      9  O   UNL     1     173.568 166.515 151.996  1.00  0.00    -0.550 OA
ATOM     10  O   UNL     1     175.073 165.651 150.499  1.00  0.00    -0.550 OA
ENDBRANCH   7   8
ENDBRANCH   6   7
ENDBRANCH   5   6
ENDBRANCH   4   5
ENDBRANCH   3   4
ENDBRANCH   2   3
ENDBRANCH   1   2
BRANCH   1  11
ATOM     11  C   UNL     1     174.090 173.285 153.763  1.00  0.00     0.000 C 
BRANCH  11  12
ATOM     12  C   UNL     1     175.355 173.522 152.917  1.00  0.00    -0.000 C 
BRANCH  12  13
ATOM     13  C   UNL     1     175.128 174.296 151.602  1.00  0.00    -0.000 C 
BRANCH  13  14
ATOM     14  C   UNL     1     174.895 173.423 150.356  1.00  0.00    -0.000 C 
BRANCH  14  15
ATOM     15  C   UNL     1     173.492 173.605 149.752  1.00  0.00    -0.000 C 
BRANCH  15  16
ATOM     16  C   UNL     1     172.484 172.572 150.281  1.00  0.00    -0.000 C 
BRANCH  16  17
ATOM     17  C   UNL     1     171.242 173.222 150.908  1.00  0.00    -0.003 C 
ATOM     18  C   UNL     1     171.509 174.679 151.271  1.00  0.00     0.004 C 
ENDBRANCH  16  17
ENDBRANCH  15  16
ENDBRANCH  14  15
ENDBRANCH  13  14
ENDBRANCH  12  13
ENDBRANCH  11  12
ENDBRANCH   1  11
TORSDOF 14
ENDMDL
MODEL 6
REMARK VINA RESULT:    -3.922      2.348      2.901
REMARK INTER + INTRA:          -9.166
REMARK INTER:                  -7.699
REMARK INTRA:                  -1.466
REMARK UNBOUND:                -2.034
REMARK SMILES CCCCCCCCCCCCCCCC(=O)[O-]
REMARK SMILES IDX 9 1 10 2 11 3 12 4 13 5 14 6 15 7 16 8 17 9 18 10 8 11 7 12
REMARK SMILES IDX 6 13 5 14 4 15 3 16 2 17 1 18
REMARK H PARENT
REMARK Flexibility Score: inf
ROOT
ATOM      1  C   UNL     1     173.537 171.161 150.269  1.00  0.00     0.000 C 
ENDROOT
BRANCH   1   2
ATOM      2  C   UNL     1     175.013 170.769 150.502  1.00  0.00     0.000 C 
BRANCH   2   3
ATOM      3  C   UNL     1     175.354 169.385 149.921  1.00  0.00     0.000 C 
BRANCH   3   4
ATOM      4  C   UNL     1     174.104 168.591 149.509  1.00  0.00     0.000 C 
BRANCH   4   5
ATOM      5  C   UNL     1     174.359 167.075 149.451  1.00  0.00     0.000 C 
BRANCH   5   6
ATOM      6  C   UNL     1     173.366 166.279 150.323  1.00  0.00     0.006 C 
BRANCH   6   7
ATOM      7  C   UNL     1     173.398 166.677 151.807  1.00  0.00     0.053 C 
BRANCH   7   8
ATOM      8  C   UNL     1     174.735 166.430 152.432  1.00  0.00     0.041 C 
ATOM      9  O   UNL     1     175.206 165.263 152.485  1.00  0.00    -0.550 OA
ATOM     10  O   UNL     1     175.452 167.486 152.981  1.00  0.00    -0.550 OA
ENDBRANCH   7   8
ENDBRANCH   6   7
ENDBRANCH   5   6
ENDBRANCH   4   5
ENDBRANCH   3   4
ENDBRANCH   2   3
ENDBRANCH   1   2
BRANCH   1  11
ATOM     11  C   UNL     1     173.324 172.670 150.046  1.00  0.00     0.000 C 
BRANCH  11  12
ATOM     12  C   UNL     1     174.602 173.462 149.713  1.00  0.00    -0.000 C 
BRANCH  12  13
ATOM     13  C   UNL     1     175.145 174.342 150.858  1.00  0.00    -0.000 C 
BRANCH  13  14
ATOM     14  C   UNL     1     174.398 174.214 152.198  1.00  0.00    -0.000 C 
BRANCH  14  15
ATOM     15  C   UNL     1     175.294 173.692 153.335  1.00  0.00    -0.000 C 
BRANCH  15  16
ATOM     16  C   UNL     1     174.844 172.318 153.856  1.00  0.00    -0.000 C 
BRANCH  16  17
ATOM     17  C   UNL     1     174.470 172.342 155.346  1.00  0.00    -0.003 C 
ATOM     18  C   UNL     1     173.949 173.715 155.759  1.00  0.00     0.004 C 
ENDBRANCH  16  17
ENDBRANCH  15  16
ENDBRANCH  14  15
ENDBRANCH  13  14
ENDBRANCH  12  13
ENDBRANCH  11  12
ENDBRANCH   1  11
TORSDOF 14
ENDMDL
MODEL 7
REMARK VINA RESULT:    -3.909      3.218      6.448
REMARK INTER + INTRA:          -9.143
REMARK INTER:                  -7.463
REMARK INTRA:                  -1.680
REMARK UNBOUND:                -2.034
REMARK SMILES CCCCCCCCCCCCCCCC(=O)[O-]
REMARK SMILES IDX 9 1 10 2 11 3 12 4 13 5 14 6 15 7 16 8 17 9 18 10 8 11 7 12
REMARK SMILES IDX 6 13 5 14 4 15 3 16 2 17 1 18
REMARK H PARENT
REMARK Flexibility Score: inf
ROOT
ATOM      1  C   UNL     1     173.169 172.527 150.322  1.00  0.00     0.000 C 
ENDROOT
BRANCH   1   2
ATOM      2  C   UNL     1     174.161 173.546 149.721  1.00  0.00     0.000 C 
BRANCH   2   3
ATOM      3  C   UNL     1     174.998 174.259 150.798  1.00  0.00     0.000 C 
BRANCH   3   4
ATOM      4  C   UNL     1     174.379 174.146 152.201  1.00  0.00     0.000 C 
BRANCH   4   5
ATOM      5  C   UNL     1     175.337 173.505 153.220  1.00  0.00     0.000 C 
BRANCH   5   6
ATOM      6  C   UNL     1     174.845 172.125 153.702  1.00  0.00     0.006 C 
BRANCH   6   7
ATOM      7  C   UNL     1     175.496 171.668 155.018  1.00  0.00     0.053 C 
BRANCH   7   8
ATOM      8  C   UNL     1     174.502 171.543 156.129  1.00  0.00     0.041 C 
ATOM      9  O   UNL     1     174.089 170.409 156.488  1.00  0.00    -0.550 OA
ATOM     10  O   UNL     1     174.010 172.684 156.753  1.00  0.00    -0.550 OA
ENDBRANCH   7   8
ENDBRANCH   6   7
ENDBRANCH   5   6
ENDBRANCH   4   5
ENDBRANCH   3   4
ENDBRANCH   2   3
ENDBRANCH   1   2
BRANCH   1  11
ATOM     11  C   UNL     1     173.644 171.064 150.218  1.00  0.00     0.000 C 
BRANCH  11  12
ATOM     12  C   UNL     1     175.172 170.882 150.178  1.00  0.00    -0.000 C 
BRANCH  12  13
ATOM     13  C   UNL     1     175.677 169.488 150.605  1.00  0.00    -0.000 C 
BRANCH  13  14
ATOM     14  C   UNL     1     174.666 168.634 151.392  1.00  0.00    -0.000 C 
BRANCH  14  15
ATOM     15  C   UNL     1     174.295 167.329 150.667  1.00  0.00    -0.000 C 
BRANCH  15  16
ATOM     16  C   UNL     1     174.486 167.425 149.145  1.00  0.00    -0.000 C 
BRANCH  16  17
ATOM     17  C   UNL     1     173.155 167.527 148.385  1.00  0.00    -0.003 C 
ATOM     18  C   UNL     1     171.969 167.377 149.332  1.00  0.00     0.004 C 
ENDBRANCH  16  17
ENDBRANCH  15  16
ENDBRANCH  14  15
ENDBRANCH  13  14
ENDBRANCH  12  13
ENDBRANCH  11  12
ENDBRANCH   1  11
TORSDOF 14
ENDMDL
MODEL 8
REMARK VINA RESULT:    -3.896      2.709      4.698
REMARK INTER + INTRA:          -9.119
REMARK INTER:                  -7.346
REMARK INTRA:                  -1.773
REMARK UNBOUND:                -2.034
REMARK SMILES CCCCCCCCCCCCCCCC(=O)[O-]
REMARK SMILES IDX 9 1 10 2 11 3 12 4 13 5 14 6 15 7 16 8 17 9 18 10 8 11 7 12
REMARK SMILES IDX 6 13 5 14 4 15 3 16 2 17 1 18
REMARK H PARENT
REMARK Flexibility Score: inf
ROOT
ATOM      1  C   UNL     1     175.535 173.963 153.188  1.00  0.00     0.000 C 
ENDROOT
BRANCH   1   2
ATOM      2  C   UNL     1     174.422 174.047 152.121  1.00  0.00     0.000 C 
BRANCH   2   3
ATOM      3  C   UNL     1     174.981 174.263 150.703  1.00  0.00     0.000 C 
BRANCH   3   4
ATOM      4  C   UNL     1     174.492 173.201 149.706  1.00  0.00     0.000 C 
BRANCH   4   5
ATOM      5  C   UNL     1     173.319 172.370 150.254  1.00  0.00     0.000 C 
BRANCH   5   6
ATOM      6  C   UNL     1     173.647 170.864 150.321  1.00  0.00     0.006 C 
BRANCH   6   7
ATOM      7  C   UNL     1     175.128 170.571 150.611  1.00  0.00     0.053 C 
BRANCH   7   8
ATOM      8  C   UNL     1     175.329 169.226 151.237  1.00  0.00     0.041 C 
ATOM      9  O   UNL     1     176.124 169.088 152.203  1.00  0.00    -0.550 OA
ATOM     10  O   UNL     1     174.657 168.119 150.734  1.00  0.00    -0.550 OA
ENDBRANCH   7   8
ENDBRANCH   6   7
ENDBRANCH   5   6
ENDBRANCH   4   5
ENDBRANCH   3   4
ENDBRANCH   2   3
ENDBRANCH   1   2
BRANCH   1  11
ATOM     11  C   UNL     1     175.382 172.769 154.150  1.00  0.00     0.000 C 
BRANCH  11  12
ATOM     12  C   UNL     1     174.146 171.887 153.895  1.00  0.00    -0.000 C 
BRANCH  12  13
ATOM     13  C   UNL     1     174.124 170.551 154.665  1.00  0.00    -0.000 C 
BRANCH  13  14
ATOM     14  C   UNL     1     175.130 170.444 155.826  1.00  0.00    -0.000 C 
BRANCH  14  15
ATOM     15  C   UNL     1     174.459 170.520 157.208  1.00  0.00    -0.000 C 
BRANCH  15  16
ATOM     16  C   UNL     1     173.762 171.869 157.451  1.00  0.00    -0.000 C 
BRANCH  16  17
ATOM     17  C   UNL     1     174.572 172.798 158.367  1.00  0.00    -0.003 C 
ATOM     18  C   UNL     1     175.601 172.012 159.174  1.00  0.00     0.004 C 
ENDBRANCH  16  17
ENDBRANCH  15  16
ENDBRANCH  14  15
ENDBRANCH  13  14
ENDBRANCH  12  13
ENDBRANCH  11  12
ENDBRANCH   1  11
TORSDOF 14
ENDMDL
MODEL 9
REMARK VINA RESULT:    -2.036      2.900      4.989
REMARK INTER + INTRA:          -5.736
REMARK INTER:                  -3.362
REMARK INTRA:                  -2.374
REMARK UNBOUND:                -2.034
REMARK SMILES CCCCCCCCCCCCCCCC(=O)[O-]
REMARK SMILES IDX 9 1 10 2 11 3 12 4 13 5 14 6 15 7 16 8 17 9 18 10 8 11 7 12
REMARK SMILES IDX 6 13 5 14 4 15 3 16 2 17 1 18
REMARK H PARENT
REMARK Flexibility Score: inf
ROOT
ATOM      1  C   UNL     1     174.074 174.213 151.686  1.00  0.00     0.000 C 
ENDROOT
BRANCH   1   2
ATOM      2  C   UNL     1     175.377 174.241 152.515  1.00  0.00     0.000 C 
BRANCH   2   3
ATOM      3  C   UNL     1     175.262 173.434 153.820  1.00  0.00     0.000 C 
BRANCH   3   4
ATOM      4  C   UNL     1     173.820 172.995 154.121  1.00  0.00     0.000 C 
BRANCH   4   5
ATOM      5  C   UNL     1     173.728 171.522 154.554  1.00  0.00     0.000 C 
BRANCH   5   6
ATOM      6  C   UNL     1     174.894 170.675 154.004  1.00  0.00     0.006 C 
BRANCH   6   7
ATOM      7  C   UNL     1     174.685 169.161 154.173  1.00  0.00     0.053 C 
BRANCH   7   8
ATOM      8  C   UNL     1     175.359 168.371 153.095  1.00  0.00     0.041 C 
ATOM      9  O   UNL     1     176.125 168.941 152.274  1.00  0.00    -0.550 OA
ATOM     10  O   UNL     1     175.120 167.006 152.982  1.00  0.00    -0.550 OA
ENDBRANCH   7   8
ENDBRANCH   6   7
ENDBRANCH   5   6
ENDBRANCH   4   5
ENDBRANCH   3   4
ENDBRANCH   2   3
ENDBRANCH   1   2
BRANCH   1  11
ATOM     11  C   UNL     1     174.232 173.545 150.306  1.00  0.00     0.000 C 
BRANCH  11  12
ATOM     12  C   UNL     1     174.820 172.123 150.339  1.00  0.00    -0.000 C 
BRANCH  12  13
ATOM     13  C   UNL     1     173.785 170.989 150.491  1.00  0.00    -0.000 C 
BRANCH  13  14
ATOM     14  C   UNL     1     172.331 171.378 150.169  1.00  0.00    -0.000 C 
BRANCH  14  15
ATOM     15  C   UNL     1     171.473 171.584 151.429  1.00  0.00    -0.000 C 
BRANCH  15  16
ATOM     16  C   UNL     1     170.400 172.668 151.241  1.00  0.00    -0.000 C 
BRANCH  16  17
ATOM     17  C   UNL     1     170.200 173.530 152.496  1.00  0.00    -0.003 C 
ATOM     18  C   UNL     1     170.221 172.674 153.759  1.00  0.00     0.004 C 
ENDBRANCH  16  17
ENDBRANCH  15  16
ENDBRANCH  14  15
ENDBRANCH  13  14
ENDBRANCH  12  13
ENDBRANCH  11  12
ENDBRANCH   1  11
TORSDOF 14
ENDMDL
