MODEL 1
REMARK VINA RESULT:    -2.722      0.000      0.000
REMARK INTER + INTRA:          -7.763
REMARK INTER:                  -4.473
REMARK INTRA:                  -3.290
REMARK UNBOUND:                -3.290
REMARK SMILES COc1ccc([C@@H]2CC(=O)c3c(O)cc(O[C@H]4O[C@@H](CO[C@@H]5O[C@@H](C)[C@@H](O)[C@@H](O)[C@H]5O)[C@@H](O)[C@@H](O)[C@H]4O)cc3O2)cc1O
REMARK SMILES IDX 19 1 32 2 34 3 36 4 17 5 18 6 20 7 21 8 22 9 25 10 24 11
REMARK SMILES IDX 26 12 23 13 28 14 30 15 27 16 29 18 31 20 33 22 35 24 16 26
REMARK SMILES IDX 15 27 14 28 38 29 12 30 39 31 11 32 40 33 9 34 7 35 10 36
REMARK SMILES IDX 8 37 13 38 6 40 41 41 5 42 42 43 4 44 3 45 43 46 2 48 1 49
REMARK SMILES IDX 37 50
REMARK H PARENT 27 17 29 19 31 21 33 23 35 25 13 39 43 47 37 51
REMARK Flexibility Score: inf
ROOT
ATOM      1  C   UNL     1     -18.949 -30.292  31.172  1.00  0.00     0.180 C 
ATOM      2  C   UNL     1     -18.841 -31.824  30.935  1.00  0.00     0.177 C 
ATOM      3  C   UNL     1     -17.487 -32.228  30.326  1.00  0.00     0.180 C 
ATOM      4  C   UNL     1     -16.361 -31.578  31.145  1.00  0.00     0.214 C 
ATOM      5  C   UNL     1     -16.571 -30.053  31.284  1.00  0.00     0.339 C 
ATOM      6  O   UNL     1     -17.830 -29.759  31.876  1.00  0.00    -0.332 OA
ENDROOT
BRANCH   1   7
ATOM      7  C   UNL     1     -19.306 -29.454  29.919  1.00  0.00     0.198 C 
BRANCH   7   8
ATOM      8  O   UNL     1     -20.406 -28.603  30.182  1.00  0.00    -0.347 OA
BRANCH   8   9
ATOM      9  C   UNL     1     -20.028 -27.232  30.222  1.00  0.00     0.281 C 
ATOM     10  C   UNL     1     -23.335 -25.859  31.107  1.00  0.00     0.041 C 
ATOM     11  C   UNL     1     -22.282 -26.559  30.246  1.00  0.00     0.150 C 
ATOM     12  C   UNL     1     -22.222 -25.947  28.825  1.00  0.00     0.174 C 
ATOM     13  O   UNL     1     -21.021 -26.469  30.893  1.00  0.00    -0.344 OA
ATOM     14  C   UNL     1     -21.103 -26.623  28.004  1.00  0.00     0.179 C 
ATOM     15  C   UNL     1     -19.783 -26.694  28.791  1.00  0.00     0.202 C 
BRANCH  12  16
ATOM     16  O   UNL     1     -22.068 -24.546  28.849  1.00  0.00    -0.388 OA
ATOM     17  H   UNL     1     -21.104 -24.341  28.948  1.00  0.00     0.211 HD
ENDBRANCH  12  16
BRANCH  14  18
ATOM     18  O   UNL     1     -20.899 -25.943  26.792  1.00  0.00    -0.387 OA
ATOM     19  H   UNL     1     -19.990 -26.187  26.477  1.00  0.00     0.211 HD
ENDBRANCH  14  18
BRANCH  15  20
ATOM     20  O   UNL     1     -19.182 -25.426  28.846  1.00  0.00    -0.385 OA
ATOM     21  H   UNL     1     -18.235 -25.542  28.569  1.00  0.00     0.211 HD
ENDBRANCH  15  20
ENDBRANCH   8   9
ENDBRANCH   7   8
ENDBRANCH   1   7
BRANCH   2  22
ATOM     22  O   UNL     1     -19.903 -32.275  30.135  1.00  0.00    -0.387 OA
ATOM     23  H   UNL     1     -19.533 -32.970  29.529  1.00  0.00     0.211 HD
ENDBRANCH   2  22
BRANCH   3  24
ATOM     24  O   UNL     1     -17.405 -31.844  28.977  1.00  0.00    -0.387 OA
ATOM     25  H   UNL     1     -16.512 -32.131  28.647  1.00  0.00     0.211 HD
ENDBRANCH   3  24
BRANCH   5  26
ATOM     26  O   UNL     1     -16.439 -29.361  30.038  1.00  0.00    -0.462 OA
BRANCH  26  27
ATOM     27  C   UNL     1     -16.193 -27.991  29.852  1.00  0.00     0.130 A 
ATOM     28  C   UNL     1     -16.080 -27.525  28.539  1.00  0.00     0.093 A 
ATOM     29  C   UNL     1     -16.062 -27.078  30.916  1.00  0.00     0.094 A 
ATOM     30  C   UNL     1     -15.816 -26.174  28.272  1.00  0.00     0.133 A 
ATOM     31  C   UNL     1     -15.808 -25.728  30.662  1.00  0.00     0.138 A 
ATOM     32  C   UNL     1     -15.670 -25.267  29.341  1.00  0.00     0.102 A 
ATOM     33  O   UNL     1     -15.705 -24.838  31.741  1.00  0.00    -0.484 OA
ATOM     34  C   UNL     1     -15.351 -23.838  29.138  1.00  0.00     0.174 C 
ATOM     35  C   UNL     1     -15.620 -23.414  31.593  1.00  0.00     0.211 C 
ATOM     36  O   UNL     1     -15.422 -23.307  27.996  1.00  0.00    -0.294 OA
ATOM     37  C   UNL     1     -14.875 -23.023  30.303  1.00  0.00     0.131 C 
BRANCH  30  38
ATOM     38  O   UNL     1     -15.686 -25.744  26.951  1.00  0.00    -0.507 OA
ATOM     39  H   UNL     1     -15.635 -24.760  26.713  1.00  0.00     0.293 HD
ENDBRANCH  30  38
BRANCH  35  40
ATOM     40  C   UNL     1     -16.988 -22.761  31.660  1.00  0.00    -0.003 A 
ATOM     41  C   UNL     1     -18.163 -23.459  31.326  1.00  0.00     0.057 A 
ATOM     42  C   UNL     1     -17.082 -21.401  31.998  1.00  0.00     0.011 A 
ATOM     43  C   UNL     1     -19.409 -22.814  31.355  1.00  0.00     0.158 A 
ATOM     44  C   UNL     1     -18.322 -20.758  32.027  1.00  0.00     0.051 A 
ATOM     45  C   UNL     1     -19.497 -21.461  31.705  1.00  0.00     0.160 A 
BRANCH  43  46
ATOM     46  O   UNL     1     -20.569 -23.516  31.030  1.00  0.00    -0.504 OA
ATOM     47  H   UNL     1     -21.317 -23.643  31.702  1.00  0.00     0.293 HD
ENDBRANCH  43  46
BRANCH  45  48
ATOM     48  O   UNL     1     -20.761 -20.852  31.720  1.00  0.00    -0.493 OA
ATOM     49  C   UNL     1     -20.993 -19.467  31.481  1.00  0.00     0.278 C 
ENDBRANCH  45  48
ENDBRANCH  35  40
ENDBRANCH  26  27
ENDBRANCH   5  26
BRANCH   4  50
ATOM     50  O   UNL     1     -15.087 -31.898  30.640  1.00  0.00    -0.384 OA
ATOM     51  H   UNL     1     -14.590 -32.400  31.335  1.00  0.00     0.211 HD
ENDBRANCH   4  50
TORSDOF 15
ENDMDL
MODEL 2
REMARK VINA RESULT:    -2.181      2.113      8.287
REMARK INTER + INTRA:          -6.874
REMARK INTER:                  -3.692
REMARK INTRA:                  -3.182
REMARK UNBOUND:                -3.290
REMARK SMILES COc1ccc([C@@H]2CC(=O)c3c(O)cc(O[C@H]4O[C@@H](CO[C@@H]5O[C@@H](C)[C@@H](O)[C@@H](O)[C@H]5O)[C@@H](O)[C@@H](O)[C@H]4O)cc3O2)cc1O
REMARK SMILES IDX 19 1 32 2 34 3 36 4 17 5 18 6 20 7 21 8 22 9 25 10 24 11
REMARK SMILES IDX 26 12 23 13 28 14 30 15 27 16 29 18 31 20 33 22 35 24 16 26
REMARK SMILES IDX 15 27 14 28 38 29 12 30 39 31 11 32 40 33 9 34 7 35 10 36
REMARK SMILES IDX 8 37 13 38 6 40 41 41 5 42 42 43 4 44 3 45 43 46 2 48 1 49
REMARK SMILES IDX 37 50
REMARK H PARENT 27 17 29 19 31 21 33 23 35 25 13 39 43 47 37 51
REMARK Flexibility Score: inf
ROOT
ATOM      1  C   UNL     1     -17.010 -23.887  31.123  1.00  0.00     0.180 C 
ATOM      2  C   UNL     1     -16.570 -22.442  30.760  1.00  0.00     0.177 C 
ATOM      3  C   UNL     1     -17.661 -21.672  29.995  1.00  0.00     0.180 C 
ATOM      4  C   UNL     1     -18.992 -21.816  30.750  1.00  0.00     0.214 C 
ATOM      5  C   UNL     1     -19.327 -23.300  31.025  1.00  0.00     0.339 C 
ATOM      6  O   UNL     1     -18.286 -23.936  31.756  1.00  0.00    -0.332 OA
ENDROOT
BRANCH   1   7
ATOM      7  C   UNL     1     -16.883 -24.922  29.979  1.00  0.00     0.198 C 
BRANCH   7   8
ATOM      8  O   UNL     1     -16.284 -26.117  30.447  1.00  0.00    -0.347 OA
BRANCH   8   9
ATOM      9  C   UNL     1     -17.248 -27.114  30.764  1.00  0.00     0.281 C 
ATOM     10  C   UNL     1     -14.903 -29.625  32.103  1.00  0.00     0.041 C 
ATOM     11  C   UNL     1     -15.561 -28.726  31.055  1.00  0.00     0.150 C 
ATOM     12  C   UNL     1     -15.971 -29.534  29.800  1.00  0.00     0.174 C 
ATOM     13  O   UNL     1     -16.684 -28.081  31.637  1.00  0.00    -0.344 OA
ATOM     14  C   UNL     1     -16.696 -28.616  28.792  1.00  0.00     0.179 C 
ATOM     15  C   UNL     1     -17.790 -27.775  29.473  1.00  0.00     0.202 C 
BRANCH  12  16
ATOM     16  O   UNL     1     -16.752 -30.664  30.120  1.00  0.00    -0.388 OA
ATOM     17  H   UNL     1     -17.609 -30.350  30.506  1.00  0.00     0.211 HD
ENDBRANCH  12  16
BRANCH  14  18
ATOM     18  O   UNL     1     -17.255 -29.371  27.748  1.00  0.00    -0.387 OA
ATOM     19  H   UNL     1     -18.191 -29.059  27.639  1.00  0.00     0.211 HD
ENDBRANCH  14  18
BRANCH  15  20
ATOM     20  O   UNL     1     -18.904 -28.578  29.770  1.00  0.00    -0.385 OA
ATOM     21  H   UNL     1     -19.000 -29.226  29.024  1.00  0.00     0.211 HD
ENDBRANCH  15  20
ENDBRANCH   8   9
ENDBRANCH   7   8
ENDBRANCH   1   7
BRANCH   2  22
ATOM     22  O   UNL     1     -15.368 -22.460  30.033  1.00  0.00    -0.387 OA
ATOM     23  H   UNL     1     -14.736 -23.038  30.535  1.00  0.00     0.211 HD
ENDBRANCH   2  22
BRANCH   3  24
ATOM     24  O   UNL     1     -17.784 -22.145  28.678  1.00  0.00    -0.387 OA
ATOM     25  H   UNL     1     -18.084 -23.091  28.736  1.00  0.00     0.211 HD
ENDBRANCH   3  24
BRANCH   5  26
ATOM     26  O   UNL     1     -19.609 -24.034  29.829  1.00  0.00    -0.462 OA
BRANCH  26  27
ATOM     27  C   UNL     1     -20.499 -25.111  29.686  1.00  0.00     0.130 A 
ATOM     28  C   UNL     1     -20.783 -25.549  28.389  1.00  0.00     0.093 A 
ATOM     29  C   UNL     1     -21.106 -25.762  30.777  1.00  0.00     0.094 A 
ATOM     30  C   UNL     1     -21.676 -26.607  28.163  1.00  0.00     0.133 A 
ATOM     31  C   UNL     1     -21.990 -26.823  30.564  1.00  0.00     0.138 A 
ATOM     32  C   UNL     1     -22.292 -27.245  29.258  1.00  0.00     0.102 A 
ATOM     33  O   UNL     1     -22.561 -27.467  31.671  1.00  0.00    -0.484 OA
ATOM     34  C   UNL     1     -23.275 -28.338  29.095  1.00  0.00     0.174 C 
ATOM     35  C   UNL     1     -23.340 -28.668  31.579  1.00  0.00     0.211 C 
ATOM     36  O   UNL     1     -23.438 -28.912  27.984  1.00  0.00    -0.294 OA
ATOM     37  C   UNL     1     -24.134 -28.726  30.260  1.00  0.00     0.131 C 
BRANCH  30  38
ATOM     38  O   UNL     1     -21.956 -27.006  26.856  1.00  0.00    -0.507 OA
ATOM     39  H   UNL     1     -22.438 -26.397  26.204  1.00  0.00     0.293 HD
ENDBRANCH  30  38
BRANCH  35  40
ATOM     40  C   UNL     1     -22.483 -29.907  31.763  1.00  0.00    -0.003 A 
ATOM     41  C   UNL     1     -21.081 -29.837  31.838  1.00  0.00     0.057 A 
ATOM     42  C   UNL     1     -23.100 -31.169  31.789  1.00  0.00     0.011 A 
ATOM     43  C   UNL     1     -20.313 -31.005  31.963  1.00  0.00     0.158 A 
ATOM     44  C   UNL     1     -22.338 -32.333  31.913  1.00  0.00     0.051 A 
ATOM     45  C   UNL     1     -20.936 -32.259  32.001  1.00  0.00     0.160 A 
BRANCH  43  46
ATOM     46  O   UNL     1     -18.924 -30.925  32.045  1.00  0.00    -0.504 OA
ATOM     47  H   UNL     1     -18.374 -31.666  32.465  1.00  0.00     0.293 HD
ENDBRANCH  43  46
BRANCH  45  48
ATOM     48  O   UNL     1     -20.133 -33.404  32.125  1.00  0.00    -0.493 OA
ATOM     49  C   UNL     1     -19.919 -34.356  31.086  1.00  0.00     0.278 C 
ENDBRANCH  45  48
ENDBRANCH  35  40
ENDBRANCH  26  27
ENDBRANCH   5  26
BRANCH   4  50
ATOM     50  O   UNL     1     -20.043 -21.143  30.102  1.00  0.00    -0.384 OA
ATOM     51  H   UNL     1     -19.943 -21.271  29.124  1.00  0.00     0.211 HD
ENDBRANCH   4  50
TORSDOF 15
ENDMDL
MODEL 3
REMARK VINA RESULT:    -2.171      3.985      7.624
REMARK INTER + INTRA:          -6.858
REMARK INTER:                  -4.020
REMARK INTRA:                  -2.838
REMARK UNBOUND:                -3.290
REMARK SMILES COc1ccc([C@@H]2CC(=O)c3c(O)cc(O[C@H]4O[C@@H](CO[C@@H]5O[C@@H](C)[C@@H](O)[C@@H](O)[C@H]5O)[C@@H](O)[C@@H](O)[C@H]4O)cc3O2)cc1O
REMARK SMILES IDX 19 1 32 2 34 3 36 4 17 5 18 6 20 7 21 8 22 9 25 10 24 11
REMARK SMILES IDX 26 12 23 13 28 14 30 15 27 16 29 18 31 20 33 22 35 24 16 26
REMARK SMILES IDX 15 27 14 28 38 29 12 30 39 31 11 32 40 33 9 34 7 35 10 36
REMARK SMILES IDX 8 37 13 38 6 40 41 41 5 42 42 43 4 44 3 45 43 46 2 48 1 49
REMARK SMILES IDX 37 50
REMARK H PARENT 27 17 29 19 31 21 33 23 35 25 13 39 43 47 37 51
REMARK Flexibility Score: inf
ROOT
ATOM      1  C   UNL     1     -20.198 -25.810  29.275  1.00  0.00     0.180 C 
ATOM      2  C   UNL     1     -21.135 -27.026  29.514  1.00  0.00     0.177 C 
ATOM      3  C   UNL     1     -22.604 -26.707  29.184  1.00  0.00     0.180 C 
ATOM      4  C   UNL     1     -22.670 -26.050  27.796  1.00  0.00     0.214 C 
ATOM      5  C   UNL     1     -21.713 -24.839  27.698  1.00  0.00     0.339 C 
ATOM      6  O   UNL     1     -20.374 -25.217  27.991  1.00  0.00    -0.332 OA
ENDROOT
BRANCH   1   7
ATOM      7  C   UNL     1     -20.184 -24.756  30.410  1.00  0.00     0.198 C 
BRANCH   7   8
ATOM      8  O   UNL     1     -19.319 -23.682  30.087  1.00  0.00    -0.347 OA
BRANCH   8   9
ATOM      9  C   UNL     1     -17.961 -23.974  30.391  1.00  0.00     0.281 C 
ATOM     10  C   UNL     1     -17.161 -20.791  32.072  1.00  0.00     0.041 C 
ATOM     11  C   UNL     1     -17.541 -21.721  30.918  1.00  0.00     0.150 C 
ATOM     12  C   UNL     1     -16.625 -21.496  29.690  1.00  0.00     0.174 C 
ATOM     13  O   UNL     1     -17.471 -23.066  31.367  1.00  0.00    -0.344 OA
ATOM     14  C   UNL     1     -16.985 -22.497  28.571  1.00  0.00     0.179 C 
ATOM     15  C   UNL     1     -17.096 -23.935  29.108  1.00  0.00     0.202 C 
BRANCH  12  16
ATOM     16  O   UNL     1     -15.257 -21.564  30.021  1.00  0.00    -0.388 OA
ATOM     17  H   UNL     1     -14.850 -22.311  29.513  1.00  0.00     0.211 HD
ENDBRANCH  12  16
BRANCH  14  18
ATOM     18  O   UNL     1     -16.036 -22.446  27.538  1.00  0.00    -0.387 OA
ATOM     19  H   UNL     1     -15.239 -22.946  27.855  1.00  0.00     0.211 HD
ENDBRANCH  14  18
BRANCH  15  20
ATOM     20  O   UNL     1     -15.817 -24.456  29.367  1.00  0.00    -0.385 OA
ATOM     21  H   UNL     1     -15.173 -23.913  28.844  1.00  0.00     0.211 HD
ENDBRANCH  15  20
ENDBRANCH   8   9
ENDBRANCH   7   8
ENDBRANCH   1   7
BRANCH   2  22
ATOM     22  O   UNL     1     -21.010 -27.495  30.832  1.00  0.00    -0.387 OA
ATOM     23  H   UNL     1     -21.851 -27.260  31.303  1.00  0.00     0.211 HD
ENDBRANCH   2  22
BRANCH   3  24
ATOM     24  O   UNL     1     -23.170 -25.867  30.158  1.00  0.00    -0.387 OA
ATOM     25  H   UNL     1     -23.742 -25.212  29.679  1.00  0.00     0.211 HD
ENDBRANCH   3  24
BRANCH   5  26
ATOM     26  O   UNL     1     -22.113 -23.750  28.538  1.00  0.00    -0.462 OA
BRANCH  26  27
ATOM     27  C   UNL     1     -22.024 -22.380  28.246  1.00  0.00     0.130 A 
ATOM     28  C   UNL     1     -22.424 -21.478  29.238  1.00  0.00     0.093 A 
ATOM     29  C   UNL     1     -21.552 -21.881  27.017  1.00  0.00     0.094 A 
ATOM     30  C   UNL     1     -22.382 -20.094  29.015  1.00  0.00     0.133 A 
ATOM     31  C   UNL     1     -21.497 -20.503  26.787  1.00  0.00     0.138 A 
ATOM     32  C   UNL     1     -21.923 -19.600  27.778  1.00  0.00     0.102 A 
ATOM     33  O   UNL     1     -21.000 -20.034  25.563  1.00  0.00    -0.484 OA
ATOM     34  C   UNL     1     -21.890 -18.157  27.457  1.00  0.00     0.174 C 
ATOM     35  C   UNL     1     -20.739 -18.652  25.286  1.00  0.00     0.211 C 
ATOM     36  O   UNL     1     -22.050 -17.284  28.353  1.00  0.00    -0.294 OA
ATOM     37  C   UNL     1     -21.724 -17.730  26.030  1.00  0.00     0.131 C 
BRANCH  30  38
ATOM     38  O   UNL     1     -22.809 -19.222  30.016  1.00  0.00    -0.507 OA
ATOM     39  H   UNL     1     -23.792 -19.090  30.225  1.00  0.00     0.293 HD
ENDBRANCH  30  38
BRANCH  35  40
ATOM     40  C   UNL     1     -19.299 -18.282  25.593  1.00  0.00    -0.003 A 
ATOM     41  C   UNL     1     -18.306 -19.259  25.791  1.00  0.00     0.057 A 
ATOM     42  C   UNL     1     -18.958 -16.929  25.754  1.00  0.00     0.011 A 
ATOM     43  C   UNL     1     -16.993 -18.886  26.117  1.00  0.00     0.158 A 
ATOM     44  C   UNL     1     -17.652 -16.557  26.079  1.00  0.00     0.051 A 
ATOM     45  C   UNL     1     -16.658 -17.534  26.263  1.00  0.00     0.160 A 
BRANCH  43  46
ATOM     46  O   UNL     1     -16.014 -19.861  26.303  1.00  0.00    -0.504 OA
ATOM     47  H   UNL     1     -15.051 -19.704  26.028  1.00  0.00     0.293 HD
ENDBRANCH  43  46
BRANCH  45  48
ATOM     48  O   UNL     1     -15.334 -17.203  26.593  1.00  0.00    -0.493 OA
ATOM     49  C   UNL     1     -14.912 -15.920  27.045  1.00  0.00     0.278 C 
ENDBRANCH  45  48
ENDBRANCH  35  40
ENDBRANCH  26  27
ENDBRANCH   5  26
BRANCH   4  50
ATOM     50  O   UNL     1     -23.987 -25.721  27.429  1.00  0.00    -0.384 OA
ATOM     51  H   UNL     1     -23.961 -24.910  26.859  1.00  0.00     0.211 HD
ENDBRANCH   4  50
TORSDOF 15
ENDMDL
MODEL 4
REMARK VINA RESULT:    -2.149      3.029      5.679
REMARK INTER + INTRA:          -6.821
REMARK INTER:                  -3.870
REMARK INTRA:                  -2.951
REMARK UNBOUND:                -3.290
REMARK SMILES COc1ccc([C@@H]2CC(=O)c3c(O)cc(O[C@H]4O[C@@H](CO[C@@H]5O[C@@H](C)[C@@H](O)[C@@H](O)[C@H]5O)[C@@H](O)[C@@H](O)[C@H]4O)cc3O2)cc1O
REMARK SMILES IDX 19 1 32 2 34 3 36 4 17 5 18 6 20 7 21 8 22 9 25 10 24 11
REMARK SMILES IDX 26 12 23 13 28 14 30 15 27 16 29 18 31 20 33 22 35 24 16 26
REMARK SMILES IDX 15 27 14 28 38 29 12 30 39 31 11 32 40 33 9 34 7 35 10 36
REMARK SMILES IDX 8 37 13 38 6 40 41 41 5 42 42 43 4 44 3 45 43 46 2 48 1 49
REMARK SMILES IDX 37 50
REMARK H PARENT 27 17 29 19 31 21 33 23 35 25 13 39 43 47 37 51
REMARK Flexibility Score: inf
ROOT
ATOM      1  C   UNL     1     -23.603 -33.657  29.861  1.00  0.00     0.180 C 
ATOM      2  C   UNL     1     -23.917 -35.170  30.029  1.00  0.00     0.177 C 
ATOM      3  C   UNL     1     -22.654 -36.003  30.307  1.00  0.00     0.180 C 
ATOM      4  C   UNL     1     -21.859 -35.336  31.441  1.00  0.00     0.214 C 
ATOM      5  C   UNL     1     -21.589 -33.844  31.140  1.00  0.00     0.339 C 
ATOM      6  O   UNL     1     -22.803 -33.135  30.919  1.00  0.00    -0.332 OA
ENDROOT
BRANCH   1   7
ATOM      7  C   UNL     1     -23.071 -33.245  28.466  1.00  0.00     0.198 C 
BRANCH   7   8
ATOM      8  O   UNL     1     -23.227 -31.853  28.261  1.00  0.00    -0.347 OA
BRANCH   8   9
ATOM      9  C   UNL     1     -21.987 -31.204  28.004  1.00  0.00     0.281 C 
ATOM     10  C   UNL     1     -21.793 -29.297  31.154  1.00  0.00     0.041 C 
ATOM     11  C   UNL     1     -22.340 -29.711  29.787  1.00  0.00     0.150 C 
ATOM     12  C   UNL     1     -22.525 -28.485  28.861  1.00  0.00     0.174 C 
ATOM     13  O   UNL     1     -21.459 -30.662  29.206  1.00  0.00    -0.344 OA
ATOM     14  C   UNL     1     -23.008 -28.942  27.467  1.00  0.00     0.179 C 
ATOM     15  C   UNL     1     -22.162 -30.107  26.925  1.00  0.00     0.202 C 
BRANCH  12  16
ATOM     16  O   UNL     1     -21.358 -27.700  28.769  1.00  0.00    -0.388 OA
ATOM     17  H   UNL     1     -21.311 -27.118  29.569  1.00  0.00     0.211 HD
ENDBRANCH  12  16
BRANCH  14  18
ATOM     18  O   UNL     1     -22.982 -27.871  26.559  1.00  0.00    -0.387 OA
ATOM     19  H   UNL     1     -23.487 -27.127  26.980  1.00  0.00     0.211 HD
ENDBRANCH  14  18
BRANCH  15  20
ATOM     20  O   UNL     1     -20.907 -29.639  26.502  1.00  0.00    -0.385 OA
ATOM     21  H   UNL     1     -20.232 -30.296  26.818  1.00  0.00     0.211 HD
ENDBRANCH  15  20
ENDBRANCH   8   9
ENDBRANCH   7   8
ENDBRANCH   1   7
BRANCH   2  22
ATOM     22  O   UNL     1     -24.601 -35.659  28.904  1.00  0.00    -0.387 OA
ATOM     23  H   UNL     1     -23.963 -36.233  28.405  1.00  0.00     0.211 HD
ENDBRANCH   2  22
BRANCH   3  24
ATOM     24  O   UNL     1     -21.864 -36.124  29.151  1.00  0.00    -0.387 OA
ATOM     25  H   UNL     1     -21.359 -35.274  29.055  1.00  0.00     0.211 HD
ENDBRANCH   3  24
BRANCH   5  26
ATOM     26  O   UNL     1     -20.701 -33.655  30.033  1.00  0.00    -0.462 OA
BRANCH  26  27
ATOM     27  C   UNL     1     -19.462 -32.995  30.045  1.00  0.00     0.130 A 
ATOM     28  C   UNL     1     -18.625 -33.166  28.938  1.00  0.00     0.093 A 
ATOM     29  C   UNL     1     -19.033 -32.176  31.107  1.00  0.00     0.094 A 
ATOM     30  C   UNL     1     -17.364 -32.555  28.883  1.00  0.00     0.133 A 
ATOM     31  C   UNL     1     -17.782 -31.555  31.060  1.00  0.00     0.138 A 
ATOM     32  C   UNL     1     -16.934 -31.749  29.956  1.00  0.00     0.102 A 
ATOM     33  O   UNL     1     -17.392 -30.726  32.122  1.00  0.00    -0.484 OA
ATOM     34  C   UNL     1     -15.602 -31.107  29.987  1.00  0.00     0.174 C 
ATOM     35  C   UNL     1     -16.214 -29.907  32.101  1.00  0.00     0.211 C 
ATOM     36  O   UNL     1     -14.875 -31.055  28.958  1.00  0.00    -0.294 OA
ATOM     37  C   UNL     1     -15.084 -30.562  31.284  1.00  0.00     0.131 C 
BRANCH  30  38
ATOM     38  O   UNL     1     -16.544 -32.764  27.775  1.00  0.00    -0.507 OA
ATOM     39  H   UNL     1     -15.643 -32.307  27.685  1.00  0.00     0.293 HD
ENDBRANCH  30  38
BRANCH  35  40
ATOM     40  C   UNL     1     -16.516 -28.506  31.601  1.00  0.00    -0.003 A 
ATOM     41  C   UNL     1     -17.830 -28.072  31.350  1.00  0.00     0.057 A 
ATOM     42  C   UNL     1     -15.451 -27.637  31.314  1.00  0.00     0.011 A 
ATOM     43  C   UNL     1     -18.074 -26.786  30.845  1.00  0.00     0.158 A 
ATOM     44  C   UNL     1     -15.691 -26.356  30.811  1.00  0.00     0.051 A 
ATOM     45  C   UNL     1     -17.007 -25.920  30.573  1.00  0.00     0.160 A 
BRANCH  43  46
ATOM     46  O   UNL     1     -19.380 -26.362  30.607  1.00  0.00    -0.504 OA
ATOM     47  H   UNL     1     -20.053 -26.271  31.360  1.00  0.00     0.293 HD
ENDBRANCH  43  46
BRANCH  45  48
ATOM     48  O   UNL     1     -17.292 -24.642  30.067  1.00  0.00    -0.493 OA
ATOM     49  C   UNL     1     -17.244 -23.442  30.833  1.00  0.00     0.278 C 
ENDBRANCH  45  48
ENDBRANCH  35  40
ENDBRANCH  26  27
ENDBRANCH   5  26
BRANCH   4  50
ATOM     50  O   UNL     1     -20.680 -36.041  31.746  1.00  0.00    -0.384 OA
ATOM     51  H   UNL     1     -20.888 -37.010  31.757  1.00  0.00     0.211 HD
ENDBRANCH   4  50
TORSDOF 15
ENDMDL
MODEL 5
REMARK VINA RESULT:    -2.086      4.872     10.100
REMARK INTER + INTRA:          -6.718
REMARK INTER:                  -3.691
REMARK INTRA:                  -3.027
REMARK UNBOUND:                -3.290
REMARK SMILES COc1ccc([C@@H]2CC(=O)c3c(O)cc(O[C@H]4O[C@@H](CO[C@@H]5O[C@@H](C)[C@@H](O)[C@@H](O)[C@H]5O)[C@@H](O)[C@@H](O)[C@H]4O)cc3O2)cc1O
REMARK SMILES IDX 19 1 32 2 34 3 36 4 17 5 18 6 20 7 21 8 22 9 25 10 24 11
REMARK SMILES IDX 26 12 23 13 28 14 30 15 27 16 29 18 31 20 33 22 35 24 16 26
REMARK SMILES IDX 15 27 14 28 38 29 12 30 39 31 11 32 40 33 9 34 7 35 10 36
REMARK SMILES IDX 8 37 13 38 6 40 41 41 5 42 42 43 4 44 3 45 43 46 2 48 1 49
REMARK SMILES IDX 37 50
REMARK H PARENT 27 17 29 19 31 21 33 23 35 25 13 39 43 47 37 51
REMARK Flexibility Score: inf
ROOT
ATOM      1  C   UNL     1     -20.001 -17.193  24.854  1.00  0.00     0.180 C 
ATOM      2  C   UNL     1     -20.716 -16.411  23.718  1.00  0.00     0.177 C 
ATOM      3  C   UNL     1     -22.231 -16.680  23.685  1.00  0.00     0.180 C 
ATOM      4  C   UNL     1     -22.797 -16.503  25.103  1.00  0.00     0.214 C 
ATOM      5  C   UNL     1     -22.017 -17.352  26.133  1.00  0.00     0.339 C 
ATOM      6  O   UNL     1     -20.632 -17.030  26.122  1.00  0.00    -0.332 OA
ENDROOT
BRANCH   1   7
ATOM      7  C   UNL     1     -19.691 -18.677  24.540  1.00  0.00     0.198 C 
BRANCH   7   8
ATOM      8  O   UNL     1     -18.929 -19.262  25.580  1.00  0.00    -0.347 OA
BRANCH   8   9
ATOM      9  C   UNL     1     -18.127 -20.342  25.119  1.00  0.00     0.281 C 
ATOM     10  C   UNL     1     -19.109 -22.790  27.696  1.00  0.00     0.041 C 
ATOM     11  C   UNL     1     -18.472 -21.522  27.123  1.00  0.00     0.150 C 
ATOM     12  C   UNL     1     -17.003 -21.374  27.586  1.00  0.00     0.174 C 
ATOM     13  O   UNL     1     -18.561 -21.561  25.707  1.00  0.00    -0.344 OA
ATOM     14  C   UNL     1     -16.366 -20.127  26.935  1.00  0.00     0.179 C 
ATOM     15  C   UNL     1     -16.632 -20.077  25.420  1.00  0.00     0.202 C 
BRANCH  12  16
ATOM     16  O   UNL     1     -16.240 -22.533  27.333  1.00  0.00    -0.388 OA
ATOM     17  H   UNL     1     -15.484 -22.285  26.743  1.00  0.00     0.211 HD
ENDBRANCH  12  16
BRANCH  14  18
ATOM     18  O   UNL     1     -14.983 -20.094  27.178  1.00  0.00    -0.387 OA
ATOM     19  H   UNL     1     -14.797 -20.787  27.864  1.00  0.00     0.211 HD
ENDBRANCH  14  18
BRANCH  15  20
ATOM     20  O   UNL     1     -15.829 -21.019  24.755  1.00  0.00    -0.385 OA
ATOM     21  H   UNL     1     -15.345 -20.531  24.038  1.00  0.00     0.211 HD
ENDBRANCH  15  20
ENDBRANCH   8   9
ENDBRANCH   7   8
ENDBRANCH   1   7
BRANCH   2  22
ATOM     22  O   UNL     1     -20.130 -16.702  22.475  1.00  0.00    -0.387 OA
ATOM     23  H   UNL     1     -20.833 -17.128  21.917  1.00  0.00     0.211 HD
ENDBRANCH   2  22
BRANCH   3  24
ATOM     24  O   UNL     1     -22.504 -17.970  23.199  1.00  0.00    -0.387 OA
ATOM     25  H   UNL     1     -21.685 -18.284  22.733  1.00  0.00     0.211 HD
ENDBRANCH   3  24
BRANCH   5  26
ATOM     26  O   UNL     1     -22.197 -18.760  25.938  1.00  0.00    -0.462 OA
BRANCH  26  27
ATOM     27  C   UNL     1     -22.225 -19.754  26.929  1.00  0.00     0.130 A 
ATOM     28  C   UNL     1     -22.787 -20.990  26.592  1.00  0.00     0.093 A 
ATOM     29  C   UNL     1     -21.716 -19.565  28.228  1.00  0.00     0.094 A 
ATOM     30  C   UNL     1     -22.869 -22.027  27.532  1.00  0.00     0.133 A 
ATOM     31  C   UNL     1     -21.784 -20.595  29.171  1.00  0.00     0.138 A 
ATOM     32  C   UNL     1     -22.371 -21.828  28.835  1.00  0.00     0.102 A 
ATOM     33  O   UNL     1     -21.247 -20.386  30.450  1.00  0.00    -0.484 OA
ATOM     34  C   UNL     1     -22.460 -22.860  29.890  1.00  0.00     0.174 C 
ATOM     35  C   UNL     1     -21.107 -21.421  31.432  1.00  0.00     0.211 C 
ATOM     36  O   UNL     1     -22.774 -24.050  29.616  1.00  0.00    -0.294 OA
ATOM     37  C   UNL     1     -22.233 -22.466  31.318  1.00  0.00     0.131 C 
BRANCH  30  38
ATOM     38  O   UNL     1     -23.455 -23.240  27.171  1.00  0.00    -0.507 OA
ATOM     39  H   UNL     1     -24.361 -23.522  27.529  1.00  0.00     0.293 HD
ENDBRANCH  30  38
BRANCH  35  40
ATOM     40  C   UNL     1     -19.738 -22.075  31.366  1.00  0.00    -0.003 A 
ATOM     41  C   UNL     1     -18.556 -21.318  31.269  1.00  0.00     0.057 A 
ATOM     42  C   UNL     1     -19.649 -23.476  31.329  1.00  0.00     0.011 A 
ATOM     43  C   UNL     1     -17.309 -21.952  31.164  1.00  0.00     0.158 A 
ATOM     44  C   UNL     1     -18.409 -24.109  31.225  1.00  0.00     0.051 A 
ATOM     45  C   UNL     1     -17.227 -23.351  31.141  1.00  0.00     0.160 A 
BRANCH  43  46
ATOM     46  O   UNL     1     -16.143 -21.194  31.077  1.00  0.00    -0.504 OA
ATOM     47  H   UNL     1     -15.351 -21.368  31.686  1.00  0.00     0.293 HD
ENDBRANCH  43  46
BRANCH  45  48
ATOM     48  O   UNL     1     -15.961 -23.947  31.033  1.00  0.00    -0.493 OA
ATOM     49  C   UNL     1     -15.061 -24.134  32.121  1.00  0.00     0.278 C 
ENDBRANCH  45  48
ENDBRANCH  35  40
ENDBRANCH  26  27
ENDBRANCH   5  26
BRANCH   4  50
ATOM     50  O   UNL     1     -24.182 -16.743  25.153  1.00  0.00    -0.384 OA
ATOM     51  H   UNL     1     -24.616 -15.985  25.621  1.00  0.00     0.211 HD
ENDBRANCH   4  50
TORSDOF 15
ENDMDL
MODEL 6
REMARK VINA RESULT:    -2.085      4.159      8.499
REMARK INTER + INTRA:          -6.717
REMARK INTER:                  -4.548
REMARK INTRA:                  -2.169
REMARK UNBOUND:                -3.290
REMARK SMILES COc1ccc([C@@H]2CC(=O)c3c(O)cc(O[C@H]4O[C@@H](CO[C@@H]5O[C@@H](C)[C@@H](O)[C@@H](O)[C@H]5O)[C@@H](O)[C@@H](O)[C@H]4O)cc3O2)cc1O
REMARK SMILES IDX 19 1 32 2 34 3 36 4 17 5 18 6 20 7 21 8 22 9 25 10 24 11
REMARK SMILES IDX 26 12 23 13 28 14 30 15 27 16 29 18 31 20 33 22 35 24 16 26
REMARK SMILES IDX 15 27 14 28 38 29 12 30 39 31 11 32 40 33 9 34 7 35 10 36
REMARK SMILES IDX 8 37 13 38 6 40 41 41 5 42 42 43 4 44 3 45 43 46 2 48 1 49
REMARK SMILES IDX 37 50
REMARK H PARENT 27 17 29 19 31 21 33 23 35 25 13 39 43 47 37 51
REMARK Flexibility Score: inf
ROOT
ATOM      1  C   UNL     1     -20.819 -24.226  29.907  1.00  0.00     0.180 C 
ATOM      2  C   UNL     1     -21.589 -25.370  30.623  1.00  0.00     0.177 C 
ATOM      3  C   UNL     1     -23.097 -25.083  30.734  1.00  0.00     0.180 C 
ATOM      4  C   UNL     1     -23.623 -24.658  29.353  1.00  0.00     0.214 C 
ATOM      5  C   UNL     1     -22.790 -23.497  28.763  1.00  0.00     0.339 C 
ATOM      6  O   UNL     1     -21.414 -23.846  28.669  1.00  0.00    -0.332 OA
ENDROOT
BRANCH   1   7
ATOM      7  C   UNL     1     -20.481 -23.002  30.795  1.00  0.00     0.198 C 
BRANCH   7   8
ATOM      8  O   UNL     1     -19.215 -23.162  31.408  1.00  0.00    -0.347 OA
BRANCH   8   9
ATOM      9  C   UNL     1     -18.435 -21.974  31.349  1.00  0.00     0.281 C 
ATOM     10  C   UNL     1     -17.801 -22.008  27.716  1.00  0.00     0.041 C 
ATOM     11  C   UNL     1     -17.724 -22.488  29.167  1.00  0.00     0.150 C 
ATOM     12  C   UNL     1     -16.259 -22.751  29.594  1.00  0.00     0.174 C 
ATOM     13  O   UNL     1     -18.334 -21.520  30.006  1.00  0.00    -0.344 OA
ATOM     14  C   UNL     1     -16.207 -23.163  31.081  1.00  0.00     0.179 C 
ATOM     15  C   UNL     1     -17.035 -22.212  31.964  1.00  0.00     0.202 C 
BRANCH  12  16
ATOM     16  O   UNL     1     -15.418 -21.650  29.335  1.00  0.00    -0.388 OA
ATOM     17  H   UNL     1     -14.773 -21.568  30.083  1.00  0.00     0.211 HD
ENDBRANCH  12  16
BRANCH  14  18
ATOM     18  O   UNL     1     -14.880 -23.204  31.537  1.00  0.00    -0.387 OA
ATOM     19  H   UNL     1     -14.831 -23.931  32.212  1.00  0.00     0.211 HD
ENDBRANCH  14  18
BRANCH  15  20
ATOM     20  O   UNL     1     -16.361 -20.990  32.125  1.00  0.00    -0.385 OA
ATOM     21  H   UNL     1     -16.972 -20.278  31.801  1.00  0.00     0.211 HD
ENDBRANCH  15  20
ENDBRANCH   8   9
ENDBRANCH   7   8
ENDBRANCH   1   7
BRANCH   2  22
ATOM     22  O   UNL     1     -21.035 -25.621  31.889  1.00  0.00    -0.387 OA
ATOM     23  H   UNL     1     -20.081 -25.858  31.745  1.00  0.00     0.211 HD
ENDBRANCH   2  22
BRANCH   3  24
ATOM     24  O   UNL     1     -23.352 -24.085  31.690  1.00  0.00    -0.387 OA
ATOM     25  H   UNL     1     -24.141 -23.573  31.371  1.00  0.00     0.211 HD
ENDBRANCH   3  24
BRANCH   5  26
ATOM     26  O   UNL     1     -22.940 -22.279  29.501  1.00  0.00    -0.462 OA
BRANCH  26  27
ATOM     27  C   UNL     1     -22.684 -20.976  29.044  1.00  0.00     0.130 A 
ATOM     28  C   UNL     1     -22.862 -19.925  29.950  1.00  0.00     0.093 A 
ATOM     29  C   UNL     1     -22.260 -20.686  27.733  1.00  0.00     0.094 A 
ATOM     30  C   UNL     1     -22.645 -18.594  29.564  1.00  0.00     0.133 A 
ATOM     31  C   UNL     1     -22.032 -19.365  27.340  1.00  0.00     0.138 A 
ATOM     32  C   UNL     1     -22.235 -18.309  28.247  1.00  0.00     0.102 A 
ATOM     33  O   UNL     1     -21.587 -19.108  26.035  1.00  0.00    -0.484 OA
ATOM     34  C   UNL     1     -22.027 -16.929  27.757  1.00  0.00     0.174 C 
ATOM     35  C   UNL     1     -21.159 -17.817  25.580  1.00  0.00     0.211 C 
ATOM     36  O   UNL     1     -21.980 -15.952  28.553  1.00  0.00    -0.294 OA
ATOM     37  C   UNL     1     -21.933 -16.685  26.281  1.00  0.00     0.131 C 
BRANCH  30  38
ATOM     38  O   UNL     1     -22.852 -17.567  30.484  1.00  0.00    -0.507 OA
ATOM     39  H   UNL     1     -23.665 -16.963  30.435  1.00  0.00     0.293 HD
ENDBRANCH  30  38
BRANCH  35  40
ATOM     40  C   UNL     1     -19.659 -17.638  25.733  1.00  0.00    -0.003 A 
ATOM     41  C   UNL     1     -18.758 -18.696  25.516  1.00  0.00     0.057 A 
ATOM     42  C   UNL     1     -19.158 -16.402  26.173  1.00  0.00     0.011 A 
ATOM     43  C   UNL     1     -17.381 -18.511  25.710  1.00  0.00     0.158 A 
ATOM     44  C   UNL     1     -17.787 -16.216  26.367  1.00  0.00     0.051 A 
ATOM     45  C   UNL     1     -16.887 -17.272  26.136  1.00  0.00     0.160 A 
BRANCH  43  46
ATOM     46  O   UNL     1     -16.494 -19.563  25.483  1.00  0.00    -0.504 OA
ATOM     47  H   UNL     1     -15.513 -19.397  25.288  1.00  0.00     0.293 HD
ENDBRANCH  43  46
BRANCH  45  48
ATOM     48  O   UNL     1     -15.502 -17.128  26.320  1.00  0.00    -0.493 OA
ATOM     49  C   UNL     1     -14.875 -15.961  26.844  1.00  0.00     0.278 C 
ENDBRANCH  45  48
ENDBRANCH  35  40
ENDBRANCH  26  27
ENDBRANCH   5  26
BRANCH   4  50
ATOM     50  O   UNL     1     -25.000 -24.369  29.378  1.00  0.00    -0.384 OA
ATOM     51  H   UNL     1     -25.478 -25.075  28.873  1.00  0.00     0.211 HD
ENDBRANCH   4  50
TORSDOF 15
ENDMDL
MODEL 7
REMARK VINA RESULT:    -2.060      2.311      3.979
REMARK INTER + INTRA:          -6.675
REMARK INTER:                  -3.877
REMARK INTRA:                  -2.798
REMARK UNBOUND:                -3.290
REMARK SMILES COc1ccc([C@@H]2CC(=O)c3c(O)cc(O[C@H]4O[C@@H](CO[C@@H]5O[C@@H](C)[C@@H](O)[C@@H](O)[C@H]5O)[C@@H](O)[C@@H](O)[C@H]4O)cc3O2)cc1O
REMARK SMILES IDX 19 1 32 2 34 3 36 4 17 5 18 6 20 7 21 8 22 9 25 10 24 11
REMARK SMILES IDX 26 12 23 13 28 14 30 15 27 16 29 18 31 20 33 22 35 24 16 26
REMARK SMILES IDX 15 27 14 28 38 29 12 30 39 31 11 32 40 33 9 34 7 35 10 36
REMARK SMILES IDX 8 37 13 38 6 40 41 41 5 42 42 43 4 44 3 45 43 46 2 48 1 49
REMARK SMILES IDX 37 50
REMARK H PARENT 27 17 29 19 31 21 33 23 35 25 13 39 43 47 37 51
REMARK Flexibility Score: inf
ROOT
ATOM      1  C   UNL     1     -21.121 -29.502  31.055  1.00  0.00     0.180 C 
ATOM      2  C   UNL     1     -20.097 -30.663  30.924  1.00  0.00     0.177 C 
ATOM      3  C   UNL     1     -18.642 -30.162  30.906  1.00  0.00     0.180 C 
ATOM      4  C   UNL     1     -18.437 -29.193  32.082  1.00  0.00     0.214 C 
ATOM      5  C   UNL     1     -19.501 -28.072  32.082  1.00  0.00     0.339 C 
ATOM      6  O   UNL     1     -20.817 -28.611  32.125  1.00  0.00    -0.332 OA
ENDROOT
BRANCH   1   7
ATOM      7  C   UNL     1     -21.437 -28.750  29.738  1.00  0.00     0.198 C 
BRANCH   7   8
ATOM      8  O   UNL     1     -22.395 -27.731  29.960  1.00  0.00    -0.347 OA
BRANCH   8   9
ATOM      9  C   UNL     1     -23.068 -27.356  28.765  1.00  0.00     0.281 C 
ATOM     10  C   UNL     1     -20.711 -24.726  27.705  1.00  0.00     0.041 C 
ATOM     11  C   UNL     1     -21.763 -25.408  28.581  1.00  0.00     0.150 C 
ATOM     12  C   UNL     1     -22.950 -24.459  28.874  1.00  0.00     0.174 C 
ATOM     13  O   UNL     1     -22.204 -26.593  27.934  1.00  0.00    -0.344 OA
ATOM     14  C   UNL     1     -24.028 -25.198  29.697  1.00  0.00     0.179 C 
ATOM     15  C   UNL     1     -24.363 -26.572  29.093  1.00  0.00     0.202 C 
BRANCH  12  16
ATOM     16  O   UNL     1     -23.493 -23.899  27.700  1.00  0.00    -0.388 OA
ATOM     17  H   UNL     1     -23.533 -24.607  27.007  1.00  0.00     0.211 HD
ENDBRANCH  12  16
BRANCH  14  18
ATOM     18  O   UNL     1     -25.194 -24.422  29.794  1.00  0.00    -0.387 OA
ATOM     19  H   UNL     1     -24.928 -23.482  29.616  1.00  0.00     0.211 HD
ENDBRANCH  14  18
BRANCH  15  20
ATOM     20  O   UNL     1     -25.142 -26.416  27.934  1.00  0.00    -0.385 OA
ATOM     21  H   UNL     1     -25.128 -25.450  27.705  1.00  0.00     0.211 HD
ENDBRANCH  15  20
ENDBRANCH   8   9
ENDBRANCH   7   8
ENDBRANCH   1   7
BRANCH   2  22
ATOM     22  O   UNL     1     -20.373 -31.438  29.786  1.00  0.00    -0.387 OA
ATOM     23  H   UNL     1     -19.507 -31.590  29.323  1.00  0.00     0.211 HD
ENDBRANCH   2  22
BRANCH   3  24
ATOM     24  O   UNL     1     -18.339 -29.534  29.686  1.00  0.00    -0.387 OA
ATOM     25  H   UNL     1     -17.939 -28.651  29.906  1.00  0.00     0.211 HD
ENDBRANCH   3  24
BRANCH   5  26
ATOM     26  O   UNL     1     -19.369 -27.184  30.967  1.00  0.00    -0.462 OA
BRANCH  26  27
ATOM     27  C   UNL     1     -19.099 -25.806  31.009  1.00  0.00     0.130 A 
ATOM     28  C   UNL     1     -17.879 -25.368  30.485  1.00  0.00     0.093 A 
ATOM     29  C   UNL     1     -19.993 -24.860  31.545  1.00  0.00     0.094 A 
ATOM     30  C   UNL     1     -17.528 -24.011  30.508  1.00  0.00     0.133 A 
ATOM     31  C   UNL     1     -19.658 -23.503  31.564  1.00  0.00     0.138 A 
ATOM     32  C   UNL     1     -18.420 -23.070  31.059  1.00  0.00     0.102 A 
ATOM     33  O   UNL     1     -20.579 -22.580  32.082  1.00  0.00    -0.484 OA
ATOM     34  C   UNL     1     -18.102 -21.629  31.154  1.00  0.00     0.174 C 
ATOM     35  C   UNL     1     -20.415 -21.158  31.995  1.00  0.00     0.211 C 
ATOM     36  O   UNL     1     -17.118 -21.134  30.539  1.00  0.00    -0.294 OA
ATOM     37  C   UNL     1     -18.930 -20.756  32.048  1.00  0.00     0.131 C 
BRANCH  30  38
ATOM     38  O   UNL     1     -16.294 -23.609  29.998  1.00  0.00    -0.507 OA
ATOM     39  H   UNL     1     -15.679 -22.991  30.515  1.00  0.00     0.293 HD
ENDBRANCH  30  38
BRANCH  35  40
ATOM     40  C   UNL     1     -21.098 -20.591  30.763  1.00  0.00    -0.003 A 
ATOM     41  C   UNL     1     -21.176 -21.312  29.558  1.00  0.00     0.057 A 
ATOM     42  C   UNL     1     -21.605 -19.282  30.803  1.00  0.00     0.011 A 
ATOM     43  C   UNL     1     -21.774 -20.742  28.424  1.00  0.00     0.158 A 
ATOM     44  C   UNL     1     -22.200 -18.713  29.675  1.00  0.00     0.051 A 
ATOM     45  C   UNL     1     -22.289 -19.440  28.474  1.00  0.00     0.160 A 
BRANCH  43  46
ATOM     46  O   UNL     1     -21.855 -21.467  27.236  1.00  0.00    -0.504 OA
ATOM     47  H   UNL     1     -21.166 -22.170  26.996  1.00  0.00     0.293 HD
ENDBRANCH  43  46
BRANCH  45  48
ATOM     48  O   UNL     1     -22.877 -18.906  27.317  1.00  0.00    -0.493 OA
ATOM     49  C   UNL     1     -22.315 -17.853  26.539  1.00  0.00     0.278 C 
ENDBRANCH  45  48
ENDBRANCH  35  40
ENDBRANCH  26  27
ENDBRANCH   5  26
BRANCH   4  50
ATOM     50  O   UNL     1     -17.126 -28.685  32.124  1.00  0.00    -0.384 OA
ATOM     51  H   UNL     1     -17.063 -28.042  32.876  1.00  0.00     0.211 HD
ENDBRANCH   4  50
TORSDOF 15
ENDMDL
MODEL 8
REMARK VINA RESULT:    -2.020      2.777      7.431
REMARK INTER + INTRA:          -6.609
REMARK INTER:                  -3.370
REMARK INTRA:                  -3.239
REMARK UNBOUND:                -3.290
REMARK SMILES COc1ccc([C@@H]2CC(=O)c3c(O)cc(O[C@H]4O[C@@H](CO[C@@H]5O[C@@H](C)[C@@H](O)[C@@H](O)[C@H]5O)[C@@H](O)[C@@H](O)[C@H]4O)cc3O2)cc1O
REMARK SMILES IDX 19 1 32 2 34 3 36 4 17 5 18 6 20 7 21 8 22 9 25 10 24 11
REMARK SMILES IDX 26 12 23 13 28 14 30 15 27 16 29 18 31 20 33 22 35 24 16 26
REMARK SMILES IDX 15 27 14 28 38 29 12 30 39 31 11 32 40 33 9 34 7 35 10 36
REMARK SMILES IDX 8 37 13 38 6 40 41 41 5 42 42 43 4 44 3 45 43 46 2 48 1 49
REMARK SMILES IDX 37 50
REMARK H PARENT 27 17 29 19 31 21 33 23 35 25 13 39 43 47 37 51
REMARK Flexibility Score: inf
ROOT
ATOM      1  C   UNL     1     -24.674 -24.262  28.094  1.00  0.00     0.180 C 
ATOM      2  C   UNL     1     -25.967 -23.498  27.694  1.00  0.00     0.177 C 
ATOM      3  C   UNL     1     -25.766 -21.972  27.682  1.00  0.00     0.180 C 
ATOM      4  C   UNL     1     -24.497 -21.645  26.878  1.00  0.00     0.214 C 
ATOM      5  C   UNL     1     -23.281 -22.448  27.393  1.00  0.00     0.339 C 
ATOM      6  O   UNL     1     -23.532 -23.848  27.350  1.00  0.00    -0.332 OA
ENDROOT
BRANCH   1   7
ATOM      7  C   UNL     1     -24.391 -24.326  29.615  1.00  0.00     0.198 C 
BRANCH   7   8
ATOM      8  O   UNL     1     -24.343 -25.670  30.060  1.00  0.00    -0.347 OA
BRANCH   8   9
ATOM      9  C   UNL     1     -23.201 -26.359  29.566  1.00  0.00     0.281 C 
ATOM     10  C   UNL     1     -23.563 -29.400  31.620  1.00  0.00     0.041 C 
ATOM     11  C   UNL     1     -23.320 -27.920  31.321  1.00  0.00     0.150 C 
ATOM     12  C   UNL     1     -22.021 -27.417  31.996  1.00  0.00     0.174 C 
ATOM     13  O   UNL     1     -23.269 -27.735  29.915  1.00  0.00    -0.344 OA
ATOM     14  C   UNL     1     -21.764 -25.942  31.617  1.00  0.00     0.179 C 
ATOM     15  C   UNL     1     -21.901 -25.711  30.102  1.00  0.00     0.202 C 
BRANCH  12  16
ATOM     16  O   UNL     1     -20.908 -28.228  31.691  1.00  0.00    -0.388 OA
ATOM     17  H   UNL     1     -20.786 -28.878  32.429  1.00  0.00     0.211 HD
ENDBRANCH  12  16
BRANCH  14  18
ATOM     18  O   UNL     1     -20.491 -25.535  32.049  1.00  0.00    -0.387 OA
ATOM     19  H   UNL     1     -20.613 -24.675  32.528  1.00  0.00     0.211 HD
ENDBRANCH  14  18
BRANCH  15  20
ATOM     20  O   UNL     1     -20.784 -26.234  29.429  1.00  0.00    -0.385 OA
ATOM     21  H   UNL     1     -21.003 -26.232  28.461  1.00  0.00     0.211 HD
ENDBRANCH  15  20
ENDBRANCH   8   9
ENDBRANCH   7   8
ENDBRANCH   1   7
BRANCH   2  22
ATOM     22  O   UNL     1     -27.032 -23.855  28.536  1.00  0.00    -0.387 OA
ATOM     23  H   UNL     1     -27.254 -23.053  29.077  1.00  0.00     0.211 HD
ENDBRANCH   2  22
BRANCH   3  24
ATOM     24  O   UNL     1     -25.671 -21.466  28.989  1.00  0.00    -0.387 OA
ATOM     25  H   UNL     1     -25.073 -22.078  29.495  1.00  0.00     0.211 HD
ENDBRANCH   3  24
BRANCH   5  26
ATOM     26  O   UNL     1     -22.879 -22.060  28.711  1.00  0.00    -0.462 OA
BRANCH  26  27
ATOM     27  C   UNL     1     -21.567 -21.956  29.200  1.00  0.00     0.130 A 
ATOM     28  C   UNL     1     -21.375 -21.259  30.397  1.00  0.00     0.093 A 
ATOM     29  C   UNL     1     -20.453 -22.519  28.549  1.00  0.00     0.094 A 
ATOM     30  C   UNL     1     -20.092 -21.096  30.941  1.00  0.00     0.133 A 
ATOM     31  C   UNL     1     -19.171 -22.371  29.086  1.00  0.00     0.138 A 
ATOM     32  C   UNL     1     -18.979 -21.649  30.277  1.00  0.00     0.102 A 
ATOM     33  O   UNL     1     -18.083 -22.963  28.428  1.00  0.00    -0.484 OA
ATOM     34  C   UNL     1     -17.594 -21.482  30.768  1.00  0.00     0.174 C 
ATOM     35  C   UNL     1     -16.759 -23.022  28.975  1.00  0.00     0.211 C 
ATOM     36  O   UNL     1     -17.358 -21.038  31.924  1.00  0.00    -0.294 OA
ATOM     37  C   UNL     1     -16.451 -21.790  29.848  1.00  0.00     0.131 C 
BRANCH  30  38
ATOM     38  O   UNL     1     -19.931 -20.376  32.124  1.00  0.00    -0.507 OA
ATOM     39  H   UNL     1     -20.609 -19.684  32.424  1.00  0.00     0.293 HD
ENDBRANCH  30  38
BRANCH  35  40
ATOM     40  C   UNL     1     -16.526 -24.312  29.740  1.00  0.00    -0.003 A 
ATOM     41  C   UNL     1     -17.541 -25.272  29.907  1.00  0.00     0.057 A 
ATOM     42  C   UNL     1     -15.285 -24.526  30.361  1.00  0.00     0.011 A 
ATOM     43  C   UNL     1     -17.309 -26.434  30.658  1.00  0.00     0.158 A 
ATOM     44  C   UNL     1     -15.051 -25.683  31.109  1.00  0.00     0.051 A 
ATOM     45  C   UNL     1     -16.063 -26.647  31.263  1.00  0.00     0.160 A 
BRANCH  43  46
ATOM     46  O   UNL     1     -18.318 -27.383  30.810  1.00  0.00    -0.504 OA
ATOM     47  H   UNL     1     -18.252 -28.300  30.383  1.00  0.00     0.293 HD
ENDBRANCH  43  46
BRANCH  45  48
ATOM     48  O   UNL     1     -15.871 -27.821  32.008  1.00  0.00    -0.493 OA
ATOM     49  C   UNL     1     -14.929 -28.839  31.682  1.00  0.00     0.278 C 
ENDBRANCH  45  48
ENDBRANCH  35  40
ENDBRANCH  26  27
ENDBRANCH   5  26
BRANCH   4  50
ATOM     50  O   UNL     1     -24.244 -20.262  26.832  1.00  0.00    -0.384 OA
ATOM     51  H   UNL     1     -23.339 -20.122  26.452  1.00  0.00     0.211 HD
ENDBRANCH   4  50
TORSDOF 15
ENDMDL
MODEL 9
REMARK VINA RESULT:    -1.977      5.330      7.422
REMARK INTER + INTRA:          -6.538
REMARK INTER:                  -3.318
REMARK INTRA:                  -3.221
REMARK UNBOUND:                -3.290
REMARK SMILES COc1ccc([C@@H]2CC(=O)c3c(O)cc(O[C@H]4O[C@@H](CO[C@@H]5O[C@@H](C)[C@@H](O)[C@@H](O)[C@H]5O)[C@@H](O)[C@@H](O)[C@H]4O)cc3O2)cc1O
REMARK SMILES IDX 19 1 32 2 34 3 36 4 17 5 18 6 20 7 21 8 22 9 25 10 24 11
REMARK SMILES IDX 26 12 23 13 28 14 30 15 27 16 29 18 31 20 33 22 35 24 16 26
REMARK SMILES IDX 15 27 14 28 38 29 12 30 39 31 11 32 40 33 9 34 7 35 10 36
REMARK SMILES IDX 8 37 13 38 6 40 41 41 5 42 42 43 4 44 3 45 43 46 2 48 1 49
REMARK SMILES IDX 37 50
REMARK H PARENT 27 17 29 19 31 21 33 23 35 25 13 39 43 47 37 51
REMARK Flexibility Score: inf
ROOT
ATOM      1  C   UNL     1     -18.930 -22.889  30.416  1.00  0.00     0.180 C 
ATOM      2  C   UNL     1     -18.613 -24.070  31.375  1.00  0.00     0.177 C 
ATOM      3  C   UNL     1     -17.200 -24.639  31.158  1.00  0.00     0.180 C 
ATOM      4  C   UNL     1     -16.194 -23.477  31.143  1.00  0.00     0.214 C 
ATOM      5  C   UNL     1     -16.608 -22.385  30.130  1.00  0.00     0.339 C 
ATOM      6  O   UNL     1     -17.913 -21.891  30.410  1.00  0.00    -0.332 OA
ENDROOT
BRANCH   1   7
ATOM      7  C   UNL     1     -19.357 -23.299  28.985  1.00  0.00     0.198 C 
BRANCH   7   8
ATOM      8  O   UNL     1     -19.632 -22.155  28.197  1.00  0.00    -0.347 OA
BRANCH   8   9
ATOM      9  C   UNL     1     -20.629 -22.405  27.214  1.00  0.00     0.281 C 
ATOM     10  C   UNL     1     -19.173 -20.336  24.531  1.00  0.00     0.041 C 
ATOM     11  C   UNL     1     -19.828 -20.642  25.879  1.00  0.00     0.150 C 
ATOM     12  C   UNL     1     -21.081 -19.762  26.108  1.00  0.00     0.174 C 
ATOM     13  O   UNL     1     -20.158 -22.022  25.930  1.00  0.00    -0.344 OA
ATOM     14  C   UNL     1     -21.761 -20.143  27.440  1.00  0.00     0.179 C 
ATOM     15  C   UNL     1     -21.941 -21.666  27.572  1.00  0.00     0.202 C 
BRANCH  12  16
ATOM     16  O   UNL     1     -21.987 -19.827  25.030  1.00  0.00    -0.388 OA
ATOM     17  H   UNL     1     -22.512 -18.987  25.013  1.00  0.00     0.211 HD
ENDBRANCH  12  16
BRANCH  14  18
ATOM     18  O   UNL     1     -23.004 -19.503  27.563  1.00  0.00    -0.387 OA
ATOM     19  H   UNL     1     -23.055 -18.834  26.830  1.00  0.00     0.211 HD
ENDBRANCH  14  18
BRANCH  15  20
ATOM     20  O   UNL     1     -22.987 -22.104  26.741  1.00  0.00    -0.385 OA
ATOM     21  H   UNL     1     -23.343 -21.301  26.278  1.00  0.00     0.211 HD
ENDBRANCH  15  20
ENDBRANCH   8   9
ENDBRANCH   7   8
ENDBRANCH   1   7
BRANCH   2  22
ATOM     22  O   UNL     1     -19.582 -25.079  31.253  1.00  0.00    -0.387 OA
ATOM     23  H   UNL     1     -19.435 -25.714  32.002  1.00  0.00     0.211 HD
ENDBRANCH   2  22
BRANCH   3  24
ATOM     24  O   UNL     1     -17.130 -25.373  29.961  1.00  0.00    -0.387 OA
ATOM     25  H   UNL     1     -17.998 -25.847  29.860  1.00  0.00     0.211 HD
ENDBRANCH   3  24
BRANCH   5  26
ATOM     26  O   UNL     1     -16.533 -22.832  28.772  1.00  0.00    -0.462 OA
BRANCH  26  27
ATOM     27  C   UNL     1     -16.269 -22.049  27.636  1.00  0.00     0.130 A 
ATOM     28  C   UNL     1     -16.166 -22.706  26.406  1.00  0.00     0.093 A 
ATOM     29  C   UNL     1     -16.112 -20.651  27.681  1.00  0.00     0.094 A 
ATOM     30  C   UNL     1     -15.886 -21.997  25.229  1.00  0.00     0.133 A 
ATOM     31  C   UNL     1     -15.841 -19.932  26.514  1.00  0.00     0.138 A 
ATOM     32  C   UNL     1     -15.714 -20.599  25.283  1.00  0.00     0.102 A 
ATOM     33  O   UNL     1     -15.713 -18.538  26.585  1.00  0.00    -0.484 OA
ATOM     34  C   UNL     1     -15.377 -19.791  24.091  1.00  0.00     0.174 C 
ATOM     35  C   UNL     1     -15.609 -17.688  25.435  1.00  0.00     0.211 C 
ATOM     36  O   UNL     1     -15.454 -20.274  22.929  1.00  0.00    -0.294 OA
ATOM     37  C   UNL     1     -14.875 -18.391  24.277  1.00  0.00     0.131 C 
BRANCH  30  38
ATOM     38  O   UNL     1     -15.767 -22.684  24.022  1.00  0.00    -0.507 OA
ATOM     39  H   UNL     1     -16.000 -23.667  23.943  1.00  0.00     0.293 HD
ENDBRANCH  30  38
BRANCH  35  40
ATOM     40  C   UNL     1     -16.967 -17.172  24.995  1.00  0.00    -0.003 A 
ATOM     41  C   UNL     1     -18.023 -16.987  25.906  1.00  0.00     0.057 A 
ATOM     42  C   UNL     1     -17.202 -16.938  23.631  1.00  0.00     0.011 A 
ATOM     43  C   UNL     1     -19.281 -16.551  25.462  1.00  0.00     0.158 A 
ATOM     44  C   UNL     1     -18.454 -16.504  23.187  1.00  0.00     0.051 A 
ATOM     45  C   UNL     1     -19.504 -16.308  24.101  1.00  0.00     0.160 A 
BRANCH  43  46
ATOM     46  O   UNL     1     -20.319 -16.363  26.373  1.00  0.00    -0.504 OA
ATOM     47  H   UNL     1     -20.309 -16.802  27.287  1.00  0.00     0.293 HD
ENDBRANCH  43  46
BRANCH  45  48
ATOM     48  O   UNL     1     -20.777 -15.875  23.696  1.00  0.00    -0.493 OA
ATOM     49  C   UNL     1     -21.863 -16.743  23.384  1.00  0.00     0.278 C 
ENDBRANCH  45  48
ENDBRANCH  35  40
ENDBRANCH  26  27
ENDBRANCH   5  26
BRANCH   4  50
ATOM     50  O   UNL     1     -14.875 -23.922  30.938  1.00  0.00    -0.384 OA
ATOM     51  H   UNL     1     -14.437 -24.024  31.821  1.00  0.00     0.211 HD
ENDBRANCH   4  50
TORSDOF 15
ENDMDL
