MODEL 1
REMARK VINA RESULT:    -5.123      0.000      0.000
REMARK INTER + INTRA:          -7.217
REMARK INTER:                  -6.919
REMARK INTRA:                  -0.298
REMARK UNBOUND:                -0.298
REMARK SMILES CCCCCCCC(=O)[O-]
REMARK SMILES IDX 5 1 6 2 7 3 8 4 9 5 10 6 4 7 3 8 2 9 1 10
REMARK H PARENT
REMARK Flexibility Score: inf
ROOT
ATOM      1  C   UNL     1      -4.608  27.843  55.499  1.00  0.00     0.000 C 
ENDROOT
BRANCH   1   2
ATOM      2  C   UNL     1      -4.969  28.770  56.671  1.00  0.00     0.006 C 
BRANCH   2   3
ATOM      3  C   UNL     1      -3.786  29.634  57.127  1.00  0.00     0.053 C 
BRANCH   3   4
ATOM      4  C   UNL     1      -4.218  30.585  58.199  1.00  0.00     0.041 C 
ATOM      5  O   UNL     1      -4.643  30.147  59.301  1.00  0.00    -0.550 OA
ATOM      6  O   UNL     1      -4.196  31.953  57.964  1.00  0.00    -0.550 OA
ENDBRANCH   3   4
ENDBRANCH   2   3
ENDBRANCH   1   2
BRANCH   1   7
ATOM      7  C   UNL     1      -3.474  26.867  55.844  1.00  0.00     0.000 C 
BRANCH   7   8
ATOM      8  C   UNL     1      -2.755  26.390  54.577  1.00  0.00    -0.000 C 
BRANCH   8   9
ATOM      9  C   UNL     1      -1.268  26.139  54.848  1.00  0.00    -0.003 C 
ATOM     10  C   UNL     1      -0.815  26.834  56.129  1.00  0.00     0.004 C 
ENDBRANCH   8   9
ENDBRANCH   7   8
ENDBRANCH   1   7
TORSDOF 6
ENDMDL
MODEL 2
REMARK VINA RESULT:    -5.053      2.430      3.353
REMARK INTER + INTRA:          -7.123
REMARK INTER:                  -6.887
REMARK INTRA:                  -0.236
REMARK UNBOUND:                -0.298
REMARK SMILES CCCCCCCC(=O)[O-]
REMARK SMILES IDX 5 1 6 2 7 3 8 4 9 5 10 6 4 7 3 8 2 9 1 10
REMARK H PARENT
REMARK Flexibility Score: inf
ROOT
ATOM      1  C   UNL     1      -3.273  26.365  53.919  1.00  0.00     0.000 C 
ENDROOT
BRANCH   1   2
ATOM      2  C   UNL     1      -3.572  26.701  55.389  1.00  0.00     0.006 C 
BRANCH   2   3
ATOM      3  C   UNL     1      -4.603  27.825  55.540  1.00  0.00     0.053 C 
BRANCH   3   4
ATOM      4  C   UNL     1      -4.152  28.812  56.572  1.00  0.00     0.041 C 
ATOM      5  O   UNL     1      -4.976  29.287  57.398  1.00  0.00    -0.550 OA
ATOM      6  O   UNL     1      -2.832  29.242  56.590  1.00  0.00    -0.550 OA
ENDBRANCH   3   4
ENDBRANCH   2   3
ENDBRANCH   1   2
BRANCH   1   7
ATOM      7  C   UNL     1      -1.768  26.341  53.612  1.00  0.00     0.000 C 
BRANCH   7   8
ATOM      8  C   UNL     1      -1.516  26.096  52.120  1.00  0.00    -0.000 C 
BRANCH   8   9
ATOM      9  C   UNL     1      -2.724  26.524  51.280  1.00  0.00    -0.003 C 
ATOM     10  C   UNL     1      -2.288  27.300  50.040  1.00  0.00     0.004 C 
ENDBRANCH   8   9
ENDBRANCH   7   8
ENDBRANCH   1   7
TORSDOF 6
ENDMDL
MODEL 3
REMARK VINA RESULT:    -5.013      3.181      5.061
REMARK INTER + INTRA:          -7.069
REMARK INTER:                  -6.761
REMARK INTRA:                  -0.308
REMARK UNBOUND:                -0.298
REMARK SMILES CCCCCCCC(=O)[O-]
REMARK SMILES IDX 5 1 6 2 7 3 8 4 9 5 10 6 4 7 3 8 2 9 1 10
REMARK H PARENT
REMARK Flexibility Score: inf
ROOT
ATOM      1  C   UNL     1      -4.586  27.824  55.552  1.00  0.00     0.000 C 
ENDROOT
BRANCH   1   2
ATOM      2  C   UNL     1      -3.480  26.784  55.797  1.00  0.00     0.006 C 
BRANCH   2   3
ATOM      3  C   UNL     1      -2.625  26.525  54.551  1.00  0.00     0.053 C 
BRANCH   3   4
ATOM      4  C   UNL     1      -1.181  26.405  54.925  1.00  0.00     0.041 C 
ATOM      5  O   UNL     1      -0.396  25.723  54.215  1.00  0.00    -0.550 OA
ATOM      6  O   UNL     1      -0.712  27.009  56.085  1.00  0.00    -0.550 OA
ENDBRANCH   3   4
ENDBRANCH   2   3
ENDBRANCH   1   2
BRANCH   1   7
ATOM      7  C   UNL     1      -4.677  28.866  56.677  1.00  0.00     0.000 C 
BRANCH   7   8
ATOM      8  C   UNL     1      -3.290  29.412  57.033  1.00  0.00    -0.000 C 
BRANCH   8   9
ATOM      9  C   UNL     1      -3.385  30.498  58.110  1.00  0.00    -0.003 C 
ATOM     10  C   UNL     1      -4.644  30.327  58.956  1.00  0.00     0.004 C 
ENDBRANCH   8   9
ENDBRANCH   7   8
ENDBRANCH   1   7
TORSDOF 6
ENDMDL
MODEL 4
REMARK VINA RESULT:    -4.916      0.880      1.873
REMARK INTER + INTRA:          -6.938
REMARK INTER:                  -6.684
REMARK INTRA:                  -0.255
REMARK UNBOUND:                -0.298
REMARK SMILES CCCCCCCC(=O)[O-]
REMARK SMILES IDX 5 1 6 2 7 3 8 4 9 5 10 6 4 7 3 8 2 9 1 10
REMARK H PARENT
REMARK Flexibility Score: inf
ROOT
ATOM      1  C   UNL     1      -4.270  28.002  55.799  1.00  0.00     0.000 C 
ENDROOT
BRANCH   1   2
ATOM      2  C   UNL     1      -4.818  28.961  56.868  1.00  0.00     0.006 C 
BRANCH   2   3
ATOM      3  C   UNL     1      -3.727  29.846  57.483  1.00  0.00     0.053 C 
BRANCH   3   4
ATOM      4  C   UNL     1      -4.303  30.710  58.562  1.00  0.00     0.041 C 
ATOM      5  O   UNL     1      -4.042  31.942  58.595  1.00  0.00    -0.550 OA
ATOM      6  O   UNL     1      -5.088  30.145  59.559  1.00  0.00    -0.550 OA
ENDBRANCH   3   4
ENDBRANCH   2   3
ENDBRANCH   1   2
BRANCH   1   7
ATOM      7  C   UNL     1      -2.812  27.596  56.062  1.00  0.00     0.000 C 
BRANCH   7   8
ATOM      8  C   UNL     1      -2.327  26.587  55.014  1.00  0.00    -0.000 C 
BRANCH   8   9
ATOM      9  C   UNL     1      -3.388  26.363  53.932  1.00  0.00    -0.003 C 
ATOM     10  C   UNL     1      -2.762  26.339  52.541  1.00  0.00     0.004 C 
ENDBRANCH   8   9
ENDBRANCH   7   8
ENDBRANCH   1   7
TORSDOF 6
ENDMDL
MODEL 5
REMARK VINA RESULT:    -4.878      4.118      5.877
REMARK INTER + INTRA:          -6.887
REMARK INTER:                  -6.779
REMARK INTRA:                  -0.107
REMARK UNBOUND:                -0.298
REMARK SMILES CCCCCCCC(=O)[O-]
REMARK SMILES IDX 5 1 6 2 7 3 8 4 9 5 10 6 4 7 3 8 2 9 1 10
REMARK H PARENT
REMARK Flexibility Score: inf
ROOT
ATOM      1  C   UNL     1      -3.569  27.094  55.606  1.00  0.00     0.000 C 
ENDROOT
BRANCH   1   2
ATOM      2  C   UNL     1      -3.795  26.664  54.148  1.00  0.00     0.006 C 
BRANCH   2   3
ATOM      3  C   UNL     1      -2.496  26.252  53.444  1.00  0.00     0.053 C 
BRANCH   3   4
ATOM      4  C   UNL     1      -2.648  26.366  51.960  1.00  0.00     0.041 C 
ATOM      5  O   UNL     1      -3.773  26.191  51.422  1.00  0.00    -0.550 OA
ATOM      6  O   UNL     1      -1.537  26.618  51.165  1.00  0.00    -0.550 OA
ENDBRANCH   3   4
ENDBRANCH   2   3
ENDBRANCH   1   2
BRANCH   1   7
ATOM      7  C   UNL     1      -4.563  28.171  56.066  1.00  0.00     0.000 C 
BRANCH   7   8
ATOM      8  C   UNL     1      -3.830  29.365  56.689  1.00  0.00    -0.000 C 
BRANCH   8   9
ATOM      9  C   UNL     1      -4.512  29.813  57.986  1.00  0.00    -0.003 C 
ATOM     10  C   UNL     1      -3.985  31.169  58.446  1.00  0.00     0.004 C 
ENDBRANCH   8   9
ENDBRANCH   7   8
ENDBRANCH   1   7
TORSDOF 6
ENDMDL
MODEL 6
REMARK VINA RESULT:    -4.829      3.035      5.203
REMARK INTER + INTRA:          -6.820
REMARK INTER:                  -6.582
REMARK INTRA:                  -0.238
REMARK UNBOUND:                -0.298
REMARK SMILES CCCCCCCC(=O)[O-]
REMARK SMILES IDX 5 1 6 2 7 3 8 4 9 5 10 6 4 7 3 8 2 9 1 10
REMARK H PARENT
REMARK Flexibility Score: inf
ROOT
ATOM      1  C   UNL     1      -3.475  29.339  56.307  1.00  0.00     0.000 C 
ENDROOT
BRANCH   1   2
ATOM      2  C   UNL     1      -4.583  28.277  56.393  1.00  0.00     0.006 C 
BRANCH   2   3
ATOM      3  C   UNL     1      -4.797  27.538  55.067  1.00  0.00     0.053 C 
BRANCH   3   4
ATOM      4  C   UNL     1      -3.620  26.664  54.761  1.00  0.00     0.041 C 
ATOM      5  O   UNL     1      -2.956  26.145  55.697  1.00  0.00    -0.550 OA
ATOM      6  O   UNL     1      -3.228  26.462  53.444  1.00  0.00    -0.550 OA
ENDBRANCH   3   4
ENDBRANCH   2   3
ENDBRANCH   1   2
BRANCH   1   7
ATOM      7  C   UNL     1      -3.043  29.856  57.688  1.00  0.00     0.000 C 
BRANCH   7   8
ATOM      8  C   UNL     1      -3.787  31.147  58.048  1.00  0.00    -0.000 C 
BRANCH   8   9
ATOM      9  C   UNL     1      -4.392  31.061  59.453  1.00  0.00    -0.003 C 
ATOM     10  C   UNL     1      -5.382  29.904  59.558  1.00  0.00     0.004 C 
ENDBRANCH   8   9
ENDBRANCH   7   8
ENDBRANCH   1   7
TORSDOF 6
ENDMDL
MODEL 7
REMARK VINA RESULT:    -4.699      3.127      5.127
REMARK INTER + INTRA:          -6.644
REMARK INTER:                  -6.315
REMARK INTRA:                  -0.329
REMARK UNBOUND:                -0.298
REMARK SMILES CCCCCCCC(=O)[O-]
REMARK SMILES IDX 5 1 6 2 7 3 8 4 9 5 10 6 4 7 3 8 2 9 1 10
REMARK H PARENT
REMARK Flexibility Score: inf
ROOT
ATOM      1  C   UNL     1      -1.157  27.887  56.752  1.00  0.00     0.000 C 
ENDROOT
BRANCH   1   2
ATOM      2  C   UNL     1      -2.209  26.820  56.411  1.00  0.00     0.006 C 
BRANCH   2   3
ATOM      3  C   UNL     1      -2.050  26.266  54.990  1.00  0.00     0.053 C 
BRANCH   3   4
ATOM      4  C   UNL     1      -3.267  26.569  54.172  1.00  0.00     0.041 C 
ATOM      5  O   UNL     1      -3.246  26.413  52.923  1.00  0.00    -0.550 OA
ATOM      6  O   UNL     1      -4.407  27.071  54.785  1.00  0.00    -0.550 OA
ENDBRANCH   3   4
ENDBRANCH   2   3
ENDBRANCH   1   2
BRANCH   1   7
ATOM      7  C   UNL     1      -1.715  29.316  56.668  1.00  0.00     0.000 C 
BRANCH   7   8
ATOM      8  C   UNL     1      -3.161  29.370  57.172  1.00  0.00    -0.000 C 
BRANCH   8   9
ATOM      9  C   UNL     1      -3.353  30.513  58.175  1.00  0.00    -0.003 C 
ATOM     10  C   UNL     1      -4.650  30.346  58.961  1.00  0.00     0.004 C 
ENDBRANCH   8   9
ENDBRANCH   7   8
ENDBRANCH   1   7
TORSDOF 6
ENDMDL
MODEL 8
REMARK VINA RESULT:    -4.597      1.105      2.363
REMARK INTER + INTRA:          -6.507
REMARK INTER:                  -6.186
REMARK INTRA:                  -0.321
REMARK UNBOUND:                -0.298
REMARK SMILES CCCCCCCC(=O)[O-]
REMARK SMILES IDX 5 1 6 2 7 3 8 4 9 5 10 6 4 7 3 8 2 9 1 10
REMARK H PARENT
REMARK Flexibility Score: inf
ROOT
ATOM      1  C   UNL     1      -1.394  28.537  56.707  1.00  0.00     0.000 C 
ENDROOT
BRANCH   1   2
ATOM      2  C   UNL     1      -2.058  29.739  57.397  1.00  0.00     0.006 C 
BRANCH   2   3
ATOM      3  C   UNL     1      -3.588  29.645  57.407  1.00  0.00     0.053 C 
BRANCH   3   4
ATOM      4  C   UNL     1      -4.154  30.471  58.519  1.00  0.00     0.041 C 
ATOM      5  O   UNL     1      -3.630  31.576  58.819  1.00  0.00    -0.550 OA
ATOM      6  O   UNL     1      -5.232  29.998  59.257  1.00  0.00    -0.550 OA
ENDBRANCH   3   4
ENDBRANCH   2   3
ENDBRANCH   1   2
BRANCH   1   7
ATOM      7  C   UNL     1      -2.372  27.375  56.475  1.00  0.00     0.000 C 
BRANCH   7   8
ATOM      8  C   UNL     1      -2.137  26.724  55.107  1.00  0.00    -0.000 C 
BRANCH   8   9
ATOM      9  C   UNL     1      -3.454  26.567  54.338  1.00  0.00    -0.003 C 
ATOM     10  C   UNL     1      -4.605  27.249  55.070  1.00  0.00     0.004 C 
ENDBRANCH   8   9
ENDBRANCH   7   8
ENDBRANCH   1   7
TORSDOF 6
ENDMDL
MODEL 9
REMARK VINA RESULT:    -4.365      4.354      5.951
REMARK INTER + INTRA:          -6.194
REMARK INTER:                  -5.901
REMARK INTRA:                  -0.292
REMARK UNBOUND:                -0.298
REMARK SMILES CCCCCCCC(=O)[O-]
REMARK SMILES IDX 5 1 6 2 7 3 8 4 9 5 10 6 4 7 3 8 2 9 1 10
REMARK H PARENT
REMARK Flexibility Score: inf
ROOT
ATOM      1  C   UNL     1      -1.244  26.404  55.319  1.00  0.00     0.000 C 
ENDROOT
BRANCH   1   2
ATOM      2  C   UNL     1      -2.092  26.319  54.039  1.00  0.00     0.006 C 
BRANCH   2   3
ATOM      3  C   UNL     1      -1.256  25.982  52.799  1.00  0.00     0.053 C 
BRANCH   3   4
ATOM      4  C   UNL     1      -2.006  26.336  51.552  1.00  0.00     0.041 C 
ATOM      5  O   UNL     1      -3.257  26.203  51.506  1.00  0.00    -0.550 OA
ATOM      6  O   UNL     1      -1.316  26.767  50.426  1.00  0.00    -0.550 OA
ENDBRANCH   3   4
ENDBRANCH   2   3
ENDBRANCH   1   2
BRANCH   1   7
ATOM      7  C   UNL     1      -2.002  27.053  56.488  1.00  0.00     0.000 C 
BRANCH   7   8
ATOM      8  C   UNL     1      -2.227  28.547  56.232  1.00  0.00    -0.000 C 
BRANCH   8   9
ATOM      9  C   UNL     1      -3.657  28.959  56.599  1.00  0.00    -0.003 C 
ATOM     10  C   UNL     1      -4.684  28.091  55.878  1.00  0.00     0.004 C 
ENDBRANCH   8   9
ENDBRANCH   7   8
ENDBRANCH   1   7
TORSDOF 6
ENDMDL
