MODEL 1
REMARK VINA RESULT:    -6.989      0.000      0.000
REMARK INTER + INTRA:          -8.548
REMARK INTER:                  -8.419
REMARK INTRA:                  -0.129
REMARK UNBOUND:                -0.129
REMARK SMILES Oc1cc(O)c2c(c1)O[C@@H](c1ccc(O)c(O)c1)[C@@H](O)C2
REMARK SMILES IDX 21 1 19 2 10 3 9 4 7 5 8 6 2 7 3 8 4 9 6 10 20 11 11 13
REMARK SMILES IDX 18 14 12 15 16 16 13 17 14 18 17 19 15 21 5 23 1 25
REMARK H PARENT 20 12 17 20 15 22 5 24 1 26
REMARK Flexibility Score: inf
ROOT
ATOM      1  C   UNL     1     -18.156  12.668 -36.817  1.00  0.00     0.079 C 
ATOM      2  C   UNL     1     -18.542  14.109 -36.432  1.00  0.00     0.164 C 
ATOM      3  C   UNL     1     -19.255  14.167 -35.064  1.00  0.00     0.232 C 
ATOM      4  O   UNL     1     -20.349  13.246 -35.038  1.00  0.00    -0.482 OA
ATOM      5  C   UNL     1     -20.363  12.043 -35.757  1.00  0.00     0.131 A 
ATOM      6  C   UNL     1     -21.443  11.171 -35.587  1.00  0.00     0.093 A 
ATOM      7  C   UNL     1     -21.479   9.951 -36.263  1.00  0.00     0.122 A 
ATOM      8  C   UNL     1     -20.421   9.591 -37.106  1.00  0.00     0.092 A 
ATOM      9  C   UNL     1     -19.329  10.449 -37.285  1.00  0.00     0.126 A 
ATOM     10  C   UNL     1     -19.310  11.707 -36.638  1.00  0.00     0.039 A 
ENDROOT
BRANCH   2  11
ATOM     11  O   UNL     1     -17.436  14.977 -36.483  1.00  0.00    -0.389 OA
ATOM     12  H   UNL     1     -17.695  15.833 -36.051  1.00  0.00     0.211 HD
ENDBRANCH   2  11
BRANCH   3  13
ATOM     13  C   UNL     1     -18.321  13.939 -33.887  1.00  0.00    -0.001 A 
ATOM     14  C   UNL     1     -17.668  15.037 -33.300  1.00  0.00     0.057 A 
ATOM     15  C   UNL     1     -18.057  12.647 -33.390  1.00  0.00     0.012 A 
ATOM     16  C   UNL     1     -16.780  14.853 -32.231  1.00  0.00     0.157 A 
ATOM     17  C   UNL     1     -17.172  12.466 -32.325  1.00  0.00     0.050 A 
ATOM     18  C   UNL     1     -16.532  13.566 -31.742  1.00  0.00     0.157 A 
BRANCH  16  19
ATOM     19  O   UNL     1     -16.137  15.948 -31.652  1.00  0.00    -0.504 OA
ATOM     20  H   UNL     1     -15.420  15.829 -30.947  1.00  0.00     0.293 HD
ENDBRANCH  16  19
BRANCH  18  21
ATOM     21  O   UNL     1     -15.648  13.387 -30.679  1.00  0.00    -0.504 OA
ATOM     22  H   UNL     1     -15.669  12.551 -30.108  1.00  0.00     0.293 HD
ENDBRANCH  18  21
ENDBRANCH   3  13
BRANCH   9  23
ATOM     23  O   UNL     1     -18.280  10.012 -38.098  1.00  0.00    -0.507 OA
ATOM     24  H   UNL     1     -18.061  10.426 -38.994  1.00  0.00     0.293 HD
ENDBRANCH   9  23
BRANCH   7  25
ATOM     25  O   UNL     1     -22.565   9.098 -36.084  1.00  0.00    -0.508 OA
ATOM     26  H   UNL     1     -23.425   9.417 -35.654  1.00  0.00     0.293 HD
ENDBRANCH   7  25
TORSDOF 6
ENDMDL
MODEL 2
REMARK VINA RESULT:    -6.741      2.294      6.488
REMARK INTER + INTRA:          -8.250
REMARK INTER:                  -8.268
REMARK INTRA:                   0.018
REMARK UNBOUND:                -0.129
REMARK SMILES Oc1cc(O)c2c(c1)O[C@@H](c1ccc(O)c(O)c1)[C@@H](O)C2
REMARK SMILES IDX 21 1 19 2 10 3 9 4 7 5 8 6 2 7 3 8 4 9 6 10 20 11 11 13
REMARK SMILES IDX 18 14 12 15 16 16 13 17 14 18 17 19 15 21 5 23 1 25
REMARK H PARENT 20 12 17 20 15 22 5 24 1 26
REMARK Flexibility Score: inf
ROOT
ATOM      1  C   UNL     1     -20.517  13.597 -35.490  1.00  0.00     0.079 C 
ATOM      2  C   UNL     1     -20.176  14.206 -36.864  1.00  0.00     0.164 C 
ATOM      3  C   UNL     1     -19.408  13.210 -37.760  1.00  0.00     0.232 C 
ATOM      4  O   UNL     1     -18.276  12.688 -37.058  1.00  0.00    -0.482 OA
ATOM      5  C   UNL     1     -18.242  12.512 -35.668  1.00  0.00     0.131 A 
ATOM      6  C   UNL     1     -17.120  11.905 -35.095  1.00  0.00     0.093 A 
ATOM      7  C   UNL     1     -17.061  11.688 -33.718  1.00  0.00     0.122 A 
ATOM      8  C   UNL     1     -18.138  12.065 -32.907  1.00  0.00     0.092 A 
ATOM      9  C   UNL     1     -19.272  12.668 -33.464  1.00  0.00     0.126 A 
ATOM     10  C   UNL     1     -19.316  12.934 -34.853  1.00  0.00     0.039 A 
ENDROOT
BRANCH   2  11
ATOM     11  O   UNL     1     -21.319  14.715 -37.508  1.00  0.00    -0.389 OA
ATOM     12  H   UNL     1     -21.615  14.049 -38.183  1.00  0.00     0.211 HD
ENDBRANCH   2  11
BRANCH   3  13
ATOM     13  C   UNL     1     -20.280  12.089 -38.300  1.00  0.00    -0.001 A 
ATOM     14  C   UNL     1     -20.700  11.062 -37.436  1.00  0.00     0.057 A 
ATOM     15  C   UNL     1     -20.649  12.025 -39.658  1.00  0.00     0.012 A 
ATOM     16  C   UNL     1     -21.483  10.001 -37.912  1.00  0.00     0.157 A 
ATOM     17  C   UNL     1     -21.428  10.967 -40.132  1.00  0.00     0.050 A 
ATOM     18  C   UNL     1     -21.847   9.953 -39.262  1.00  0.00     0.157 A 
BRANCH  16  19
ATOM     19  O   UNL     1     -21.898   8.988 -37.048  1.00  0.00    -0.504 OA
ATOM     20  H   UNL     1     -22.725   9.088 -36.471  1.00  0.00     0.293 HD
ENDBRANCH  16  19
BRANCH  18  21
ATOM     21  O   UNL     1     -22.626   8.897 -39.732  1.00  0.00    -0.504 OA
ATOM     22  H   UNL     1     -22.412   8.428 -40.604  1.00  0.00     0.293 HD
ENDBRANCH  18  21
ENDBRANCH   3  13
BRANCH   9  23
ATOM     23  O   UNL     1     -20.335  12.975 -32.611  1.00  0.00    -0.507 OA
ATOM     24  H   UNL     1     -21.276  13.152 -32.936  1.00  0.00     0.293 HD
ENDBRANCH   9  23
BRANCH   7  25
ATOM     25  O   UNL     1     -15.933  11.086 -33.165  1.00  0.00    -0.508 OA
ATOM     26  H   UNL     1     -15.226  11.627 -32.682  1.00  0.00     0.293 HD
ENDBRANCH   7  25
TORSDOF 6
ENDMDL
MODEL 3
REMARK VINA RESULT:    -6.729      7.649     10.049
REMARK INTER + INTRA:          -8.235
REMARK INTER:                  -8.117
REMARK INTRA:                  -0.118
REMARK UNBOUND:                -0.129
REMARK SMILES Oc1cc(O)c2c(c1)O[C@@H](c1ccc(O)c(O)c1)[C@@H](O)C2
REMARK SMILES IDX 21 1 19 2 10 3 9 4 7 5 8 6 2 7 3 8 4 9 6 10 20 11 11 13
REMARK SMILES IDX 18 14 12 15 16 16 13 17 14 18 17 19 15 21 5 23 1 25
REMARK H PARENT 20 12 17 20 15 22 5 24 1 26
REMARK Flexibility Score: inf
ROOT
ATOM      1  C   UNL     1     -23.068  17.590 -37.753  1.00  0.00     0.079 C 
ATOM      2  C   UNL     1     -23.928  17.944 -36.524  1.00  0.00     0.164 C 
ATOM      3  C   UNL     1     -25.430  18.017 -36.875  1.00  0.00     0.232 C 
ATOM      4  O   UNL     1     -25.633  18.883 -37.995  1.00  0.00    -0.482 OA
ATOM      5  C   UNL     1     -24.691  19.058 -39.018  1.00  0.00     0.131 A 
ATOM      6  C   UNL     1     -25.029  19.855 -40.115  1.00  0.00     0.093 A 
ATOM      7  C   UNL     1     -24.129  20.030 -41.166  1.00  0.00     0.122 A 
ATOM      8  C   UNL     1     -22.884  19.391 -41.130  1.00  0.00     0.092 A 
ATOM      9  C   UNL     1     -22.530  18.583 -40.043  1.00  0.00     0.126 A 
ATOM     10  C   UNL     1     -23.420  18.442 -38.952  1.00  0.00     0.039 A 
ENDROOT
BRANCH   2  11
ATOM     11  O   UNL     1     -23.684  17.071 -35.448  1.00  0.00    -0.389 OA
ATOM     12  H   UNL     1     -23.854  17.567 -34.604  1.00  0.00     0.211 HD
ENDBRANCH   2  11
BRANCH   3  13
ATOM     13  C   UNL     1     -26.060  16.656 -37.117  1.00  0.00    -0.001 A 
ATOM     14  C   UNL     1     -26.512  15.899 -36.021  1.00  0.00     0.057 A 
ATOM     15  C   UNL     1     -26.168  16.108 -38.410  1.00  0.00     0.012 A 
ATOM     16  C   UNL     1     -27.072  14.628 -36.210  1.00  0.00     0.157 A 
ATOM     17  C   UNL     1     -26.726  14.841 -38.598  1.00  0.00     0.050 A 
ATOM     18  C   UNL     1     -27.180  14.098 -37.501  1.00  0.00     0.157 A 
BRANCH  16  19
ATOM     19  O   UNL     1     -27.521  13.885 -35.119  1.00  0.00    -0.504 OA
ATOM     20  H   UNL     1     -28.223  13.163 -35.222  1.00  0.00     0.293 HD
ENDBRANCH  16  19
BRANCH  18  21
ATOM     21  O   UNL     1     -27.738  12.835 -37.686  1.00  0.00    -0.504 OA
ATOM     22  H   UNL     1     -27.655  12.343 -38.568  1.00  0.00     0.293 HD
ENDBRANCH  18  21
ENDBRANCH   3  13
BRANCH   9  23
ATOM     23  O   UNL     1     -21.295  17.930 -40.088  1.00  0.00    -0.507 OA
ATOM     24  H   UNL     1     -21.178  16.984 -40.424  1.00  0.00     0.293 HD
ENDBRANCH   9  23
BRANCH   7  25
ATOM     25  O   UNL     1     -24.483  20.832 -42.249  1.00  0.00    -0.508 OA
ATOM     26  H   UNL     1     -24.407  20.499 -43.203  1.00  0.00     0.293 HD
ENDBRANCH   7  25
TORSDOF 6
ENDMDL
MODEL 4
REMARK VINA RESULT:    -6.704      7.594      9.640
REMARK INTER + INTRA:          -8.205
REMARK INTER:                  -8.134
REMARK INTRA:                  -0.070
REMARK UNBOUND:                -0.129
REMARK SMILES Oc1cc(O)c2c(c1)O[C@@H](c1ccc(O)c(O)c1)[C@@H](O)C2
REMARK SMILES IDX 21 1 19 2 10 3 9 4 7 5 8 6 2 7 3 8 4 9 6 10 20 11 11 13
REMARK SMILES IDX 18 14 12 15 16 16 13 17 14 18 17 19 15 21 5 23 1 25
REMARK H PARENT 20 12 17 20 15 22 5 24 1 26
REMARK Flexibility Score: inf
ROOT
ATOM      1  C   UNL     1     -25.943  17.750 -37.208  1.00  0.00     0.079 C 
ATOM      2  C   UNL     1     -24.627  18.409 -36.748  1.00  0.00     0.164 C 
ATOM      3  C   UNL     1     -23.455  18.074 -37.695  1.00  0.00     0.232 C 
ATOM      4  O   UNL     1     -23.362  16.660 -37.883  1.00  0.00    -0.482 OA
ATOM      5  C   UNL     1     -24.468  15.800 -37.848  1.00  0.00     0.131 A 
ATOM      6  C   UNL     1     -24.277  14.446 -38.138  1.00  0.00     0.093 A 
ATOM      7  C   UNL     1     -25.359  13.565 -38.141  1.00  0.00     0.122 A 
ATOM      8  C   UNL     1     -26.646  14.042 -37.866  1.00  0.00     0.092 A 
ATOM      9  C   UNL     1     -26.858  15.396 -37.579  1.00  0.00     0.126 A 
ATOM     10  C   UNL     1     -25.757  16.284 -37.528  1.00  0.00     0.039 A 
ENDROOT
BRANCH   2  11
ATOM     11  O   UNL     1     -24.774  19.797 -36.567  1.00  0.00    -0.389 OA
ATOM     12  H   UNL     1     -23.868  20.198 -36.506  1.00  0.00     0.211 HD
ENDBRANCH   2  11
BRANCH   3  13
ATOM     13  C   UNL     1     -23.532  18.798 -39.029  1.00  0.00    -0.001 A 
ATOM     14  C   UNL     1     -23.252  20.175 -39.085  1.00  0.00     0.057 A 
ATOM     15  C   UNL     1     -23.917  18.136 -40.211  1.00  0.00     0.012 A 
ATOM     16  C   UNL     1     -23.341  20.875 -40.296  1.00  0.00     0.157 A 
ATOM     17  C   UNL     1     -24.006  18.834 -41.417  1.00  0.00     0.050 A 
ATOM     18  C   UNL     1     -23.718  20.204 -41.465  1.00  0.00     0.157 A 
BRANCH  16  19
ATOM     19  O   UNL     1     -23.059  22.241 -40.344  1.00  0.00    -0.504 OA
ATOM     20  H   UNL     1     -23.793  22.930 -40.460  1.00  0.00     0.293 HD
ENDBRANCH  16  19
BRANCH  18  21
ATOM     21  O   UNL     1     -23.806  20.903 -42.667  1.00  0.00    -0.504 OA
ATOM     22  H   UNL     1     -24.404  21.715 -42.766  1.00  0.00     0.293 HD
ENDBRANCH  18  21
ENDBRANCH   3  13
BRANCH   9  23
ATOM     23  O   UNL     1     -28.171  15.821 -37.364  1.00  0.00    -0.507 OA
ATOM     24  H   UNL     1     -28.491  16.760 -37.561  1.00  0.00     0.293 HD
ENDBRANCH   9  23
BRANCH   7  25
ATOM     25  O   UNL     1     -25.148  12.218 -38.428  1.00  0.00    -0.508 OA
ATOM     26  H   UNL     1     -24.223  11.808 -38.396  1.00  0.00     0.293 HD
ENDBRANCH   7  25
TORSDOF 6
ENDMDL
MODEL 5
REMARK VINA RESULT:    -6.701      7.845     10.495
REMARK INTER + INTRA:          -8.201
REMARK INTER:                  -8.101
REMARK INTRA:                  -0.100
REMARK UNBOUND:                -0.129
REMARK SMILES Oc1cc(O)c2c(c1)O[C@@H](c1ccc(O)c(O)c1)[C@@H](O)C2
REMARK SMILES IDX 21 1 19 2 10 3 9 4 7 5 8 6 2 7 3 8 4 9 6 10 20 11 11 13
REMARK SMILES IDX 18 14 12 15 16 16 13 17 14 18 17 19 15 21 5 23 1 25
REMARK H PARENT 20 12 17 20 15 22 5 24 1 26
REMARK Flexibility Score: inf
ROOT
ATOM      1  C   UNL     1     -24.145  18.536 -37.396  1.00  0.00     0.079 C 
ATOM      2  C   UNL     1     -25.638  18.365 -37.055  1.00  0.00     0.164 C 
ATOM      3  C   UNL     1     -26.423  17.720 -38.218  1.00  0.00     0.232 C 
ATOM      4  O   UNL     1     -26.183  18.436 -39.432  1.00  0.00    -0.482 OA
ATOM      5  C   UNL     1     -24.980  19.097 -39.715  1.00  0.00     0.131 A 
ATOM      6  C   UNL     1     -24.816  19.687 -40.972  1.00  0.00     0.093 A 
ATOM      7  C   UNL     1     -23.622  20.329 -41.300  1.00  0.00     0.122 A 
ATOM      8  C   UNL     1     -22.576  20.372 -40.371  1.00  0.00     0.092 A 
ATOM      9  C   UNL     1     -22.719  19.782 -39.109  1.00  0.00     0.126 A 
ATOM     10  C   UNL     1     -23.945  19.171 -38.754  1.00  0.00     0.039 A 
ENDROOT
BRANCH   2  11
ATOM     11  O   UNL     1     -25.821  17.666 -35.848  1.00  0.00    -0.389 OA
ATOM     12  H   UNL     1     -25.954  16.706 -36.065  1.00  0.00     0.211 HD
ENDBRANCH   2  11
BRANCH   3  13
ATOM     13  C   UNL     1     -26.135  16.238 -38.391  1.00  0.00    -0.001 A 
ATOM     14  C   UNL     1     -27.095  15.295 -37.982  1.00  0.00     0.057 A 
ATOM     15  C   UNL     1     -24.911  15.778 -38.914  1.00  0.00     0.012 A 
ATOM     16  C   UNL     1     -26.845  13.921 -38.105  1.00  0.00     0.157 A 
ATOM     17  C   UNL     1     -24.663  14.408 -39.035  1.00  0.00     0.050 A 
ATOM     18  C   UNL     1     -25.627  13.477 -38.632  1.00  0.00     0.157 A 
BRANCH  16  19
ATOM     19  O   UNL     1     -27.803  12.991 -37.700  1.00  0.00    -0.504 OA
ATOM     20  H   UNL     1     -28.542  12.686 -38.322  1.00  0.00     0.293 HD
ENDBRANCH  16  19
BRANCH  18  21
ATOM     21  O   UNL     1     -25.383  12.110 -38.753  1.00  0.00    -0.504 OA
ATOM     22  H   UNL     1     -24.442  11.735 -38.714  1.00  0.00     0.293 HD
ENDBRANCH  18  21
ENDBRANCH   3  13
BRANCH   9  23
ATOM     23  O   UNL     1     -21.622  19.812 -38.244  1.00  0.00    -0.507 OA
ATOM     24  H   UNL     1     -21.687  19.605 -37.257  1.00  0.00     0.293 HD
ENDBRANCH   9  23
BRANCH   7  25
ATOM     25  O   UNL     1     -23.479  20.914 -42.556  1.00  0.00    -0.508 OA
ATOM     26  H   UNL     1     -24.220  20.877 -43.246  1.00  0.00     0.293 HD
ENDBRANCH   7  25
TORSDOF 6
ENDMDL
MODEL 6
REMARK VINA RESULT:    -6.643      1.684      2.059
REMARK INTER + INTRA:          -8.131
REMARK INTER:                  -8.032
REMARK INTRA:                  -0.100
REMARK UNBOUND:                -0.129
REMARK SMILES Oc1cc(O)c2c(c1)O[C@@H](c1ccc(O)c(O)c1)[C@@H](O)C2
REMARK SMILES IDX 21 1 19 2 10 3 9 4 7 5 8 6 2 7 3 8 4 9 6 10 20 11 11 13
REMARK SMILES IDX 18 14 12 15 16 16 13 17 14 18 17 19 15 21 5 23 1 25
REMARK H PARENT 20 12 17 20 15 22 5 24 1 26
REMARK Flexibility Score: inf
ROOT
ATOM      1  C   UNL     1     -19.646  13.477 -36.574  1.00  0.00     0.079 C 
ATOM      2  C   UNL     1     -20.017  13.952 -35.155  1.00  0.00     0.164 C 
ATOM      3  C   UNL     1     -19.860  12.825 -34.112  1.00  0.00     0.232 C 
ATOM      4  O   UNL     1     -20.568  11.657 -34.537  1.00  0.00    -0.482 OA
ATOM      5  C   UNL     1     -20.750  11.311 -35.883  1.00  0.00     0.131 A 
ATOM      6  C   UNL     1     -21.376  10.098 -36.187  1.00  0.00     0.093 A 
ATOM      7  C   UNL     1     -21.550   9.707 -37.515  1.00  0.00     0.122 A 
ATOM      8  C   UNL     1     -21.083  10.525 -38.549  1.00  0.00     0.092 A 
ATOM      9  C   UNL     1     -20.448  11.740 -38.265  1.00  0.00     0.126 A 
ATOM     10  C   UNL     1     -20.312  12.164 -36.921  1.00  0.00     0.039 A 
ENDROOT
BRANCH   2  11
ATOM     11  O   UNL     1     -19.303  15.108 -34.789  1.00  0.00    -0.389 OA
ATOM     12  H   UNL     1     -19.421  15.247 -33.813  1.00  0.00     0.211 HD
ENDBRANCH   2  11
BRANCH   3  13
ATOM     13  C   UNL     1     -18.411  12.498 -33.791  1.00  0.00    -0.001 A 
ATOM     14  C   UNL     1     -17.863  12.921 -32.566  1.00  0.00     0.057 A 
ATOM     15  C   UNL     1     -17.585  11.816 -34.705  1.00  0.00     0.012 A 
ATOM     16  C   UNL     1     -16.521  12.658 -32.254  1.00  0.00     0.157 A 
ATOM     17  C   UNL     1     -16.248  11.555 -34.393  1.00  0.00     0.050 A 
ATOM     18  C   UNL     1     -15.713  11.974 -33.169  1.00  0.00     0.157 A 
BRANCH  16  19
ATOM     19  O   UNL     1     -15.985  13.078 -31.037  1.00  0.00    -0.504 OA
ATOM     20  H   UNL     1     -16.034  12.498 -30.208  1.00  0.00     0.293 HD
ENDBRANCH  16  19
BRANCH  18  21
ATOM     21  O   UNL     1     -14.380  11.714 -32.855  1.00  0.00    -0.504 OA
ATOM     22  H   UNL     1     -14.039  11.773 -31.903  1.00  0.00     0.293 HD
ENDBRANCH  18  21
ENDBRANCH   3  13
BRANCH   9  23
ATOM     23  O   UNL     1     -19.957  12.489 -39.337  1.00  0.00    -0.507 OA
ATOM     24  H   UNL     1     -19.910  13.499 -39.336  1.00  0.00     0.293 HD
ENDBRANCH   9  23
BRANCH   7  25
ATOM     25  O   UNL     1     -22.180   8.496 -37.797  1.00  0.00    -0.508 OA
ATOM     26  H   UNL     1     -21.758   7.810 -38.412  1.00  0.00     0.293 HD
ENDBRANCH   7  25
TORSDOF 6
ENDMDL
MODEL 7
REMARK VINA RESULT:    -6.573      2.460      4.039
REMARK INTER + INTRA:          -8.047
REMARK INTER:                  -8.116
REMARK INTRA:                   0.069
REMARK UNBOUND:                -0.129
REMARK SMILES Oc1cc(O)c2c(c1)O[C@@H](c1ccc(O)c(O)c1)[C@@H](O)C2
REMARK SMILES IDX 21 1 19 2 10 3 9 4 7 5 8 6 2 7 3 8 4 9 6 10 20 11 11 13
REMARK SMILES IDX 18 14 12 15 16 16 13 17 14 18 17 19 15 21 5 23 1 25
REMARK H PARENT 20 12 17 20 15 22 5 24 1 26
REMARK Flexibility Score: inf
ROOT
ATOM      1  C   UNL     1     -20.847  10.330 -36.473  1.00  0.00     0.079 C 
ATOM      2  C   UNL     1     -19.504   9.679 -36.857  1.00  0.00     0.164 C 
ATOM      3  C   UNL     1     -18.360  10.715 -36.918  1.00  0.00     0.232 C 
ATOM      4  O   UNL     1     -18.734  11.813 -37.754  1.00  0.00    -0.482 OA
ATOM      5  C   UNL     1     -20.056  12.257 -37.904  1.00  0.00     0.131 A 
ATOM      6  C   UNL     1     -20.298  13.399 -38.672  1.00  0.00     0.093 A 
ATOM      7  C   UNL     1     -21.597  13.887 -38.821  1.00  0.00     0.122 A 
ATOM      8  C   UNL     1     -22.662  13.238 -38.185  1.00  0.00     0.092 A 
ATOM      9  C   UNL     1     -22.437  12.096 -37.407  1.00  0.00     0.126 A 
ATOM     10  C   UNL     1     -21.129  11.570 -37.292  1.00  0.00     0.039 A 
ENDROOT
BRANCH   2  11
ATOM     11  O   UNL     1     -19.188   8.599 -36.013  1.00  0.00    -0.389 OA
ATOM     12  H   UNL     1     -18.968   8.963 -35.116  1.00  0.00     0.211 HD
ENDBRANCH   2  11
BRANCH   3  13
ATOM     13  C   UNL     1     -17.911  11.199 -35.550  1.00  0.00    -0.001 A 
ATOM     14  C   UNL     1     -16.537  11.317 -35.276  1.00  0.00     0.057 A 
ATOM     15  C   UNL     1     -18.834  11.495 -34.529  1.00  0.00     0.012 A 
ATOM     16  C   UNL     1     -16.092  11.735 -34.014  1.00  0.00     0.157 A 
ATOM     17  C   UNL     1     -18.390  11.910 -33.271  1.00  0.00     0.050 A 
ATOM     18  C   UNL     1     -17.020  12.032 -33.010  1.00  0.00     0.157 A 
BRANCH  16  19
ATOM     19  O   UNL     1     -14.727  11.852 -33.750  1.00  0.00    -0.504 OA
ATOM     20  H   UNL     1     -14.175  11.058 -33.449  1.00  0.00     0.293 HD
ENDBRANCH  16  19
BRANCH  18  21
ATOM     21  O   UNL     1     -16.574  12.448 -31.756  1.00  0.00    -0.504 OA
ATOM     22  H   UNL     1     -17.143  13.037 -31.160  1.00  0.00     0.293 HD
ENDBRANCH  18  21
ENDBRANCH   3  13
BRANCH   9  23
ATOM     23  O   UNL     1     -23.532  11.523 -36.755  1.00  0.00    -0.507 OA
ATOM     24  H   UNL     1     -23.816  10.562 -36.885  1.00  0.00     0.293 HD
ENDBRANCH   9  23
BRANCH   7  25
ATOM     25  O   UNL     1     -21.819  15.024 -39.594  1.00  0.00    -0.508 OA
ATOM     26  H   UNL     1     -21.380  15.145 -40.499  1.00  0.00     0.293 HD
ENDBRANCH   7  25
TORSDOF 6
ENDMDL
MODEL 8
REMARK VINA RESULT:    -6.542      7.150      8.981
REMARK INTER + INTRA:          -8.010
REMARK INTER:                  -7.885
REMARK INTRA:                  -0.125
REMARK UNBOUND:                -0.129
REMARK SMILES Oc1cc(O)c2c(c1)O[C@@H](c1ccc(O)c(O)c1)[C@@H](O)C2
REMARK SMILES IDX 21 1 19 2 10 3 9 4 7 5 8 6 2 7 3 8 4 9 6 10 20 11 11 13
REMARK SMILES IDX 18 14 12 15 16 16 13 17 14 18 17 19 15 21 5 23 1 25
REMARK H PARENT 20 12 17 20 15 22 5 24 1 26
REMARK Flexibility Score: inf
ROOT
ATOM      1  C   UNL     1     -25.964  15.167 -37.274  1.00  0.00     0.079 C 
ATOM      2  C   UNL     1     -24.703  15.842 -36.702  1.00  0.00     0.164 C 
ATOM      3  C   UNL     1     -23.661  16.140 -37.802  1.00  0.00     0.232 C 
ATOM      4  O   UNL     1     -23.394  14.957 -38.561  1.00  0.00    -0.482 OA
ATOM      5  C   UNL     1     -24.343  13.951 -38.784  1.00  0.00     0.131 A 
ATOM      6  C   UNL     1     -24.006  12.882 -39.620  1.00  0.00     0.093 A 
ATOM      7  C   UNL     1     -24.934  11.876 -39.888  1.00  0.00     0.122 A 
ATOM      8  C   UNL     1     -26.216  11.944 -39.331  1.00  0.00     0.092 A 
ATOM      9  C   UNL     1     -26.574  13.010 -38.497  1.00  0.00     0.126 A 
ATOM     10  C   UNL     1     -25.621  14.008 -38.183  1.00  0.00     0.039 A 
ENDROOT
BRANCH   2  11
ATOM     11  O   UNL     1     -25.020  16.992 -35.956  1.00  0.00    -0.389 OA
ATOM     12  H   UNL     1     -24.332  17.683 -36.147  1.00  0.00     0.211 HD
ENDBRANCH   2  11
BRANCH   3  13
ATOM     13  C   UNL     1     -24.055  17.293 -38.709  1.00  0.00    -0.001 A 
ATOM     14  C   UNL     1     -23.698  18.606 -38.353  1.00  0.00     0.057 A 
ATOM     15  C   UNL     1     -24.807  17.090 -39.883  1.00  0.00     0.012 A 
ATOM     16  C   UNL     1     -24.071  19.693 -39.156  1.00  0.00     0.157 A 
ATOM     17  C   UNL     1     -25.178  18.173 -40.682  1.00  0.00     0.050 A 
ATOM     18  C   UNL     1     -24.812  19.476 -40.323  1.00  0.00     0.157 A 
BRANCH  16  19
ATOM     19  O   UNL     1     -23.711  20.992 -38.797  1.00  0.00    -0.504 OA
ATOM     20  H   UNL     1     -24.350  21.600 -38.298  1.00  0.00     0.293 HD
ENDBRANCH  16  19
BRANCH  18  21
ATOM     21  O   UNL     1     -25.181  20.558 -41.119  1.00  0.00    -0.504 OA
ATOM     22  H   UNL     1     -26.124  20.654 -41.479  1.00  0.00     0.293 HD
ENDBRANCH  18  21
ENDBRANCH   3  13
BRANCH   9  23
ATOM     23  O   UNL     1     -27.884  13.050 -38.012  1.00  0.00    -0.507 OA
ATOM     24  H   UNL     1     -28.127  12.861 -37.049  1.00  0.00     0.293 HD
ENDBRANCH   9  23
BRANCH   7  25
ATOM     25  O   UNL     1     -24.578  10.816 -40.720  1.00  0.00    -0.508 OA
ATOM     26  H   UNL     1     -24.835  10.802 -41.700  1.00  0.00     0.293 HD
ENDBRANCH   7  25
TORSDOF 6
ENDMDL
MODEL 9
REMARK VINA RESULT:    -6.502      1.826      6.217
REMARK INTER + INTRA:          -7.961
REMARK INTER:                  -7.898
REMARK INTRA:                  -0.063
REMARK UNBOUND:                -0.129
REMARK SMILES Oc1cc(O)c2c(c1)O[C@@H](c1ccc(O)c(O)c1)[C@@H](O)C2
REMARK SMILES IDX 21 1 19 2 10 3 9 4 7 5 8 6 2 7 3 8 4 9 6 10 20 11 11 13
REMARK SMILES IDX 18 14 12 15 16 16 13 17 14 18 17 19 15 21 5 23 1 25
REMARK H PARENT 20 12 17 20 15 22 5 24 1 26
REMARK Flexibility Score: inf
ROOT
ATOM      1  C   UNL     1     -16.994  12.577 -36.083  1.00  0.00     0.079 C 
ATOM      2  C   UNL     1     -17.366  11.097 -36.301  1.00  0.00     0.164 C 
ATOM      3  C   UNL     1     -18.383  10.600 -35.251  1.00  0.00     0.232 C 
ATOM      4  O   UNL     1     -17.914  10.892 -33.933  1.00  0.00    -0.482 OA
ATOM      5  C   UNL     1     -17.113  12.001 -33.625  1.00  0.00     0.131 A 
ATOM      6  C   UNL     1     -16.789  12.245 -32.287  1.00  0.00     0.093 A 
ATOM      7  C   UNL     1     -16.018  13.355 -31.939  1.00  0.00     0.122 A 
ATOM      8  C   UNL     1     -15.579  14.237 -32.933  1.00  0.00     0.092 A 
ATOM      9  C   UNL     1     -15.899  14.012 -34.277  1.00  0.00     0.126 A 
ATOM     10  C   UNL     1     -16.640  12.863 -34.640  1.00  0.00     0.039 A 
ENDROOT
BRANCH   2  11
ATOM     11  O   UNL     1     -17.811  10.860 -37.615  1.00  0.00    -0.389 OA
ATOM     12  H   UNL     1     -17.402  10.012 -37.930  1.00  0.00     0.211 HD
ENDBRANCH   2  11
BRANCH   3  13
ATOM     13  C   UNL     1     -19.786  11.144 -35.465  1.00  0.00    -0.001 A 
ATOM     14  C   UNL     1     -20.553  10.672 -36.545  1.00  0.00     0.057 A 
ATOM     15  C   UNL     1     -20.327  12.143 -34.633  1.00  0.00     0.012 A 
ATOM     16  C   UNL     1     -21.840  11.176 -36.783  1.00  0.00     0.157 A 
ATOM     17  C   UNL     1     -21.609  12.645 -34.871  1.00  0.00     0.050 A 
ATOM     18  C   UNL     1     -22.369  12.164 -35.944  1.00  0.00     0.157 A 
BRANCH  16  19
ATOM     19  O   UNL     1     -22.596  10.701 -37.854  1.00  0.00    -0.504 OA
ATOM     20  H   UNL     1     -23.500  10.265 -37.713  1.00  0.00     0.293 HD
ENDBRANCH  16  19
BRANCH  18  21
ATOM     21  O   UNL     1     -23.648  12.662 -36.183  1.00  0.00    -0.504 OA
ATOM     22  H   UNL     1     -23.992  12.810 -37.125  1.00  0.00     0.293 HD
ENDBRANCH  18  21
ENDBRANCH   3  13
BRANCH   9  23
ATOM     23  O   UNL     1     -15.477  14.956 -35.217  1.00  0.00    -0.507 OA
ATOM     24  H   UNL     1     -16.043  15.741 -35.511  1.00  0.00     0.293 HD
ENDBRANCH   9  23
BRANCH   7  25
ATOM     25  O   UNL     1     -15.701  13.579 -30.601  1.00  0.00    -0.508 OA
ATOM     26  H   UNL     1     -15.903  14.463 -30.149  1.00  0.00     0.293 HD
ENDBRANCH   7  25
TORSDOF 6
ENDMDL
