MODEL 1
REMARK VINA RESULT:    -2.968      0.000      0.000
REMARK INTER + INTRA:          -6.176
REMARK INTER:                  -4.703
REMARK INTRA:                  -1.472
REMARK UNBOUND:                -1.472
REMARK SMILES CCCCCCCCCCCC(=O)[O-]
REMARK SMILES IDX 7 1 8 2 9 3 10 4 11 5 12 6 13 7 14 8 6 9 5 10 4 11 3 12 2 13
REMARK SMILES IDX 1 14
REMARK H PARENT
REMARK Flexibility Score: inf
ROOT
ATOM      1  C   UNL     1      48.784  20.910  77.429  1.00  0.00     0.000 C 
ENDROOT
BRANCH   1   2
ATOM      2  C   UNL     1      47.863  21.606  78.444  1.00  0.00     0.000 C 
BRANCH   2   3
ATOM      3  C   UNL     1      46.583  20.805  78.728  1.00  0.00     0.000 C 
BRANCH   3   4
ATOM      4  C   UNL     1      46.707  19.367  78.205  1.00  0.00     0.006 C 
BRANCH   4   5
ATOM      5  C   UNL     1      45.386  18.844  77.625  1.00  0.00     0.053 C 
BRANCH   5   6
ATOM      6  C   UNL     1      45.616  17.844  76.533  1.00  0.00     0.041 C 
ATOM      7  O   UNL     1      45.575  16.611  76.783  1.00  0.00    -0.550 OA
ATOM      8  O   UNL     1      45.842  18.276  75.231  1.00  0.00    -0.550 OA
ENDBRANCH   5   6
ENDBRANCH   4   5
ENDBRANCH   3   4
ENDBRANCH   2   3
ENDBRANCH   1   2
BRANCH   1   9
ATOM      9  C   UNL     1      49.650  21.902  76.639  1.00  0.00     0.000 C 
BRANCH   9  10
ATOM     10  C   UNL     1      49.322  21.848  75.142  1.00  0.00    -0.000 C 
BRANCH  10  11
ATOM     11  C   UNL     1      48.132  20.914  74.872  1.00  0.00    -0.000 C 
BRANCH  11  12
ATOM     12  C   UNL     1      46.961  21.623  74.169  1.00  0.00    -0.000 C 
BRANCH  12  13
ATOM     13  C   UNL     1      46.104  22.517  75.083  1.00  0.00    -0.003 C 
ATOM     14  C   UNL     1      44.824  21.832  75.560  1.00  0.00     0.004 C 
ENDBRANCH  12  13
ENDBRANCH  11  12
ENDBRANCH  10  11
ENDBRANCH   9  10
ENDBRANCH   1   9
TORSDOF 10
ENDMDL
MODEL 2
REMARK VINA RESULT:    -2.925     15.469     17.202
REMARK INTER + INTRA:          -6.107
REMARK INTER:                  -4.697
REMARK INTRA:                  -1.410
REMARK UNBOUND:                -1.472
REMARK SMILES CCCCCCCCCCCC(=O)[O-]
REMARK SMILES IDX 7 1 8 2 9 3 10 4 11 5 12 6 13 7 14 8 6 9 5 10 4 11 3 12 2 13
REMARK SMILES IDX 1 14
REMARK H PARENT
REMARK Flexibility Score: inf
ROOT
ATOM      1  C   UNL     1      52.646  34.870  85.613  1.00  0.00     0.000 C 
ENDROOT
BRANCH   1   2
ATOM      2  C   UNL     1      52.343  33.384  85.363  1.00  0.00     0.000 C 
BRANCH   2   3
ATOM      3  C   UNL     1      51.265  33.172  84.290  1.00  0.00     0.000 C 
BRANCH   3   4
ATOM      4  C   UNL     1      50.856  34.507  83.650  1.00  0.00     0.006 C 
BRANCH   4   5
ATOM      5  C   UNL     1      49.334  34.644  83.516  1.00  0.00     0.053 C 
BRANCH   5   6
ATOM      6  C   UNL     1      48.874  34.387  82.113  1.00  0.00     0.041 C 
ATOM      7  O   UNL     1      49.477  34.915  81.142  1.00  0.00    -0.550 OA
ATOM      8  O   UNL     1      47.801  33.537  81.878  1.00  0.00    -0.550 OA
ENDBRANCH   5   6
ENDBRANCH   4   5
ENDBRANCH   3   4
ENDBRANCH   2   3
ENDBRANCH   1   2
BRANCH   1   9
ATOM      9  C   UNL     1      52.501  35.264  87.090  1.00  0.00     0.000 C 
BRANCH   9  10
ATOM     10  C   UNL     1      51.156  34.791  87.655  1.00  0.00    -0.000 C 
BRANCH  10  11
ATOM     11  C   UNL     1      50.028  35.766  87.285  1.00  0.00    -0.000 C 
BRANCH  11  12
ATOM     12  C   UNL     1      48.640  35.101  87.276  1.00  0.00    -0.000 C 
BRANCH  12  13
ATOM     13  C   UNL     1      48.649  33.590  86.987  1.00  0.00    -0.003 C 
ATOM     14  C   UNL     1      47.810  32.785  87.979  1.00  0.00     0.004 C 
ENDBRANCH  12  13
ENDBRANCH  11  12
ENDBRANCH  10  11
ENDBRANCH   9  10
ENDBRANCH   1   9
TORSDOF 10
ENDMDL
MODEL 3
REMARK VINA RESULT:    -2.881      5.170      7.366
REMARK INTER + INTRA:          -6.037
REMARK INTER:                  -5.489
REMARK INTRA:                  -0.548
REMARK UNBOUND:                -1.472
REMARK SMILES CCCCCCCCCCCC(=O)[O-]
REMARK SMILES IDX 7 1 8 2 9 3 10 4 11 5 12 6 13 7 14 8 6 9 5 10 4 11 3 12 2 13
REMARK SMILES IDX 1 14
REMARK H PARENT
REMARK Flexibility Score: inf
ROOT
ATOM      1  C   UNL     1      41.362  21.399  79.292  1.00  0.00     0.000 C 
ENDROOT
BRANCH   1   2
ATOM      2  C   UNL     1      42.285  20.227  78.923  1.00  0.00     0.000 C 
BRANCH   2   3
ATOM      3  C   UNL     1      43.740  20.667  78.701  1.00  0.00     0.000 C 
BRANCH   3   4
ATOM      4  C   UNL     1      44.609  19.484  78.249  1.00  0.00     0.006 C 
BRANCH   4   5
ATOM      5  C   UNL     1      45.229  19.714  76.865  1.00  0.00     0.053 C 
BRANCH   5   6
ATOM      6  C   UNL     1      45.585  18.423  76.194  1.00  0.00     0.041 C 
ATOM      7  O   UNL     1      45.955  18.414  74.991  1.00  0.00    -0.550 OA
ATOM      8  O   UNL     1      45.540  17.232  76.909  1.00  0.00    -0.550 OA
ENDBRANCH   5   6
ENDBRANCH   4   5
ENDBRANCH   3   4
ENDBRANCH   2   3
ENDBRANCH   1   2
BRANCH   1   9
ATOM      9  C   UNL     1      40.207  21.579  78.296  1.00  0.00     0.000 C 
BRANCH   9  10
ATOM     10  C   UNL     1      38.968  22.157  78.990  1.00  0.00    -0.000 C 
BRANCH  10  11
ATOM     11  C   UNL     1      38.799  21.568  80.399  1.00  0.00    -0.000 C 
BRANCH  11  12
ATOM     12  C   UNL     1      37.822  20.379  80.438  1.00  0.00    -0.000 C 
BRANCH  12  13
ATOM     13  C   UNL     1      38.477  18.998  80.268  1.00  0.00    -0.003 C 
ATOM     14  C   UNL     1      37.473  17.897  79.929  1.00  0.00     0.004 C 
ENDBRANCH  12  13
ENDBRANCH  11  12
ENDBRANCH  10  11
ENDBRANCH   9  10
ENDBRANCH   1   9
TORSDOF 10
ENDMDL
MODEL 4
REMARK VINA RESULT:    -2.852      3.257      5.403
REMARK INTER + INTRA:          -5.991
REMARK INTER:                  -4.634
REMARK INTRA:                  -1.357
REMARK UNBOUND:                -1.472
REMARK SMILES CCCCCCCCCCCC(=O)[O-]
REMARK SMILES IDX 7 1 8 2 9 3 10 4 11 5 12 6 13 7 14 8 6 9 5 10 4 11 3 12 2 13
REMARK SMILES IDX 1 14
REMARK H PARENT
REMARK Flexibility Score: inf
ROOT
ATOM      1  C   UNL     1      43.466  22.329  77.458  1.00  0.00     0.000 C 
ENDROOT
BRANCH   1   2
ATOM      2  C   UNL     1      44.528  21.495  78.192  1.00  0.00     0.000 C 
BRANCH   2   3
ATOM      3  C   UNL     1      44.227  19.989  78.156  1.00  0.00     0.000 C 
BRANCH   3   4
ATOM      4  C   UNL     1      45.520  19.174  78.004  1.00  0.00     0.006 C 
BRANCH   4   5
ATOM      5  C   UNL     1      45.564  18.396  76.682  1.00  0.00     0.053 C 
BRANCH   5   6
ATOM      6  C   UNL     1      46.182  19.204  75.582  1.00  0.00     0.041 C 
ATOM      7  O   UNL     1      45.924  18.939  74.379  1.00  0.00    -0.550 OA
ATOM      8  O   UNL     1      47.017  20.272  75.888  1.00  0.00    -0.550 OA
ENDBRANCH   5   6
ENDBRANCH   4   5
ENDBRANCH   3   4
ENDBRANCH   2   3
ENDBRANCH   1   2
BRANCH   1   9
ATOM      9  C   UNL     1      42.695  21.516  76.408  1.00  0.00     0.000 C 
BRANCH   9  10
ATOM     10  C   UNL     1      41.183  21.727  76.550  1.00  0.00    -0.000 C 
BRANCH  10  11
ATOM     11  C   UNL     1      40.767  21.759  78.029  1.00  0.00    -0.000 C 
BRANCH  11  12
ATOM     12  C   UNL     1      40.355  20.377  78.566  1.00  0.00    -0.000 C 
BRANCH  12  13
ATOM     13  C   UNL     1      40.970  20.003  79.926  1.00  0.00    -0.003 C 
ATOM     14  C   UNL     1      41.705  21.165  80.592  1.00  0.00     0.004 C 
ENDBRANCH  12  13
ENDBRANCH  11  12
ENDBRANCH  10  11
ENDBRANCH   9  10
ENDBRANCH   1   9
TORSDOF 10
ENDMDL
MODEL 5
REMARK VINA RESULT:    -2.845      2.668      4.492
REMARK INTER + INTRA:          -5.980
REMARK INTER:                  -4.337
REMARK INTRA:                  -1.642
REMARK UNBOUND:                -1.472
REMARK SMILES CCCCCCCCCCCC(=O)[O-]
REMARK SMILES IDX 7 1 8 2 9 3 10 4 11 5 12 6 13 7 14 8 6 9 5 10 4 11 3 12 2 13
REMARK SMILES IDX 1 14
REMARK H PARENT
REMARK Flexibility Score: inf
ROOT
ATOM      1  C   UNL     1      46.290  20.410  74.474  1.00  0.00     0.000 C 
ENDROOT
BRANCH   1   2
ATOM      2  C   UNL     1      47.627  20.704  75.173  1.00  0.00     0.000 C 
BRANCH   2   3
ATOM      3  C   UNL     1      47.642  22.072  75.870  1.00  0.00     0.000 C 
BRANCH   3   4
ATOM      4  C   UNL     1      48.381  21.996  77.215  1.00  0.00     0.006 C 
BRANCH   4   5
ATOM      5  C   UNL     1      48.611  20.549  77.670  1.00  0.00     0.053 C 
BRANCH   5   6
ATOM      6  C   UNL     1      49.134  20.484  79.072  1.00  0.00     0.041 C 
ATOM      7  O   UNL     1      48.346  20.285  80.034  1.00  0.00    -0.550 OA
ATOM      8  O   UNL     1      50.496  20.608  79.312  1.00  0.00    -0.550 OA
ENDBRANCH   5   6
ENDBRANCH   4   5
ENDBRANCH   3   4
ENDBRANCH   2   3
ENDBRANCH   1   2
BRANCH   1   9
ATOM      9  C   UNL     1      45.256  19.777  75.416  1.00  0.00     0.000 C 
BRANCH   9  10
ATOM     10  C   UNL     1      45.848  18.568  76.151  1.00  0.00    -0.000 C 
BRANCH  10  11
ATOM     11  C   UNL     1      45.474  18.590  77.641  1.00  0.00    -0.000 C 
BRANCH  11  12
ATOM     12  C   UNL     1      44.488  19.718  77.994  1.00  0.00    -0.000 C 
BRANCH  12  13
ATOM     13  C   UNL     1      45.075  20.840  78.867  1.00  0.00    -0.003 C 
ATOM     14  C   UNL     1      44.817  22.237  78.303  1.00  0.00     0.004 C 
ENDBRANCH  12  13
ENDBRANCH  11  12
ENDBRANCH  10  11
ENDBRANCH   9  10
ENDBRANCH   1   9
TORSDOF 10
ENDMDL
MODEL 6
REMARK VINA RESULT:    -2.830     16.984     17.854
REMARK INTER + INTRA:          -5.956
REMARK INTER:                  -5.257
REMARK INTRA:                  -0.699
REMARK UNBOUND:                -1.472
REMARK SMILES CCCCCCCCCCCC(=O)[O-]
REMARK SMILES IDX 7 1 8 2 9 3 10 4 11 5 12 6 13 7 14 8 6 9 5 10 4 11 3 12 2 13
REMARK SMILES IDX 1 14
REMARK H PARENT
REMARK Flexibility Score: inf
ROOT
ATOM      1  C   UNL     1      46.818  31.621  90.013  1.00  0.00     0.000 C 
ENDROOT
BRANCH   1   2
ATOM      2  C   UNL     1      47.780  30.513  90.470  1.00  0.00     0.000 C 
BRANCH   2   3
ATOM      3  C   UNL     1      47.047  29.251  90.948  1.00  0.00     0.000 C 
BRANCH   3   4
ATOM      4  C   UNL     1      45.531  29.385  90.743  1.00  0.00     0.006 C 
BRANCH   4   5
ATOM      5  C   UNL     1      44.755  29.298  92.063  1.00  0.00     0.053 C 
BRANCH   5   6
ATOM      6  C   UNL     1      43.730  30.383  92.178  1.00  0.00     0.041 C 
ATOM      7  O   UNL     1      42.503  30.107  92.108  1.00  0.00    -0.550 OA
ATOM      8  O   UNL     1      44.128  31.696  92.398  1.00  0.00    -0.550 OA
ENDBRANCH   5   6
ENDBRANCH   4   5
ENDBRANCH   3   4
ENDBRANCH   2   3
ENDBRANCH   1   2
BRANCH   1   9
ATOM      9  C   UNL     1      47.132  32.133  88.600  1.00  0.00     0.000 C 
BRANCH   9  10
ATOM     10  C   UNL     1      48.586  31.834  88.218  1.00  0.00    -0.000 C 
BRANCH  10  11
ATOM     11  C   UNL     1      49.255  33.064  87.586  1.00  0.00    -0.000 C 
BRANCH  11  12
ATOM     12  C   UNL     1      48.274  34.228  87.358  1.00  0.00    -0.000 C 
BRANCH  12  13
ATOM     13  C   UNL     1      48.930  35.550  86.923  1.00  0.00    -0.003 C 
ATOM     14  C   UNL     1      50.344  35.727  87.473  1.00  0.00     0.004 C 
ENDBRANCH  12  13
ENDBRANCH  11  12
ENDBRANCH  10  11
ENDBRANCH   9  10
ENDBRANCH   1   9
TORSDOF 10
ENDMDL
MODEL 7
REMARK VINA RESULT:    -2.824      2.753      5.297
REMARK INTER + INTRA:          -5.946
REMARK INTER:                  -4.689
REMARK INTRA:                  -1.257
REMARK UNBOUND:                -1.472
REMARK SMILES CCCCCCCCCCCC(=O)[O-]
REMARK SMILES IDX 7 1 8 2 9 3 10 4 11 5 12 6 13 7 14 8 6 9 5 10 4 11 3 12 2 13
REMARK SMILES IDX 1 14
REMARK H PARENT
REMARK Flexibility Score: inf
ROOT
ATOM      1  C   UNL     1      43.123  22.172  75.695  1.00  0.00     0.000 C 
ENDROOT
BRANCH   1   2
ATOM      2  C   UNL     1      44.175  21.147  75.241  1.00  0.00     0.000 C 
BRANCH   2   3
ATOM      3  C   UNL     1      45.571  21.438  75.813  1.00  0.00     0.000 C 
BRANCH   3   4
ATOM      4  C   UNL     1      46.429  20.165  75.842  1.00  0.00     0.006 C 
BRANCH   4   5
ATOM      5  C   UNL     1      45.582  18.891  75.735  1.00  0.00     0.053 C 
BRANCH   5   6
ATOM      6  C   UNL     1      45.767  17.999  76.925  1.00  0.00     0.041 C 
ATOM      7  O   UNL     1      45.513  16.769  76.841  1.00  0.00    -0.550 OA
ATOM      8  O   UNL     1      46.252  18.522  78.117  1.00  0.00    -0.550 OA
ENDBRANCH   5   6
ENDBRANCH   4   5
ENDBRANCH   3   4
ENDBRANCH   2   3
ENDBRANCH   1   2
BRANCH   1   9
ATOM      9  C   UNL     1      41.696  21.604  75.675  1.00  0.00     0.000 C 
BRANCH   9  10
ATOM     10  C   UNL     1      40.895  22.088  76.889  1.00  0.00    -0.000 C 
BRANCH  10  11
ATOM     11  C   UNL     1      40.563  20.921  77.832  1.00  0.00    -0.000 C 
BRANCH  11  12
ATOM     12  C   UNL     1      41.485  20.864  79.063  1.00  0.00    -0.000 C 
BRANCH  12  13
ATOM     13  C   UNL     1      42.827  20.148  78.833  1.00  0.00    -0.003 C 
ATOM     14  C   UNL     1      44.037  21.031  79.140  1.00  0.00     0.004 C 
ENDBRANCH  12  13
ENDBRANCH  11  12
ENDBRANCH  10  11
ENDBRANCH   9  10
ENDBRANCH   1   9
TORSDOF 10
ENDMDL
MODEL 8
REMARK VINA RESULT:    -2.809      2.405      3.877
REMARK INTER + INTRA:          -5.924
REMARK INTER:                  -4.421
REMARK INTRA:                  -1.503
REMARK UNBOUND:                -1.472
REMARK SMILES CCCCCCCCCCCC(=O)[O-]
REMARK SMILES IDX 7 1 8 2 9 3 10 4 11 5 12 6 13 7 14 8 6 9 5 10 4 11 3 12 2 13
REMARK SMILES IDX 1 14
REMARK H PARENT
REMARK Flexibility Score: inf
ROOT
ATOM      1  C   UNL     1      47.850  21.485  74.405  1.00  0.00     0.000 C 
ENDROOT
BRANCH   1   2
ATOM      2  C   UNL     1      47.642  22.673  75.358  1.00  0.00     0.000 C 
BRANCH   2   3
ATOM      3  C   UNL     1      47.853  22.295  76.832  1.00  0.00     0.000 C 
BRANCH   3   4
ATOM      4  C   UNL     1      48.578  20.946  76.955  1.00  0.00     0.006 C 
BRANCH   4   5
ATOM      5  C   UNL     1      49.290  20.791  78.304  1.00  0.00     0.053 C 
BRANCH   5   6
ATOM      6  C   UNL     1      48.412  20.131  79.323  1.00  0.00     0.041 C 
ATOM      7  O   UNL     1      47.858  19.029  79.064  1.00  0.00    -0.550 OA
ATOM      8  O   UNL     1      48.232  20.716  80.570  1.00  0.00    -0.550 OA
ENDBRANCH   5   6
ENDBRANCH   4   5
ENDBRANCH   3   4
ENDBRANCH   2   3
ENDBRANCH   1   2
BRANCH   1   9
ATOM      9  C   UNL     1      46.674  21.290  73.437  1.00  0.00     0.000 C 
BRANCH   9  10
ATOM     10  C   UNL     1      45.553  20.474  74.092  1.00  0.00    -0.000 C 
BRANCH  10  11
ATOM     11  C   UNL     1      46.103  19.182  74.716  1.00  0.00    -0.000 C 
BRANCH  11  12
ATOM     12  C   UNL     1      45.608  18.953  76.155  1.00  0.00    -0.000 C 
BRANCH  12  13
ATOM     13  C   UNL     1      44.858  20.144  76.778  1.00  0.00    -0.003 C 
ATOM     14  C   UNL     1      44.647  19.997  78.284  1.00  0.00     0.004 C 
ENDBRANCH  12  13
ENDBRANCH  11  12
ENDBRANCH  10  11
ENDBRANCH   9  10
ENDBRANCH   1   9
TORSDOF 10
ENDMDL
MODEL 9
REMARK VINA RESULT:    -2.806     16.615     18.231
REMARK INTER + INTRA:          -5.919
REMARK INTER:                  -4.268
REMARK INTRA:                  -1.651
REMARK UNBOUND:                -1.472
REMARK SMILES CCCCCCCCCCCC(=O)[O-]
REMARK SMILES IDX 7 1 8 2 9 3 10 4 11 5 12 6 13 7 14 8 6 9 5 10 4 11 3 12 2 13
REMARK SMILES IDX 1 14
REMARK H PARENT
REMARK Flexibility Score: inf
ROOT
ATOM      1  C   UNL     1      53.490  34.167  86.380  1.00  0.00     0.000 C 
ENDROOT
BRANCH   1   2
ATOM      2  C   UNL     1      52.188  34.948  86.142  1.00  0.00     0.000 C 
BRANCH   2   3
ATOM      3  C   UNL     1      51.642  35.595  87.424  1.00  0.00     0.000 C 
BRANCH   3   4
ATOM      4  C   UNL     1      50.109  35.522  87.467  1.00  0.00     0.006 C 
BRANCH   4   5
ATOM      5  C   UNL     1      49.517  34.955  86.170  1.00  0.00     0.053 C 
BRANCH   5   6
ATOM      6  C   UNL     1      48.578  33.819  86.438  1.00  0.00     0.041 C 
ATOM      7  O   UNL     1      48.407  32.920  85.573  1.00  0.00    -0.550 OA
ATOM      8  O   UNL     1      47.917  33.736  87.658  1.00  0.00    -0.550 OA
ENDBRANCH   5   6
ENDBRANCH   4   5
ENDBRANCH   3   4
ENDBRANCH   2   3
ENDBRANCH   1   2
BRANCH   1   9
ATOM      9  C   UNL     1      54.008  34.304  87.819  1.00  0.00     0.000 C 
BRANCH   9  10
ATOM     10  C   UNL     1      54.684  33.009  88.286  1.00  0.00    -0.000 C 
BRANCH  10  11
ATOM     11  C   UNL     1      53.655  32.032  88.875  1.00  0.00    -0.000 C 
BRANCH  11  12
ATOM     12  C   UNL     1      52.547  32.738  89.676  1.00  0.00    -0.000 C 
BRANCH  12  13
ATOM     13  C   UNL     1      51.113  32.378  89.254  1.00  0.00    -0.003 C 
ATOM     14  C   UNL     1      51.052  31.609  87.934  1.00  0.00     0.004 C 
ENDBRANCH  12  13
ENDBRANCH  11  12
ENDBRANCH  10  11
ENDBRANCH   9  10
ENDBRANCH   1   9
TORSDOF 10
ENDMDL
