MODEL 1
REMARK VINA RESULT:    -4.201      0.000      0.000
REMARK INTER + INTRA:          -5.845
REMARK INTER:                  -5.674
REMARK INTRA:                  -0.171
REMARK UNBOUND:                -0.171
REMARK SMILES [NH3+]CCCC[C@H]([NH3+])C(=O)[O-]
REMARK SMILES IDX 4 1 3 2 2 3 1 4 5 8 6 9 7 10 8 14 9 15 10 16
REMARK H PARENT 1 5 1 6 1 7 7 11 7 12 7 13
REMARK Flexibility Score: inf
ROOT
ATOM      1  C   UNL     1      35.645  -2.997  23.723  1.00  0.00     0.012 C 
ENDROOT
BRANCH   1   2
ATOM      2  C   UNL     1      34.317  -3.231  24.465  1.00  0.00     0.061 C 
BRANCH   2   3
ATOM      3  C   UNL     1      33.901  -4.710  24.498  1.00  0.00     0.258 C 
BRANCH   3   4
ATOM      4  N   UNL     1      35.006  -5.550  24.958  1.00  0.00    -0.358 N 
ATOM      5  H   UNL     1      34.868  -6.536  24.637  1.00  0.00     0.344 HD
ATOM      6  H   UNL     1      35.901  -5.187  24.558  1.00  0.00     0.344 HD
ATOM      7  H   UNL     1      35.067  -5.521  26.003  1.00  0.00     0.344 HD
ENDBRANCH   3   4
ENDBRANCH   2   3
ENDBRANCH   1   2
BRANCH   1   8
ATOM      8  C   UNL     1      36.414  -1.722  24.126  1.00  0.00     0.072 C 
BRANCH   8   9
ATOM      9  C   UNL     1      35.506  -0.500  24.427  1.00  0.00     0.227 C 
BRANCH   9  10
ATOM     10  N   UNL     1      35.714   0.553  23.426  1.00  0.00    -0.350 N 
ATOM     11  H   UNL     1      35.472   1.486  23.834  1.00  0.00     0.345 HD
ATOM     12  H   UNL     1      35.092   0.390  22.601  1.00  0.00     0.345 HD
ATOM     13  H   UNL     1      36.711   0.565  23.107  1.00  0.00     0.345 HD
ENDBRANCH   9  10
BRANCH   9  14
ATOM     14  C   UNL     1      35.759   0.058  25.804  1.00  0.00     0.099 C 
ATOM     15  O   UNL     1      35.574   1.280  26.044  1.00  0.00    -0.544 OA
ATOM     16  O   UNL     1      36.154  -0.789  26.833  1.00  0.00    -0.544 OA
ENDBRANCH   9  14
ENDBRANCH   8   9
ENDBRANCH   1   8
TORSDOF 7
ENDMDL
MODEL 2
REMARK VINA RESULT:    -4.021      1.268      1.550
REMARK INTER + INTRA:          -5.602
REMARK INTER:                  -5.519
REMARK INTRA:                  -0.083
REMARK UNBOUND:                -0.171
REMARK SMILES [NH3+]CCCC[C@H]([NH3+])C(=O)[O-]
REMARK SMILES IDX 4 1 3 2 2 3 1 4 5 8 6 9 7 10 8 14 9 15 10 16
REMARK H PARENT 1 5 1 6 1 7 7 11 7 12 7 13
REMARK Flexibility Score: inf
ROOT
ATOM      1  C   UNL     1      34.128  -2.080  24.397  1.00  0.00     0.012 C 
ENDROOT
BRANCH   1   2
ATOM      2  C   UNL     1      34.888  -3.386  24.107  1.00  0.00     0.061 C 
BRANCH   2   3
ATOM      3  C   UNL     1      34.093  -4.641  24.499  1.00  0.00     0.258 C 
BRANCH   3   4
ATOM      4  N   UNL     1      34.978  -5.662  25.060  1.00  0.00    -0.358 N 
ATOM      5  H   UNL     1      35.975  -5.439  24.833  1.00  0.00     0.344 HD
ATOM      6  H   UNL     1      34.865  -5.680  26.099  1.00  0.00     0.344 HD
ATOM      7  H   UNL     1      34.728  -6.603  24.677  1.00  0.00     0.344 HD
ENDBRANCH   3   4
ENDBRANCH   2   3
ENDBRANCH   1   2
BRANCH   1   8
ATOM      8  C   UNL     1      34.915  -1.016  25.191  1.00  0.00     0.072 C 
BRANCH   8   9
ATOM      9  C   UNL     1      35.400   0.184  24.338  1.00  0.00     0.227 C 
BRANCH   9  10
ATOM     10  N   UNL     1      36.435  -0.245  23.389  1.00  0.00    -0.350 N 
ATOM     11  H   UNL     1      36.476  -1.290  23.356  1.00  0.00     0.345 HD
ATOM     12  H   UNL     1      37.371   0.105  23.699  1.00  0.00     0.345 HD
ATOM     13  H   UNL     1      36.231   0.123  22.431  1.00  0.00     0.345 HD
ENDBRANCH   9  10
BRANCH   9  14
ATOM     14  C   UNL     1      35.938   1.299  25.198  1.00  0.00     0.099 C 
ATOM     15  O   UNL     1      35.334   1.649  26.246  1.00  0.00    -0.544 OA
ATOM     16  O   UNL     1      37.137   1.918  24.861  1.00  0.00    -0.544 OA
ENDBRANCH   9  14
ENDBRANCH   8   9
ENDBRANCH   1   8
TORSDOF 7
ENDMDL
MODEL 3
REMARK VINA RESULT:    -3.871      2.304      4.524
REMARK INTER + INTRA:          -5.400
REMARK INTER:                  -4.940
REMARK INTRA:                  -0.459
REMARK UNBOUND:                -0.171
REMARK SMILES [NH3+]CCCC[C@H]([NH3+])C(=O)[O-]
REMARK SMILES IDX 4 1 3 2 2 3 1 4 5 8 6 9 7 10 8 14 9 15 10 16
REMARK H PARENT 1 5 1 6 1 7 7 11 7 12 7 13
REMARK Flexibility Score: inf
ROOT
ATOM      1  C   UNL     1      32.809  -0.109  24.327  1.00  0.00     0.012 C 
ENDROOT
BRANCH   1   2
ATOM      2  C   UNL     1      33.579   1.159  24.734  1.00  0.00     0.061 C 
BRANCH   2   3
ATOM      3  C   UNL     1      34.350   1.794  23.567  1.00  0.00     0.258 C 
BRANCH   3   4
ATOM      4  N   UNL     1      35.597   1.071  23.313  1.00  0.00    -0.358 N 
ATOM      5  H   UNL     1      36.115   0.920  24.210  1.00  0.00     0.344 HD
ATOM      6  H   UNL     1      35.373   0.140  22.893  1.00  0.00     0.344 HD
ATOM      7  H   UNL     1      36.194   1.609  22.644  1.00  0.00     0.344 HD
ENDBRANCH   3   4
ENDBRANCH   2   3
ENDBRANCH   1   2
BRANCH   1   8
ATOM      8  C   UNL     1      33.263  -1.412  25.017  1.00  0.00     0.072 C 
BRANCH   8   9
ATOM      9  C   UNL     1      33.995  -2.407  24.079  1.00  0.00     0.227 C 
BRANCH   9  10
ATOM     10  N   UNL     1      33.596  -3.787  24.383  1.00  0.00    -0.350 N 
ATOM     11  H   UNL     1      34.315  -4.240  24.993  1.00  0.00     0.345 HD
ATOM     12  H   UNL     1      33.528  -4.341  23.499  1.00  0.00     0.345 HD
ATOM     13  H   UNL     1      32.670  -3.803  24.871  1.00  0.00     0.345 HD
ENDBRANCH   9  10
BRANCH   9  14
ATOM     14  C   UNL     1      35.493  -2.281  24.189  1.00  0.00     0.099 C 
ATOM     15  O   UNL     1      36.249  -2.956  23.441  1.00  0.00    -0.544 OA
ATOM     16  O   UNL     1      36.048  -1.379  25.088  1.00  0.00    -0.544 OA
ENDBRANCH   9  14
ENDBRANCH   8   9
ENDBRANCH   1   8
TORSDOF 7
ENDMDL
MODEL 4
REMARK VINA RESULT:    -3.866      5.003      6.640
REMARK INTER + INTRA:          -5.393
REMARK INTER:                  -4.845
REMARK INTRA:                  -0.549
REMARK UNBOUND:                -0.171
REMARK SMILES [NH3+]CCCC[C@H]([NH3+])C(=O)[O-]
REMARK SMILES IDX 4 1 3 2 2 3 1 4 5 8 6 9 7 10 8 14 9 15 10 16
REMARK H PARENT 1 5 1 6 1 7 7 11 7 12 7 13
REMARK Flexibility Score: inf
ROOT
ATOM      1  C   UNL     1      37.519   5.096  22.591  1.00  0.00     0.012 C 
ENDROOT
BRANCH   1   2
ATOM      2  C   UNL     1      36.165   5.303  21.891  1.00  0.00     0.061 C 
BRANCH   2   3
ATOM      3  C   UNL     1      35.994   4.422  20.643  1.00  0.00     0.258 C 
BRANCH   3   4
ATOM      4  N   UNL     1      35.099   3.298  20.920  1.00  0.00    -0.358 N 
ATOM      5  H   UNL     1      34.132   3.516  20.587  1.00  0.00     0.344 HD
ATOM      6  H   UNL     1      35.447   2.451  20.414  1.00  0.00     0.344 HD
ATOM      7  H   UNL     1      35.084   3.096  21.947  1.00  0.00     0.344 HD
ENDBRANCH   3   4
ENDBRANCH   2   3
ENDBRANCH   1   2
BRANCH   1   8
ATOM      8  C   UNL     1      37.445   4.535  24.026  1.00  0.00     0.072 C 
BRANCH   8   9
ATOM      9  C   UNL     1      37.818   3.035  24.143  1.00  0.00     0.227 C 
BRANCH   9  10
ATOM     10  N   UNL     1      38.490   2.577  22.921  1.00  0.00    -0.350 N 
ATOM     11  H   UNL     1      38.979   1.669  23.101  1.00  0.00     0.345 HD
ATOM     12  H   UNL     1      39.208   3.277  22.625  1.00  0.00     0.345 HD
ATOM     13  H   UNL     1      37.798   2.447  22.147  1.00  0.00     0.345 HD
ENDBRANCH   9  10
BRANCH   9  14
ATOM     14  C   UNL     1      36.607   2.176  24.403  1.00  0.00     0.099 C 
ATOM     15  O   UNL     1      35.618   2.209  23.623  1.00  0.00    -0.544 OA
ATOM     16  O   UNL     1      36.595   1.302  25.483  1.00  0.00    -0.544 OA
ENDBRANCH   9  14
ENDBRANCH   8   9
ENDBRANCH   1   8
TORSDOF 7
ENDMDL
MODEL 5
REMARK VINA RESULT:    -3.798      1.950      2.306
REMARK INTER + INTRA:          -5.301
REMARK INTER:                  -5.183
REMARK INTRA:                  -0.118
REMARK UNBOUND:                -0.171
REMARK SMILES [NH3+]CCCC[C@H]([NH3+])C(=O)[O-]
REMARK SMILES IDX 4 1 3 2 2 3 1 4 5 8 6 9 7 10 8 14 9 15 10 16
REMARK H PARENT 1 5 1 6 1 7 7 11 7 12 7 13
REMARK Flexibility Score: inf
ROOT
ATOM      1  C   UNL     1      35.722  -1.482  24.292  1.00  0.00     0.012 C 
ENDROOT
BRANCH   1   2
ATOM      2  C   UNL     1      35.358  -2.930  23.919  1.00  0.00     0.061 C 
BRANCH   2   3
ATOM      3  C   UNL     1      33.962  -3.343  24.412  1.00  0.00     0.258 C 
BRANCH   3   4
ATOM      4  N   UNL     1      33.750  -4.779  24.227  1.00  0.00    -0.358 N 
ATOM      5  H   UNL     1      32.745  -4.970  24.007  1.00  0.00     0.344 HD
ATOM      6  H   UNL     1      34.339  -5.112  23.430  1.00  0.00     0.344 HD
ATOM      7  H   UNL     1      34.029  -5.297  25.093  1.00  0.00     0.344 HD
ENDBRANCH   3   4
ENDBRANCH   2   3
ENDBRANCH   1   2
BRANCH   1   8
ATOM      8  C   UNL     1      35.199  -0.998  25.660  1.00  0.00     0.072 C 
BRANCH   8   9
ATOM      9  C   UNL     1      36.130   0.016  26.374  1.00  0.00     0.227 C 
BRANCH   9  10
ATOM     10  N   UNL     1      35.760   0.144  27.789  1.00  0.00    -0.350 N 
ATOM     11  H   UNL     1      34.719   0.196  27.882  1.00  0.00     0.345 HD
ATOM     12  H   UNL     1      36.164   1.024  28.185  1.00  0.00     0.345 HD
ATOM     13  H   UNL     1      36.115  -0.674  28.338  1.00  0.00     0.345 HD
ENDBRANCH   9  10
BRANCH   9  14
ATOM     14  C   UNL     1      36.088   1.372  25.719  1.00  0.00     0.099 C 
ATOM     15  O   UNL     1      37.033   1.757  24.980  1.00  0.00    -0.544 OA
ATOM     16  O   UNL     1      34.976   2.189  25.888  1.00  0.00    -0.544 OA
ENDBRANCH   9  14
ENDBRANCH   8   9
ENDBRANCH   1   8
TORSDOF 7
ENDMDL
MODEL 6
REMARK VINA RESULT:    -3.796      3.137      5.372
REMARK INTER + INTRA:          -5.298
REMARK INTER:                  -5.206
REMARK INTRA:                  -0.093
REMARK UNBOUND:                -0.171
REMARK SMILES [NH3+]CCCC[C@H]([NH3+])C(=O)[O-]
REMARK SMILES IDX 4 1 3 2 2 3 1 4 5 8 6 9 7 10 8 14 9 15 10 16
REMARK H PARENT 1 5 1 6 1 7 7 11 7 12 7 13
REMARK Flexibility Score: inf
ROOT
ATOM      1  C   UNL     1      34.800   2.018  23.454  1.00  0.00     0.012 C 
ENDROOT
BRANCH   1   2
ATOM      2  C   UNL     1      33.723   3.017  22.998  1.00  0.00     0.061 C 
BRANCH   2   3
ATOM      3  C   UNL     1      34.188   3.910  21.836  1.00  0.00     0.258 C 
BRANCH   3   4
ATOM      4  N   UNL     1      35.098   3.182  20.952  1.00  0.00    -0.358 N 
ATOM      5  H   UNL     1      34.585   2.846  20.105  1.00  0.00     0.344 HD
ATOM      6  H   UNL     1      35.866   3.823  20.649  1.00  0.00     0.344 HD
ATOM      7  H   UNL     1      35.517   2.369  21.460  1.00  0.00     0.344 HD
ENDBRANCH   3   4
ENDBRANCH   2   3
ENDBRANCH   1   2
BRANCH   1   8
ATOM      8  C   UNL     1      34.271   0.674  23.997  1.00  0.00     0.072 C 
BRANCH   8   9
ATOM      9  C   UNL     1      35.379  -0.364  24.315  1.00  0.00     0.227 C 
BRANCH   9  10
ATOM     10  N   UNL     1      36.464  -0.274  23.331  1.00  0.00    -0.350 N 
ATOM     11  H   UNL     1      37.360  -0.022  23.809  1.00  0.00     0.345 HD
ATOM     12  H   UNL     1      36.250   0.473  22.631  1.00  0.00     0.345 HD
ATOM     13  H   UNL     1      36.585  -1.187  22.833  1.00  0.00     0.345 HD
ENDBRANCH   9  10
BRANCH   9  14
ATOM     14  C   UNL     1      34.837  -1.770  24.340  1.00  0.00     0.099 C 
ATOM     15  O   UNL     1      33.677  -2.002  24.772  1.00  0.00    -0.544 OA
ATOM     16  O   UNL     1      35.601  -2.816  23.837  1.00  0.00    -0.544 OA
ENDBRANCH   9  14
ENDBRANCH   8   9
ENDBRANCH   1   8
TORSDOF 7
ENDMDL
MODEL 7
REMARK VINA RESULT:    -3.735      5.776      6.962
REMARK INTER + INTRA:          -5.215
REMARK INTER:                  -4.684
REMARK INTRA:                  -0.532
REMARK UNBOUND:                -0.171
REMARK SMILES [NH3+]CCCC[C@H]([NH3+])C(=O)[O-]
REMARK SMILES IDX 4 1 3 2 2 3 1 4 5 8 6 9 7 10 8 14 9 15 10 16
REMARK H PARENT 1 5 1 6 1 7 7 11 7 12 7 13
REMARK Flexibility Score: inf
ROOT
ATOM      1  C   UNL     1      35.174   3.158  22.577  1.00  0.00     0.012 C 
ENDROOT
BRANCH   1   2
ATOM      2  C   UNL     1      35.623   2.445  23.864  1.00  0.00     0.061 C 
BRANCH   2   3
ATOM      3  C   UNL     1      37.090   2.725  24.224  1.00  0.00     0.258 C 
BRANCH   3   4
ATOM      4  N   UNL     1      37.992   2.064  23.281  1.00  0.00    -0.358 N 
ATOM      5  H   UNL     1      38.058   1.043  23.500  1.00  0.00     0.344 HD
ATOM      6  H   UNL     1      37.616   2.177  22.312  1.00  0.00     0.344 HD
ATOM      7  H   UNL     1      38.942   2.500  23.327  1.00  0.00     0.344 HD
ENDBRANCH   3   4
ENDBRANCH   2   3
ENDBRANCH   1   2
BRANCH   1   8
ATOM      8  C   UNL     1      35.578   4.643  22.466  1.00  0.00     0.072 C 
BRANCH   8   9
ATOM      9  C   UNL     1      36.325   5.003  21.155  1.00  0.00     0.227 C 
BRANCH   9  10
ATOM     10  N   UNL     1      36.308   3.866  20.226  1.00  0.00    -0.350 N 
ATOM     11  H   UNL     1      37.218   3.352  20.274  1.00  0.00     0.345 HD
ATOM     12  H   UNL     1      36.182   4.209  19.246  1.00  0.00     0.345 HD
ATOM     13  H   UNL     1      35.528   3.209  20.463  1.00  0.00     0.345 HD
ENDBRANCH   9  10
BRANCH   9  14
ATOM     14  C   UNL     1      37.751   5.414  21.420  1.00  0.00     0.099 C 
ATOM     15  O   UNL     1      38.057   6.631  21.533  1.00  0.00    -0.544 OA
ATOM     16  O   UNL     1      38.732   4.444  21.589  1.00  0.00    -0.544 OA
ENDBRANCH   9  14
ENDBRANCH   8   9
ENDBRANCH   1   8
TORSDOF 7
ENDMDL
MODEL 8
REMARK VINA RESULT:    -3.653      2.006      2.318
REMARK INTER + INTRA:          -5.105
REMARK INTER:                  -4.916
REMARK INTRA:                  -0.189
REMARK UNBOUND:                -0.171
REMARK SMILES [NH3+]CCCC[C@H]([NH3+])C(=O)[O-]
REMARK SMILES IDX 4 1 3 2 2 3 1 4 5 8 6 9 7 10 8 14 9 15 10 16
REMARK H PARENT 1 5 1 6 1 7 7 11 7 12 7 13
REMARK Flexibility Score: inf
ROOT
ATOM      1  C   UNL     1      35.858  -1.413  24.168  1.00  0.00     0.012 C 
ENDROOT
BRANCH   1   2
ATOM      2  C   UNL     1      35.354  -2.846  23.923  1.00  0.00     0.061 C 
BRANCH   2   3
ATOM      3  C   UNL     1      33.891  -3.048  24.347  1.00  0.00     0.258 C 
BRANCH   3   4
ATOM      4  N   UNL     1      33.528  -4.464  24.301  1.00  0.00    -0.358 N 
ATOM      5  H   UNL     1      34.275  -5.013  23.816  1.00  0.00     0.344 HD
ATOM      6  H   UNL     1      33.427  -4.823  25.278  1.00  0.00     0.344 HD
ATOM      7  H   UNL     1      32.616  -4.585  23.802  1.00  0.00     0.344 HD
ENDBRANCH   3   4
ENDBRANCH   2   3
ENDBRANCH   1   2
BRANCH   1   8
ATOM      8  C   UNL     1      34.865  -0.474  24.885  1.00  0.00     0.072 C 
BRANCH   8   9
ATOM      9  C   UNL     1      35.342   0.011  26.279  1.00  0.00     0.227 C 
BRANCH   9  10
ATOM     10  N   UNL     1      36.448  -0.825  26.762  1.00  0.00    -0.350 N 
ATOM     11  H   UNL     1      36.143  -1.371  27.601  1.00  0.00     0.345 HD
ATOM     12  H   UNL     1      37.253  -0.221  27.047  1.00  0.00     0.345 HD
ATOM     13  H   UNL     1      36.763  -1.487  26.015  1.00  0.00     0.345 HD
ENDBRANCH   9  10
BRANCH   9  14
ATOM     14  C   UNL     1      34.223  -0.004  27.288  1.00  0.00     0.099 C 
ATOM     15  O   UNL     1      33.040  -0.246  26.930  1.00  0.00    -0.544 OA
ATOM     16  O   UNL     1      34.501   0.203  28.634  1.00  0.00    -0.544 OA
ENDBRANCH   9  14
ENDBRANCH   8   9
ENDBRANCH   1   8
TORSDOF 7
ENDMDL
MODEL 9
REMARK VINA RESULT:    -3.630      2.759      4.100
REMARK INTER + INTRA:          -5.074
REMARK INTER:                  -4.603
REMARK INTRA:                  -0.471
REMARK UNBOUND:                -0.171
REMARK SMILES [NH3+]CCCC[C@H]([NH3+])C(=O)[O-]
REMARK SMILES IDX 4 1 3 2 2 3 1 4 5 8 6 9 7 10 8 14 9 15 10 16
REMARK H PARENT 1 5 1 6 1 7 7 11 7 12 7 13
REMARK Flexibility Score: inf
ROOT
ATOM      1  C   UNL     1      35.774  -0.319  27.002  1.00  0.00     0.012 C 
ENDROOT
BRANCH   1   2
ATOM      2  C   UNL     1      34.676   0.266  27.907  1.00  0.00     0.061 C 
BRANCH   2   3
ATOM      3  C   UNL     1      33.415   0.676  27.132  1.00  0.00     0.258 C 
BRANCH   3   4
ATOM      4  N   UNL     1      32.491  -0.451  27.009  1.00  0.00    -0.358 N 
ATOM      5  H   UNL     1      33.024  -1.340  26.868  1.00  0.00     0.344 HD
ATOM      6  H   UNL     1      31.929  -0.530  27.887  1.00  0.00     0.344 HD
ATOM      7  H   UNL     1      31.840  -0.296  26.204  1.00  0.00     0.344 HD
ENDBRANCH   3   4
ENDBRANCH   2   3
ENDBRANCH   1   2
BRANCH   1   8
ATOM      8  C   UNL     1      35.714   0.115  25.523  1.00  0.00     0.072 C 
BRANCH   8   9
ATOM      9  C   UNL     1      35.852  -1.054  24.512  1.00  0.00     0.227 C 
BRANCH   9  10
ATOM     10  N   UNL     1      36.426  -0.574  23.248  1.00  0.00    -0.350 N 
ATOM     11  H   UNL     1      35.776  -0.788  22.457  1.00  0.00     0.345 HD
ATOM     12  H   UNL     1      37.333  -1.060  23.061  1.00  0.00     0.345 HD
ATOM     13  H   UNL     1      36.592   0.459  23.288  1.00  0.00     0.345 HD
ENDBRANCH   9  10
BRANCH   9  14
ATOM     14  C   UNL     1      34.527  -1.718  24.241  1.00  0.00     0.099 C 
ATOM     15  O   UNL     1      34.432  -2.974  24.220  1.00  0.00    -0.544 OA
ATOM     16  O   UNL     1      33.387  -0.944  24.062  1.00  0.00    -0.544 OA
ENDBRANCH   9  14
ENDBRANCH   8   9
ENDBRANCH   1   8
TORSDOF 7
ENDMDL
