MODEL 1
REMARK VINA RESULT:    -3.817      0.000      0.000
REMARK INTER + INTRA:          -6.698
REMARK INTER:                  -5.825
REMARK INTRA:                  -0.873
REMARK UNBOUND:                -0.873
REMARK SMILES O=C([O-])CCCCCCCCC(=O)[O-]
REMARK SMILES IDX 7 1 6 2 5 3 4 4 2 5 1 6 3 7 8 8 9 9 10 10 11 11 12 12 13 13
REMARK SMILES IDX 14 14
REMARK H PARENT
REMARK Flexibility Score: inf
ROOT
ATOM      1  C   UNL     1      11.683  36.851  19.450  1.00  0.00     0.000 C 
ENDROOT
BRANCH   1   2
ATOM      2  C   UNL     1      10.328  36.127  19.454  1.00  0.00     0.000 C 
BRANCH   2   3
ATOM      3  C   UNL     1      10.008  35.476  20.808  1.00  0.00     0.006 C 
BRANCH   3   4
ATOM      4  C   UNL     1      10.195  36.475  21.954  1.00  0.00     0.053 C 
BRANCH   4   5
ATOM      5  C   UNL     1      10.801  35.800  23.144  1.00  0.00     0.041 C 
ATOM      6  O   UNL     1      11.400  34.700  23.011  1.00  0.00    -0.550 OA
ATOM      7  O   UNL     1      10.747  36.408  24.391  1.00  0.00    -0.550 OA
ENDBRANCH   4   5
ENDBRANCH   3   4
ENDBRANCH   2   3
ENDBRANCH   1   2
BRANCH   1   8
ATOM      8  C   UNL     1      12.865  35.894  19.232  1.00  0.00     0.000 C 
BRANCH   8   9
ATOM      9  C   UNL     1      13.716  35.775  20.502  1.00  0.00     0.000 C 
BRANCH   9  10
ATOM     10  C   UNL     1      14.349  34.380  20.614  1.00  0.00     0.006 C 
BRANCH  10  11
ATOM     11  C   UNL     1      13.299  33.262  20.596  1.00  0.00     0.053 C 
BRANCH  11  12
ATOM     12  C   UNL     1      13.564  32.231  21.649  1.00  0.00     0.041 C 
ATOM     13  O   UNL     1      12.604  31.681  22.251  1.00  0.00    -0.550 OA
ATOM     14  O   UNL     1      14.869  31.903  21.990  1.00  0.00    -0.550 OA
ENDBRANCH  11  12
ENDBRANCH  10  11
ENDBRANCH   9  10
ENDBRANCH   8   9
ENDBRANCH   1   8
TORSDOF 9
ENDMDL
MODEL 2
REMARK VINA RESULT:    -3.788      0.444      4.385
REMARK INTER + INTRA:          -6.654
REMARK INTER:                  -5.876
REMARK INTRA:                  -0.779
REMARK UNBOUND:                -0.873
REMARK SMILES O=C([O-])CCCCCCCCC(=O)[O-]
REMARK SMILES IDX 7 1 6 2 5 3 4 4 2 5 1 6 3 7 8 8 9 9 10 10 11 11 12 12 13 13
REMARK SMILES IDX 14 14
REMARK H PARENT
REMARK Flexibility Score: inf
ROOT
ATOM      1  C   UNL     1      12.746  35.281  19.491  1.00  0.00     0.000 C 
ENDROOT
BRANCH   1   2
ATOM      2  C   UNL     1      13.997  35.465  20.363  1.00  0.00     0.000 C 
BRANCH   2   3
ATOM      3  C   UNL     1      14.697  34.135  20.684  1.00  0.00     0.006 C 
BRANCH   3   4
ATOM      4  C   UNL     1      13.733  32.956  20.520  1.00  0.00     0.053 C 
BRANCH   4   5
ATOM      5  C   UNL     1      13.823  32.038  21.698  1.00  0.00     0.041 C 
ATOM      6  O   UNL     1      14.945  31.751  22.193  1.00  0.00    -0.550 OA
ATOM      7  O   UNL     1      12.665  31.540  22.282  1.00  0.00    -0.550 OA
ENDBRANCH   4   5
ENDBRANCH   3   4
ENDBRANCH   2   3
ENDBRANCH   1   2
BRANCH   1   8
ATOM      8  C   UNL     1      12.142  36.618  19.033  1.00  0.00     0.000 C 
BRANCH   8   9
ATOM      9  C   UNL     1      10.679  36.738  19.473  1.00  0.00     0.000 C 
BRANCH   9  10
ATOM     10  C   UNL     1      10.342  35.704  20.557  1.00  0.00     0.006 C 
BRANCH  10  11
ATOM     11  C   UNL     1      10.123  36.352  21.930  1.00  0.00     0.053 C 
BRANCH  11  12
ATOM     12  C   UNL     1      10.921  35.672  23.001  1.00  0.00     0.041 C 
ATOM     13  O   UNL     1      11.515  34.590  22.755  1.00  0.00    -0.550 OA
ATOM     14  O   UNL     1      10.978  36.214  24.278  1.00  0.00    -0.550 OA
ENDBRANCH  11  12
ENDBRANCH  10  11
ENDBRANCH   9  10
ENDBRANCH   8   9
ENDBRANCH   1   8
TORSDOF 9
ENDMDL
MODEL 3
REMARK VINA RESULT:    -3.723      2.324      2.899
REMARK INTER + INTRA:          -6.556
REMARK INTER:                  -5.854
REMARK INTRA:                  -0.702
REMARK UNBOUND:                -0.873
REMARK SMILES O=C([O-])CCCCCCCCC(=O)[O-]
REMARK SMILES IDX 7 1 6 2 5 3 4 4 2 5 1 6 3 7 8 8 9 9 10 10 11 11 12 12 13 13
REMARK SMILES IDX 14 14
REMARK H PARENT
REMARK Flexibility Score: inf
ROOT
ATOM      1  C   UNL     1      11.819  35.805  22.271  1.00  0.00     0.000 C 
ENDROOT
BRANCH   1   2
ATOM      2  C   UNL     1      10.358  36.275  22.199  1.00  0.00     0.000 C 
BRANCH   2   3
ATOM      3  C   UNL     1       9.797  36.253  20.769  1.00  0.00     0.006 C 
BRANCH   3   4
ATOM      4  C   UNL     1       9.077  34.931  20.484  1.00  0.00     0.053 C 
BRANCH   4   5
ATOM      5  C   UNL     1       7.670  35.187  20.042  1.00  0.00     0.041 C 
ATOM      6  O   UNL     1       6.729  34.476  20.485  1.00  0.00    -0.550 OA
ATOM      7  O   UNL     1       7.391  36.240  19.182  1.00  0.00    -0.550 OA
ENDBRANCH   4   5
ENDBRANCH   3   4
ENDBRANCH   2   3
ENDBRANCH   1   2
BRANCH   1   8
ATOM      8  C   UNL     1      12.619  36.167  21.010  1.00  0.00     0.000 C 
BRANCH   8   9
ATOM      9  C   UNL     1      13.590  35.041  20.634  1.00  0.00     0.000 C 
BRANCH   9  10
ATOM     10  C   UNL     1      12.831  33.797  20.148  1.00  0.00     0.006 C 
BRANCH  10  11
ATOM     11  C   UNL     1      13.634  32.508  20.355  1.00  0.00     0.053 C 
BRANCH  11  12
ATOM     12  C   UNL     1      13.526  32.003  21.762  1.00  0.00     0.041 C 
ATOM     13  O   UNL     1      12.431  32.083  22.379  1.00  0.00    -0.550 OA
ATOM     14  O   UNL     1      14.640  31.477  22.401  1.00  0.00    -0.550 OA
ENDBRANCH  11  12
ENDBRANCH  10  11
ENDBRANCH   9  10
ENDBRANCH   8   9
ENDBRANCH   1   8
TORSDOF 9
ENDMDL
MODEL 4
REMARK VINA RESULT:    -3.683      2.756      4.489
REMARK INTER + INTRA:          -6.495
REMARK INTER:                  -5.701
REMARK INTRA:                  -0.793
REMARK UNBOUND:                -0.873
REMARK SMILES O=C([O-])CCCCCCCCC(=O)[O-]
REMARK SMILES IDX 7 1 6 2 5 3 4 4 2 5 1 6 3 7 8 8 9 9 10 10 11 11 12 12 13 13
REMARK SMILES IDX 14 14
REMARK H PARENT
REMARK Flexibility Score: inf
ROOT
ATOM      1  C   UNL     1      10.972  35.803  19.186  1.00  0.00     0.000 C 
ENDROOT
BRANCH   1   2
ATOM      2  C   UNL     1      12.396  36.159  19.640  1.00  0.00     0.000 C 
BRANCH   2   3
ATOM      3  C   UNL     1      12.599  35.977  21.152  1.00  0.00     0.006 C 
BRANCH   3   4
ATOM      4  C   UNL     1      11.439  35.189  21.769  1.00  0.00     0.053 C 
BRANCH   4   5
ATOM      5  C   UNL     1      10.761  35.998  22.830  1.00  0.00     0.041 C 
ATOM      6  O   UNL     1       9.791  36.745  22.533  1.00  0.00    -0.550 OA
ATOM      7  O   UNL     1      11.168  35.891  24.153  1.00  0.00    -0.550 OA
ENDBRANCH   4   5
ENDBRANCH   3   4
ENDBRANCH   2   3
ENDBRANCH   1   2
BRANCH   1   8
ATOM      8  C   UNL     1      10.110  37.045  18.913  1.00  0.00     0.000 C 
BRANCH   8   9
ATOM      9  C   UNL     1       8.626  36.750  19.164  1.00  0.00     0.000 C 
BRANCH   9  10
ATOM     10  C   UNL     1       8.350  35.239  19.125  1.00  0.00     0.006 C 
BRANCH  10  11
ATOM     11  C   UNL     1       7.467  34.780  20.291  1.00  0.00     0.053 C 
BRANCH  11  12
ATOM     12  C   UNL     1       7.112  33.328  20.184  1.00  0.00     0.041 C 
ATOM     13  O   UNL     1       5.920  32.956  20.342  1.00  0.00    -0.550 OA
ATOM     14  O   UNL     1       8.102  32.385  19.946  1.00  0.00    -0.550 OA
ENDBRANCH  11  12
ENDBRANCH  10  11
ENDBRANCH   9  10
ENDBRANCH   8   9
ENDBRANCH   1   8
TORSDOF 9
ENDMDL
MODEL 5
REMARK VINA RESULT:    -3.670      2.481      3.177
REMARK INTER + INTRA:          -6.475
REMARK INTER:                  -5.682
REMARK INTRA:                  -0.793
REMARK UNBOUND:                -0.873
REMARK SMILES O=C([O-])CCCCCCCCC(=O)[O-]
REMARK SMILES IDX 7 1 6 2 5 3 4 4 2 5 1 6 3 7 8 8 9 9 10 10 11 11 12 12 13 13
REMARK SMILES IDX 14 14
REMARK H PARENT
REMARK Flexibility Score: inf
ROOT
ATOM      1  C   UNL     1      10.027  36.270  21.746  1.00  0.00     0.000 C 
ENDROOT
BRANCH   1   2
ATOM      2  C   UNL     1      10.086  36.623  20.252  1.00  0.00     0.000 C 
BRANCH   2   3
ATOM      3  C   UNL     1       8.944  35.985  19.446  1.00  0.00     0.006 C 
BRANCH   3   4
ATOM      4  C   UNL     1       8.759  34.513  19.829  1.00  0.00     0.053 C 
BRANCH   4   5
ATOM      5  C   UNL     1       7.327  34.233  20.158  1.00  0.00     0.041 C 
ATOM      6  O   UNL     1       6.605  35.135  20.661  1.00  0.00    -0.550 OA
ATOM      7  O   UNL     1       6.775  32.993  19.863  1.00  0.00    -0.550 OA
ENDBRANCH   4   5
ENDBRANCH   3   4
ENDBRANCH   2   3
ENDBRANCH   1   2
BRANCH   1   8
ATOM      8  C   UNL     1      11.400  35.887  22.319  1.00  0.00     0.000 C 
BRANCH   8   9
ATOM      9  C   UNL     1      12.478  35.921  21.230  1.00  0.00     0.000 C 
BRANCH   9  10
ATOM     10  C   UNL     1      13.177  34.559  21.102  1.00  0.00     0.006 C 
BRANCH  10  11
ATOM     11  C   UNL     1      12.256  33.395  21.489  1.00  0.00     0.053 C 
BRANCH  11  12
ATOM     12  C   UNL     1      13.033  32.163  21.838  1.00  0.00     0.041 C 
ATOM     13  O   UNL     1      12.432  31.124  22.217  1.00  0.00    -0.550 OA
ATOM     14  O   UNL     1      14.420  32.173  21.778  1.00  0.00    -0.550 OA
ENDBRANCH  11  12
ENDBRANCH  10  11
ENDBRANCH   9  10
ENDBRANCH   8   9
ENDBRANCH   1   8
TORSDOF 9
ENDMDL
MODEL 6
REMARK VINA RESULT:    -3.665      2.700      3.713
REMARK INTER + INTRA:          -6.466
REMARK INTER:                  -6.152
REMARK INTRA:                  -0.314
REMARK UNBOUND:                -0.873
REMARK SMILES O=C([O-])CCCCCCCCC(=O)[O-]
REMARK SMILES IDX 7 1 6 2 5 3 4 4 2 5 1 6 3 7 8 8 9 9 10 10 11 11 12 12 13 13
REMARK SMILES IDX 14 14
REMARK H PARENT
REMARK Flexibility Score: inf
ROOT
ATOM      1  C   UNL     1      14.168  34.054  20.901  1.00  0.00     0.000 C 
ENDROOT
BRANCH   1   2
ATOM      2  C   UNL     1      13.915  35.480  20.388  1.00  0.00     0.000 C 
BRANCH   2   3
ATOM      3  C   UNL     1      12.530  36.015  20.782  1.00  0.00     0.006 C 
BRANCH   3   4
ATOM      4  C   UNL     1      11.872  35.111  21.830  1.00  0.00     0.053 C 
BRANCH   4   5
ATOM      5  C   UNL     1      11.011  35.917  22.751  1.00  0.00     0.041 C 
ATOM      6  O   UNL     1      11.280  35.973  23.980  1.00  0.00    -0.550 OA
ATOM      7  O   UNL     1       9.943  36.646  22.245  1.00  0.00    -0.550 OA
ENDBRANCH   4   5
ENDBRANCH   3   4
ENDBRANCH   2   3
ENDBRANCH   1   2
BRANCH   1   8
ATOM      8  C   UNL     1      15.523  33.493  20.443  1.00  0.00     0.000 C 
BRANCH   8   9
ATOM      9  C   UNL     1      15.876  32.215  21.214  1.00  0.00     0.000 C 
BRANCH   9  10
ATOM     10  C   UNL     1      17.378  32.158  21.529  1.00  0.00     0.006 C 
BRANCH  10  11
ATOM     11  C   UNL     1      17.764  30.886  22.294  1.00  0.00     0.053 C 
BRANCH  11  12
ATOM     12  C   UNL     1      17.455  30.999  23.755  1.00  0.00     0.041 C 
ATOM     13  O   UNL     1      18.287  31.527  24.538  1.00  0.00    -0.550 OA
ATOM     14  O   UNL     1      16.264  30.489  24.257  1.00  0.00    -0.550 OA
ENDBRANCH  11  12
ENDBRANCH  10  11
ENDBRANCH   9  10
ENDBRANCH   8   9
ENDBRANCH   1   8
TORSDOF 9
ENDMDL
MODEL 7
REMARK VINA RESULT:    -3.625      1.974      4.993
REMARK INTER + INTRA:          -6.406
REMARK INTER:                  -5.764
REMARK INTRA:                  -0.642
REMARK UNBOUND:                -0.873
REMARK SMILES O=C([O-])CCCCCCCCC(=O)[O-]
REMARK SMILES IDX 7 1 6 2 5 3 4 4 2 5 1 6 3 7 8 8 9 9 10 10 11 11 12 12 13 13
REMARK SMILES IDX 14 14
REMARK H PARENT
REMARK Flexibility Score: inf
ROOT
ATOM      1  C   UNL     1      13.742  35.813  20.119  1.00  0.00     0.000 C 
ENDROOT
BRANCH   1   2
ATOM      2  C   UNL     1      13.824  34.830  18.941  1.00  0.00     0.000 C 
BRANCH   2   3
ATOM      3  C   UNL     1      14.727  33.623  19.238  1.00  0.00     0.006 C 
BRANCH   3   4
ATOM      4  C   UNL     1      15.189  33.631  20.699  1.00  0.00     0.053 C 
BRANCH   4   5
ATOM      5  C   UNL     1      14.557  32.505  21.455  1.00  0.00     0.041 C 
ATOM      6  O   UNL     1      13.314  32.499  21.660  1.00  0.00    -0.550 OA
ATOM      7  O   UNL     1      15.332  31.438  21.889  1.00  0.00    -0.550 OA
ENDBRANCH   4   5
ENDBRANCH   3   4
ENDBRANCH   2   3
ENDBRANCH   1   2
BRANCH   1   8
ATOM      8  C   UNL     1      12.304  36.266  20.414  1.00  0.00     0.000 C 
BRANCH   8   9
ATOM      9  C   UNL     1      11.913  35.944  21.861  1.00  0.00     0.000 C 
BRANCH   9  10
ATOM     10  C   UNL     1      10.394  36.051  22.059  1.00  0.00     0.006 C 
BRANCH  10  11
ATOM     11  C   UNL     1       9.655  36.339  20.746  1.00  0.00     0.053 C 
BRANCH  11  12
ATOM     12  C   UNL     1       8.768  35.201  20.344  1.00  0.00     0.041 C 
ATOM     13  O   UNL     1       9.238  34.037  20.247  1.00  0.00    -0.550 OA
ATOM     14  O   UNL     1       7.432  35.432  20.044  1.00  0.00    -0.550 OA
ENDBRANCH  11  12
ENDBRANCH  10  11
ENDBRANCH   9  10
ENDBRANCH   8   9
ENDBRANCH   1   8
TORSDOF 9
ENDMDL
MODEL 8
REMARK VINA RESULT:    -3.598      2.240      2.797
REMARK INTER + INTRA:          -6.365
REMARK INTER:                  -5.907
REMARK INTRA:                  -0.458
REMARK UNBOUND:                -0.873
REMARK SMILES O=C([O-])CCCCCCCCC(=O)[O-]
REMARK SMILES IDX 7 1 6 2 5 3 4 4 2 5 1 6 3 7 8 8 9 9 10 10 11 11 12 12 13 13
REMARK SMILES IDX 14 14
REMARK H PARENT
REMARK Flexibility Score: inf
ROOT
ATOM      1  C   UNL     1      12.511  36.127  20.553  1.00  0.00     0.000 C 
ENDROOT
BRANCH   1   2
ATOM      2  C   UNL     1      11.985  35.878  21.975  1.00  0.00     0.000 C 
BRANCH   2   3
ATOM      3  C   UNL     1      10.489  36.197  22.118  1.00  0.00     0.006 C 
BRANCH   3   4
ATOM      4  C   UNL     1       9.824  36.333  20.745  1.00  0.00     0.053 C 
BRANCH   4   5
ATOM      5  C   UNL     1       8.981  35.133  20.450  1.00  0.00     0.041 C 
ATOM      6  O   UNL     1       9.521  34.010  20.263  1.00  0.00    -0.550 OA
ATOM      7  O   UNL     1       7.596  35.243  20.431  1.00  0.00    -0.550 OA
ENDBRANCH   4   5
ENDBRANCH   3   4
ENDBRANCH   2   3
ENDBRANCH   1   2
BRANCH   1   8
ATOM      8  C   UNL     1      13.185  34.887  19.945  1.00  0.00     0.000 C 
BRANCH   8   9
ATOM      9  C   UNL     1      14.539  34.617  20.611  1.00  0.00     0.000 C 
BRANCH   9  10
ATOM     10  C   UNL     1      14.792  33.108  20.753  1.00  0.00     0.006 C 
BRANCH  10  11
ATOM     11  C   UNL     1      16.287  32.767  20.744  1.00  0.00     0.053 C 
BRANCH  11  12
ATOM     12  C   UNL     1      16.637  31.767  21.804  1.00  0.00     0.041 C 
ATOM     13  O   UNL     1      15.756  31.364  22.608  1.00  0.00    -0.550 OA
ATOM     14  O   UNL     1      17.942  31.309  21.926  1.00  0.00    -0.550 OA
ENDBRANCH  11  12
ENDBRANCH  10  11
ENDBRANCH   9  10
ENDBRANCH   8   9
ENDBRANCH   1   8
TORSDOF 9
ENDMDL
MODEL 9
REMARK VINA RESULT:    -3.553      1.633      5.226
REMARK INTER + INTRA:          -6.296
REMARK INTER:                  -5.741
REMARK INTRA:                  -0.555
REMARK UNBOUND:                -0.873
REMARK SMILES O=C([O-])CCCCCCCCC(=O)[O-]
REMARK SMILES IDX 7 1 6 2 5 3 4 4 2 5 1 6 3 7 8 8 9 9 10 10 11 11 12 12 13 13
REMARK SMILES IDX 14 14
REMARK H PARENT
REMARK Flexibility Score: inf
ROOT
ATOM      1  C   UNL     1      13.390  34.742  19.682  1.00  0.00     0.000 C 
ENDROOT
BRANCH   1   2
ATOM      2  C   UNL     1      14.474  34.413  20.719  1.00  0.00     0.000 C 
BRANCH   2   3
ATOM      3  C   UNL     1      15.291  33.166  20.349  1.00  0.00     0.006 C 
BRANCH   3   4
ATOM      4  C   UNL     1      15.372  32.194  21.530  1.00  0.00     0.053 C 
BRANCH   4   5
ATOM      5  C   UNL     1      16.791  31.784  21.775  1.00  0.00     0.041 C 
ATOM      6  O   UNL     1      17.043  30.742  22.436  1.00  0.00    -0.550 OA
ATOM      7  O   UNL     1      17.832  32.525  21.232  1.00  0.00    -0.550 OA
ENDBRANCH   4   5
ENDBRANCH   3   4
ENDBRANCH   2   3
ENDBRANCH   1   2
BRANCH   1   8
ATOM      8  C   UNL     1      13.319  36.241  19.354  1.00  0.00     0.000 C 
BRANCH   8   9
ATOM      9  C   UNL     1      11.908  36.790  19.599  1.00  0.00     0.000 C 
BRANCH   9  10
ATOM     10  C   UNL     1      11.019  35.741  20.284  1.00  0.00     0.006 C 
BRANCH  10  11
ATOM     11  C   UNL     1      10.487  36.226  21.638  1.00  0.00     0.053 C 
BRANCH  11  12
ATOM     12  C   UNL     1      11.162  35.534  22.783  1.00  0.00     0.041 C 
ATOM     13  O   UNL     1      11.534  34.337  22.667  1.00  0.00    -0.550 OA
ATOM     14  O   UNL     1      11.348  36.200  23.988  1.00  0.00    -0.550 OA
ENDBRANCH  11  12
ENDBRANCH  10  11
ENDBRANCH   9  10
ENDBRANCH   8   9
ENDBRANCH   1   8
TORSDOF 9
ENDMDL
