MODEL 1
REMARK VINA RESULT:    -2.803      0.000      0.000
REMARK INTER + INTRA:          -3.541
REMARK INTER:                  -3.458
REMARK INTRA:                  -0.083
REMARK UNBOUND:                -0.083
REMARK SMILES Oc1cc(O)c2cc(O)c(-c3cc(O)c(O)c(O)c3)[o+]c2c1
REMARK SMILES IDX 10 1 20 2 21 3 22 4 2 5 3 6 4 7 6 8 7 9 8 10 11 11 12 12
REMARK SMILES IDX 13 13 19 14 15 15 17 16 14 17 16 19 18 21 9 23 1 25 5 27
REMARK H PARENT 14 18 16 20 18 22 9 24 1 26 5 28
REMARK Flexibility Score: inf
ROOT
ATOM      1  C   UNL     1      48.055  46.442  42.737  1.00  0.00     0.402 A 
ATOM      2  O   UNL     1      48.487  46.990  43.870  1.00  0.00    -0.202 OA
ATOM      3  C   UNL     1      49.696  46.767  44.374  1.00  0.00     0.368 A 
ATOM      4  C   UNL     1      50.061  47.392  45.569  1.00  0.00     0.162 A 
ATOM      5  C   UNL     1      51.325  47.180  46.119  1.00  0.00     0.128 A 
ATOM      6  C   UNL     1      52.234  46.337  45.471  1.00  0.00     0.093 A 
ATOM      7  C   UNL     1      51.893  45.699  44.272  1.00  0.00     0.136 A 
ATOM      8  C   UNL     1      50.607  45.911  43.710  1.00  0.00     0.125 A 
ATOM      9  C   UNL     1      50.175  45.304  42.520  1.00  0.00     0.078 A 
ATOM     10  C   UNL     1      48.890  45.558  42.030  1.00  0.00     0.223 A 
ENDROOT
BRANCH   1  11
ATOM     11  C   UNL     1      46.689  46.776  42.274  1.00  0.00     0.091 A 
ATOM     12  C   UNL     1      45.755  45.773  41.969  1.00  0.00     0.068 A 
ATOM     13  C   UNL     1      44.475  46.110  41.511  1.00  0.00     0.162 A 
ATOM     14  C   UNL     1      46.335  48.119  42.079  1.00  0.00     0.068 A 
ATOM     15  C   UNL     1      44.115  47.455  41.339  1.00  0.00     0.200 A 
ATOM     16  C   UNL     1      45.059  48.470  41.623  1.00  0.00     0.162 A 
BRANCH  13  17
ATOM     17  O   UNL     1      43.551  45.109  41.217  1.00  0.00    -0.504 OA
ATOM     18  H   UNL     1      43.145  45.014  40.293  1.00  0.00     0.293 HD
ENDBRANCH  13  17
BRANCH  15  19
ATOM     19  O   UNL     1      42.824  47.736  40.886  1.00  0.00    -0.502 OA
ATOM     20  H   UNL     1      42.145  48.271  41.409  1.00  0.00     0.293 HD
ENDBRANCH  15  19
BRANCH  16  21
ATOM     21  O   UNL     1      44.778  49.829  41.465  1.00  0.00    -0.504 OA
ATOM     22  H   UNL     1      44.256  50.380  42.132  1.00  0.00     0.293 HD
ENDBRANCH  16  21
ENDBRANCH   1  11
BRANCH  10  23
ATOM     23  O   UNL     1      48.442  44.916  40.875  1.00  0.00    -0.500 OA
ATOM     24  H   UNL     1      48.971  44.945  40.011  1.00  0.00     0.294 HD
ENDBRANCH  10  23
BRANCH   5  25
ATOM     25  O   UNL     1      51.669  47.812  47.312  1.00  0.00    -0.507 OA
ATOM     26  H   UNL     1      51.251  47.542  48.194  1.00  0.00     0.293 HD
ENDBRANCH   5  25
BRANCH   7  27
ATOM     27  O   UNL     1      52.859  44.875  43.684  1.00  0.00    -0.507 OA
ATOM     28  H   UNL     1      52.695  43.921  43.396  1.00  0.00     0.293 HD
ENDBRANCH   7  27
TORSDOF 7
ENDMDL
MODEL 2
REMARK VINA RESULT:    -2.277      2.807      6.874
REMARK INTER + INTRA:          -2.892
REMARK INTER:                  -3.241
REMARK INTRA:                   0.349
REMARK UNBOUND:                -0.083
REMARK SMILES Oc1cc(O)c2cc(O)c(-c3cc(O)c(O)c(O)c3)[o+]c2c1
REMARK SMILES IDX 10 1 20 2 21 3 22 4 2 5 3 6 4 7 6 8 7 9 8 10 11 11 12 12
REMARK SMILES IDX 13 13 19 14 15 15 17 16 14 17 16 19 18 21 9 23 1 25 5 27
REMARK H PARENT 14 18 16 20 18 22 9 24 1 26 5 28
REMARK Flexibility Score: inf
ROOT
ATOM      1  C   UNL     1      48.091  47.215  41.277  1.00  0.00     0.402 A 
ATOM      2  O   UNL     1      47.132  48.126  41.421  1.00  0.00    -0.202 OA
ATOM      3  C   UNL     1      45.843  47.820  41.526  1.00  0.00     0.368 A 
ATOM      4  C   UNL     1      44.910  48.848  41.678  1.00  0.00     0.162 A 
ATOM      5  C   UNL     1      43.550  48.556  41.793  1.00  0.00     0.128 A 
ATOM      6  C   UNL     1      43.119  47.225  41.756  1.00  0.00     0.093 A 
ATOM      7  C   UNL     1      44.034  46.177  41.604  1.00  0.00     0.136 A 
ATOM      8  C   UNL     1      45.417  46.470  41.485  1.00  0.00     0.125 A 
ATOM      9  C   UNL     1      46.404  45.485  41.317  1.00  0.00     0.078 A 
ATOM     10  C   UNL     1      47.748  45.852  41.202  1.00  0.00     0.223 A 
ENDROOT
BRANCH   1  11
ATOM     11  C   UNL     1      49.492  47.681  41.183  1.00  0.00     0.091 A 
ATOM     12  C   UNL     1      50.569  46.783  41.260  1.00  0.00     0.068 A 
ATOM     13  C   UNL     1      51.888  47.248  41.191  1.00  0.00     0.162 A 
ATOM     14  C   UNL     1      49.757  49.054  41.070  1.00  0.00     0.068 A 
ATOM     15  C   UNL     1      52.150  48.619  41.055  1.00  0.00     0.200 A 
ATOM     16  C   UNL     1      51.071  49.532  40.999  1.00  0.00     0.162 A 
BRANCH  13  17
ATOM     17  O   UNL     1      52.951  46.349  41.262  1.00  0.00    -0.504 OA
ATOM     18  H   UNL     1      53.030  45.678  42.016  1.00  0.00     0.293 HD
ENDBRANCH  13  17
BRANCH  15  19
ATOM     19  O   UNL     1      53.484  49.028  40.983  1.00  0.00    -0.502 OA
ATOM     20  H   UNL     1      54.235  48.450  40.636  1.00  0.00     0.293 HD
ENDBRANCH  15  19
BRANCH  16  21
ATOM     21  O   UNL     1      51.254  50.911  40.876  1.00  0.00    -0.504 OA
ATOM     22  H   UNL     1      51.345  51.542  41.660  1.00  0.00     0.293 HD
ENDBRANCH  16  21
ENDBRANCH   1  11
BRANCH  10  23
ATOM     23  O   UNL     1      48.724  44.878  40.985  1.00  0.00    -0.500 OA
ATOM     24  H   UNL     1      48.858  44.453  40.074  1.00  0.00     0.294 HD
ENDBRANCH  10  23
BRANCH   5  25
ATOM     25  O   UNL     1      42.635  49.595  41.944  1.00  0.00    -0.507 OA
ATOM     26  H   UNL     1      41.658  49.416  42.142  1.00  0.00     0.293 HD
ENDBRANCH   5  25
BRANCH   7  27
ATOM     27  O   UNL     1      43.523  44.875  41.581  1.00  0.00    -0.507 OA
ATOM     28  H   UNL     1      43.684  44.186  42.301  1.00  0.00     0.293 HD
ENDBRANCH   7  27
TORSDOF 7
ENDMDL
MODEL 3
REMARK VINA RESULT:    -1.890      1.769      6.996
REMARK INTER + INTRA:          -2.415
REMARK INTER:                  -2.035
REMARK INTRA:                  -0.380
REMARK UNBOUND:                -0.083
REMARK SMILES Oc1cc(O)c2cc(O)c(-c3cc(O)c(O)c(O)c3)[o+]c2c1
REMARK SMILES IDX 10 1 20 2 21 3 22 4 2 5 3 6 4 7 6 8 7 9 8 10 11 11 12 12
REMARK SMILES IDX 13 13 19 14 15 15 17 16 14 17 16 19 18 21 9 23 1 25 5 27
REMARK H PARENT 14 18 16 20 18 22 9 24 1 26 5 28
REMARK Flexibility Score: inf
ROOT
ATOM      1  C   UNL     1      47.545  46.919  42.204  1.00  0.00     0.402 A 
ATOM      2  O   UNL     1      46.881  47.970  42.678  1.00  0.00    -0.202 OA
ATOM      3  C   UNL     1      45.578  48.155  42.492  1.00  0.00     0.368 A 
ATOM      4  C   UNL     1      44.968  49.289  43.032  1.00  0.00     0.162 A 
ATOM      5  C   UNL     1      43.601  49.507  42.855  1.00  0.00     0.128 A 
ATOM      6  C   UNL     1      42.837  48.585  42.132  1.00  0.00     0.093 A 
ATOM      7  C   UNL     1      43.425  47.440  41.581  1.00  0.00     0.136 A 
ATOM      8  C   UNL     1      44.815  47.216  41.757  1.00  0.00     0.125 A 
ATOM      9  C   UNL     1      45.491  46.104  41.229  1.00  0.00     0.078 A 
ATOM     10  C   UNL     1      46.865  45.953  41.441  1.00  0.00     0.223 A 
ENDROOT
BRANCH   1  11
ATOM     11  C   UNL     1      48.995  46.820  42.488  1.00  0.00     0.091 A 
ATOM     12  C   UNL     1      49.949  47.380  41.624  1.00  0.00     0.068 A 
ATOM     13  C   UNL     1      51.317  47.257  41.900  1.00  0.00     0.162 A 
ATOM     14  C   UNL     1      49.431  46.105  43.613  1.00  0.00     0.068 A 
ATOM     15  C   UNL     1      51.750  46.560  43.038  1.00  0.00     0.200 A 
ATOM     16  C   UNL     1      50.795  45.974  43.901  1.00  0.00     0.162 A 
BRANCH  13  17
ATOM     17  O   UNL     1      52.258  47.822  41.040  1.00  0.00    -0.504 OA
ATOM     18  H   UNL     1      51.997  48.185  40.131  1.00  0.00     0.293 HD
ENDBRANCH  13  17
BRANCH  15  19
ATOM     19  O   UNL     1      53.125  46.473  43.269  1.00  0.00    -0.502 OA
ATOM     20  H   UNL     1      53.587  46.856  44.081  1.00  0.00     0.293 HD
ENDBRANCH  15  19
BRANCH  16  21
ATOM     21  O   UNL     1      51.151  45.256  45.045  1.00  0.00    -0.504 OA
ATOM     22  H   UNL     1      50.831  45.482  45.976  1.00  0.00     0.293 HD
ENDBRANCH  16  21
ENDBRANCH   1  11
BRANCH  10  23
ATOM     23  O   UNL     1      47.546  44.875  40.875  1.00  0.00    -0.500 OA
ATOM     24  H   UNL     1      47.805  44.865  39.895  1.00  0.00     0.294 HD
ENDBRANCH  10  23
BRANCH   5  25
ATOM     25  O   UNL     1      43.011  50.645  43.401  1.00  0.00    -0.507 OA
ATOM     26  H   UNL     1      42.641  51.383  42.815  1.00  0.00     0.293 HD
ENDBRANCH   5  25
BRANCH   7  27
ATOM     27  O   UNL     1      42.592  46.565  40.875  1.00  0.00    -0.507 OA
ATOM     28  H   UNL     1      41.884  46.858  40.218  1.00  0.00     0.293 HD
ENDBRANCH   7  27
TORSDOF 7
ENDMDL
MODEL 4
REMARK VINA RESULT:    -1.772      1.800      6.861
REMARK INTER + INTRA:          -2.269
REMARK INTER:                  -1.899
REMARK INTRA:                  -0.371
REMARK UNBOUND:                -0.083
REMARK SMILES Oc1cc(O)c2cc(O)c(-c3cc(O)c(O)c(O)c3)[o+]c2c1
REMARK SMILES IDX 10 1 20 2 21 3 22 4 2 5 3 6 4 7 6 8 7 9 8 10 11 11 12 12
REMARK SMILES IDX 13 13 19 14 15 15 17 16 14 17 16 19 18 21 9 23 1 25 5 27
REMARK H PARENT 14 18 16 20 18 22 9 24 1 26 5 28
REMARK Flexibility Score: inf
ROOT
ATOM      1  C   UNL     1      47.495  46.918  42.217  1.00  0.00     0.402 A 
ATOM      2  O   UNL     1      46.848  47.980  42.689  1.00  0.00    -0.202 OA
ATOM      3  C   UNL     1      45.549  48.188  42.499  1.00  0.00     0.368 A 
ATOM      4  C   UNL     1      44.957  49.333  43.039  1.00  0.00     0.162 A 
ATOM      5  C   UNL     1      43.595  49.575  42.858  1.00  0.00     0.128 A 
ATOM      6  C   UNL     1      42.816  48.666  42.133  1.00  0.00     0.093 A 
ATOM      7  C   UNL     1      43.385  47.512  41.583  1.00  0.00     0.136 A 
ATOM      8  C   UNL     1      44.771  47.263  41.763  1.00  0.00     0.125 A 
ATOM      9  C   UNL     1      45.429  46.139  41.236  1.00  0.00     0.078 A 
ATOM     10  C   UNL     1      46.799  45.964  41.452  1.00  0.00     0.223 A 
ENDROOT
BRANCH   1  11
ATOM     11  C   UNL     1      48.942  46.795  42.504  1.00  0.00     0.091 A 
ATOM     12  C   UNL     1      49.414  45.967  43.535  1.00  0.00     0.068 A 
ATOM     13  C   UNL     1      50.786  45.881  43.805  1.00  0.00     0.162 A 
ATOM     14  C   UNL     1      49.860  47.561  41.771  1.00  0.00     0.068 A 
ATOM     15  C   UNL     1      51.704  46.631  43.055  1.00  0.00     0.200 A 
ATOM     16  C   UNL     1      51.233  47.485  42.030  1.00  0.00     0.162 A 
BRANCH  13  17
ATOM     17  O   UNL     1      51.247  45.052  44.826  1.00  0.00    -0.504 OA
ATOM     18  H   UNL     1      50.909  44.103  44.934  1.00  0.00     0.293 HD
ENDBRANCH  13  17
BRANCH  15  19
ATOM     19  O   UNL     1      53.061  46.503  43.361  1.00  0.00    -0.502 OA
ATOM     20  H   UNL     1      53.792  46.421  42.669  1.00  0.00     0.293 HD
ENDBRANCH  15  19
BRANCH  16  21
ATOM     21  O   UNL     1      52.085  48.270  41.250  1.00  0.00    -0.504 OA
ATOM     22  H   UNL     1      52.269  49.248  41.423  1.00  0.00     0.293 HD
ENDBRANCH  16  21
ENDBRANCH   1  11
BRANCH  10  23
ATOM     23  O   UNL     1      47.463  44.875  40.887  1.00  0.00    -0.500 OA
ATOM     24  H   UNL     1      46.986  44.216  40.282  1.00  0.00     0.294 HD
ENDBRANCH  10  23
BRANCH   5  25
ATOM     25  O   UNL     1      43.024  50.723  43.403  1.00  0.00    -0.507 OA
ATOM     26  H   UNL     1      42.476  51.361  42.839  1.00  0.00     0.293 HD
ENDBRANCH   5  25
BRANCH   7  27
ATOM     27  O   UNL     1      42.539  46.651  40.875  1.00  0.00    -0.507 OA
ATOM     28  H   UNL     1      41.721  46.208  41.266  1.00  0.00     0.293 HD
ENDBRANCH   7  27
TORSDOF 7
ENDMDL
MODEL 5
REMARK VINA RESULT:    -1.505      2.858      7.276
REMARK INTER + INTRA:          -1.939
REMARK INTER:                  -2.399
REMARK INTRA:                   0.460
REMARK UNBOUND:                -0.083
REMARK SMILES Oc1cc(O)c2cc(O)c(-c3cc(O)c(O)c(O)c3)[o+]c2c1
REMARK SMILES IDX 10 1 20 2 21 3 22 4 2 5 3 6 4 7 6 8 7 9 8 10 11 11 12 12
REMARK SMILES IDX 13 13 19 14 15 15 17 16 14 17 16 19 18 21 9 23 1 25 5 27
REMARK H PARENT 14 18 16 20 18 22 9 24 1 26 5 28
REMARK Flexibility Score: inf
ROOT
ATOM      1  C   UNL     1      48.036  47.987  41.108  1.00  0.00     0.402 A 
ATOM      2  O   UNL     1      47.211  46.956  41.269  1.00  0.00    -0.202 OA
ATOM      3  C   UNL     1      45.888  47.077  41.293  1.00  0.00     0.368 A 
ATOM      4  C   UNL     1      45.104  45.933  41.464  1.00  0.00     0.162 A 
ATOM      5  C   UNL     1      43.712  46.029  41.491  1.00  0.00     0.128 A 
ATOM      6  C   UNL     1      43.097  47.278  41.344  1.00  0.00     0.093 A 
ATOM      7  C   UNL     1      43.860  48.438  41.172  1.00  0.00     0.136 A 
ATOM      8  C   UNL     1      45.276  48.345  41.146  1.00  0.00     0.125 A 
ATOM      9  C   UNL     1      46.121  49.456  40.991  1.00  0.00     0.078 A 
ATOM     10  C   UNL     1      47.509  49.286  40.980  1.00  0.00     0.223 A 
ENDROOT
BRANCH   1  11
ATOM     11  C   UNL     1      49.492  47.723  41.087  1.00  0.00     0.091 A 
ATOM     12  C   UNL     1      50.000  46.419  41.194  1.00  0.00     0.068 A 
ATOM     13  C   UNL     1      51.382  46.192  41.194  1.00  0.00     0.162 A 
ATOM     14  C   UNL     1      50.389  48.799  41.018  1.00  0.00     0.068 A 
ATOM     15  C   UNL     1      52.277  47.268  41.101  1.00  0.00     0.200 A 
ATOM     16  C   UNL     1      51.772  48.587  41.017  1.00  0.00     0.162 A 
BRANCH  13  17
ATOM     17  O   UNL     1      51.878  44.893  41.293  1.00  0.00    -0.504 OA
ATOM     18  H   UNL     1      52.300  44.423  40.501  1.00  0.00     0.293 HD
ENDBRANCH  13  17
BRANCH  15  19
ATOM     19  O   UNL     1      53.645  46.986  41.100  1.00  0.00    -0.502 OA
ATOM     20  H   UNL     1      54.363  47.666  41.302  1.00  0.00     0.293 HD
ENDBRANCH  15  19
BRANCH  16  21
ATOM     21  O   UNL     1      52.601  49.709  40.933  1.00  0.00    -0.504 OA
ATOM     22  H   UNL     1      52.825  50.306  41.717  1.00  0.00     0.293 HD
ENDBRANCH  16  21
ENDBRANCH   1  11
BRANCH  10  23
ATOM     23  O   UNL     1      48.350  50.394  40.876  1.00  0.00    -0.500 OA
ATOM     24  H   UNL     1      48.097  51.204  40.320  1.00  0.00     0.294 HD
ENDBRANCH  10  23
BRANCH   5  25
ATOM     25  O   UNL     1      42.947  44.878  41.663  1.00  0.00    -0.507 OA
ATOM     26  H   UNL     1      42.223  44.619  41.003  1.00  0.00     0.293 HD
ENDBRANCH   5  25
BRANCH   7  27
ATOM     27  O   UNL     1      43.171  49.647  41.029  1.00  0.00    -0.507 OA
ATOM     28  H   UNL     1      42.178  49.721  40.865  1.00  0.00     0.293 HD
ENDBRANCH   7  27
TORSDOF 7
ENDMDL
MODEL 6
REMARK VINA RESULT:    -1.122     22.849     25.074
REMARK INTER + INTRA:          -1.467
REMARK INTER:                  -1.917
REMARK INTRA:                   0.451
REMARK UNBOUND:                -0.083
REMARK SMILES Oc1cc(O)c2cc(O)c(-c3cc(O)c(O)c(O)c3)[o+]c2c1
REMARK SMILES IDX 10 1 20 2 21 3 22 4 2 5 3 6 4 7 6 8 7 9 8 10 11 11 12 12
REMARK SMILES IDX 13 13 19 14 15 15 17 16 14 17 16 19 18 21 9 23 1 25 5 27
REMARK H PARENT 14 18 16 20 18 22 9 24 1 26 5 28
REMARK Flexibility Score: inf
ROOT
ATOM      1  C   UNL     1      40.885  64.944  57.286  1.00  0.00     0.402 A 
ATOM      2  O   UNL     1      39.653  64.975  56.785  1.00  0.00    -0.202 OA
ATOM      3  C   UNL     1      38.559  65.012  57.538  1.00  0.00     0.368 A 
ATOM      4  C   UNL     1      37.307  65.048  56.919  1.00  0.00     0.162 A 
ATOM      5  C   UNL     1      36.142  65.090  57.685  1.00  0.00     0.128 A 
ATOM      6  C   UNL     1      36.227  65.098  59.082  1.00  0.00     0.093 A 
ATOM      7  C   UNL     1      37.469  65.064  59.726  1.00  0.00     0.136 A 
ATOM      8  C   UNL     1      38.656  65.019  58.951  1.00  0.00     0.125 A 
ATOM      9  C   UNL     1      39.944  64.969  59.511  1.00  0.00     0.078 A 
ATOM     10  C   UNL     1      41.068  64.922  58.680  1.00  0.00     0.223 A 
ENDROOT
BRANCH   1  11
ATOM     11  C   UNL     1      42.025  64.915  56.341  1.00  0.00     0.091 A 
ATOM     12  C   UNL     1      41.828  64.735  54.963  1.00  0.00     0.068 A 
ATOM     13  C   UNL     1      42.922  64.689  54.089  1.00  0.00     0.162 A 
ATOM     14  C   UNL     1      43.334  65.011  56.836  1.00  0.00     0.068 A 
ATOM     15  C   UNL     1      44.229  64.809  54.583  1.00  0.00     0.200 A 
ATOM     16  C   UNL     1      44.436  64.967  55.974  1.00  0.00     0.162 A 
BRANCH  13  17
ATOM     17  O   UNL     1      42.717  64.517  52.721  1.00  0.00    -0.504 OA
ATOM     18  H   UNL     1      41.798  64.608  52.305  1.00  0.00     0.293 HD
ENDBRANCH  13  17
BRANCH  15  19
ATOM     19  O   UNL     1      45.283  64.763  53.668  1.00  0.00    -0.502 OA
ATOM     20  H   UNL     1      46.186  64.355  53.864  1.00  0.00     0.293 HD
ENDBRANCH  15  19
BRANCH  16  21
ATOM     21  O   UNL     1      45.708  65.081  56.540  1.00  0.00    -0.504 OA
ATOM     22  H   UNL     1      46.499  64.513  56.272  1.00  0.00     0.293 HD
ENDBRANCH  16  21
ENDBRANCH   1  11
BRANCH  10  23
ATOM     23  O   UNL     1      42.344  64.822  59.235  1.00  0.00    -0.500 OA
ATOM     24  H   UNL     1      42.502  64.369  60.129  1.00  0.00     0.294 HD
ENDBRANCH  10  23
BRANCH   5  25
ATOM     25  O   UNL     1      34.903  65.124  57.049  1.00  0.00    -0.507 OA
ATOM     26  H   UNL     1      34.136  65.676  57.413  1.00  0.00     0.293 HD
ENDBRANCH   5  25
BRANCH   7  27
ATOM     27  O   UNL     1      37.469  65.079  61.125  1.00  0.00    -0.507 OA
ATOM     28  H   UNL     1      36.637  65.066  61.695  1.00  0.00     0.293 HD
ENDBRANCH   7  27
TORSDOF 7
ENDMDL
MODEL 7
REMARK VINA RESULT:    -0.847      1.555      7.211
REMARK INTER + INTRA:          -1.128
REMARK INTER:                  -0.941
REMARK INTRA:                  -0.187
REMARK UNBOUND:                -0.083
REMARK SMILES Oc1cc(O)c2cc(O)c(-c3cc(O)c(O)c(O)c3)[o+]c2c1
REMARK SMILES IDX 10 1 20 2 21 3 22 4 2 5 3 6 4 7 6 8 7 9 8 10 11 11 12 12
REMARK SMILES IDX 13 13 19 14 15 15 17 16 14 17 16 19 18 21 9 23 1 25 5 27
REMARK H PARENT 14 18 16 20 18 22 9 24 1 26 5 28
REMARK Flexibility Score: inf
ROOT
ATOM      1  C   UNL     1      48.414  47.039  42.215  1.00  0.00     0.402 A 
ATOM      2  O   UNL     1      47.361  46.226  42.245  1.00  0.00    -0.202 OA
ATOM      3  C   UNL     1      46.127  46.618  41.947  1.00  0.00     0.368 A 
ATOM      4  C   UNL     1      45.085  45.689  42.003  1.00  0.00     0.162 A 
ATOM      5  C   UNL     1      43.780  46.072  41.693  1.00  0.00     0.128 A 
ATOM      6  C   UNL     1      43.512  47.395  41.322  1.00  0.00     0.093 A 
ATOM      7  C   UNL     1      44.538  48.345  41.257  1.00  0.00     0.136 A 
ATOM      8  C   UNL     1      45.867  47.959  41.575  1.00  0.00     0.125 A 
ATOM      9  C   UNL     1      46.955  48.847  41.550  1.00  0.00     0.078 A 
ATOM     10  C   UNL     1      48.236  48.394  41.879  1.00  0.00     0.223 A 
ENDROOT
BRANCH   1  11
ATOM     11  C   UNL     1      49.741  46.480  42.558  1.00  0.00     0.091 A 
ATOM     12  C   UNL     1      50.005  45.952  43.832  1.00  0.00     0.068 A 
ATOM     13  C   UNL     1      51.274  45.448  44.143  1.00  0.00     0.162 A 
ATOM     14  C   UNL     1      50.776  46.527  41.612  1.00  0.00     0.068 A 
ATOM     15  C   UNL     1      52.301  45.475  43.188  1.00  0.00     0.200 A 
ATOM     16  C   UNL     1      52.048  46.026  41.909  1.00  0.00     0.162 A 
BRANCH  13  17
ATOM     17  O   UNL     1      51.526  44.920  45.408  1.00  0.00    -0.504 OA
ATOM     18  H   UNL     1      51.147  44.026  45.696  1.00  0.00     0.293 HD
ENDBRANCH  13  17
BRANCH  15  19
ATOM     19  O   UNL     1      53.545  44.953  43.548  1.00  0.00    -0.502 OA
ATOM     20  H   UNL     1      54.294  45.500  43.949  1.00  0.00     0.293 HD
ENDBRANCH  15  19
BRANCH  16  21
ATOM     21  O   UNL     1      53.024  46.098  40.912  1.00  0.00    -0.504 OA
ATOM     22  H   UNL     1      53.137  46.884  40.288  1.00  0.00     0.293 HD
ENDBRANCH  16  21
ENDBRANCH   1  11
BRANCH  10  23
ATOM     23  O   UNL     1      49.309  49.285  41.904  1.00  0.00    -0.500 OA
ATOM     24  H   UNL     1      49.341  50.097  41.297  1.00  0.00     0.294 HD
ENDBRANCH  10  23
BRANCH   5  25
ATOM     25  O   UNL     1      42.755  45.131  41.755  1.00  0.00    -0.507 OA
ATOM     26  H   UNL     1      42.680  44.383  41.076  1.00  0.00     0.293 HD
ENDBRANCH   5  25
BRANCH   7  27
ATOM     27  O   UNL     1      44.189  49.644  40.875  1.00  0.00    -0.507 OA
ATOM     28  H   UNL     1      44.746  50.464  41.067  1.00  0.00     0.293 HD
ENDBRANCH   7  27
TORSDOF 7
ENDMDL
