MODEL 1
REMARK VINA RESULT:    -3.862      0.000      0.000
REMARK INTER + INTRA:          -5.493
REMARK INTER:                  -5.216
REMARK INTRA:                  -0.276
REMARK UNBOUND:                -0.276
REMARK SMILES CCCCCCCC(=O)[O-]
REMARK SMILES IDX 5 1 6 2 7 3 8 4 9 5 10 6 4 7 3 8 2 9 1 10
REMARK H PARENT
REMARK Flexibility Score: inf
ROOT
ATOM      1  C   UNL     1      -8.702  -3.230   4.209  1.00  0.00     0.000 C 
ENDROOT
BRANCH   1   2
ATOM      2  C   UNL     1      -9.241  -3.502   5.628  1.00  0.00     0.006 C 
BRANCH   2   3
ATOM      3  C   UNL     1      -8.508  -4.620   6.386  1.00  0.00     0.053 C 
BRANCH   3   4
ATOM      4  C   UNL     1      -9.262  -5.913   6.347  1.00  0.00     0.041 C 
ATOM      5  O   UNL     1      -9.690  -6.429   7.413  1.00  0.00    -0.550 OA
ATOM      6  O   UNL     1      -9.465  -6.566   5.137  1.00  0.00    -0.550 OA
ENDBRANCH   3   4
ENDBRANCH   2   3
ENDBRANCH   1   2
BRANCH   1   7
ATOM      7  C   UNL     1      -9.780  -3.065   3.122  1.00  0.00     0.000 C 
BRANCH   7   8
ATOM      8  C   UNL     1      -9.574  -1.812   2.258  1.00  0.00    -0.000 C 
BRANCH   8   9
ATOM      9  C   UNL     1      -8.603  -0.835   2.933  1.00  0.00    -0.003 C 
ATOM     10  C   UNL     1      -7.600  -0.275   1.930  1.00  0.00     0.004 C 
ENDBRANCH   8   9
ENDBRANCH   7   8
ENDBRANCH   1   7
TORSDOF 6
ENDMDL
MODEL 2
REMARK VINA RESULT:    -3.859      0.759      1.435
REMARK INTER + INTRA:          -5.489
REMARK INTER:                  -5.188
REMARK INTRA:                  -0.302
REMARK UNBOUND:                -0.276
REMARK SMILES CCCCCCCC(=O)[O-]
REMARK SMILES IDX 5 1 6 2 7 3 8 4 9 5 10 6 4 7 3 8 2 9 1 10
REMARK H PARENT
REMARK Flexibility Score: inf
ROOT
ATOM      1  C   UNL     1      -9.766  -2.393   3.903  1.00  0.00     0.000 C 
ENDROOT
BRANCH   1   2
ATOM      2  C   UNL     1      -8.712  -3.415   4.374  1.00  0.00     0.006 C 
BRANCH   2   3
ATOM      3  C   UNL     1      -8.830  -3.819   5.853  1.00  0.00     0.053 C 
BRANCH   3   4
ATOM      4  C   UNL     1      -9.215  -5.257   6.013  1.00  0.00     0.041 C 
ATOM      5  O   UNL     1      -9.550  -5.939   5.008  1.00  0.00    -0.550 OA
ATOM      6  O   UNL     1      -9.237  -5.836   7.275  1.00  0.00    -0.550 OA
ENDBRANCH   3   4
ENDBRANCH   2   3
ENDBRANCH   1   2
BRANCH   1   7
ATOM      7  C   UNL     1      -9.786  -2.129   2.387  1.00  0.00     0.000 C 
BRANCH   7   8
ATOM      8  C   UNL     1      -9.878  -0.636   2.040  1.00  0.00    -0.000 C 
BRANCH   8   9
ATOM      9  C   UNL     1      -8.676   0.133   2.603  1.00  0.00    -0.003 C 
ATOM     10  C   UNL     1      -7.389  -0.249   1.877  1.00  0.00     0.004 C 
ENDBRANCH   8   9
ENDBRANCH   7   8
ENDBRANCH   1   7
TORSDOF 6
ENDMDL
MODEL 3
REMARK VINA RESULT:    -3.854      3.268      5.588
REMARK INTER + INTRA:          -5.482
REMARK INTER:                  -5.159
REMARK INTRA:                  -0.323
REMARK UNBOUND:                -0.276
REMARK SMILES CCCCCCCC(=O)[O-]
REMARK SMILES IDX 5 1 6 2 7 3 8 4 9 5 10 6 4 7 3 8 2 9 1 10
REMARK H PARENT
REMARK Flexibility Score: inf
ROOT
ATOM      1  C   UNL     1      -9.288  -3.447   5.435  1.00  0.00     0.000 C 
ENDROOT
BRANCH   1   2
ATOM      2  C   UNL     1      -8.594  -3.046   4.118  1.00  0.00     0.006 C 
BRANCH   2   3
ATOM      3  C   UNL     1      -9.551  -2.591   3.005  1.00  0.00     0.053 C 
BRANCH   3   4
ATOM      4  C   UNL     1      -9.194  -1.236   2.476  1.00  0.00     0.041 C 
ATOM      5  O   UNL     1     -10.056  -0.542   1.876  1.00  0.00    -0.550 OA
ATOM      6  O   UNL     1      -7.899  -0.754   2.617  1.00  0.00    -0.550 OA
ENDBRANCH   3   4
ENDBRANCH   2   3
ENDBRANCH   1   2
BRANCH   1   7
ATOM      7  C   UNL     1      -8.425  -4.279   6.400  1.00  0.00     0.000 C 
BRANCH   7   8
ATOM      8  C   UNL     1      -9.034  -5.653   6.716  1.00  0.00    -0.000 C 
BRANCH   8   9
ATOM      9  C   UNL     1     -10.120  -6.019   5.696  1.00  0.00    -0.003 C 
ATOM     10  C   UNL     1      -9.671  -7.172   4.803  1.00  0.00     0.004 C 
ENDBRANCH   8   9
ENDBRANCH   7   8
ENDBRANCH   1   7
TORSDOF 6
ENDMDL
MODEL 4
REMARK VINA RESULT:    -3.812      3.317      5.516
REMARK INTER + INTRA:          -5.426
REMARK INTER:                  -5.109
REMARK INTRA:                  -0.316
REMARK UNBOUND:                -0.276
REMARK SMILES CCCCCCCC(=O)[O-]
REMARK SMILES IDX 5 1 6 2 7 3 8 4 9 5 10 6 4 7 3 8 2 9 1 10
REMARK H PARENT
REMARK Flexibility Score: inf
ROOT
ATOM      1  C   UNL     1     -10.806  -3.396   3.708  1.00  0.00     0.000 C 
ENDROOT
BRANCH   1   2
ATOM      2  C   UNL     1     -10.803  -2.981   2.223  1.00  0.00     0.006 C 
BRANCH   2   3
ATOM      3  C   UNL     1     -11.019  -1.479   1.979  1.00  0.00     0.053 C 
BRANCH   3   4
ATOM      4  C   UNL     1      -9.752  -0.697   2.138  1.00  0.00     0.041 C 
ATOM      5  O   UNL     1      -8.641  -1.229   1.875  1.00  0.00    -0.550 OA
ATOM      6  O   UNL     1      -9.794   0.608   2.610  1.00  0.00    -0.550 OA
ENDBRANCH   3   4
ENDBRANCH   2   3
ENDBRANCH   1   2
BRANCH   1   7
ATOM      7  C   UNL     1      -9.608  -4.257   4.146  1.00  0.00     0.000 C 
BRANCH   7   8
ATOM      8  C   UNL     1      -8.621  -3.498   5.045  1.00  0.00    -0.000 C 
BRANCH   8   9
ATOM      9  C   UNL     1      -8.422  -4.226   6.380  1.00  0.00    -0.003 C 
ATOM     10  C   UNL     1      -9.161  -5.561   6.394  1.00  0.00     0.004 C 
ENDBRANCH   8   9
ENDBRANCH   7   8
ENDBRANCH   1   7
TORSDOF 6
ENDMDL
MODEL 5
REMARK VINA RESULT:    -3.751      3.088      5.400
REMARK INTER + INTRA:          -5.343
REMARK INTER:                  -4.992
REMARK INTRA:                  -0.351
REMARK UNBOUND:                -0.276
REMARK SMILES CCCCCCCC(=O)[O-]
REMARK SMILES IDX 5 1 6 2 7 3 8 4 9 5 10 6 4 7 3 8 2 9 1 10
REMARK H PARENT
REMARK Flexibility Score: inf
ROOT
ATOM      1  C   UNL     1      -8.653  -3.771   6.032  1.00  0.00     0.000 C 
ENDROOT
BRANCH   1   2
ATOM      2  C   UNL     1      -8.505  -3.457   4.529  1.00  0.00     0.006 C 
BRANCH   2   3
ATOM      3  C   UNL     1      -9.759  -2.855   3.876  1.00  0.00     0.053 C 
BRANCH   3   4
ATOM      4  C   UNL     1      -9.416  -1.809   2.861  1.00  0.00     0.041 C 
ATOM      5  O   UNL     1      -8.307  -1.214   2.914  1.00  0.00    -0.550 OA
ATOM      6  O   UNL     1     -10.334  -1.467   1.876  1.00  0.00    -0.550 OA
ENDBRANCH   3   4
ENDBRANCH   2   3
ENDBRANCH   1   2
BRANCH   1   7
ATOM      7  C   UNL     1      -8.715  -5.268   6.382  1.00  0.00     0.000 C 
BRANCH   7   8
ATOM      8  C   UNL     1     -10.133  -5.849   6.283  1.00  0.00    -0.000 C 
BRANCH   8   9
ATOM      9  C   UNL     1     -10.327  -6.599   4.959  1.00  0.00    -0.003 C 
ATOM     10  C   UNL     1      -9.463  -7.855   4.907  1.00  0.00     0.004 C 
ENDBRANCH   8   9
ENDBRANCH   7   8
ENDBRANCH   1   7
TORSDOF 6
ENDMDL
MODEL 6
REMARK VINA RESULT:    -3.747      3.474      5.575
REMARK INTER + INTRA:          -5.338
REMARK INTER:                  -5.036
REMARK INTRA:                  -0.302
REMARK UNBOUND:                -0.276
REMARK SMILES CCCCCCCC(=O)[O-]
REMARK SMILES IDX 5 1 6 2 7 3 8 4 9 5 10 6 4 7 3 8 2 9 1 10
REMARK H PARENT
REMARK Flexibility Score: inf
ROOT
ATOM      1  C   UNL     1      -9.762  -3.100   3.062  1.00  0.00     0.000 C 
ENDROOT
BRANCH   1   2
ATOM      2  C   UNL     1      -9.721  -1.844   2.168  1.00  0.00     0.006 C 
BRANCH   2   3
ATOM      3  C   UNL     1      -9.065  -0.617   2.821  1.00  0.00     0.053 C 
BRANCH   3   4
ATOM      4  C   UNL     1     -10.077   0.310   3.419  1.00  0.00     0.041 C 
ATOM      5  O   UNL     1     -10.540   0.086   4.568  1.00  0.00    -0.550 OA
ATOM      6  O   UNL     1     -10.536   1.402   2.693  1.00  0.00    -0.550 OA
ENDBRANCH   3   4
ENDBRANCH   2   3
ENDBRANCH   1   2
BRANCH   1   7
ATOM      7  C   UNL     1      -8.728  -3.122   4.203  1.00  0.00     0.000 C 
BRANCH   7   8
ATOM      8  C   UNL     1      -9.350  -3.452   5.568  1.00  0.00    -0.000 C 
BRANCH   8   9
ATOM      9  C   UNL     1      -8.415  -4.344   6.394  1.00  0.00    -0.003 C 
ATOM     10  C   UNL     1      -9.070  -5.686   6.709  1.00  0.00     0.004 C 
ENDBRANCH   8   9
ENDBRANCH   7   8
ENDBRANCH   1   7
TORSDOF 6
ENDMDL
MODEL 7
REMARK VINA RESULT:    -3.713      2.838      5.533
REMARK INTER + INTRA:          -5.291
REMARK INTER:                  -5.024
REMARK INTRA:                  -0.267
REMARK UNBOUND:                -0.276
REMARK SMILES CCCCCCCC(=O)[O-]
REMARK SMILES IDX 5 1 6 2 7 3 8 4 9 5 10 6 4 7 3 8 2 9 1 10
REMARK H PARENT
REMARK Flexibility Score: inf
ROOT
ATOM      1  C   UNL     1      -8.621  -4.478   6.353  1.00  0.00     0.000 C 
ENDROOT
BRANCH   1   2
ATOM      2  C   UNL     1      -8.607  -3.554   5.119  1.00  0.00     0.006 C 
BRANCH   2   3
ATOM      3  C   UNL     1      -9.323  -4.126   3.885  1.00  0.00     0.053 C 
BRANCH   3   4
ATOM      4  C   UNL     1      -9.997  -3.057   3.082  1.00  0.00     0.041 C 
ATOM      5  O   UNL     1     -11.223  -3.148   2.807  1.00  0.00    -0.550 OA
ATOM      6  O   UNL     1      -9.265  -1.976   2.607  1.00  0.00    -0.550 OA
ENDBRANCH   3   4
ENDBRANCH   2   3
ENDBRANCH   1   2
BRANCH   1   7
ATOM      7  C   UNL     1      -9.601  -5.662   6.270  1.00  0.00     0.000 C 
BRANCH   7   8
ATOM      8  C   UNL     1      -8.958  -7.000   6.661  1.00  0.00    -0.000 C 
BRANCH   8   9
ATOM      9  C   UNL     1      -8.934  -7.965   5.470  1.00  0.00    -0.003 C 
ATOM     10  C   UNL     1      -7.842  -9.019   5.636  1.00  0.00     0.004 C 
ENDBRANCH   8   9
ENDBRANCH   7   8
ENDBRANCH   1   7
TORSDOF 6
ENDMDL
MODEL 8
REMARK VINA RESULT:    -3.631      4.267      6.038
REMARK INTER + INTRA:          -5.181
REMARK INTER:                  -4.827
REMARK INTRA:                  -0.354
REMARK UNBOUND:                -0.276
REMARK SMILES CCCCCCCC(=O)[O-]
REMARK SMILES IDX 5 1 6 2 7 3 8 4 9 5 10 6 4 7 3 8 2 9 1 10
REMARK H PARENT
REMARK Flexibility Score: inf
ROOT
ATOM      1  C   UNL     1      -8.930  -1.508   2.387  1.00  0.00     0.000 C 
ENDROOT
BRANCH   1   2
ATOM      2  C   UNL     1      -9.322  -0.089   1.926  1.00  0.00     0.006 C 
BRANCH   2   3
ATOM      3  C   UNL     1     -10.049   0.749   2.989  1.00  0.00     0.053 C 
BRANCH   3   4
ATOM      4  C   UNL     1     -11.389   1.219   2.514  1.00  0.00     0.041 C 
ATOM      5  O   UNL     1     -12.145   0.438   1.876  1.00  0.00    -0.550 OA
ATOM      6  O   UNL     1     -11.791   2.528   2.745  1.00  0.00    -0.550 OA
ENDBRANCH   3   4
ENDBRANCH   2   3
ENDBRANCH   1   2
BRANCH   1   7
ATOM      7  C   UNL     1     -10.107  -2.481   2.575  1.00  0.00     0.000 C 
BRANCH   7   8
ATOM      8  C   UNL     1      -9.862  -3.509   3.689  1.00  0.00    -0.000 C 
BRANCH   8   9
ATOM      9  C   UNL     1      -8.551  -3.215   4.428  1.00  0.00    -0.003 C 
ATOM     10  C   UNL     1      -8.546  -3.850   5.815  1.00  0.00     0.004 C 
ENDBRANCH   8   9
ENDBRANCH   7   8
ENDBRANCH   1   7
TORSDOF 6
ENDMDL
MODEL 9
REMARK VINA RESULT:    -3.567      1.478      2.219
REMARK INTER + INTRA:          -5.094
REMARK INTER:                  -4.924
REMARK INTRA:                  -0.170
REMARK UNBOUND:                -0.276
REMARK SMILES CCCCCCCC(=O)[O-]
REMARK SMILES IDX 5 1 6 2 7 3 8 4 9 5 10 6 4 7 3 8 2 9 1 10
REMARK H PARENT
REMARK Flexibility Score: inf
ROOT
ATOM      1  C   UNL     1      -9.380  -4.021   5.255  1.00  0.00     0.000 C 
ENDROOT
BRANCH   1   2
ATOM      2  C   UNL     1      -8.638  -4.813   6.350  1.00  0.00     0.006 C 
BRANCH   2   3
ATOM      3  C   UNL     1      -9.348  -6.100   6.799  1.00  0.00     0.053 C 
BRANCH   3   4
ATOM      4  C   UNL     1      -9.043  -7.254   5.896  1.00  0.00     0.041 C 
ATOM      5  O   UNL     1      -9.739  -7.455   4.866  1.00  0.00    -0.550 OA
ATOM      6  O   UNL     1      -8.010  -8.130   6.209  1.00  0.00    -0.550 OA
ENDBRANCH   3   4
ENDBRANCH   2   3
ENDBRANCH   1   2
BRANCH   1   7
ATOM      7  C   UNL     1      -8.471  -3.279   4.258  1.00  0.00     0.000 C 
BRANCH   7   8
ATOM      8  C   UNL     1      -9.199  -2.156   3.506  1.00  0.00    -0.000 C 
BRANCH   8   9
ATOM      9  C   UNL     1     -10.179  -2.731   2.476  1.00  0.00    -0.003 C 
ATOM     10  C   UNL     1     -11.196  -1.681   2.037  1.00  0.00     0.004 C 
ENDBRANCH   8   9
ENDBRANCH   7   8
ENDBRANCH   1   7
TORSDOF 6
ENDMDL
