MODEL 1
REMARK VINA RESULT:    -3.691      0.000      0.000
REMARK INTER + INTRA:          -5.776
REMARK INTER:                  -5.201
REMARK INTRA:                  -0.575
REMARK UNBOUND:                -0.575
REMARK SMILES C=CCCCCCCC(=O)[O-]
REMARK SMILES IDX 6 1 7 2 8 3 9 4 10 5 11 6 5 7 4 8 3 9 2 10 1 11
REMARK H PARENT
REMARK Flexibility Score: inf
ROOT
ATOM      1  C   UNL     1     105.079  11.262  14.968  1.00  0.00     0.000 C 
ENDROOT
BRANCH   1   2
ATOM      2  C   UNL     1     103.977  12.187  15.512  1.00  0.00     0.006 C 
BRANCH   2   3
ATOM      3  C   UNL     1     103.464  11.754  16.892  1.00  0.00     0.053 C 
BRANCH   3   4
ATOM      4  C   UNL     1     102.098  11.155  16.776  1.00  0.00     0.041 C 
ATOM      5  O   UNL     1     101.541  10.646  17.783  1.00  0.00    -0.550 OA
ATOM      6  O   UNL     1     101.420  11.202  15.564  1.00  0.00    -0.550 OA
ENDBRANCH   3   4
ENDBRANCH   2   3
ENDBRANCH   1   2
BRANCH   1   7
ATOM      7  C   UNL     1     106.493  11.533  15.523  1.00  0.00     0.000 C 
BRANCH   7   8
ATOM      8  C   UNL     1     107.022  10.474  16.506  1.00  0.00     0.004 C 
BRANCH   8   9
ATOM      9  C   UNL     1     107.689  11.089  17.745  1.00  0.00     0.027 C 
BRANCH   9  10
ATOM     10  C   UNL     1     106.956  12.322  18.199  1.00  0.00    -0.035 C 
ATOM     11  C   UNL     1     106.961  12.712  19.477  1.00  0.00     0.004 C 
ENDBRANCH   9  10
ENDBRANCH   8   9
ENDBRANCH   7   8
ENDBRANCH   1   7
TORSDOF 7
ENDMDL
MODEL 2
REMARK VINA RESULT:    -3.654     11.207     13.061
REMARK INTER + INTRA:          -5.724
REMARK INTER:                  -4.884
REMARK INTRA:                  -0.840
REMARK UNBOUND:                -0.575
REMARK SMILES C=CCCCCCCC(=O)[O-]
REMARK SMILES IDX 6 1 7 2 8 3 9 4 10 5 11 6 5 7 4 8 3 9 2 10 1 11
REMARK H PARENT
REMARK Flexibility Score: inf
ROOT
ATOM      1  C   UNL     1      99.039   4.985  22.906  1.00  0.00     0.000 C 
ENDROOT
BRANCH   1   2
ATOM      2  C   UNL     1      97.633   5.609  22.939  1.00  0.00     0.006 C 
BRANCH   2   3
ATOM      3  C   UNL     1      97.213   6.055  24.346  1.00  0.00     0.053 C 
BRANCH   3   4
ATOM      4  C   UNL     1      95.729   5.947  24.505  1.00  0.00     0.041 C 
ATOM      5  O   UNL     1      94.965   6.269  23.559  1.00  0.00    -0.550 OA
ATOM      6  O   UNL     1      95.192   5.443  25.684  1.00  0.00    -0.550 OA
ENDBRANCH   3   4
ENDBRANCH   2   3
ENDBRANCH   1   2
BRANCH   1   7
ATOM      7  C   UNL     1      99.389   4.098  24.119  1.00  0.00     0.000 C 
BRANCH   7   8
ATOM      8  C   UNL     1      99.155   2.591  23.913  1.00  0.00     0.004 C 
BRANCH   8   9
ATOM      9  C   UNL     1      98.333   1.955  25.044  1.00  0.00     0.027 C 
BRANCH   9  10
ATOM     10  C   UNL     1      96.898   2.400  24.988  1.00  0.00    -0.035 C 
ATOM     11  C   UNL     1      96.157   2.248  23.885  1.00  0.00     0.004 C 
ENDBRANCH   9  10
ENDBRANCH   8   9
ENDBRANCH   7   8
ENDBRANCH   1   7
TORSDOF 7
ENDMDL
MODEL 3
REMARK VINA RESULT:    -3.651     11.540     13.695
REMARK INTER + INTRA:          -5.720
REMARK INTER:                  -4.966
REMARK INTRA:                  -0.754
REMARK UNBOUND:                -0.575
REMARK SMILES C=CCCCCCCC(=O)[O-]
REMARK SMILES IDX 6 1 7 2 8 3 9 4 10 5 11 6 5 7 4 8 3 9 2 10 1 11
REMARK H PARENT
REMARK Flexibility Score: inf
ROOT
ATOM      1  C   UNL     1      96.880   5.018  26.099  1.00  0.00     0.000 C 
ENDROOT
BRANCH   1   2
ATOM      2  C   UNL     1      97.224   3.529  26.273  1.00  0.00     0.006 C 
BRANCH   2   3
ATOM      3  C   UNL     1      98.174   3.006  25.187  1.00  0.00     0.053 C 
BRANCH   3   4
ATOM      4  C   UNL     1      97.499   1.952  24.367  1.00  0.00     0.041 C 
ATOM      5  O   UNL     1      98.128   0.919  24.021  1.00  0.00    -0.550 OA
ATOM      6  O   UNL     1      96.159   2.090  24.026  1.00  0.00    -0.550 OA
ENDBRANCH   3   4
ENDBRANCH   2   3
ENDBRANCH   1   2
BRANCH   1   7
ATOM      7  C   UNL     1      95.497   5.302  25.475  1.00  0.00     0.000 C 
BRANCH   7   8
ATOM      8  C   UNL     1      95.525   6.118  24.171  1.00  0.00     0.004 C 
BRANCH   8   9
ATOM      9  C   UNL     1      96.326   5.431  23.054  1.00  0.00     0.027 C 
BRANCH   9  10
ATOM     10  C   UNL     1      97.599   6.177  22.762  1.00  0.00    -0.035 C 
ATOM     11  C   UNL     1      98.740   5.538  22.485  1.00  0.00     0.004 C 
ENDBRANCH   9  10
ENDBRANCH   8   9
ENDBRANCH   7   8
ENDBRANCH   1   7
TORSDOF 7
ENDMDL
MODEL 4
REMARK VINA RESULT:    -3.639     12.407     13.949
REMARK INTER + INTRA:          -5.703
REMARK INTER:                  -5.255
REMARK INTRA:                  -0.448
REMARK UNBOUND:                -0.575
REMARK SMILES C=CCCCCCCC(=O)[O-]
REMARK SMILES IDX 6 1 7 2 8 3 9 4 10 5 11 6 5 7 4 8 3 9 2 10 1 11
REMARK H PARENT
REMARK Flexibility Score: inf
ROOT
ATOM      1  C   UNL     1      96.422   4.157  25.370  1.00  0.00     0.000 C 
ENDROOT
BRANCH   1   2
ATOM      2  C   UNL     1      96.164   3.292  24.124  1.00  0.00     0.006 C 
BRANCH   2   3
ATOM      3  C   UNL     1      96.875   1.934  24.185  1.00  0.00     0.053 C 
BRANCH   3   4
ATOM      4  C   UNL     1      98.332   2.120  24.471  1.00  0.00     0.041 C 
ATOM      5  O   UNL     1      98.848   1.602  25.495  1.00  0.00    -0.550 OA
ATOM      6  O   UNL     1      99.129   2.828  23.580  1.00  0.00    -0.550 OA
ENDBRANCH   3   4
ENDBRANCH   2   3
ENDBRANCH   1   2
BRANCH   1   7
ATOM      7  C   UNL     1      95.381   5.268  25.622  1.00  0.00     0.000 C 
BRANCH   7   8
ATOM      8  C   UNL     1      95.882   6.700  25.364  1.00  0.00     0.004 C 
BRANCH   8   9
ATOM      9  C   UNL     1      96.119   6.990  23.875  1.00  0.00     0.027 C 
BRANCH   9  10
ATOM     10  C   UNL     1      94.882   6.714  23.065  1.00  0.00    -0.035 C 
ATOM     11  C   UNL     1      94.804   7.031  21.769  1.00  0.00     0.004 C 
ENDBRANCH   9  10
ENDBRANCH   8   9
ENDBRANCH   7   8
ENDBRANCH   1   7
TORSDOF 7
ENDMDL
MODEL 5
REMARK VINA RESULT:    -3.635     12.006     13.806
REMARK INTER + INTRA:          -5.698
REMARK INTER:                  -4.992
REMARK INTRA:                  -0.706
REMARK UNBOUND:                -0.575
REMARK SMILES C=CCCCCCCC(=O)[O-]
REMARK SMILES IDX 6 1 7 2 8 3 9 4 10 5 11 6 5 7 4 8 3 9 2 10 1 11
REMARK H PARENT
REMARK Flexibility Score: inf
ROOT
ATOM      1  C   UNL     1     100.496   3.767  24.902  1.00  0.00     0.000 C 
ENDROOT
BRANCH   1   2
ATOM      2  C   UNL     1     100.756   2.355  25.455  1.00  0.00     0.006 C 
BRANCH   2   3
ATOM      3  C   UNL     1      99.467   1.545  25.650  1.00  0.00     0.053 C 
BRANCH   3   4
ATOM      4  C   UNL     1      99.473   0.337  24.768  1.00  0.00     0.041 C 
ATOM      5  O   UNL     1      99.006   0.401  23.601  1.00  0.00    -0.550 OA
ATOM      6  O   UNL     1     100.039  -0.849  25.219  1.00  0.00    -0.550 OA
ENDBRANCH   3   4
ENDBRANCH   2   3
ENDBRANCH   1   2
BRANCH   1   7
ATOM      7  C   UNL     1      99.959   3.815  23.456  1.00  0.00     0.000 C 
BRANCH   7   8
ATOM      8  C   UNL     1      98.742   4.732  23.243  1.00  0.00     0.004 C 
BRANCH   8   9
ATOM      9  C   UNL     1      97.711   4.628  24.376  1.00  0.00     0.027 C 
BRANCH   9  10
ATOM     10  C   UNL     1      96.421   4.033  23.882  1.00  0.00    -0.035 C 
ATOM     11  C   UNL     1      96.201   2.715  23.901  1.00  0.00     0.004 C 
ENDBRANCH   9  10
ENDBRANCH   8   9
ENDBRANCH   7   8
ENDBRANCH   1   7
TORSDOF 7
ENDMDL
MODEL 6
REMARK VINA RESULT:    -3.589     11.833     13.241
REMARK INTER + INTRA:          -5.632
REMARK INTER:                  -4.945
REMARK INTRA:                  -0.687
REMARK UNBOUND:                -0.575
REMARK SMILES C=CCCCCCCC(=O)[O-]
REMARK SMILES IDX 6 1 7 2 8 3 9 4 10 5 11 6 5 7 4 8 3 9 2 10 1 11
REMARK H PARENT
REMARK Flexibility Score: inf
ROOT
ATOM      1  C   UNL     1      99.417   3.649  25.784  1.00  0.00     0.000 C 
ENDROOT
BRANCH   1   2
ATOM      2  C   UNL     1      98.352   2.552  25.605  1.00  0.00     0.006 C 
BRANCH   2   3
ATOM      3  C   UNL     1      96.921   3.105  25.622  1.00  0.00     0.053 C 
BRANCH   3   4
ATOM      4  C   UNL     1      96.362   3.149  24.235  1.00  0.00     0.041 C 
ATOM      5  O   UNL     1      96.025   2.085  23.653  1.00  0.00    -0.550 OA
ATOM      6  O   UNL     1      96.170   4.371  23.602  1.00  0.00    -0.550 OA
ENDBRANCH   3   4
ENDBRANCH   2   3
ENDBRANCH   1   2
BRANCH   1   7
ATOM      7  C   UNL     1      99.914   4.297  24.474  1.00  0.00     0.000 C 
BRANCH   7   8
ATOM      8  C   UNL     1      99.957   3.357  23.257  1.00  0.00     0.004 C 
BRANCH   8   9
ATOM      9  C   UNL     1     101.216   2.477  23.228  1.00  0.00     0.027 C 
BRANCH   9  10
ATOM     10  C   UNL     1     100.860   1.018  23.317  1.00  0.00    -0.035 C 
ATOM     11  C   UNL     1     101.121   0.296  24.411  1.00  0.00     0.004 C 
ENDBRANCH   9  10
ENDBRANCH   8   9
ENDBRANCH   7   8
ENDBRANCH   1   7
TORSDOF 7
ENDMDL
MODEL 7
REMARK VINA RESULT:    -3.579     11.706     13.292
REMARK INTER + INTRA:          -5.618
REMARK INTER:                  -4.955
REMARK INTRA:                  -0.663
REMARK UNBOUND:                -0.575
REMARK SMILES C=CCCCCCCC(=O)[O-]
REMARK SMILES IDX 6 1 7 2 8 3 9 4 10 5 11 6 5 7 4 8 3 9 2 10 1 11
REMARK H PARENT
REMARK Flexibility Score: inf
ROOT
ATOM      1  C   UNL     1      98.704   5.111  22.915  1.00  0.00     0.000 C 
ENDROOT
BRANCH   1   2
ATOM      2  C   UNL     1      98.745   4.270  24.202  1.00  0.00     0.006 C 
BRANCH   2   3
ATOM      3  C   UNL     1      97.817   3.049  24.145  1.00  0.00     0.053 C 
BRANCH   3   4
ATOM      4  C   UNL     1      98.523   1.833  24.656  1.00  0.00     0.041 C 
ATOM      5  O   UNL     1      99.123   1.866  25.762  1.00  0.00    -0.550 OA
ATOM      6  O   UNL     1      98.475   0.648  23.933  1.00  0.00    -0.550 OA
ENDBRANCH   3   4
ENDBRANCH   2   3
ENDBRANCH   1   2
BRANCH   1   7
ATOM      7  C   UNL     1      97.692   6.276  22.927  1.00  0.00     0.000 C 
BRANCH   7   8
ATOM      8  C   UNL     1      96.260   5.899  22.512  1.00  0.00     0.004 C 
BRANCH   8   9
ATOM      9  C   UNL     1      95.195   6.451  23.472  1.00  0.00     0.027 C 
BRANCH   9  10
ATOM     10  C   UNL     1      95.671   6.398  24.898  1.00  0.00    -0.035 C 
ATOM     11  C   UNL     1      95.360   5.379  25.706  1.00  0.00     0.004 C 
ENDBRANCH   9  10
ENDBRANCH   8   9
ENDBRANCH   7   8
ENDBRANCH   1   7
TORSDOF 7
ENDMDL
MODEL 8
REMARK VINA RESULT:    -3.579     11.380     13.266
REMARK INTER + INTRA:          -5.618
REMARK INTER:                  -4.834
REMARK INTRA:                  -0.784
REMARK UNBOUND:                -0.575
REMARK SMILES C=CCCCCCCC(=O)[O-]
REMARK SMILES IDX 6 1 7 2 8 3 9 4 10 5 11 6 5 7 4 8 3 9 2 10 1 11
REMARK H PARENT
REMARK Flexibility Score: inf
ROOT
ATOM      1  C   UNL     1      97.583   3.841  26.459  1.00  0.00     0.000 C 
ENDROOT
BRANCH   1   2
ATOM      2  C   UNL     1      97.128   5.310  26.435  1.00  0.00     0.006 C 
BRANCH   2   3
ATOM      3  C   UNL     1      95.667   5.474  25.995  1.00  0.00     0.053 C 
BRANCH   3   4
ATOM      4  C   UNL     1      95.580   6.368  24.799  1.00  0.00     0.041 C 
ATOM      5  O   UNL     1      95.402   5.879  23.653  1.00  0.00    -0.550 OA
ATOM      6  O   UNL     1      95.645   7.747  24.957  1.00  0.00    -0.550 OA
ENDBRANCH   3   4
ENDBRANCH   2   3
ENDBRANCH   1   2
BRANCH   1   7
ATOM      7  C   UNL     1      96.868   2.918  25.451  1.00  0.00     0.000 C 
BRANCH   7   8
ATOM      8  C   UNL     1      97.424   2.964  24.017  1.00  0.00     0.004 C 
BRANCH   8   9
ATOM      9  C   UNL     1      98.956   2.863  23.967  1.00  0.00     0.027 C 
BRANCH   9  10
ATOM     10  C   UNL     1      99.558   4.075  23.309  1.00  0.00    -0.035 C 
ATOM     11  C   UNL     1      98.819   5.140  22.987  1.00  0.00     0.004 C 
ENDBRANCH   9  10
ENDBRANCH   8   9
ENDBRANCH   7   8
ENDBRANCH   1   7
TORSDOF 7
ENDMDL
MODEL 9
REMARK VINA RESULT:    -3.562     11.910     13.605
REMARK INTER + INTRA:          -5.595
REMARK INTER:                  -4.677
REMARK INTRA:                  -0.918
REMARK UNBOUND:                -0.575
REMARK SMILES C=CCCCCCCC(=O)[O-]
REMARK SMILES IDX 6 1 7 2 8 3 9 4 10 5 11 6 5 7 4 8 3 9 2 10 1 11
REMARK H PARENT
REMARK Flexibility Score: inf
ROOT
ATOM      1  C   UNL     1      97.726   5.202  27.094  1.00  0.00     0.000 C 
ENDROOT
BRANCH   1   2
ATOM      2  C   UNL     1      96.950   5.629  25.836  1.00  0.00     0.006 C 
BRANCH   2   3
ATOM      3  C   UNL     1      95.850   4.631  25.449  1.00  0.00     0.053 C 
BRANCH   3   4
ATOM      4  C   UNL     1      96.075   4.121  24.060  1.00  0.00     0.041 C 
ATOM      5  O   UNL     1      96.392   4.915  23.136  1.00  0.00    -0.550 OA
ATOM      6  O   UNL     1      95.982   2.760  23.797  1.00  0.00    -0.550 OA
ENDBRANCH   3   4
ENDBRANCH   2   3
ENDBRANCH   1   2
BRANCH   1   7
ATOM      7  C   UNL     1      98.038   3.694  27.190  1.00  0.00     0.000 C 
BRANCH   7   8
ATOM      8  C   UNL     1      99.324   3.248  26.473  1.00  0.00     0.004 C 
BRANCH   8   9
ATOM      9  C   UNL     1      99.069   2.181  25.397  1.00  0.00     0.027 C 
BRANCH   9  10
ATOM     10  C   UNL     1      99.490   2.669  24.038  1.00  0.00    -0.035 C 
ATOM     11  C   UNL     1      99.813   3.948  23.820  1.00  0.00     0.004 C 
ENDBRANCH   9  10
ENDBRANCH   8   9
ENDBRANCH   7   8
ENDBRANCH   1   7
TORSDOF 7
ENDMDL
