MODEL 1
REMARK VINA RESULT:    -6.412      0.000      0.000
REMARK INTER + INTRA:          -7.833
REMARK INTER:                  -7.536
REMARK INTRA:                  -0.296
REMARK UNBOUND:                -0.296
REMARK SMILES O=c1cc(-c2ccc(O)c(O)c2)oc2cc(O)cc(O)c12
REMARK SMILES IDX 4 1 3 2 2 3 1 4 21 5 19 6 18 7 16 8 15 9 14 10 13 11 5 12
REMARK SMILES IDX 6 13 7 14 8 15 12 16 10 17 9 18 11 20 20 22 17 24
REMARK H PARENT 9 19 11 21 20 23 17 25
REMARK Flexibility Score: inf
ROOT
ATOM      1  C   UNL     1     121.067 125.160 138.527  1.00  0.00     0.138 A 
ATOM      2  C   UNL     1     120.892 126.286 139.343  1.00  0.00     0.100 A 
ATOM      3  C   UNL     1     120.723 126.122 140.719  1.00  0.00     0.197 A 
ATOM      4  O   UNL     1     120.624 127.155 141.430  1.00  0.00    -0.289 OA
ATOM      5  C   UNL     1     120.693 124.821 141.275  1.00  0.00     0.107 A 
ATOM      6  C   UNL     1     120.493 124.531 142.658  1.00  0.00     0.134 A 
ATOM      7  C   UNL     1     120.582 123.206 143.104  1.00  0.00     0.093 A 
ATOM      8  C   UNL     1     120.806 122.157 142.210  1.00  0.00     0.123 A 
ATOM      9  C   UNL     1     120.953 122.424 140.852  1.00  0.00     0.094 A 
ATOM     10  C   UNL     1     120.904 123.738 140.379  1.00  0.00     0.146 A 
ATOM     11  O   UNL     1     121.067 123.950 139.077  1.00  0.00    -0.456 OA
ENDROOT
BRANCH   1  12
ATOM     12  C   UNL     1     121.248 125.276 137.058  1.00  0.00     0.021 A 
ATOM     13  C   UNL     1     121.560 124.127 136.309  1.00  0.00     0.016 A 
ATOM     14  C   UNL     1     121.743 124.209 134.926  1.00  0.00     0.051 A 
ATOM     15  C   UNL     1     121.628 125.437 134.269  1.00  0.00     0.157 A 
ATOM     16  C   UNL     1     121.147 126.513 136.393  1.00  0.00     0.062 A 
ATOM     17  C   UNL     1     121.332 126.595 135.005  1.00  0.00     0.158 A 
BRANCH  15  18
ATOM     18  O   UNL     1     121.814 125.487 132.888  1.00  0.00    -0.504 OA
ATOM     19  H   UNL     1     122.331 126.235 132.441  1.00  0.00     0.293 HD
ENDBRANCH  15  18
BRANCH  17  20
ATOM     20  O   UNL     1     121.226 127.825 134.356  1.00  0.00    -0.504 OA
ATOM     21  H   UNL     1     120.492 128.485 134.584  1.00  0.00     0.293 HD
ENDBRANCH  17  20
ENDBRANCH   1  12
BRANCH   6  22
ATOM     22  O   UNL     1     120.185 125.493 143.624  1.00  0.00    -0.507 OA
ATOM     23  H   UNL     1     120.862 126.009 144.165  1.00  0.00     0.293 HD
ENDBRANCH   6  22
BRANCH   8  24
ATOM     24  O   UNL     1     120.878 120.841 142.663  1.00  0.00    -0.508 OA
ATOM     25  H   UNL     1     121.669 120.247 142.443  1.00  0.00     0.293 HD
ENDBRANCH   8  24
TORSDOF 5
ENDMDL
MODEL 2
REMARK VINA RESULT:    -6.376      1.589      1.958
REMARK INTER + INTRA:          -7.791
REMARK INTER:                  -7.520
REMARK INTRA:                  -0.271
REMARK UNBOUND:                -0.296
REMARK SMILES O=c1cc(-c2ccc(O)c(O)c2)oc2cc(O)cc(O)c12
REMARK SMILES IDX 4 1 3 2 2 3 1 4 21 5 19 6 18 7 16 8 15 9 14 10 13 11 5 12
REMARK SMILES IDX 6 13 7 14 8 15 12 16 10 17 9 18 11 20 20 22 17 24
REMARK H PARENT 9 19 11 21 20 23 17 25
REMARK Flexibility Score: inf
ROOT
ATOM      1  C   UNL     1     121.418 124.808 139.797  1.00  0.00     0.138 A 
ATOM      2  C   UNL     1     120.489 125.403 140.661  1.00  0.00     0.100 A 
ATOM      3  C   UNL     1     120.247 124.835 141.913  1.00  0.00     0.197 A 
ATOM      4  O   UNL     1     119.448 125.424 142.686  1.00  0.00    -0.289 OA
ATOM      5  C   UNL     1     120.914 123.644 142.286  1.00  0.00     0.107 A 
ATOM      6  C   UNL     1     120.722 122.956 143.523  1.00  0.00     0.134 A 
ATOM      7  C   UNL     1     121.513 121.840 143.821  1.00  0.00     0.093 A 
ATOM      8  C   UNL     1     122.448 121.352 142.904  1.00  0.00     0.123 A 
ATOM      9  C   UNL     1     122.607 121.986 141.675  1.00  0.00     0.094 A 
ATOM     10  C   UNL     1     121.858 123.123 141.361  1.00  0.00     0.146 A 
ATOM     11  O   UNL     1     122.055 123.708 140.184  1.00  0.00    -0.456 OA
ENDROOT
BRANCH   1  12
ATOM     12  C   UNL     1     121.712 125.368 138.454  1.00  0.00     0.021 A 
ATOM     13  C   UNL     1     121.581 124.546 137.320  1.00  0.00     0.016 A 
ATOM     14  C   UNL     1     121.858 125.046 136.045  1.00  0.00     0.051 A 
ATOM     15  C   UNL     1     122.280 126.368 135.879  1.00  0.00     0.157 A 
ATOM     16  C   UNL     1     122.149 126.695 138.283  1.00  0.00     0.062 A 
ATOM     17  C   UNL     1     122.429 127.196 137.003  1.00  0.00     0.158 A 
BRANCH  15  18
ATOM     18  O   UNL     1     122.547 126.838 134.594  1.00  0.00    -0.504 OA
ATOM     19  H   UNL     1     121.950 126.617 133.806  1.00  0.00     0.293 HD
ENDBRANCH  15  18
BRANCH  17  20
ATOM     20  O   UNL     1     122.859 128.513 136.845  1.00  0.00    -0.504 OA
ATOM     21  H   UNL     1     123.841 128.743 136.743  1.00  0.00     0.293 HD
ENDBRANCH  17  20
ENDBRANCH   1  12
BRANCH   6  22
ATOM     22  O   UNL     1     119.762 123.310 144.475  1.00  0.00    -0.507 OA
ATOM     23  H   UNL     1     119.963 123.673 145.394  1.00  0.00     0.293 HD
ENDBRANCH   6  22
BRANCH   8  24
ATOM     24  O   UNL     1     123.219 120.231 143.204  1.00  0.00    -0.508 OA
ATOM     25  H   UNL     1     124.171 120.317 143.540  1.00  0.00     0.293 HD
ENDBRANCH   8  24
TORSDOF 5
ENDMDL
MODEL 3
REMARK VINA RESULT:    -6.333      1.898      3.349
REMARK INTER + INTRA:          -7.740
REMARK INTER:                  -7.464
REMARK INTRA:                  -0.275
REMARK UNBOUND:                -0.296
REMARK SMILES O=c1cc(-c2ccc(O)c(O)c2)oc2cc(O)cc(O)c12
REMARK SMILES IDX 4 1 3 2 2 3 1 4 21 5 19 6 18 7 16 8 15 9 14 10 13 11 5 12
REMARK SMILES IDX 6 13 7 14 8 15 12 16 10 17 9 18 11 20 20 22 17 24
REMARK H PARENT 9 19 11 21 20 23 17 25
REMARK Flexibility Score: inf
ROOT
ATOM      1  C   UNL     1     121.676 125.505 138.116  1.00  0.00     0.138 A 
ATOM      2  C   UNL     1     121.088 124.442 138.815  1.00  0.00     0.100 A 
ATOM      3  C   UNL     1     120.894 124.545 140.194  1.00  0.00     0.197 A 
ATOM      4  O   UNL     1     120.314 123.597 140.783  1.00  0.00    -0.289 OA
ATOM      5  C   UNL     1     121.325 125.705 140.880  1.00  0.00     0.107 A 
ATOM      6  C   UNL     1     121.211 125.907 142.289  1.00  0.00     0.134 A 
ATOM      7  C   UNL     1     121.584 127.139 142.841  1.00  0.00     0.093 A 
ATOM      8  C   UNL     1     122.120 128.154 142.045  1.00  0.00     0.123 A 
ATOM      9  C   UNL     1     122.282 127.948 140.678  1.00  0.00     0.094 A 
ATOM     10  C   UNL     1     121.887 126.744 140.090  1.00  0.00     0.146 A 
ATOM     11  O   UNL     1     122.043 126.597 138.779  1.00  0.00    -0.456 OA
ENDROOT
BRANCH   1  12
ATOM     12  C   UNL     1     121.907 125.448 136.651  1.00  0.00     0.021 A 
ATOM     13  C   UNL     1     123.167 125.804 136.137  1.00  0.00     0.016 A 
ATOM     14  C   UNL     1     123.410 125.766 134.762  1.00  0.00     0.051 A 
ATOM     15  C   UNL     1     122.400 125.383 133.875  1.00  0.00     0.157 A 
ATOM     16  C   UNL     1     120.889 125.074 135.753  1.00  0.00     0.062 A 
ATOM     17  C   UNL     1     121.132 125.038 134.372  1.00  0.00     0.158 A 
BRANCH  15  18
ATOM     18  O   UNL     1     122.673 125.353 132.508  1.00  0.00    -0.504 OA
ATOM     19  H   UNL     1     122.745 124.484 131.993  1.00  0.00     0.293 HD
ENDBRANCH  15  18
BRANCH  17  20
ATOM     20  O   UNL     1     120.118 124.665 133.491  1.00  0.00    -0.504 OA
ATOM     21  H   UNL     1     119.443 123.947 133.731  1.00  0.00     0.293 HD
ENDBRANCH  17  20
ENDBRANCH   1  12
BRANCH   6  22
ATOM     22  O   UNL     1     120.764 124.934 143.187  1.00  0.00    -0.507 OA
ATOM     23  H   UNL     1     119.892 124.968 143.692  1.00  0.00     0.293 HD
ENDBRANCH   6  22
BRANCH   8  24
ATOM     24  O   UNL     1     122.502 129.371 142.607  1.00  0.00    -0.508 OA
ATOM     25  H   UNL     1     123.053 130.044 142.089  1.00  0.00     0.293 HD
ENDBRANCH   8  24
TORSDOF 5
ENDMDL
MODEL 4
REMARK VINA RESULT:    -6.327      2.191      7.214
REMARK INTER + INTRA:          -7.733
REMARK INTER:                  -7.437
REMARK INTRA:                  -0.296
REMARK UNBOUND:                -0.296
REMARK SMILES O=c1cc(-c2ccc(O)c(O)c2)oc2cc(O)cc(O)c12
REMARK SMILES IDX 4 1 3 2 2 3 1 4 21 5 19 6 18 7 16 8 15 9 14 10 13 11 5 12
REMARK SMILES IDX 6 13 7 14 8 15 12 16 10 17 9 18 11 20 20 22 17 24
REMARK H PARENT 9 19 11 21 20 23 17 25
REMARK Flexibility Score: inf
ROOT
ATOM      1  C   UNL     1     122.608 125.259 138.431  1.00  0.00     0.138 A 
ATOM      2  C   UNL     1     123.928 125.655 138.181  1.00  0.00     0.100 A 
ATOM      3  C   UNL     1     124.329 125.935 136.873  1.00  0.00     0.197 A 
ATOM      4  O   UNL     1     125.506 126.341 136.689  1.00  0.00    -0.289 OA
ATOM      5  C   UNL     1     123.412 125.781 135.807  1.00  0.00     0.107 A 
ATOM      6  C   UNL     1     123.718 126.005 134.431  1.00  0.00     0.134 A 
ATOM      7  C   UNL     1     122.699 125.916 133.475  1.00  0.00     0.093 A 
ATOM      8  C   UNL     1     121.398 125.557 133.837  1.00  0.00     0.123 A 
ATOM      9  C   UNL     1     121.101 125.288 135.170  1.00  0.00     0.094 A 
ATOM     10  C   UNL     1     122.087 125.401 136.153  1.00  0.00     0.146 A 
ATOM     11  O   UNL     1     121.756 125.153 137.416  1.00  0.00    -0.456 OA
ENDROOT
BRANCH   1  12
ATOM     12  C   UNL     1     122.128 124.946 139.801  1.00  0.00     0.021 A 
ATOM     13  C   UNL     1     122.945 124.195 140.663  1.00  0.00     0.016 A 
ATOM     14  C   UNL     1     122.515 123.881 141.955  1.00  0.00     0.051 A 
ATOM     15  C   UNL     1     121.260 124.302 142.405  1.00  0.00     0.157 A 
ATOM     16  C   UNL     1     120.859 125.357 140.254  1.00  0.00     0.062 A 
ATOM     17  C   UNL     1     120.427 125.040 141.550  1.00  0.00     0.158 A 
BRANCH  15  18
ATOM     18  O   UNL     1     120.859 123.974 143.700  1.00  0.00    -0.504 OA
ATOM     19  H   UNL     1     120.311 124.607 144.269  1.00  0.00     0.293 HD
ENDBRANCH  15  18
BRANCH  17  20
ATOM     20  O   UNL     1     119.170 125.454 141.990  1.00  0.00    -0.504 OA
ATOM     21  H   UNL     1     119.044 126.318 142.504  1.00  0.00     0.293 HD
ENDBRANCH  17  20
ENDBRANCH   1  12
BRANCH   6  22
ATOM     22  O   UNL     1     124.999 126.291 133.949  1.00  0.00    -0.507 OA
ATOM     23  H   UNL     1     125.239 127.088 133.379  1.00  0.00     0.293 HD
ENDBRANCH   6  22
BRANCH   8  24
ATOM     24  O   UNL     1     120.395 125.457 132.876  1.00  0.00    -0.508 OA
ATOM     25  H   UNL     1     120.075 126.266 132.357  1.00  0.00     0.293 HD
ENDBRANCH   8  24
TORSDOF 5
ENDMDL
MODEL 5
REMARK VINA RESULT:    -6.320      4.118      5.640
REMARK INTER + INTRA:          -7.725
REMARK INTER:                  -7.437
REMARK INTRA:                  -0.288
REMARK UNBOUND:                -0.296
REMARK SMILES O=c1cc(-c2ccc(O)c(O)c2)oc2cc(O)cc(O)c12
REMARK SMILES IDX 4 1 3 2 2 3 1 4 21 5 19 6 18 7 16 8 15 9 14 10 13 11 5 12
REMARK SMILES IDX 6 13 7 14 8 15 12 16 10 17 9 18 11 20 20 22 17 24
REMARK H PARENT 9 19 11 21 20 23 17 25
REMARK Flexibility Score: inf
ROOT
ATOM      1  C   UNL     1     123.285 124.127 142.696  1.00  0.00     0.138 A 
ATOM      2  C   UNL     1     123.401 124.894 143.863  1.00  0.00     0.100 A 
ATOM      3  C   UNL     1     124.220 124.449 144.902  1.00  0.00     0.197 A 
ATOM      4  O   UNL     1     124.346 125.187 145.914  1.00  0.00    -0.289 OA
ATOM      5  C   UNL     1     124.897 123.212 144.786  1.00  0.00     0.107 A 
ATOM      6  C   UNL     1     125.732 122.642 145.794  1.00  0.00     0.134 A 
ATOM      7  C   UNL     1     126.428 121.458 145.524  1.00  0.00     0.093 A 
ATOM      8  C   UNL     1     126.277 120.793 144.304  1.00  0.00     0.123 A 
ATOM      9  C   UNL     1     125.427 121.315 143.333  1.00  0.00     0.094 A 
ATOM     10  C   UNL     1     124.744 122.513 143.558  1.00  0.00     0.146 A 
ATOM     11  O   UNL     1     123.957 122.985 142.597  1.00  0.00    -0.456 OA
ENDROOT
BRANCH   1  12
ATOM     12  C   UNL     1     122.427 124.551 141.561  1.00  0.00     0.021 A 
ATOM     13  C   UNL     1     122.784 124.184 140.251  1.00  0.00     0.016 A 
ATOM     14  C   UNL     1     121.998 124.575 139.164  1.00  0.00     0.051 A 
ATOM     15  C   UNL     1     120.850 125.347 139.363  1.00  0.00     0.157 A 
ATOM     16  C   UNL     1     121.276 125.339 141.755  1.00  0.00     0.062 A 
ATOM     17  C   UNL     1     120.488 125.734 140.663  1.00  0.00     0.158 A 
BRANCH  15  18
ATOM     18  O   UNL     1     120.085 125.720 138.259  1.00  0.00    -0.504 OA
ATOM     19  H   UNL     1     119.688 126.648 138.168  1.00  0.00     0.293 HD
ENDBRANCH  15  18
BRANCH  17  20
ATOM     20  O   UNL     1     119.349 126.512 140.867  1.00  0.00    -0.504 OA
ATOM     21  H   UNL     1     118.666 126.279 141.578  1.00  0.00     0.293 HD
ENDBRANCH  17  20
ENDBRANCH   1  12
BRANCH   6  22
ATOM     22  O   UNL     1     125.893 123.179 147.074  1.00  0.00    -0.507 OA
ATOM     23  H   UNL     1     125.185 123.684 147.584  1.00  0.00     0.293 HD
ENDBRANCH   6  22
BRANCH   8  24
ATOM     24  O   UNL     1     126.963 119.607 144.051  1.00  0.00    -0.508 OA
ATOM     25  H   UNL     1     126.483 118.773 143.737  1.00  0.00     0.293 HD
ENDBRANCH   8  24
TORSDOF 5
ENDMDL
MODEL 6
REMARK VINA RESULT:    -6.301      2.239      7.294
REMARK INTER + INTRA:          -7.703
REMARK INTER:                  -7.419
REMARK INTRA:                  -0.284
REMARK UNBOUND:                -0.296
REMARK SMILES O=c1cc(-c2ccc(O)c(O)c2)oc2cc(O)cc(O)c12
REMARK SMILES IDX 4 1 3 2 2 3 1 4 21 5 19 6 18 7 16 8 15 9 14 10 13 11 5 12
REMARK SMILES IDX 6 13 7 14 8 15 12 16 10 17 9 18 11 20 20 22 17 24
REMARK H PARENT 9 19 11 21 20 23 17 25
REMARK Flexibility Score: inf
ROOT
ATOM      1  C   UNL     1     121.802 125.760 138.006  1.00  0.00     0.138 A 
ATOM      2  C   UNL     1     120.899 125.365 137.010  1.00  0.00     0.100 A 
ATOM      3  C   UNL     1     121.312 125.333 135.677  1.00  0.00     0.197 A 
ATOM      4  O   UNL     1     120.494 124.921 134.814  1.00  0.00    -0.289 OA
ATOM      5  C   UNL     1     122.625 125.735 135.336  1.00  0.00     0.107 A 
ATOM      6  C   UNL     1     123.145 125.777 134.008  1.00  0.00     0.134 A 
ATOM      7  C   UNL     1     124.493 126.097 133.805  1.00  0.00     0.093 A 
ATOM      8  C   UNL     1     125.324 126.434 134.876  1.00  0.00     0.123 A 
ATOM      9  C   UNL     1     124.813 126.445 136.171  1.00  0.00     0.094 A 
ATOM     10  C   UNL     1     123.482 126.096 136.411  1.00  0.00     0.146 A 
ATOM     11  O   UNL     1     123.040 126.102 137.665  1.00  0.00    -0.456 OA
ENDROOT
BRANCH   1  12
ATOM     12  C   UNL     1     121.417 125.814 139.439  1.00  0.00     0.021 A 
ATOM     13  C   UNL     1     120.841 124.682 140.042  1.00  0.00     0.016 A 
ATOM     14  C   UNL     1     120.463 124.708 141.387  1.00  0.00     0.051 A 
ATOM     15  C   UNL     1     120.642 125.865 142.150  1.00  0.00     0.157 A 
ATOM     16  C   UNL     1     121.584 126.982 140.208  1.00  0.00     0.062 A 
ATOM     17  C   UNL     1     121.202 127.009 141.558  1.00  0.00     0.158 A 
BRANCH  15  18
ATOM     18  O   UNL     1     120.257 125.860 143.490  1.00  0.00    -0.504 OA
ATOM     19  H   UNL     1     119.636 125.155 143.868  1.00  0.00     0.293 HD
ENDBRANCH  15  18
BRANCH  17  20
ATOM     20  O   UNL     1     121.374 128.169 142.311  1.00  0.00    -0.504 OA
ATOM     21  H   UNL     1     122.142 128.270 142.966  1.00  0.00     0.293 HD
ENDBRANCH  17  20
ENDBRANCH   1  12
BRANCH   6  22
ATOM     22  O   UNL     1     122.384 125.536 132.860  1.00  0.00    -0.507 OA
ATOM     23  H   UNL     1     121.807 126.219 132.393  1.00  0.00     0.293 HD
ENDBRANCH   6  22
BRANCH   8  24
ATOM     24  O   UNL     1     126.660 126.766 134.662  1.00  0.00    -0.508 OA
ATOM     25  H   UNL     1     126.932 127.443 133.959  1.00  0.00     0.293 HD
ENDBRANCH   8  24
TORSDOF 5
ENDMDL
MODEL 7
REMARK VINA RESULT:    -6.217      3.305      7.489
REMARK INTER + INTRA:          -7.604
REMARK INTER:                  -7.320
REMARK INTRA:                  -0.284
REMARK UNBOUND:                -0.296
REMARK SMILES O=c1cc(-c2ccc(O)c(O)c2)oc2cc(O)cc(O)c12
REMARK SMILES IDX 4 1 3 2 2 3 1 4 21 5 19 6 18 7 16 8 15 9 14 10 13 11 5 12
REMARK SMILES IDX 6 13 7 14 8 15 12 16 10 17 9 18 11 20 20 22 17 24
REMARK H PARENT 9 19 11 21 20 23 17 25
REMARK Flexibility Score: inf
ROOT
ATOM      1  C   UNL     1     122.822 123.369 142.590  1.00  0.00     0.138 A 
ATOM      2  C   UNL     1     121.826 124.098 143.253  1.00  0.00     0.100 A 
ATOM      3  C   UNL     1     120.952 124.900 142.517  1.00  0.00     0.197 A 
ATOM      4  O   UNL     1     120.034 125.499 143.135  1.00  0.00    -0.289 OA
ATOM      5  C   UNL     1     121.101 124.999 141.113  1.00  0.00     0.107 A 
ATOM      6  C   UNL     1     120.290 125.812 140.264  1.00  0.00     0.134 A 
ATOM      7  C   UNL     1     120.470 125.752 138.876  1.00  0.00     0.093 A 
ATOM      8  C   UNL     1     121.468 124.953 138.312  1.00  0.00     0.123 A 
ATOM      9  C   UNL     1     122.296 124.195 139.135  1.00  0.00     0.094 A 
ATOM     10  C   UNL     1     122.120 124.206 140.520  1.00  0.00     0.146 A 
ATOM     11  O   UNL     1     122.921 123.454 141.268  1.00  0.00    -0.456 OA
ENDROOT
BRANCH   1  12
ATOM     12  C   UNL     1     123.780 122.503 143.323  1.00  0.00     0.021 A 
ATOM     13  C   UNL     1     124.195 121.290 142.745  1.00  0.00     0.016 A 
ATOM     14  C   UNL     1     125.090 120.453 143.417  1.00  0.00     0.051 A 
ATOM     15  C   UNL     1     125.577 120.805 144.678  1.00  0.00     0.157 A 
ATOM     16  C   UNL     1     124.264 122.847 144.600  1.00  0.00     0.062 A 
ATOM     17  C   UNL     1     125.161 122.005 145.275  1.00  0.00     0.158 A 
BRANCH  15  18
ATOM     18  O   UNL     1     126.471 119.950 145.322  1.00  0.00    -0.504 OA
ATOM     19  H   UNL     1     127.387 119.743 144.943  1.00  0.00     0.293 HD
ENDBRANCH  15  18
BRANCH  17  20
ATOM     20  O   UNL     1     125.636 122.357 146.538  1.00  0.00    -0.504 OA
ATOM     21  H   UNL     1     126.529 122.024 146.881  1.00  0.00     0.293 HD
ENDBRANCH  17  20
ENDBRANCH   1  12
BRANCH   6  22
ATOM     22  O   UNL     1     119.319 126.704 140.726  1.00  0.00    -0.507 OA
ATOM     23  H   UNL     1     118.608 127.134 140.155  1.00  0.00     0.293 HD
ENDBRANCH   6  22
BRANCH   8  24
ATOM     24  O   UNL     1     121.648 124.911 136.930  1.00  0.00    -0.508 OA
ATOM     25  H   UNL     1     121.156 124.241 136.351  1.00  0.00     0.293 HD
ENDBRANCH   8  24
TORSDOF 5
ENDMDL
MODEL 8
REMARK VINA RESULT:    -6.173     15.168     17.713
REMARK INTER + INTRA:          -7.552
REMARK INTER:                  -7.255
REMARK INTRA:                  -0.296
REMARK UNBOUND:                -0.296
REMARK SMILES O=c1cc(-c2ccc(O)c(O)c2)oc2cc(O)cc(O)c12
REMARK SMILES IDX 4 1 3 2 2 3 1 4 21 5 19 6 18 7 16 8 15 9 14 10 13 11 5 12
REMARK SMILES IDX 6 13 7 14 8 15 12 16 10 17 9 18 11 20 20 22 17 24
REMARK H PARENT 9 19 11 21 20 23 17 25
REMARK Flexibility Score: inf
ROOT
ATOM      1  C   UNL     1     134.135 134.641 135.640  1.00  0.00     0.138 A 
ATOM      2  C   UNL     1     135.399 134.219 135.205  1.00  0.00     0.100 A 
ATOM      3  C   UNL     1     135.507 133.435 134.055  1.00  0.00     0.197 A 
ATOM      4  O   UNL     1     136.659 133.118 133.661  1.00  0.00    -0.289 OA
ATOM      5  C   UNL     1     134.339 133.042 133.358  1.00  0.00     0.107 A 
ATOM      6  C   UNL     1     134.325 132.216 132.194  1.00  0.00     0.134 A 
ATOM      7  C   UNL     1     133.114 131.977 131.533  1.00  0.00     0.093 A 
ATOM      8  C   UNL     1     131.910 132.485 132.027  1.00  0.00     0.123 A 
ATOM      9  C   UNL     1     131.907 133.250 133.190  1.00  0.00     0.094 A 
ATOM     10  C   UNL     1     133.102 133.537 133.853  1.00  0.00     0.146 A 
ATOM     11  O   UNL     1     133.056 134.286 134.950  1.00  0.00    -0.456 OA
ENDROOT
BRANCH   1  12
ATOM     12  C   UNL     1     133.961 135.474 136.857  1.00  0.00     0.021 A 
ATOM     13  C   UNL     1     132.694 136.006 137.153  1.00  0.00     0.016 A 
ATOM     14  C   UNL     1     132.505 136.798 138.289  1.00  0.00     0.051 A 
ATOM     15  C   UNL     1     133.576 137.082 139.140  1.00  0.00     0.157 A 
ATOM     16  C   UNL     1     135.040 135.773 137.711  1.00  0.00     0.062 A 
ATOM     17  C   UNL     1     134.850 136.570 138.850  1.00  0.00     0.158 A 
BRANCH  15  18
ATOM     18  O   UNL     1     133.355 137.874 140.266  1.00  0.00    -0.504 OA
ATOM     19  H   UNL     1     133.974 138.634 140.520  1.00  0.00     0.293 HD
ENDBRANCH  15  18
BRANCH  17  20
ATOM     20  O   UNL     1     135.925 136.858 139.690  1.00  0.00    -0.504 OA
ATOM     21  H   UNL     1     135.932 137.682 140.280  1.00  0.00     0.293 HD
ENDBRANCH  17  20
ENDBRANCH   1  12
BRANCH   6  22
ATOM     22  O   UNL     1     135.457 131.593 131.661  1.00  0.00    -0.507 OA
ATOM     23  H   UNL     1     135.471 130.676 131.241  1.00  0.00     0.293 HD
ENDBRANCH   6  22
BRANCH   8  24
ATOM     24  O   UNL     1     130.708 132.228 131.370  1.00  0.00    -0.508 OA
ATOM     25  H   UNL     1     129.856 132.719 131.613  1.00  0.00     0.293 HD
ENDBRANCH   8  24
TORSDOF 5
ENDMDL
MODEL 9
REMARK VINA RESULT:    -6.149      4.739      6.797
REMARK INTER + INTRA:          -7.524
REMARK INTER:                  -7.261
REMARK INTRA:                  -0.263
REMARK UNBOUND:                -0.296
REMARK SMILES O=c1cc(-c2ccc(O)c(O)c2)oc2cc(O)cc(O)c12
REMARK SMILES IDX 4 1 3 2 2 3 1 4 21 5 19 6 18 7 16 8 15 9 14 10 13 11 5 12
REMARK SMILES IDX 6 13 7 14 8 15 12 16 10 17 9 18 11 20 20 22 17 24
REMARK H PARENT 9 19 11 21 20 23 17 25
REMARK Flexibility Score: inf
ROOT
ATOM      1  C   UNL     1     123.865 122.955 142.292  1.00  0.00     0.138 A 
ATOM      2  C   UNL     1     123.904 121.554 142.275  1.00  0.00     0.100 A 
ATOM      3  C   UNL     1     124.873 120.882 143.020  1.00  0.00     0.197 A 
ATOM      4  O   UNL     1     124.847 119.623 143.028  1.00  0.00    -0.289 OA
ATOM      5  C   UNL     1     125.832 121.618 143.757  1.00  0.00     0.107 A 
ATOM      6  C   UNL     1     126.887 121.040 144.526  1.00  0.00     0.134 A 
ATOM      7  C   UNL     1     127.714 121.869 145.293  1.00  0.00     0.093 A 
ATOM      8  C   UNL     1     127.561 123.258 145.274  1.00  0.00     0.123 A 
ATOM      9  C   UNL     1     126.567 123.834 144.489  1.00  0.00     0.094 A 
ATOM     10  C   UNL     1     125.703 123.033 143.739  1.00  0.00     0.146 A 
ATOM     11  O   UNL     1     124.756 123.623 143.017  1.00  0.00    -0.456 OA
ENDROOT
BRANCH   1  12
ATOM     12  C   UNL     1     122.857 123.722 141.516  1.00  0.00     0.021 A 
ATOM     13  C   UNL     1     123.203 124.235 140.254  1.00  0.00     0.016 A 
ATOM     14  C   UNL     1     122.276 124.966 139.506  1.00  0.00     0.051 A 
ATOM     15  C   UNL     1     120.994 125.206 140.008  1.00  0.00     0.157 A 
ATOM     16  C   UNL     1     121.569 123.978 142.024  1.00  0.00     0.062 A 
ATOM     17  C   UNL     1     120.639 124.713 141.274  1.00  0.00     0.158 A 
BRANCH  15  18
ATOM     18  O   UNL     1     120.091 125.938 139.238  1.00  0.00    -0.504 OA
ATOM     19  H   UNL     1     120.031 125.830 138.232  1.00  0.00     0.293 HD
ENDBRANCH  15  18
BRANCH  17  20
ATOM     20  O   UNL     1     119.365 124.959 141.784  1.00  0.00    -0.504 OA
ATOM     21  H   UNL     1     118.929 124.332 142.451  1.00  0.00     0.293 HD
ENDBRANCH  17  20
ENDBRANCH   1  12
BRANCH   6  22
ATOM     22  O   UNL     1     127.179 119.673 144.554  1.00  0.00    -0.507 OA
ATOM     23  H   UNL     1     126.577 118.945 144.203  1.00  0.00     0.293 HD
ENDBRANCH   6  22
BRANCH   8  24
ATOM     24  O   UNL     1     128.400 124.075 146.030  1.00  0.00    -0.508 OA
ATOM     25  H   UNL     1     128.217 125.065 146.141  1.00  0.00     0.293 HD
ENDBRANCH   8  24
TORSDOF 5
ENDMDL
