MODEL 1
REMARK VINA RESULT:    -3.758      0.000      0.000
REMARK INTER + INTRA:          -4.118
REMARK INTER:                  -4.087
REMARK INTRA:                  -0.031
REMARK UNBOUND:                -0.031
REMARK SMILES O=C([O-])c1ccc(O)cc1
REMARK SMILES IDX 4 1 5 2 10 3 6 4 9 5 7 6 2 7 1 8 3 9 8 10
REMARK H PARENT 8 11
REMARK Flexibility Score: inf
ROOT
ATOM      1  C   UNL     1      12.589  12.791  20.513  1.00  0.00    -0.003 A 
ATOM      2  C   UNL     1      12.866  13.874  19.659  1.00  0.00     0.014 A 
ATOM      3  C   UNL     1      11.269  12.313  20.602  1.00  0.00     0.014 A 
ATOM      4  C   UNL     1      11.844  14.465  18.910  1.00  0.00     0.047 A 
ATOM      5  C   UNL     1      10.250  12.907  19.851  1.00  0.00     0.047 A 
ATOM      6  C   UNL     1      10.533  13.983  19.005  1.00  0.00     0.115 A 
ENDROOT
BRANCH   1   7
ATOM      7  C   UNL     1      13.666  12.161  21.307  1.00  0.00     0.071 C 
ATOM      8  O   UNL     1      14.772  11.875  20.775  1.00  0.00    -0.545 OA
ATOM      9  O   UNL     1      13.474  11.875  22.655  1.00  0.00    -0.545 OA
ENDBRANCH   1   7
BRANCH   6  10
ATOM     10  O   UNL     1       9.506  14.564  18.264  1.00  0.00    -0.508 OA
ATOM     11  H   UNL     1       8.532  14.358  18.457  1.00  0.00     0.293 HD
ENDBRANCH   6  10
TORSDOF 2
ENDMDL
MODEL 2
REMARK VINA RESULT:    -3.750      0.079      1.533
REMARK INTER + INTRA:          -4.110
REMARK INTER:                  -4.080
REMARK INTRA:                  -0.030
REMARK UNBOUND:                -0.031
REMARK SMILES O=C([O-])c1ccc(O)cc1
REMARK SMILES IDX 4 1 5 2 10 3 6 4 9 5 7 6 2 7 1 8 3 9 8 10
REMARK H PARENT 8 11
REMARK Flexibility Score: inf
ROOT
ATOM      1  C   UNL     1      12.565  12.776  20.470  1.00  0.00    -0.003 A 
ATOM      2  C   UNL     1      11.263  12.245  20.535  1.00  0.00     0.014 A 
ATOM      3  C   UNL     1      12.804  13.896  19.653  1.00  0.00     0.014 A 
ATOM      4  C   UNL     1      10.225  12.821  19.797  1.00  0.00     0.047 A 
ATOM      5  C   UNL     1      11.763  14.469  18.917  1.00  0.00     0.047 A 
ATOM      6  C   UNL     1      10.473  13.936  18.986  1.00  0.00     0.115 A 
ENDROOT
BRANCH   1   7
ATOM      7  C   UNL     1      13.667  12.171  21.249  1.00  0.00     0.071 C 
ATOM      8  O   UNL     1      14.758  11.875  20.692  1.00  0.00    -0.545 OA
ATOM      9  O   UNL     1      13.514  11.919  22.608  1.00  0.00    -0.545 OA
ENDBRANCH   1   7
BRANCH   6  10
ATOM     10  O   UNL     1       9.447  14.519  18.246  1.00  0.00    -0.508 OA
ATOM     11  H   UNL     1       8.614  14.885  18.693  1.00  0.00     0.293 HD
ENDBRANCH   6  10
TORSDOF 2
ENDMDL
MODEL 3
REMARK VINA RESULT:    -3.719      1.625      2.128
REMARK INTER + INTRA:          -4.076
REMARK INTER:                  -4.040
REMARK INTRA:                  -0.035
REMARK UNBOUND:                -0.031
REMARK SMILES O=C([O-])c1ccc(O)cc1
REMARK SMILES IDX 4 1 5 2 10 3 6 4 9 5 7 6 2 7 1 8 3 9 8 10
REMARK H PARENT 8 11
REMARK Flexibility Score: inf
ROOT
ATOM      1  C   UNL     1      12.504  13.624  19.654  1.00  0.00    -0.003 A 
ATOM      2  C   UNL     1      11.554  14.521  19.132  1.00  0.00     0.014 A 
ATOM      3  C   UNL     1      12.119  12.296  19.909  1.00  0.00     0.014 A 
ATOM      4  C   UNL     1      10.247  14.097  18.871  1.00  0.00     0.047 A 
ATOM      5  C   UNL     1      10.811  11.876  19.647  1.00  0.00     0.047 A 
ATOM      6  C   UNL     1       9.873  12.772  19.129  1.00  0.00     0.115 A 
ENDROOT
BRANCH   1   7
ATOM      7  C   UNL     1      13.888  14.067  19.931  1.00  0.00     0.071 C 
ATOM      8  O   UNL     1      14.807  13.224  20.111  1.00  0.00    -0.545 OA
ATOM      9  O   UNL     1      14.195  15.422  19.996  1.00  0.00    -0.545 OA
ENDBRANCH   1   7
BRANCH   6  10
ATOM     10  O   UNL     1       8.574  12.338  18.874  1.00  0.00    -0.508 OA
ATOM     11  H   UNL     1       7.814  12.995  18.737  1.00  0.00     0.293 HD
ENDBRANCH   6  10
TORSDOF 2
ENDMDL
MODEL 4
REMARK VINA RESULT:    -3.694      1.458      2.117
REMARK INTER + INTRA:          -4.049
REMARK INTER:                  -4.017
REMARK INTRA:                  -0.032
REMARK UNBOUND:                -0.031
REMARK SMILES O=C([O-])c1ccc(O)cc1
REMARK SMILES IDX 4 1 5 2 10 3 6 4 9 5 7 6 2 7 1 8 3 9 8 10
REMARK H PARENT 8 11
REMARK Flexibility Score: inf
ROOT
ATOM      1  C   UNL     1      12.442  13.482  19.874  1.00  0.00    -0.003 A 
ATOM      2  C   UNL     1      11.939  12.171  19.962  1.00  0.00     0.014 A 
ATOM      3  C   UNL     1      11.626  14.489  19.327  1.00  0.00     0.014 A 
ATOM      4  C   UNL     1      10.648  11.875  19.512  1.00  0.00     0.047 A 
ATOM      5  C   UNL     1      10.337  14.189  18.878  1.00  0.00     0.047 A 
ATOM      6  C   UNL     1       9.844  12.885  18.968  1.00  0.00     0.115 A 
ENDROOT
BRANCH   1   7
ATOM      7  C   UNL     1      13.806  13.801  20.349  1.00  0.00     0.071 C 
ATOM      8  O   UNL     1      14.544  14.585  19.696  1.00  0.00    -0.545 OA
ATOM      9  O   UNL     1      14.292  13.238  21.524  1.00  0.00    -0.545 OA
ENDBRANCH   1   7
BRANCH   6  10
ATOM     10  O   UNL     1       8.557  12.602  18.516  1.00  0.00    -0.508 OA
ATOM     11  H   UNL     1       8.081  13.211  17.859  1.00  0.00     0.293 HD
ENDBRANCH   6  10
TORSDOF 2
ENDMDL
MODEL 5
REMARK VINA RESULT:    -3.509      2.155      2.989
REMARK INTER + INTRA:          -3.848
REMARK INTER:                  -3.820
REMARK INTRA:                  -0.028
REMARK UNBOUND:                -0.031
REMARK SMILES O=C([O-])c1ccc(O)cc1
REMARK SMILES IDX 4 1 5 2 10 3 6 4 9 5 7 6 2 7 1 8 3 9 8 10
REMARK H PARENT 8 11
REMARK Flexibility Score: inf
ROOT
ATOM      1  C   UNL     1      11.062  13.290  21.742  1.00  0.00    -0.003 A 
ATOM      2  C   UNL     1      10.349  12.953  20.576  1.00  0.00     0.014 A 
ATOM      3  C   UNL     1      12.177  14.142  21.636  1.00  0.00     0.014 A 
ATOM      4  C   UNL     1      10.743  13.458  19.334  1.00  0.00     0.047 A 
ATOM      5  C   UNL     1      12.567  14.644  20.391  1.00  0.00     0.047 A 
ATOM      6  C   UNL     1      11.854  14.305  19.238  1.00  0.00     0.115 A 
ENDROOT
BRANCH   1   7
ATOM      7  C   UNL     1      10.650  12.759  23.059  1.00  0.00     0.071 C 
ATOM      8  O   UNL     1      11.398  11.968  23.694  1.00  0.00    -0.545 OA
ATOM      9  O   UNL     1       9.430  13.127  23.617  1.00  0.00    -0.545 OA
ENDBRANCH   1   7
BRANCH   6  10
ATOM     10  O   UNL     1      12.257  14.814  18.006  1.00  0.00    -0.508 OA
ATOM     11  H   UNL     1      12.112  14.296  17.146  1.00  0.00     0.293 HD
ENDBRANCH   6  10
TORSDOF 2
ENDMDL
MODEL 6
REMARK VINA RESULT:    -3.385      2.337      3.779
REMARK INTER + INTRA:          -3.713
REMARK INTER:                  -3.679
REMARK INTRA:                  -0.034
REMARK UNBOUND:                -0.031
REMARK SMILES O=C([O-])c1ccc(O)cc1
REMARK SMILES IDX 4 1 5 2 10 3 6 4 9 5 7 6 2 7 1 8 3 9 8 10
REMARK H PARENT 8 11
REMARK Flexibility Score: inf
ROOT
ATOM      1  C   UNL     1      11.401  13.718  19.951  1.00  0.00    -0.003 A 
ATOM      2  C   UNL     1      12.076  14.368  18.901  1.00  0.00     0.014 A 
ATOM      3  C   UNL     1      11.799  13.972  21.276  1.00  0.00     0.014 A 
ATOM      4  C   UNL     1      13.125  15.251  19.172  1.00  0.00     0.047 A 
ATOM      5  C   UNL     1      12.849  14.856  21.543  1.00  0.00     0.047 A 
ATOM      6  C   UNL     1      13.514  15.497  20.494  1.00  0.00     0.115 A 
ENDROOT
BRANCH   1   7
ATOM      7  C   UNL     1      10.291  12.783  19.671  1.00  0.00     0.071 C 
ATOM      8  O   UNL     1       9.994  11.875  20.493  1.00  0.00    -0.545 OA
ATOM      9  O   UNL     1       9.557  12.892  18.494  1.00  0.00    -0.545 OA
ENDBRANCH   1   7
BRANCH   6  10
ATOM     10  O   UNL     1      14.558  16.375  20.777  1.00  0.00    -0.508 OA
ATOM     11  H   UNL     1      15.087  16.309  21.640  1.00  0.00     0.293 HD
ENDBRANCH   6  10
TORSDOF 2
ENDMDL
MODEL 7
REMARK VINA RESULT:    -3.322     24.751     26.118
REMARK INTER + INTRA:          -3.645
REMARK INTER:                  -3.609
REMARK INTRA:                  -0.036
REMARK UNBOUND:                -0.031
REMARK SMILES O=C([O-])c1ccc(O)cc1
REMARK SMILES IDX 4 1 5 2 10 3 6 4 9 5 7 6 2 7 1 8 3 9 8 10
REMARK H PARENT 8 11
REMARK Flexibility Score: inf
ROOT
ATOM      1  C   UNL     1      -1.766  30.431   6.370  1.00  0.00    -0.003 A 
ATOM      2  C   UNL     1      -0.833  31.341   5.837  1.00  0.00     0.014 A 
ATOM      3  C   UNL     1      -1.691  30.100   7.735  1.00  0.00     0.014 A 
ATOM      4  C   UNL     1       0.152  31.905   6.654  1.00  0.00     0.047 A 
ATOM      5  C   UNL     1      -0.705  30.667   8.548  1.00  0.00     0.047 A 
ATOM      6  C   UNL     1       0.218  31.569   8.012  1.00  0.00     0.115 A 
ENDROOT
BRANCH   1   7
ATOM      7  C   UNL     1      -2.810  29.831   5.511  1.00  0.00     0.071 C 
ATOM      8  O   UNL     1      -2.741  29.927   4.257  1.00  0.00    -0.545 OA
ATOM      9  O   UNL     1      -3.883  29.151   6.077  1.00  0.00    -0.545 OA
ENDBRANCH   1   7
BRANCH   6  10
ATOM     10  O   UNL     1       1.194  32.125   8.835  1.00  0.00    -0.508 OA
ATOM     11  H   UNL     1       1.661  31.575   9.548  1.00  0.00     0.293 HD
ENDBRANCH   6  10
TORSDOF 2
ENDMDL
MODEL 8
REMARK VINA RESULT:    -3.282      2.448      4.227
REMARK INTER + INTRA:          -3.601
REMARK INTER:                  -3.574
REMARK INTRA:                  -0.027
REMARK UNBOUND:                -0.031
REMARK SMILES O=C([O-])c1ccc(O)cc1
REMARK SMILES IDX 4 1 5 2 10 3 6 4 9 5 7 6 2 7 1 8 3 9 8 10
REMARK H PARENT 8 11
REMARK Flexibility Score: inf
ROOT
ATOM      1  C   UNL     1      12.031  14.271  19.872  1.00  0.00    -0.003 A 
ATOM      2  C   UNL     1      12.089  14.406  21.272  1.00  0.00     0.014 A 
ATOM      3  C   UNL     1      12.960  14.973  19.082  1.00  0.00     0.014 A 
ATOM      4  C   UNL     1      13.055  15.225  21.866  1.00  0.00     0.047 A 
ATOM      5  C   UNL     1      13.923  15.791  19.680  1.00  0.00     0.047 A 
ATOM      6  C   UNL     1      13.974  15.920  21.070  1.00  0.00     0.115 A 
ENDROOT
BRANCH   1   7
ATOM      7  C   UNL     1      11.013  13.406  19.238  1.00  0.00     0.071 C 
ATOM      8  O   UNL     1      11.141  12.153  19.247  1.00  0.00    -0.545 OA
ATOM      9  O   UNL     1       9.898  13.965  18.623  1.00  0.00    -0.545 OA
ENDBRANCH   1   7
BRANCH   6  10
ATOM     10  O   UNL     1      14.940  16.738  21.650  1.00  0.00    -0.508 OA
ATOM     11  H   UNL     1      14.784  17.732  21.780  1.00  0.00     0.293 HD
ENDBRANCH   6  10
TORSDOF 2
ENDMDL
