MODEL 1
REMARK VINA RESULT:    -4.650      0.000      0.000
REMARK INTER + INTRA:          -4.786
REMARK INTER:                  -4.786
REMARK INTRA:                   0.000
REMARK UNBOUND:                 0.000
REMARK SMILES Nc1ncnc2nc[nH]c12
REMARK SMILES IDX 8 1 7 2 6 3 5 4 4 5 3 6 2 7 10 8 9 9 1 11
REMARK H PARENT 9 10 1 12 1 13
REMARK Flexibility Score: inf
ROOT
ATOM      1  C   UNL     1      19.368  37.794  42.143  1.00  0.00     0.199 A 
ATOM      2  N   UNL     1      20.206  36.904  42.746  1.00  0.00    -0.217 NA
ATOM      3  C   UNL     1      20.696  37.623  43.768  1.00  0.00     0.182 A 
ATOM      4  N   UNL     1      21.589  37.202  44.696  1.00  0.00    -0.215 NA
ATOM      5  C   UNL     1      21.974  38.083  45.668  1.00  0.00     0.226 A 
ATOM      6  N   UNL     1      21.463  39.356  45.696  1.00  0.00    -0.217 NA
ATOM      7  C   UNL     1      20.562  39.783  44.761  1.00  0.00     0.152 A 
ATOM      8  C   UNL     1      20.181  38.874  43.778  1.00  0.00     0.127 A 
ATOM      9  N   UNL     1      19.332  39.007  42.751  1.00  0.00    -0.340 N 
ATOM     10  H   UNL     1      18.769  39.840  42.474  1.00  0.00     0.168 HD
ENDROOT
BRANCH   7  11
ATOM     11  N   UNL     1      20.044  41.113  44.809  1.00  0.00    -0.382 N 
ATOM     12  H   UNL     1      20.422  41.796  45.503  1.00  0.00     0.158 HD
ATOM     13  H   UNL     1      19.287  41.426  44.162  1.00  0.00     0.158 HD
ENDBRANCH   7  11
TORSDOF 1
ENDMDL
MODEL 2
REMARK VINA RESULT:    -4.616      2.064      2.192
REMARK INTER + INTRA:          -4.751
REMARK INTER:                  -4.751
REMARK INTRA:                   0.000
REMARK UNBOUND:                 0.000
REMARK SMILES Nc1ncnc2nc[nH]c12
REMARK SMILES IDX 8 1 7 2 6 3 5 4 4 5 3 6 2 7 10 8 9 9 1 11
REMARK H PARENT 9 10 1 12 1 13
REMARK Flexibility Score: inf
ROOT
ATOM      1  C   UNL     1      19.436  39.380  43.083  1.00  0.00     0.199 A 
ATOM      2  N   UNL     1      20.146  38.427  43.748  1.00  0.00    -0.217 NA
ATOM      3  C   UNL     1      21.318  39.045  43.967  1.00  0.00     0.182 A 
ATOM      4  N   UNL     1      22.397  38.528  44.603  1.00  0.00    -0.215 NA
ATOM      5  C   UNL     1      23.508  39.314  44.730  1.00  0.00     0.226 A 
ATOM      6  N   UNL     1      23.521  40.589  44.224  1.00  0.00    -0.217 NA
ATOM      7  C   UNL     1      22.435  41.112  43.581  1.00  0.00     0.152 A 
ATOM      8  C   UNL     1      21.311  40.299  43.460  1.00  0.00     0.127 A 
ATOM      9  N   UNL     1      20.122  40.536  42.891  1.00  0.00    -0.340 N 
ATOM     10  H   UNL     1      19.789  41.401  42.412  1.00  0.00     0.168 HD
ENDROOT
BRANCH   7  11
ATOM     11  N   UNL     1      22.471  42.442  43.062  1.00  0.00    -0.382 N 
ATOM     12  H   UNL     1      22.560  43.254  43.712  1.00  0.00     0.158 HD
ATOM     13  H   UNL     1      22.408  42.627  42.037  1.00  0.00     0.158 HD
ENDBRANCH   7  11
TORSDOF 1
ENDMDL
MODEL 3
REMARK VINA RESULT:    -4.574      2.317      3.151
REMARK INTER + INTRA:          -4.708
REMARK INTER:                  -4.708
REMARK INTRA:                   0.000
REMARK UNBOUND:                 0.000
REMARK SMILES Nc1ncnc2nc[nH]c12
REMARK SMILES IDX 8 1 7 2 6 3 5 4 4 5 3 6 2 7 10 8 9 9 1 11
REMARK H PARENT 9 10 1 12 1 13
REMARK Flexibility Score: inf
ROOT
ATOM      1  C   UNL     1      23.695  41.230  42.957  1.00  0.00     0.199 A 
ATOM      2  N   UNL     1      23.599  39.871  42.937  1.00  0.00    -0.217 NA
ATOM      3  C   UNL     1      22.350  39.667  43.386  1.00  0.00     0.182 A 
ATOM      4  N   UNL     1      21.740  38.470  43.561  1.00  0.00    -0.215 NA
ATOM      5  C   UNL     1      20.457  38.463  44.032  1.00  0.00     0.226 A 
ATOM      6  N   UNL     1      19.812  39.640  44.316  1.00  0.00    -0.217 NA
ATOM      7  C   UNL     1      20.426  40.848  44.140  1.00  0.00     0.152 A 
ATOM      8  C   UNL     1      21.732  40.839  43.661  1.00  0.00     0.127 A 
ATOM      9  N   UNL     1      22.570  41.850  43.395  1.00  0.00    -0.340 N 
ATOM     10  H   UNL     1      22.408  42.875  43.497  1.00  0.00     0.168 HD
ENDROOT
BRANCH   7  11
ATOM     11  N   UNL     1      19.735  42.061  44.443  1.00  0.00    -0.382 N 
ATOM     12  H   UNL     1      20.082  42.969  44.060  1.00  0.00     0.158 HD
ATOM     13  H   UNL     1      18.883  42.067  45.046  1.00  0.00     0.158 HD
ENDBRANCH   7  11
TORSDOF 1
ENDMDL
MODEL 4
REMARK VINA RESULT:    -4.524      1.262      3.803
REMARK INTER + INTRA:          -4.657
REMARK INTER:                  -4.657
REMARK INTRA:                   0.000
REMARK UNBOUND:                 0.000
REMARK SMILES Nc1ncnc2nc[nH]c12
REMARK SMILES IDX 8 1 7 2 6 3 5 4 4 5 3 6 2 7 10 8 9 9 1 11
REMARK H PARENT 9 10 1 12 1 13
REMARK Flexibility Score: inf
ROOT
ATOM      1  C   UNL     1      22.375  37.131  45.553  1.00  0.00     0.199 A 
ATOM      2  N   UNL     1      21.870  38.395  45.536  1.00  0.00    -0.217 NA
ATOM      3  C   UNL     1      20.999  38.341  44.516  1.00  0.00     0.182 A 
ATOM      4  N   UNL     1      20.216  39.352  44.067  1.00  0.00    -0.215 NA
ATOM      5  C   UNL     1      19.388  39.105  43.008  1.00  0.00     0.226 A 
ATOM      6  N   UNL     1      19.357  37.865  42.423  1.00  0.00    -0.217 NA
ATOM      7  C   UNL     1      20.146  36.844  42.873  1.00  0.00     0.152 A 
ATOM      8  C   UNL     1      20.984  37.112  43.951  1.00  0.00     0.127 A 
ATOM      9  N   UNL     1      21.853  36.322  44.596  1.00  0.00    -0.340 N 
ATOM     10  H   UNL     1      22.083  35.321  44.415  1.00  0.00     0.168 HD
ENDROOT
BRANCH   7  11
ATOM     11  N   UNL     1      20.097  35.561  42.247  1.00  0.00    -0.382 N 
ATOM     12  H   UNL     1      19.398  34.853  42.563  1.00  0.00     0.158 HD
ATOM     13  H   UNL     1      20.751  35.308  41.474  1.00  0.00     0.158 HD
ENDBRANCH   7  11
TORSDOF 1
ENDMDL
MODEL 5
REMARK VINA RESULT:    -4.512      2.455      4.406
REMARK INTER + INTRA:          -4.644
REMARK INTER:                  -4.644
REMARK INTRA:                   0.000
REMARK UNBOUND:                 0.000
REMARK SMILES Nc1ncnc2nc[nH]c12
REMARK SMILES IDX 8 1 7 2 6 3 5 4 4 5 3 6 2 7 10 8 9 9 1 11
REMARK H PARENT 9 10 1 12 1 13
REMARK Flexibility Score: inf
ROOT
ATOM      1  C   UNL     1      24.161  35.607  42.974  1.00  0.00     0.199 A 
ATOM      2  N   UNL     1      23.835  36.788  43.570  1.00  0.00    -0.217 NA
ATOM      3  C   UNL     1      22.499  36.815  43.436  1.00  0.00     0.182 A 
ATOM      4  N   UNL     1      21.664  37.792  43.866  1.00  0.00    -0.215 NA
ATOM      5  C   UNL     1      20.325  37.643  43.636  1.00  0.00     0.226 A 
ATOM      6  N   UNL     1      19.849  36.532  42.988  1.00  0.00    -0.217 NA
ATOM      7  C   UNL     1      20.689  35.545  42.553  1.00  0.00     0.152 A 
ATOM      8  C   UNL     1      22.050  35.712  42.795  1.00  0.00     0.127 A 
ATOM      9  N   UNL     1      23.091  34.927  42.490  1.00  0.00    -0.340 N 
ATOM     10  H   UNL     1      23.092  34.007  41.997  1.00  0.00     0.168 HD
ENDROOT
BRANCH   7  11
ATOM     11  N   UNL     1      20.171  34.397  41.880  1.00  0.00    -0.382 N 
ATOM     12  H   UNL     1      19.527  33.745  42.381  1.00  0.00     0.158 HD
ATOM     13  H   UNL     1      20.422  34.188  40.889  1.00  0.00     0.158 HD
ENDBRANCH   7  11
TORSDOF 1
ENDMDL
MODEL 6
REMARK VINA RESULT:    -4.506      1.063      2.906
REMARK INTER + INTRA:          -4.637
REMARK INTER:                  -4.637
REMARK INTRA:                   0.000
REMARK UNBOUND:                 0.000
REMARK SMILES Nc1ncnc2nc[nH]c12
REMARK SMILES IDX 8 1 7 2 6 3 5 4 4 5 3 6 2 7 10 8 9 9 1 11
REMARK H PARENT 9 10 1 12 1 13
REMARK Flexibility Score: inf
ROOT
ATOM      1  C   UNL     1      22.525  38.053  45.886  1.00  0.00     0.199 A 
ATOM      2  N   UNL     1      21.747  37.270  45.089  1.00  0.00    -0.217 NA
ATOM      3  C   UNL     1      21.007  38.178  44.432  1.00  0.00     0.182 A 
ATOM      4  N   UNL     1      20.056  37.924  43.502  1.00  0.00    -0.215 NA
ATOM      5  C   UNL     1      19.403  38.986  42.939  1.00  0.00     0.226 A 
ATOM      6  N   UNL     1      19.711  40.269  43.313  1.00  0.00    -0.217 NA
ATOM      7  C   UNL     1      20.670  40.528  44.252  1.00  0.00     0.152 A 
ATOM      8  C   UNL     1      21.324  39.436  44.815  1.00  0.00     0.127 A 
ATOM      9  N   UNL     1      22.290  39.383  45.741  1.00  0.00    -0.340 N 
ATOM     10  H   UNL     1      22.759  40.169  46.240  1.00  0.00     0.168 HD
ENDROOT
BRANCH   7  11
ATOM     11  N   UNL     1      20.973  41.872  44.626  1.00  0.00    -0.382 N 
ATOM     12  H   UNL     1      21.966  42.196  44.650  1.00  0.00     0.158 HD
ATOM     13  H   UNL     1      20.221  42.549  44.880  1.00  0.00     0.158 HD
ENDBRANCH   7  11
TORSDOF 1
ENDMDL
MODEL 7
REMARK VINA RESULT:    -4.446      1.523      3.116
REMARK INTER + INTRA:          -4.576
REMARK INTER:                  -4.576
REMARK INTRA:                   0.000
REMARK UNBOUND:                 0.000
REMARK SMILES Nc1ncnc2nc[nH]c12
REMARK SMILES IDX 8 1 7 2 6 3 5 4 4 5 3 6 2 7 10 8 9 9 1 11
REMARK H PARENT 9 10 1 12 1 13
REMARK Flexibility Score: inf
ROOT
ATOM      1  C   UNL     1      18.769  38.217  41.540  1.00  0.00     0.199 A 
ATOM      2  N   UNL     1      19.120  38.966  42.621  1.00  0.00    -0.217 NA
ATOM      3  C   UNL     1      20.040  38.192  43.218  1.00  0.00     0.182 A 
ATOM      4  N   UNL     1      20.718  38.474  44.356  1.00  0.00    -0.215 NA
ATOM      5  C   UNL     1      21.621  37.555  44.814  1.00  0.00     0.226 A 
ATOM      6  N   UNL     1      21.828  36.383  44.134  1.00  0.00    -0.217 NA
ATOM      7  C   UNL     1      21.145  36.095  42.986  1.00  0.00     0.152 A 
ATOM      8  C   UNL     1      20.229  37.041  42.533  1.00  0.00     0.127 A 
ATOM      9  N   UNL     1      19.429  37.034  41.458  1.00  0.00    -0.340 N 
ATOM     10  H   UNL     1      19.329  36.299  40.724  1.00  0.00     0.168 HD
ENDROOT
BRANCH   7  11
ATOM     11  N   UNL     1      21.376  34.868  42.293  1.00  0.00    -0.382 N 
ATOM     12  H   UNL     1      22.322  34.425  42.317  1.00  0.00     0.158 HD
ATOM     13  H   UNL     1      20.616  34.395  41.756  1.00  0.00     0.158 HD
ENDBRANCH   7  11
TORSDOF 1
ENDMDL
MODEL 8
REMARK VINA RESULT:    -4.398      1.036      2.928
REMARK INTER + INTRA:          -4.526
REMARK INTER:                  -4.526
REMARK INTRA:                   0.000
REMARK UNBOUND:                 0.000
REMARK SMILES Nc1ncnc2nc[nH]c12
REMARK SMILES IDX 8 1 7 2 6 3 5 4 4 5 3 6 2 7 10 8 9 9 1 11
REMARK H PARENT 9 10 1 12 1 13
REMARK Flexibility Score: inf
ROOT
ATOM      1  C   UNL     1      20.028  41.528  43.385  1.00  0.00     0.199 A 
ATOM      2  N   UNL     1      20.747  41.337  44.526  1.00  0.00    -0.217 NA
ATOM      3  C   UNL     1      20.931  40.007  44.527  1.00  0.00     0.182 A 
ATOM      4  N   UNL     1      21.597  39.285  45.461  1.00  0.00    -0.215 NA
ATOM      5  C   UNL     1      21.681  37.931  45.291  1.00  0.00     0.226 A 
ATOM      6  N   UNL     1      21.103  37.329  44.202  1.00  0.00    -0.217 NA
ATOM      7  C   UNL     1      20.431  38.055  43.259  1.00  0.00     0.152 A 
ATOM      8  C   UNL     1      20.355  39.432  43.447  1.00  0.00     0.127 A 
ATOM      9  N   UNL     1      19.773  40.382  42.703  1.00  0.00    -0.340 N 
ATOM     10  H   UNL     1      19.245  40.278  41.809  1.00  0.00     0.168 HD
ENDROOT
BRANCH   7  11
ATOM     11  N   UNL     1      19.838  37.407  42.134  1.00  0.00    -0.382 N 
ATOM     12  H   UNL     1      20.209  36.488  41.805  1.00  0.00     0.158 HD
ATOM     13  H   UNL     1      19.034  37.832  41.622  1.00  0.00     0.158 HD
ENDBRANCH   7  11
TORSDOF 1
ENDMDL
MODEL 9
REMARK VINA RESULT:    -4.358      2.098      3.711
REMARK INTER + INTRA:          -4.486
REMARK INTER:                  -4.486
REMARK INTRA:                   0.000
REMARK UNBOUND:                 0.000
REMARK SMILES Nc1ncnc2nc[nH]c12
REMARK SMILES IDX 8 1 7 2 6 3 5 4 4 5 3 6 2 7 10 8 9 9 1 11
REMARK H PARENT 9 10 1 12 1 13
REMARK Flexibility Score: inf
ROOT
ATOM      1  C   UNL     1      19.984  38.562  43.367  1.00  0.00     0.199 A 
ATOM      2  N   UNL     1      21.280  38.811  43.703  1.00  0.00    -0.217 NA
ATOM      3  C   UNL     1      21.871  37.633  43.450  1.00  0.00     0.182 A 
ATOM      4  N   UNL     1      23.182  37.335  43.618  1.00  0.00    -0.215 NA
ATOM      5  C   UNL     1      23.602  36.072  43.304  1.00  0.00     0.226 A 
ATOM      6  N   UNL     1      22.713  35.140  42.833  1.00  0.00    -0.217 NA
ATOM      7  C   UNL     1      21.390  35.438  42.663  1.00  0.00     0.152 A 
ATOM      8  C   UNL     1      20.979  36.728  42.987  1.00  0.00     0.127 A 
ATOM      9  N   UNL     1      19.768  37.297  42.925  1.00  0.00    -0.340 N 
ATOM     10  H   UNL     1      18.865  36.877  42.613  1.00  0.00     0.168 HD
ENDROOT
BRANCH   7  11
ATOM     11  N   UNL     1      20.483  34.451  42.171  1.00  0.00    -0.382 N 
ATOM     12  H   UNL     1      19.707  34.729  41.530  1.00  0.00     0.158 HD
ATOM     13  H   UNL     1      20.573  33.446  42.439  1.00  0.00     0.158 HD
ENDBRANCH   7  11
TORSDOF 1
ENDMDL
