MODEL 1
REMARK VINA RESULT:    -2.532      0.000      0.000
REMARK INTER + INTRA:          -2.532
REMARK INTER:                  -2.532
REMARK INTRA:                   0.000
REMARK UNBOUND:                 0.000
REMARK SMILES C=C1[C@H]2CC[C@H](C2)C1(C)C
REMARK SMILES IDX 9 1 8 2 6 3 5 4 4 5 3 6 7 7 2 8 1 9 10 10
REMARK H PARENT
REMARK Flexibility Score: inf
ROOT
ATOM      1  C   UNL     1     165.594 172.989 138.558  1.00  0.00     0.016 C 
ATOM      2  C   UNL     1     166.649 173.818 139.325  1.00  0.00    -0.012 C 
ATOM      3  C   UNL     1     168.102 173.479 138.840  1.00  0.00    -0.001 C 
ATOM      4  C   UNL     1     169.163 174.164 139.736  1.00  0.00     0.005 C 
ATOM      5  C   UNL     1     168.975 175.661 139.410  1.00  0.00     0.008 C 
ATOM      6  C   UNL     1     167.914 175.639 138.296  1.00  0.00     0.015 C 
ATOM      7  C   UNL     1     168.244 174.342 137.591  1.00  0.00     0.012 C 
ATOM      8  C   UNL     1     166.599 175.275 138.931  1.00  0.00    -0.068 C 
ATOM      9  C   UNL     1     165.589 176.125 139.153  1.00  0.00     0.008 C 
ATOM     10  C   UNL     1     166.433 173.625 140.844  1.00  0.00     0.016 C 
ENDROOT
TORSDOF 0
ENDMDL
MODEL 2
REMARK VINA RESULT:    -2.406     15.310     17.140
REMARK INTER + INTRA:          -2.406
REMARK INTER:                  -2.406
REMARK INTRA:                   0.000
REMARK UNBOUND:                 0.000
REMARK SMILES C=C1[C@H]2CC[C@H](C2)C1(C)C
REMARK SMILES IDX 9 1 8 2 6 3 5 4 4 5 3 6 7 7 2 8 1 9 10 10
REMARK H PARENT
REMARK Flexibility Score: inf
ROOT
ATOM      1  C   UNL     1     161.645 158.951 139.578  1.00  0.00     0.016 C 
ATOM      2  C   UNL     1     163.155 158.670 139.407  1.00  0.00    -0.012 C 
ATOM      3  C   UNL     1     163.599 157.417 140.241  1.00  0.00    -0.001 C 
ATOM      4  C   UNL     1     165.137 157.251 140.223  1.00  0.00     0.005 C 
ATOM      5  C   UNL     1     165.426 156.874 138.754  1.00  0.00     0.008 C 
ATOM      6  C   UNL     1     164.017 156.763 138.144  1.00  0.00     0.015 C 
ATOM      7  C   UNL     1     163.217 156.259 139.325  1.00  0.00     0.012 C 
ATOM      8  C   UNL     1     163.468 158.159 138.021  1.00  0.00    -0.068 C 
ATOM      9  C   UNL     1     163.338 158.838 136.875  1.00  0.00     0.008 C 
ATOM     10  C   UNL     1     163.947 159.956 139.738  1.00  0.00     0.016 C 
ENDROOT
TORSDOF 0
ENDMDL
MODEL 3
REMARK VINA RESULT:    -2.393      1.207      2.807
REMARK INTER + INTRA:          -2.393
REMARK INTER:                  -2.393
REMARK INTRA:                   0.000
REMARK UNBOUND:                 0.000
REMARK SMILES C=C1[C@H]2CC[C@H](C2)C1(C)C
REMARK SMILES IDX 9 1 8 2 6 3 5 4 4 5 3 6 7 7 2 8 1 9 10 10
REMARK H PARENT
REMARK Flexibility Score: inf
ROOT
ATOM      1  C   UNL     1     169.951 172.715 139.688  1.00  0.00     0.016 C 
ATOM      2  C   UNL     1     168.534 173.268 139.418  1.00  0.00    -0.012 C 
ATOM      3  C   UNL     1     168.257 174.561 140.262  1.00  0.00    -0.001 C 
ATOM      4  C   UNL     1     166.778 175.003 140.139  1.00  0.00     0.005 C 
ATOM      5  C   UNL     1     166.677 175.459 138.668  1.00  0.00     0.008 C 
ATOM      6  C   UNL     1     168.126 175.327 138.166  1.00  0.00     0.015 C 
ATOM      7  C   UNL     1     168.909 175.652 139.419  1.00  0.00     0.012 C 
ATOM      8  C   UNL     1     168.426 173.858 138.033  1.00  0.00    -0.068 C 
ATOM      9  C   UNL     1     168.521 173.193 136.875  1.00  0.00     0.008 C 
ATOM     10  C   UNL     1     167.502 172.139 139.644  1.00  0.00     0.016 C 
ENDROOT
TORSDOF 0
ENDMDL
MODEL 4
REMARK VINA RESULT:    -2.329     16.484     17.611
REMARK INTER + INTRA:          -2.329
REMARK INTER:                  -2.329
REMARK INTRA:                   0.000
REMARK UNBOUND:                 0.000
REMARK SMILES C=C1[C@H]2CC[C@H](C2)C1(C)C
REMARK SMILES IDX 9 1 8 2 6 3 5 4 4 5 3 6 7 7 2 8 1 9 10 10
REMARK H PARENT
REMARK Flexibility Score: inf
ROOT
ATOM      1  C   UNL     1     165.909 155.915 140.455  1.00  0.00     0.016 C 
ATOM      2  C   UNL     1     165.261 157.076 139.667  1.00  0.00    -0.012 C 
ATOM      3  C   UNL     1     164.322 156.538 138.531  1.00  0.00    -0.001 C 
ATOM      4  C   UNL     1     163.826 157.690 137.624  1.00  0.00     0.005 C 
ATOM      5  C   UNL     1     162.897 158.491 138.562  1.00  0.00     0.008 C 
ATOM      6  C   UNL     1     162.890 157.642 139.845  1.00  0.00     0.015 C 
ATOM      7  C   UNL     1     163.028 156.245 139.283  1.00  0.00     0.012 C 
ATOM      8  C   UNL     1     164.234 157.803 140.502  1.00  0.00    -0.068 C 
ATOM      9  C   UNL     1     164.472 158.522 141.606  1.00  0.00     0.008 C 
ATOM     10  C   UNL     1     166.372 158.026 139.164  1.00  0.00     0.016 C 
ENDROOT
TORSDOF 0
ENDMDL
MODEL 5
REMARK VINA RESULT:    -2.324      0.881      2.475
REMARK INTER + INTRA:          -2.324
REMARK INTER:                  -2.324
REMARK INTRA:                   0.000
REMARK UNBOUND:                 0.000
REMARK SMILES C=C1[C@H]2CC[C@H](C2)C1(C)C
REMARK SMILES IDX 9 1 8 2 6 3 5 4 4 5 3 6 7 7 2 8 1 9 10 10
REMARK H PARENT
REMARK Flexibility Score: inf
ROOT
ATOM      1  C   UNL     1     165.823 175.997 140.178  1.00  0.00     0.016 C 
ATOM      2  C   UNL     1     166.614 174.844 139.520  1.00  0.00    -0.012 C 
ATOM      3  C   UNL     1     167.562 175.377 138.389  1.00  0.00    -0.001 C 
ATOM      4  C   UNL     1     168.207 174.208 137.605  1.00  0.00     0.005 C 
ATOM      5  C   UNL     1     169.150 173.573 138.648  1.00  0.00     0.008 C 
ATOM      6  C   UNL     1     169.012 174.516 139.856  1.00  0.00     0.015 C 
ATOM      7  C   UNL     1     168.782 175.846 139.175  1.00  0.00     0.012 C 
ATOM      8  C   UNL     1     167.654 174.282 140.459  1.00  0.00    -0.068 C 
ATOM      9  C   UNL     1     167.422 173.633 141.607  1.00  0.00     0.008 C 
ATOM     10  C   UNL     1     165.620 173.759 139.046  1.00  0.00     0.016 C 
ENDROOT
TORSDOF 0
ENDMDL
MODEL 6
REMARK VINA RESULT:    -2.224     15.080     16.984
REMARK INTER + INTRA:          -2.224
REMARK INTER:                  -2.224
REMARK INTRA:                   0.000
REMARK UNBOUND:                 0.000
REMARK SMILES C=C1[C@H]2CC[C@H](C2)C1(C)C
REMARK SMILES IDX 9 1 8 2 6 3 5 4 4 5 3 6 7 7 2 8 1 9 10 10
REMARK H PARENT
REMARK Flexibility Score: inf
ROOT
ATOM      1  C   UNL     1     164.943 160.124 138.270  1.00  0.00     0.016 C 
ATOM      2  C   UNL     1     164.049 158.865 138.250  1.00  0.00    -0.012 C 
ATOM      3  C   UNL     1     164.906 157.555 138.362  1.00  0.00    -0.001 C 
ATOM      4  C   UNL     1     164.032 156.295 138.149  1.00  0.00     0.005 C 
ATOM      5  C   UNL     1     163.130 156.287 139.401  1.00  0.00     0.008 C 
ATOM      6  C   UNL     1     163.670 157.471 140.223  1.00  0.00     0.015 C 
ATOM      7  C   UNL     1     165.139 157.440 139.865  1.00  0.00     0.012 C 
ATOM      8  C   UNL     1     163.248 158.736 139.524  1.00  0.00    -0.068 C 
ATOM      9  C   UNL     1     162.285 159.564 139.945  1.00  0.00     0.008 C 
ATOM     10  C   UNL     1     163.138 158.914 137.001  1.00  0.00     0.016 C 
ENDROOT
TORSDOF 0
ENDMDL
MODEL 7
REMARK VINA RESULT:    -2.212      1.281      3.013
REMARK INTER + INTRA:          -2.212
REMARK INTER:                  -2.212
REMARK INTRA:                   0.000
REMARK UNBOUND:                 0.000
REMARK SMILES C=C1[C@H]2CC[C@H](C2)C1(C)C
REMARK SMILES IDX 9 1 8 2 6 3 5 4 4 5 3 6 7 7 2 8 1 9 10 10
REMARK H PARENT
REMARK Flexibility Score: inf
ROOT
ATOM      1  C   UNL     1     167.172 171.801 138.291  1.00  0.00     0.016 C 
ATOM      2  C   UNL     1     168.015 173.095 138.258  1.00  0.00    -0.012 C 
ATOM      3  C   UNL     1     167.108 174.369 138.387  1.00  0.00    -0.001 C 
ATOM      4  C   UNL     1     167.927 175.663 138.163  1.00  0.00     0.005 C 
ATOM      5  C   UNL     1     168.849 175.706 139.400  1.00  0.00     0.008 C 
ATOM      6  C   UNL     1     168.370 174.500 140.227  1.00  0.00     0.015 C 
ATOM      7  C   UNL     1     166.895 174.473 139.894  1.00  0.00     0.012 C 
ATOM      8  C   UNL     1     168.831 173.255 139.519  1.00  0.00    -0.068 C 
ATOM      9  C   UNL     1     169.833 172.465 139.923  1.00  0.00     0.008 C 
ATOM     10  C   UNL     1     168.906 173.085 136.995  1.00  0.00     0.016 C 
ENDROOT
TORSDOF 0
ENDMDL
MODEL 8
REMARK VINA RESULT:    -2.076     16.035     17.321
REMARK INTER + INTRA:          -2.076
REMARK INTER:                  -2.076
REMARK INTRA:                   0.000
REMARK UNBOUND:                 0.000
REMARK SMILES C=C1[C@H]2CC[C@H](C2)C1(C)C
REMARK SMILES IDX 9 1 8 2 6 3 5 4 4 5 3 6 7 7 2 8 1 9 10 10
REMARK H PARENT
REMARK Flexibility Score: inf
ROOT
ATOM      1  C   UNL     1     163.680 157.904 137.693  1.00  0.00     0.016 C 
ATOM      2  C   UNL     1     164.096 157.274 139.041  1.00  0.00    -0.012 C 
ATOM      3  C   UNL     1     165.543 156.672 138.965  1.00  0.00    -0.001 C 
ATOM      4  C   UNL     1     165.884 155.875 140.248  1.00  0.00     0.005 C 
ATOM      5  C   UNL     1     165.968 156.978 141.325  1.00  0.00     0.008 C 
ATOM      6  C   UNL     1     165.776 158.269 140.512  1.00  0.00     0.015 C 
ATOM      7  C   UNL     1     166.423 157.896 139.197  1.00  0.00     0.012 C 
ATOM      8  C   UNL     1     164.331 158.329 140.095  1.00  0.00    -0.068 C 
ATOM      9  C   UNL     1     163.411 159.147 140.620  1.00  0.00     0.008 C 
ATOM     10  C   UNL     1     163.016 156.257 139.476  1.00  0.00     0.016 C 
ENDROOT
TORSDOF 0
ENDMDL
