MODEL 1
REMARK VINA RESULT:    -3.684      0.000      0.000
REMARK INTER + INTRA:          -7.381
REMARK INTER:                  -5.622
REMARK INTRA:                  -1.759
REMARK UNBOUND:                -1.759
REMARK SMILES CC(=O)CCC=C(C)CCC=C(C)CCC=C(C)C
REMARK SMILES IDX 10 1 11 2 12 3 13 4 14 5 15 6 16 7 18 8 17 9 19 10 9 11 7 12
REMARK SMILES IDX 6 13 8 14 5 15 4 16 2 17 3 18 1 19
REMARK H PARENT
REMARK Flexibility Score: inf
ROOT
ATOM      1  C   UNL     1      -7.107  -2.438   6.583  1.00  0.00     0.032 C 
ENDROOT
BRANCH   1   2
ATOM      2  C   UNL     1      -8.232  -2.135   5.620  1.00  0.00    -0.028 C 
ATOM      3  C   UNL     1      -9.023  -1.035   5.636  1.00  0.00    -0.077 C 
ATOM      4  C   UNL     1     -10.114  -0.933   4.600  1.00  0.00     0.039 C 
BRANCH   3   5
ATOM      5  C   UNL     1      -8.835   0.125   6.597  1.00  0.00     0.034 C 
BRANCH   5   6
ATOM      6  C   UNL     1      -9.032  -0.309   8.058  1.00  0.00     0.032 C 
BRANCH   6   7
ATOM      7  C   UNL     1      -7.874   0.101   8.936  1.00  0.00    -0.028 C 
ATOM      8  C   UNL     1      -7.768  -2.103  10.114  1.00  0.00     0.039 C 
ATOM      9  C   UNL     1      -7.271  -0.703   9.837  1.00  0.00    -0.080 C 
ATOM     10  C   UNL     1      -6.068  -0.174  10.578  1.00  0.00     0.039 C 
ENDBRANCH   6   7
ENDBRANCH   5   6
ENDBRANCH   3   5
ENDBRANCH   1   2
BRANCH   1  11
ATOM     11  C   UNL     1      -6.489  -3.811   6.294  1.00  0.00     0.034 C 
BRANCH  11  12
ATOM     12  C   UNL     1      -5.329  -4.114   7.224  1.00  0.00    -0.077 C 
ATOM     13  C   UNL     1      -4.886  -3.144   8.055  1.00  0.00    -0.028 C 
ATOM     14  C   UNL     1      -4.720  -5.497   7.216  1.00  0.00     0.039 C 
BRANCH  13  15
ATOM     15  C   UNL     1      -3.701  -3.284   8.976  1.00  0.00     0.035 C 
BRANCH  15  16
ATOM     16  C   UNL     1      -4.140  -3.192  10.441  1.00  0.00     0.079 C 
BRANCH  16  17
ATOM     17  C   UNL     1      -4.488  -4.557  10.976  1.00  0.00     0.130 C 
ATOM     18  O   UNL     1      -3.599  -5.288  11.382  1.00  0.00    -0.300 OA
ATOM     19  C   UNL     1      -5.907  -5.046  11.004  1.00  0.00     0.087 C 
ENDBRANCH  16  17
ENDBRANCH  15  16
ENDBRANCH  13  15
ENDBRANCH  11  12
ENDBRANCH   1  11
TORSDOF 9
ENDMDL
MODEL 2
REMARK VINA RESULT:    -3.505      1.237      3.881
REMARK INTER + INTRA:          -7.108
REMARK INTER:                  -5.810
REMARK INTRA:                  -1.298
REMARK UNBOUND:                -1.759
REMARK SMILES CC(=O)CCC=C(C)CCC=C(C)CCC=C(C)C
REMARK SMILES IDX 10 1 11 2 12 3 13 4 14 5 15 6 16 7 18 8 17 9 19 10 9 11 7 12
REMARK SMILES IDX 6 13 8 14 5 15 4 16 2 17 3 18 1 19
REMARK H PARENT
REMARK Flexibility Score: inf
ROOT
ATOM      1  C   UNL     1      -9.679  -0.347   9.305  1.00  0.00     0.032 C 
ENDROOT
BRANCH   1   2
ATOM      2  C   UNL     1      -9.482   0.125   7.882  1.00  0.00    -0.028 C 
ATOM      3  C   UNL     1      -8.927  -0.589   6.874  1.00  0.00    -0.077 C 
ATOM      4  C   UNL     1      -8.795   0.077   5.526  1.00  0.00     0.039 C 
BRANCH   3   5
ATOM      5  C   UNL     1      -8.488  -2.035   7.006  1.00  0.00     0.034 C 
BRANCH   5   6
ATOM      6  C   UNL     1      -7.103  -2.268   6.383  1.00  0.00     0.032 C 
BRANCH   6   7
ATOM      7  C   UNL     1      -6.350  -3.384   7.068  1.00  0.00    -0.028 C 
ATOM      8  C   UNL     1      -6.323  -4.840   5.035  1.00  0.00     0.039 C 
ATOM      9  C   UNL     1      -5.960  -4.528   6.468  1.00  0.00    -0.080 C 
ATOM     10  C   UNL     1      -5.138  -5.511   7.264  1.00  0.00     0.039 C 
ENDBRANCH   6   7
ENDBRANCH   5   6
ENDBRANCH   3   5
ENDBRANCH   1   2
BRANCH   1  11
ATOM     11  C   UNL     1      -8.476   0.024  10.181  1.00  0.00     0.034 C 
BRANCH  11  12
ATOM     12  C   UNL     1      -7.300  -0.905   9.946  1.00  0.00    -0.077 C 
ATOM     13  C   UNL     1      -6.136  -0.386   9.493  1.00  0.00    -0.028 C 
ATOM     14  C   UNL     1      -7.453  -2.377  10.250  1.00  0.00     0.039 C 
BRANCH  13  15
ATOM     15  C   UNL     1      -4.915  -1.200   9.149  1.00  0.00     0.035 C 
BRANCH  15  16
ATOM     16  C   UNL     1      -4.424  -1.981  10.373  1.00  0.00     0.079 C 
BRANCH  16  17
ATOM     17  C   UNL     1      -4.022  -3.379   9.982  1.00  0.00     0.130 C 
ATOM     18  O   UNL     1      -3.284  -3.546   9.024  1.00  0.00    -0.300 OA
ATOM     19  C   UNL     1      -4.525  -4.576  10.736  1.00  0.00     0.087 C 
ENDBRANCH  16  17
ENDBRANCH  15  16
ENDBRANCH  13  15
ENDBRANCH  11  12
ENDBRANCH   1  11
TORSDOF 9
ENDMDL
MODEL 3
REMARK VINA RESULT:    -3.464      2.157      6.489
REMARK INTER + INTRA:          -7.046
REMARK INTER:                  -6.049
REMARK INTRA:                  -0.998
REMARK UNBOUND:                -1.759
REMARK SMILES CC(=O)CCC=C(C)CCC=C(C)CCC=C(C)C
REMARK SMILES IDX 10 1 11 2 12 3 13 4 14 5 15 6 16 7 18 8 17 9 19 10 9 11 7 12
REMARK SMILES IDX 6 13 8 14 5 15 4 16 2 17 3 18 1 19
REMARK H PARENT
REMARK Flexibility Score: inf
ROOT
ATOM      1  C   UNL     1      -7.224  -2.999  10.088  1.00  0.00     0.032 C 
ENDROOT
BRANCH   1   2
ATOM      2  C   UNL     1      -6.284  -4.008  10.707  1.00  0.00    -0.028 C 
ATOM      3  C   UNL     1      -4.942  -4.059  10.536  1.00  0.00    -0.077 C 
ATOM      4  C   UNL     1      -4.182  -5.168  11.222  1.00  0.00     0.039 C 
BRANCH   3   5
ATOM      5  C   UNL     1      -4.153  -3.032   9.745  1.00  0.00     0.034 C 
BRANCH   5   6
ATOM      6  C   UNL     1      -3.397  -3.675   8.572  1.00  0.00     0.032 C 
BRANCH   6   7
ATOM      7  C   UNL     1      -4.192  -4.780   7.918  1.00  0.00    -0.028 C 
ATOM      8  C   UNL     1      -5.758  -3.202   6.772  1.00  0.00     0.039 C 
ATOM      9  C   UNL     1      -5.231  -4.585   7.079  1.00  0.00    -0.080 C 
ATOM     10  C   UNL     1      -5.870  -5.791   6.437  1.00  0.00     0.039 C 
ENDBRANCH   6   7
ENDBRANCH   5   6
ENDBRANCH   3   5
ENDBRANCH   1   2
BRANCH   1  11
ATOM     11  C   UNL     1      -6.758  -1.565  10.372  1.00  0.00     0.034 C 
BRANCH  11  12
ATOM     12  C   UNL     1      -6.808  -0.700   9.127  1.00  0.00    -0.077 C 
ATOM     13  C   UNL     1      -7.958  -0.639   8.418  1.00  0.00    -0.028 C 
ATOM     14  C   UNL     1      -5.582   0.090   8.730  1.00  0.00     0.039 C 
BRANCH  13  15
ATOM     15  C   UNL     1      -8.125   0.120   7.126  1.00  0.00     0.035 C 
BRANCH  15  16
ATOM     16  C   UNL     1      -9.468  -0.216   6.471  1.00  0.00     0.079 C 
BRANCH  16  17
ATOM     17  C   UNL     1      -9.279  -1.207   5.352  1.00  0.00     0.130 C 
ATOM     18  O   UNL     1      -8.411  -2.060   5.447  1.00  0.00    -0.300 OA
ATOM     19  C   UNL     1     -10.124  -1.157   4.113  1.00  0.00     0.087 C 
ENDBRANCH  16  17
ENDBRANCH  15  16
ENDBRANCH  13  15
ENDBRANCH  11  12
ENDBRANCH   1  11
TORSDOF 9
ENDMDL
MODEL 4
REMARK VINA RESULT:    -3.413     19.820     21.413
REMARK INTER + INTRA:          -6.967
REMARK INTER:                  -4.392
REMARK INTRA:                  -2.576
REMARK UNBOUND:                -1.759
REMARK SMILES CC(=O)CCC=C(C)CCC=C(C)CCC=C(C)C
REMARK SMILES IDX 10 1 11 2 12 3 13 4 14 5 15 6 16 7 18 8 17 9 19 10 9 11 7 12
REMARK SMILES IDX 6 13 8 14 5 15 4 16 2 17 3 18 1 19
REMARK H PARENT
REMARK Flexibility Score: inf
ROOT
ATOM      1  C   UNL     1     -17.618 -18.836  12.721  1.00  0.00     0.032 C 
ENDROOT
BRANCH   1   2
ATOM      2  C   UNL     1     -18.087 -18.908  11.285  1.00  0.00    -0.028 C 
ATOM      3  C   UNL     1     -19.292 -19.355  10.860  1.00  0.00    -0.077 C 
ATOM      4  C   UNL     1     -19.557 -19.373   9.375  1.00  0.00     0.039 C 
BRANCH   3   5
ATOM      5  C   UNL     1     -20.411 -19.780  11.793  1.00  0.00     0.034 C 
BRANCH   5   6
ATOM      6  C   UNL     1     -21.677 -18.934  11.587  1.00  0.00     0.032 C 
BRANCH   6   7
ATOM      7  C   UNL     1     -21.820 -17.857  12.637  1.00  0.00    -0.028 C 
ATOM      8  C   UNL     1     -20.871 -16.067  11.170  1.00  0.00     0.039 C 
ATOM      9  C   UNL     1     -21.498 -16.560  12.454  1.00  0.00    -0.080 C 
ATOM     10  C   UNL     1     -21.781 -15.587  13.572  1.00  0.00     0.039 C 
ENDBRANCH   6   7
ENDBRANCH   5   6
ENDBRANCH   3   5
ENDBRANCH   1   2
BRANCH   1  11
ATOM     11  C   UNL     1     -18.042 -17.514  13.373  1.00  0.00     0.034 C 
BRANCH  11  12
ATOM     12  C   UNL     1     -18.324 -17.682  14.854  1.00  0.00    -0.077 C 
ATOM     13  C   UNL     1     -19.518 -18.187  15.240  1.00  0.00    -0.028 C 
ATOM     14  C   UNL     1     -17.256 -17.305  15.855  1.00  0.00     0.039 C 
BRANCH  13  15
ATOM     15  C   UNL     1     -19.957 -18.339  16.674  1.00  0.00     0.035 C 
BRANCH  15  16
ATOM     16  C   UNL     1     -21.305 -17.646  16.902  1.00  0.00     0.079 C 
BRANCH  16  17
ATOM     17  C   UNL     1     -21.102 -16.268  17.474  1.00  0.00     0.130 C 
ATOM     18  O   UNL     1     -20.095 -16.029  18.122  1.00  0.00    -0.300 OA
ATOM     19  C   UNL     1     -22.123 -15.184  17.280  1.00  0.00     0.087 C 
ENDBRANCH  16  17
ENDBRANCH  15  16
ENDBRANCH  13  15
ENDBRANCH  11  12
ENDBRANCH   1  11
TORSDOF 9
ENDMDL
MODEL 5
REMARK VINA RESULT:    -3.376     20.014     21.624
REMARK INTER + INTRA:          -6.912
REMARK INTER:                  -4.842
REMARK INTRA:                  -2.070
REMARK UNBOUND:                -1.759
REMARK SMILES CC(=O)CCC=C(C)CCC=C(C)CCC=C(C)C
REMARK SMILES IDX 10 1 11 2 12 3 13 4 14 5 15 6 16 7 18 8 17 9 19 10 9 11 7 12
REMARK SMILES IDX 6 13 8 14 5 15 4 16 2 17 3 18 1 19
REMARK H PARENT
REMARK Flexibility Score: inf
ROOT
ATOM      1  C   UNL     1     -17.721 -18.113  14.102  1.00  0.00     0.032 C 
ENDROOT
BRANCH   1   2
ATOM      2  C   UNL     1     -18.310 -17.513  15.358  1.00  0.00    -0.028 C 
ATOM      3  C   UNL     1     -19.535 -17.779  15.871  1.00  0.00    -0.077 C 
ATOM      4  C   UNL     1     -19.950 -17.052  17.126  1.00  0.00     0.039 C 
BRANCH   3   5
ATOM      5  C   UNL     1     -20.487 -18.809  15.290  1.00  0.00     0.034 C 
BRANCH   5   6
ATOM      6  C   UNL     1     -21.849 -18.189  14.938  1.00  0.00     0.032 C 
BRANCH   6   7
ATOM      7  C   UNL     1     -21.851 -17.559  13.566  1.00  0.00    -0.028 C 
ATOM      8  C   UNL     1     -21.965 -15.224  14.456  1.00  0.00     0.039 C 
ATOM      9  C   UNL     1     -21.865 -16.230  13.332  1.00  0.00    -0.080 C 
ATOM     10  C   UNL     1     -21.777 -15.753  11.904  1.00  0.00     0.039 C 
ENDBRANCH   6   7
ENDBRANCH   5   6
ENDBRANCH   3   5
ENDBRANCH   1   2
BRANCH   1  11
ATOM     11  C   UNL     1     -18.343 -17.486  12.848  1.00  0.00     0.034 C 
BRANCH  11  12
ATOM     12  C   UNL     1     -18.404 -18.472  11.697  1.00  0.00    -0.077 C 
ATOM     13  C   UNL     1     -19.430 -18.391  10.819  1.00  0.00    -0.028 C 
ATOM     14  C   UNL     1     -17.306 -19.499  11.547  1.00  0.00     0.039 C 
BRANCH  13  15
ATOM     15  C   UNL     1     -19.653 -19.348   9.676  1.00  0.00     0.035 C 
BRANCH  15  16
ATOM     16  C   UNL     1     -21.116 -19.314   9.219  1.00  0.00     0.079 C 
BRANCH  16  17
ATOM     17  C   UNL     1     -21.299 -18.319   8.103  1.00  0.00     0.130 C 
ATOM     18  O   UNL     1     -21.429 -17.135   8.369  1.00  0.00    -0.300 OA
ATOM     19  C   UNL     1     -21.343 -18.756   6.667  1.00  0.00     0.087 C 
ENDBRANCH  16  17
ENDBRANCH  15  16
ENDBRANCH  13  15
ENDBRANCH  11  12
ENDBRANCH   1  11
TORSDOF 9
ENDMDL
MODEL 6
REMARK VINA RESULT:    -3.208     20.026     21.735
REMARK INTER + INTRA:          -6.655
REMARK INTER:                  -4.850
REMARK INTRA:                  -1.805
REMARK UNBOUND:                -1.759
REMARK SMILES CC(=O)CCC=C(C)CCC=C(C)CCC=C(C)C
REMARK SMILES IDX 10 1 11 2 12 3 13 4 14 5 15 6 16 7 18 8 17 9 19 10 9 11 7 12
REMARK SMILES IDX 6 13 8 14 5 15 4 16 2 17 3 18 1 19
REMARK H PARENT
REMARK Flexibility Score: inf
ROOT
ATOM      1  C   UNL     1     -18.028 -17.892  12.671  1.00  0.00     0.032 C 
ENDROOT
BRANCH   1   2
ATOM      2  C   UNL     1     -17.330 -18.672  13.762  1.00  0.00    -0.028 C 
ATOM      3  C   UNL     1     -17.260 -18.328  15.070  1.00  0.00    -0.077 C 
ATOM      4  C   UNL     1     -16.489 -19.232  15.999  1.00  0.00     0.039 C 
BRANCH   3   5
ATOM      5  C   UNL     1     -17.961 -17.119  15.662  1.00  0.00     0.034 C 
BRANCH   5   6
ATOM      6  C   UNL     1     -19.216 -17.521  16.454  1.00  0.00     0.032 C 
BRANCH   6   7
ATOM      7  C   UNL     1     -20.173 -18.344  15.625  1.00  0.00    -0.028 C 
ATOM      8  C   UNL     1     -21.401 -16.347  14.755  1.00  0.00     0.039 C 
ATOM      9  C   UNL     1     -21.135 -17.832  14.829  1.00  0.00    -0.080 C 
ATOM     10  C   UNL     1     -21.957 -18.784  13.995  1.00  0.00     0.039 C 
ENDBRANCH   6   7
ENDBRANCH   5   6
ENDBRANCH   3   5
ENDBRANCH   1   2
BRANCH   1  11
ATOM     11  C   UNL     1     -18.787 -18.829  11.723  1.00  0.00     0.034 C 
BRANCH  11  12
ATOM     12  C   UNL     1     -19.869 -18.095  10.954  1.00  0.00    -0.077 C 
ATOM     13  C   UNL     1     -20.528 -18.747   9.968  1.00  0.00    -0.028 C 
ATOM     14  C   UNL     1     -20.199 -16.668  11.326  1.00  0.00     0.039 C 
BRANCH  13  15
ATOM     15  C   UNL     1     -21.571 -18.119   9.079  1.00  0.00     0.035 C 
BRANCH  15  16
ATOM     16  C   UNL     1     -21.733 -18.924   7.785  1.00  0.00     0.079 C 
BRANCH  16  17
ATOM     17  C   UNL     1     -21.331 -18.096   6.592  1.00  0.00     0.130 C 
ATOM     18  O   UNL     1     -20.536 -18.552   5.786  1.00  0.00    -0.300 OA
ATOM     19  C   UNL     1     -21.873 -16.712   6.384  1.00  0.00     0.087 C 
ENDBRANCH  16  17
ENDBRANCH  15  16
ENDBRANCH  13  15
ENDBRANCH  11  12
ENDBRANCH   1  11
TORSDOF 9
ENDMDL
MODEL 7
REMARK VINA RESULT:    -3.127     19.654     20.598
REMARK INTER + INTRA:          -6.532
REMARK INTER:                  -4.775
REMARK INTRA:                  -1.757
REMARK UNBOUND:                -1.759
REMARK SMILES CC(=O)CCC=C(C)CCC=C(C)CCC=C(C)C
REMARK SMILES IDX 10 1 11 2 12 3 13 4 14 5 15 6 16 7 18 8 17 9 19 10 9 11 7 12
REMARK SMILES IDX 6 13 8 14 5 15 4 16 2 17 3 18 1 19
REMARK H PARENT
REMARK Flexibility Score: inf
ROOT
ATOM      1  C   UNL     1     -20.329 -18.834  10.590  1.00  0.00     0.032 C 
ENDROOT
BRANCH   1   2
ATOM      2  C   UNL     1     -20.732 -17.529   9.941  1.00  0.00    -0.028 C 
ATOM      3  C   UNL     1     -21.487 -16.557  10.505  1.00  0.00    -0.077 C 
ATOM      4  C   UNL     1     -21.803 -15.336   9.677  1.00  0.00     0.039 C 
BRANCH   3   5
ATOM      5  C   UNL     1     -21.981 -16.598  11.939  1.00  0.00     0.034 C 
BRANCH   5   6
ATOM      6  C   UNL     1     -20.826 -16.459  12.943  1.00  0.00     0.032 C 
BRANCH   6   7
ATOM      7  C   UNL     1     -21.317 -16.154  14.339  1.00  0.00    -0.028 C 
ATOM      8  C   UNL     1     -21.020 -18.506  15.137  1.00  0.00     0.039 C 
ATOM      9  C   UNL     1     -21.375 -17.052  15.344  1.00  0.00    -0.080 C 
ATOM     10  C   UNL     1     -21.808 -16.573  16.708  1.00  0.00     0.039 C 
ENDBRANCH   6   7
ENDBRANCH   5   6
ENDBRANCH   3   5
ENDBRANCH   1   2
BRANCH   1  11
ATOM     11  C   UNL     1     -18.964 -19.308  10.074  1.00  0.00     0.034 C 
BRANCH  11  12
ATOM     12  C   UNL     1     -17.899 -19.238  11.151  1.00  0.00    -0.077 C 
ATOM     13  C   UNL     1     -18.273 -18.976  12.424  1.00  0.00    -0.028 C 
ATOM     14  C   UNL     1     -16.456 -19.489  10.778  1.00  0.00     0.039 C 
BRANCH  13  15
ATOM     15  C   UNL     1     -17.316 -18.807  13.577  1.00  0.00     0.035 C 
BRANCH  15  16
ATOM     16  C   UNL     1     -17.683 -17.573  14.409  1.00  0.00     0.079 C 
BRANCH  16  17
ATOM     17  C   UNL     1     -17.230 -17.743  15.835  1.00  0.00     0.130 C 
ATOM     18  O   UNL     1     -16.445 -18.635  16.114  1.00  0.00    -0.300 OA
ATOM     19  C   UNL     1     -17.738 -16.847  16.927  1.00  0.00     0.087 C 
ENDBRANCH  16  17
ENDBRANCH  15  16
ENDBRANCH  13  15
ENDBRANCH  11  12
ENDBRANCH   1  11
TORSDOF 9
ENDMDL
MODEL 8
REMARK VINA RESULT:    -3.032     19.984     21.314
REMARK INTER + INTRA:          -6.387
REMARK INTER:                  -4.271
REMARK INTRA:                  -2.116
REMARK UNBOUND:                -1.759
REMARK SMILES CC(=O)CCC=C(C)CCC=C(C)CCC=C(C)C
REMARK SMILES IDX 10 1 11 2 12 3 13 4 14 5 15 6 16 7 18 8 17 9 19 10 9 11 7 12
REMARK SMILES IDX 6 13 8 14 5 15 4 16 2 17 3 18 1 19
REMARK H PARENT
REMARK Flexibility Score: inf
ROOT
ATOM      1  C   UNL     1     -18.492 -20.125  10.617  1.00  0.00     0.032 C 
ENDROOT
BRANCH   1   2
ATOM      2  C   UNL     1     -18.702 -19.757   9.165  1.00  0.00    -0.028 C 
ATOM      3  C   UNL     1     -19.882 -19.771   8.501  1.00  0.00    -0.077 C 
ATOM      4  C   UNL     1     -19.876 -19.394   7.040  1.00  0.00     0.039 C 
BRANCH   3   5
ATOM      5  C   UNL     1     -21.215 -20.085   9.156  1.00  0.00     0.034 C 
BRANCH   5   6
ATOM      6  C   UNL     1     -22.125 -18.848   9.215  1.00  0.00     0.032 C 
BRANCH   6   7
ATOM      7  C   UNL     1     -21.646 -17.836  10.228  1.00  0.00    -0.028 C 
ATOM      8  C   UNL     1     -21.696 -15.935   8.603  1.00  0.00     0.039 C 
ATOM      9  C   UNL     1     -21.484 -16.520   9.981  1.00  0.00    -0.080 C 
ATOM     10  C   UNL     1     -21.081 -15.619  11.123  1.00  0.00     0.039 C 
ENDBRANCH   6   7
ENDBRANCH   5   6
ENDBRANCH   3   5
ENDBRANCH   1   2
BRANCH   1  11
ATOM     11  C   UNL     1     -17.308 -19.355  11.214  1.00  0.00     0.034 C 
BRANCH  11  12
ATOM     12  C   UNL     1     -17.598 -18.884  12.627  1.00  0.00    -0.077 C 
ATOM     13  C   UNL     1     -18.363 -17.783  12.806  1.00  0.00    -0.028 C 
ATOM     14  C   UNL     1     -17.048 -19.672  13.793  1.00  0.00     0.039 C 
BRANCH  13  15
ATOM     15  C   UNL     1     -18.668 -17.164  14.146  1.00  0.00     0.035 C 
BRANCH  15  16
ATOM     16  C   UNL     1     -20.182 -17.044  14.354  1.00  0.00     0.079 C 
BRANCH  16  17
ATOM     17  C   UNL     1     -20.789 -18.398  14.617  1.00  0.00     0.130 C 
ATOM     18  O   UNL     1     -20.410 -19.050  15.577  1.00  0.00    -0.300 OA
ATOM     19  C   UNL     1     -21.840 -18.971  13.711  1.00  0.00     0.087 C 
ENDBRANCH  16  17
ENDBRANCH  15  16
ENDBRANCH  13  15
ENDBRANCH  11  12
ENDBRANCH   1  11
TORSDOF 9
ENDMDL
MODEL 9
REMARK VINA RESULT:    -2.994     19.672     21.010
REMARK INTER + INTRA:          -6.329
REMARK INTER:                  -4.592
REMARK INTRA:                  -1.737
REMARK UNBOUND:                -1.759
REMARK SMILES CC(=O)CCC=C(C)CCC=C(C)CCC=C(C)C
REMARK SMILES IDX 10 1 11 2 12 3 13 4 14 5 15 6 16 7 18 8 17 9 19 10 9 11 7 12
REMARK SMILES IDX 6 13 8 14 5 15 4 16 2 17 3 18 1 19
REMARK H PARENT
REMARK Flexibility Score: inf
ROOT
ATOM      1  C   UNL     1     -18.548 -20.077  10.799  1.00  0.00     0.032 C 
ENDROOT
BRANCH   1   2
ATOM      2  C   UNL     1     -18.742 -19.709   9.346  1.00  0.00    -0.028 C 
ATOM      3  C   UNL     1     -19.917 -19.706   8.672  1.00  0.00    -0.077 C 
ATOM      4  C   UNL     1     -19.893 -19.332   7.210  1.00  0.00     0.039 C 
BRANCH   3   5
ATOM      5  C   UNL     1     -21.259 -19.999   9.317  1.00  0.00     0.034 C 
BRANCH   5   6
ATOM      6  C   UNL     1     -21.696 -18.868  10.260  1.00  0.00     0.032 C 
BRANCH   6   7
ATOM      7  C   UNL     1     -21.945 -17.574   9.521  1.00  0.00    -0.028 C 
ATOM      8  C   UNL     1     -20.498 -16.226  11.053  1.00  0.00     0.039 C 
ATOM      9  C   UNL     1     -21.387 -16.388   9.841  1.00  0.00    -0.080 C 
ATOM     10  C   UNL     1     -21.666 -15.201   8.952  1.00  0.00     0.039 C 
ENDBRANCH   6   7
ENDBRANCH   5   6
ENDBRANCH   3   5
ENDBRANCH   1   2
BRANCH   1  11
ATOM     11  C   UNL     1     -17.733 -19.006  11.535  1.00  0.00     0.034 C 
BRANCH  11  12
ATOM     12  C   UNL     1     -18.275 -18.744  12.928  1.00  0.00    -0.077 C 
ATOM     13  C   UNL     1     -18.078 -17.529  13.488  1.00  0.00    -0.028 C 
ATOM     14  C   UNL     1     -19.041 -19.836  13.638  1.00  0.00     0.039 C 
BRANCH  13  15
ATOM     15  C   UNL     1     -18.497 -17.157  14.888  1.00  0.00     0.035 C 
BRANCH  15  16
ATOM     16  C   UNL     1     -17.331 -17.334  15.866  1.00  0.00     0.079 C 
BRANCH  16  17
ATOM     17  C   UNL     1     -17.595 -18.485  16.801  1.00  0.00     0.130 C 
ATOM     18  O   UNL     1     -18.688 -18.585  17.337  1.00  0.00    -0.300 OA
ATOM     19  C   UNL     1     -16.536 -19.505  17.103  1.00  0.00     0.087 C 
ENDBRANCH  16  17
ENDBRANCH  15  16
ENDBRANCH  13  15
ENDBRANCH  11  12
ENDBRANCH   1  11
TORSDOF 9
ENDMDL
