MODEL 1
REMARK VINA RESULT:    -4.069      0.000      0.000
REMARK INTER + INTRA:         -10.337
REMARK INTER:                  -7.875
REMARK INTRA:                  -2.462
REMARK UNBOUND:                -2.462
REMARK SMILES CCCCCCCCCCCCCCCCCC(=O)[O-]
REMARK SMILES IDX 10 1 11 2 12 3 13 4 14 5 15 6 16 7 17 8 18 9 19 10 20 11
REMARK SMILES IDX 9 12 8 13 7 14 6 15 5 16 4 17 3 18 2 19 1 20
REMARK H PARENT
REMARK Flexibility Score: inf
ROOT
ATOM      1  C   UNL     1      11.764   1.588  -3.620  1.00  0.00     0.000 C 
ENDROOT
BRANCH   1   2
ATOM      2  C   UNL     1      12.211   2.261  -2.311  1.00  0.00     0.000 C 
BRANCH   2   3
ATOM      3  C   UNL     1      12.241   1.282  -1.125  1.00  0.00     0.000 C 
BRANCH   3   4
ATOM      4  C   UNL     1      11.281   1.687   0.007  1.00  0.00     0.000 C 
BRANCH   4   5
ATOM      5  C   UNL     1      10.256   2.764  -0.407  1.00  0.00     0.000 C 
BRANCH   5   6
ATOM      6  C   UNL     1       9.396   3.234   0.780  1.00  0.00     0.000 C 
BRANCH   6   7
ATOM      7  C   UNL     1       9.860   4.579   1.367  1.00  0.00     0.006 C 
BRANCH   7   8
ATOM      8  C   UNL     1       8.712   5.562   1.658  1.00  0.00     0.053 C 
BRANCH   8   9
ATOM      9  C   UNL     1       8.997   6.455   2.827  1.00  0.00     0.041 C 
ATOM     10  O   UNL     1       8.095   6.709   3.669  1.00  0.00    -0.550 OA
ATOM     11  O   UNL     1      10.251   7.035   2.970  1.00  0.00    -0.550 OA
ENDBRANCH   8   9
ENDBRANCH   7   8
ENDBRANCH   6   7
ENDBRANCH   5   6
ENDBRANCH   4   5
ENDBRANCH   3   4
ENDBRANCH   2   3
ENDBRANCH   1   2
BRANCH   1  12
ATOM     12  C   UNL     1      11.249   2.596  -4.659  1.00  0.00     0.000 C 
BRANCH  12  13
ATOM     13  C   UNL     1      10.623   3.820  -3.971  1.00  0.00    -0.000 C 
BRANCH  13  14
ATOM     14  C   UNL     1      10.329   4.967  -4.951  1.00  0.00    -0.000 C 
BRANCH  14  15
ATOM     15  C   UNL     1      10.067   6.303  -4.235  1.00  0.00    -0.000 C 
BRANCH  15  16
ATOM     16  C   UNL     1      10.525   6.288  -2.768  1.00  0.00    -0.000 C 
BRANCH  16  17
ATOM     17  C   UNL     1       9.379   6.567  -1.784  1.00  0.00    -0.000 C 
BRANCH  17  18
ATOM     18  C   UNL     1       8.016   6.291  -2.439  1.00  0.00    -0.000 C 
BRANCH  18  19
ATOM     19  C   UNL     1       7.221   5.197  -1.711  1.00  0.00    -0.003 C 
ATOM     20  C   UNL     1       7.354   3.827  -2.376  1.00  0.00     0.004 C 
ENDBRANCH  18  19
ENDBRANCH  17  18
ENDBRANCH  16  17
ENDBRANCH  15  16
ENDBRANCH  14  15
ENDBRANCH  13  14
ENDBRANCH  12  13
ENDBRANCH   1  12
TORSDOF 16
ENDMDL
MODEL 2
REMARK VINA RESULT:    -4.041      3.593      5.644
REMARK INTER + INTRA:         -10.282
REMARK INTER:                  -7.737
REMARK INTRA:                  -2.545
REMARK UNBOUND:                -2.462
REMARK SMILES CCCCCCCCCCCCCCCCCC(=O)[O-]
REMARK SMILES IDX 10 1 11 2 12 3 13 4 14 5 15 6 16 7 17 8 18 9 19 10 20 11
REMARK SMILES IDX 9 12 8 13 7 14 6 15 5 16 4 17 3 18 2 19 1 20
REMARK H PARENT
REMARK Flexibility Score: inf
ROOT
ATOM      1  C   UNL     1       8.642   4.029  -1.745  1.00  0.00     0.000 C 
ENDROOT
BRANCH   1   2
ATOM      2  C   UNL     1       8.440   4.314  -0.248  1.00  0.00     0.000 C 
BRANCH   2   3
ATOM      3  C   UNL     1       8.842   3.124   0.639  1.00  0.00     0.000 C 
BRANCH   3   4
ATOM      4  C   UNL     1      10.354   2.845   0.613  1.00  0.00     0.000 C 
BRANCH   4   5
ATOM      5  C   UNL     1      10.745   1.636  -0.263  1.00  0.00     0.000 C 
BRANCH   5   6
ATOM      6  C   UNL     1      11.995   1.917  -1.116  1.00  0.00     0.000 C 
BRANCH   6   7
ATOM      7  C   UNL     1      11.886   1.365  -2.548  1.00  0.00     0.006 C 
BRANCH   7   8
ATOM      8  C   UNL     1      11.529   2.430  -3.602  1.00  0.00     0.053 C 
BRANCH   8   9
ATOM      9  C   UNL     1      11.488   1.875  -4.993  1.00  0.00     0.041 C 
ATOM     10  O   UNL     1      11.356   2.644  -5.982  1.00  0.00    -0.550 OA
ATOM     11  O   UNL     1      11.561   0.503  -5.198  1.00  0.00    -0.550 OA
ENDBRANCH   8   9
ENDBRANCH   7   8
ENDBRANCH   6   7
ENDBRANCH   5   6
ENDBRANCH   4   5
ENDBRANCH   3   4
ENDBRANCH   2   3
ENDBRANCH   1   2
BRANCH   1  12
ATOM     12  C   UNL     1       9.367   5.171  -2.473  1.00  0.00     0.000 C 
BRANCH  12  13
ATOM     13  C   UNL     1      10.598   5.633  -1.678  1.00  0.00    -0.000 C 
BRANCH  13  14
ATOM     14  C   UNL     1      10.638   7.157  -1.476  1.00  0.00    -0.000 C 
BRANCH  14  15
ATOM     15  C   UNL     1       9.240   7.798  -1.537  1.00  0.00    -0.000 C 
BRANCH  15  16
ATOM     16  C   UNL     1       8.665   8.094  -0.142  1.00  0.00    -0.000 C 
BRANCH  16  17
ATOM     17  C   UNL     1       9.747   8.477   0.878  1.00  0.00    -0.000 C 
BRANCH  17  18
ATOM     18  C   UNL     1       9.292   8.146   2.308  1.00  0.00    -0.000 C 
BRANCH  18  19
ATOM     19  C   UNL     1       9.151   6.636   2.549  1.00  0.00    -0.003 C 
ATOM     20  C   UNL     1      10.499   5.921   2.632  1.00  0.00     0.004 C 
ENDBRANCH  18  19
ENDBRANCH  17  18
ENDBRANCH  16  17
ENDBRANCH  15  16
ENDBRANCH  14  15
ENDBRANCH  13  14
ENDBRANCH  12  13
ENDBRANCH   1  12
TORSDOF 16
ENDMDL
MODEL 3
REMARK VINA RESULT:    -4.038      1.392      4.769
REMARK INTER + INTRA:         -10.277
REMARK INTER:                  -8.340
REMARK INTRA:                  -1.937
REMARK UNBOUND:                -2.462
REMARK SMILES CCCCCCCCCCCCCCCCCC(=O)[O-]
REMARK SMILES IDX 10 1 11 2 12 3 13 4 14 5 15 6 16 7 17 8 18 9 19 10 20 11
REMARK SMILES IDX 9 12 8 13 7 14 6 15 5 16 4 17 3 18 2 19 1 20
REMARK H PARENT
REMARK Flexibility Score: inf
ROOT
ATOM      1  C   UNL     1       8.527   3.893  -1.725  1.00  0.00     0.000 C 
ENDROOT
BRANCH   1   2
ATOM      2  C   UNL     1       8.976   5.182  -2.433  1.00  0.00     0.000 C 
BRANCH   2   3
ATOM      3  C   UNL     1      10.298   5.733  -1.873  1.00  0.00     0.000 C 
BRANCH   3   4
ATOM      4  C   UNL     1      10.567   7.186  -2.300  1.00  0.00     0.000 C 
BRANCH   4   5
ATOM      5  C   UNL     1      10.092   8.232  -1.269  1.00  0.00     0.000 C 
BRANCH   5   6
ATOM      6  C   UNL     1       9.941   7.632   0.140  1.00  0.00     0.000 C 
BRANCH   6   7
ATOM      7  C   UNL     1       9.917   8.697   1.251  1.00  0.00     0.006 C 
BRANCH   7   8
ATOM      8  C   UNL     1       9.467   8.159   2.621  1.00  0.00     0.053 C 
BRANCH   8   9
ATOM      9  C   UNL     1       9.355   6.665   2.648  1.00  0.00     0.041 C 
ATOM     10  O   UNL     1       8.227   6.109   2.571  1.00  0.00    -0.550 OA
ATOM     11  O   UNL     1      10.495   5.885   2.795  1.00  0.00    -0.550 OA
ENDBRANCH   8   9
ENDBRANCH   7   8
ENDBRANCH   6   7
ENDBRANCH   5   6
ENDBRANCH   4   5
ENDBRANCH   3   4
ENDBRANCH   2   3
ENDBRANCH   1   2
BRANCH   1  12
ATOM     12  C   UNL     1       8.462   4.047  -0.198  1.00  0.00     0.000 C 
BRANCH  12  13
ATOM     13  C   UNL     1       9.510   3.156   0.487  1.00  0.00    -0.000 C 
BRANCH  13  14
ATOM     14  C   UNL     1       9.990   2.005  -0.412  1.00  0.00    -0.000 C 
BRANCH  14  15
ATOM     15  C   UNL     1      11.458   1.625  -0.153  1.00  0.00    -0.000 C 
BRANCH  15  16
ATOM     16  C   UNL     1      12.270   1.485  -1.451  1.00  0.00    -0.000 C 
BRANCH  16  17
ATOM     17  C   UNL     1      12.249   2.761  -2.307  1.00  0.00    -0.000 C 
BRANCH  17  18
ATOM     18  C   UNL     1      11.561   2.503  -3.656  1.00  0.00    -0.000 C 
BRANCH  18  19
ATOM     19  C   UNL     1      11.294   1.012  -3.909  1.00  0.00    -0.003 C 
ATOM     20  C   UNL     1      11.641   0.581  -5.334  1.00  0.00     0.004 C 
ENDBRANCH  18  19
ENDBRANCH  17  18
ENDBRANCH  16  17
ENDBRANCH  15  16
ENDBRANCH  14  15
ENDBRANCH  13  14
ENDBRANCH  12  13
ENDBRANCH   1  12
TORSDOF 16
ENDMDL
MODEL 4
REMARK VINA RESULT:    -4.009      2.277      4.885
REMARK INTER + INTRA:         -10.220
REMARK INTER:                  -7.726
REMARK INTRA:                  -2.494
REMARK UNBOUND:                -2.462
REMARK SMILES CCCCCCCCCCCCCCCCCC(=O)[O-]
REMARK SMILES IDX 10 1 11 2 12 3 13 4 14 5 15 6 16 7 17 8 18 9 19 10 20 11
REMARK SMILES IDX 9 12 8 13 7 14 6 15 5 16 4 17 3 18 2 19 1 20
REMARK H PARENT
REMARK Flexibility Score: inf
ROOT
ATOM      1  C   UNL     1      12.174   1.861  -1.851  1.00  0.00     0.000 C 
ENDROOT
BRANCH   1   2
ATOM      2  C   UNL     1      11.103   1.741  -2.947  1.00  0.00     0.000 C 
BRANCH   2   3
ATOM      3  C   UNL     1      11.427   2.593  -4.185  1.00  0.00     0.000 C 
BRANCH   3   4
ATOM      4  C   UNL     1      10.615   3.898  -4.241  1.00  0.00     0.000 C 
BRANCH   4   5
ATOM      5  C   UNL     1       9.316   3.855  -3.409  1.00  0.00     0.000 C 
BRANCH   5   6
ATOM      6  C   UNL     1       9.200   5.055  -2.452  1.00  0.00     0.000 C 
BRANCH   6   7
ATOM      7  C   UNL     1      10.564   5.571  -1.960  1.00  0.00     0.006 C 
BRANCH   7   8
ATOM      8  C   UNL     1      10.517   6.988  -1.362  1.00  0.00     0.053 C 
BRANCH   8   9
ATOM      9  C   UNL     1      10.293   8.047  -2.399  1.00  0.00     0.041 C 
ATOM     10  O   UNL     1       9.255   8.760  -2.368  1.00  0.00    -0.550 OA
ATOM     11  O   UNL     1      11.215   8.223  -3.423  1.00  0.00    -0.550 OA
ENDBRANCH   8   9
ENDBRANCH   7   8
ENDBRANCH   6   7
ENDBRANCH   5   6
ENDBRANCH   4   5
ENDBRANCH   3   4
ENDBRANCH   2   3
ENDBRANCH   1   2
BRANCH   1  12
ATOM     12  C   UNL     1      11.622   1.568  -0.447  1.00  0.00     0.000 C 
BRANCH  12  13
ATOM     13  C   UNL     1      10.187   2.099  -0.301  1.00  0.00    -0.000 C 
BRANCH  13  14
ATOM     14  C   UNL     1      10.018   3.028   0.912  1.00  0.00    -0.000 C 
BRANCH  14  15
ATOM     15  C   UNL     1       8.695   3.813   0.875  1.00  0.00    -0.000 C 
BRANCH  15  16
ATOM     16  C   UNL     1       8.836   5.236   1.440  1.00  0.00    -0.000 C 
BRANCH  16  17
ATOM     17  C   UNL     1      10.245   5.523   1.984  1.00  0.00    -0.000 C 
BRANCH  17  18
ATOM     18  C   UNL     1      10.195   6.573   3.104  1.00  0.00    -0.000 C 
BRANCH  18  19
ATOM     19  C   UNL     1       9.938   7.992   2.574  1.00  0.00    -0.003 C 
ATOM     20  C   UNL     1       8.609   8.573   3.057  1.00  0.00     0.004 C 
ENDBRANCH  18  19
ENDBRANCH  17  18
ENDBRANCH  16  17
ENDBRANCH  15  16
ENDBRANCH  14  15
ENDBRANCH  13  14
ENDBRANCH  12  13
ENDBRANCH   1  12
TORSDOF 16
ENDMDL
MODEL 5
REMARK VINA RESULT:    -3.996      2.849      5.257
REMARK INTER + INTRA:         -10.196
REMARK INTER:                  -7.954
REMARK INTRA:                  -2.241
REMARK UNBOUND:                -2.462
REMARK SMILES CCCCCCCCCCCCCCCCCC(=O)[O-]
REMARK SMILES IDX 10 1 11 2 12 3 13 4 14 5 15 6 16 7 17 8 18 9 19 10 20 11
REMARK SMILES IDX 9 12 8 13 7 14 6 15 5 16 4 17 3 18 2 19 1 20
REMARK H PARENT
REMARK Flexibility Score: inf
ROOT
ATOM      1  C   UNL     1      10.184   5.997  -3.260  1.00  0.00     0.000 C 
ENDROOT
BRANCH   1   2
ATOM      2  C   UNL     1      10.336   5.649  -4.750  1.00  0.00     0.000 C 
BRANCH   2   3
ATOM      3  C   UNL     1      10.625   4.157  -4.981  1.00  0.00     0.000 C 
BRANCH   3   4
ATOM      4  C   UNL     1      11.212   3.463  -3.741  1.00  0.00     0.000 C 
BRANCH   4   5
ATOM      5  C   UNL     1      11.497   1.960  -3.948  1.00  0.00     0.000 C 
BRANCH   5   6
ATOM      6  C   UNL     1      11.368   1.159  -2.640  1.00  0.00     0.000 C 
BRANCH   6   7
ATOM      7  C   UNL     1      12.211   1.739  -1.491  1.00  0.00     0.006 C 
BRANCH   7   8
ATOM      8  C   UNL     1      11.851   1.173  -0.105  1.00  0.00     0.053 C 
BRANCH   8   9
ATOM      9  C   UNL     1      12.849   0.168   0.386  1.00  0.00     0.041 C 
ATOM     10  O   UNL     1      13.868  -0.106  -0.302  1.00  0.00    -0.550 OA
ATOM     11  O   UNL     1      12.635  -0.494   1.588  1.00  0.00    -0.550 OA
ENDBRANCH   8   9
ENDBRANCH   7   8
ENDBRANCH   6   7
ENDBRANCH   5   6
ENDBRANCH   4   5
ENDBRANCH   3   4
ENDBRANCH   2   3
ENDBRANCH   1   2
BRANCH   1  12
ATOM     12  C   UNL     1      10.641   7.428  -2.935  1.00  0.00     0.000 C 
BRANCH  12  13
ATOM     13  C   UNL     1      10.332   7.783  -1.473  1.00  0.00    -0.000 C 
BRANCH  13  14
ATOM     14  C   UNL     1      10.287   6.548  -0.558  1.00  0.00    -0.000 C 
BRANCH  14  15
ATOM     15  C   UNL     1       9.773   6.877   0.855  1.00  0.00    -0.000 C 
BRANCH  15  16
ATOM     16  C   UNL     1       9.348   5.623   1.636  1.00  0.00    -0.000 C 
BRANCH  16  17
ATOM     17  C   UNL     1       9.966   4.333   1.073  1.00  0.00    -0.000 C 
BRANCH  17  18
ATOM     18  C   UNL     1       8.872   3.363   0.601  1.00  0.00    -0.000 C 
BRANCH  18  19
ATOM     19  C   UNL     1       8.839   3.206  -0.927  1.00  0.00    -0.003 C 
ATOM     20  C   UNL     1       7.715   4.011  -1.580  1.00  0.00     0.004 C 
ENDBRANCH  18  19
ENDBRANCH  17  18
ENDBRANCH  16  17
ENDBRANCH  15  16
ENDBRANCH  14  15
ENDBRANCH  13  14
ENDBRANCH  12  13
ENDBRANCH   1  12
TORSDOF 16
ENDMDL
MODEL 6
REMARK VINA RESULT:    -3.989      1.326      2.529
REMARK INTER + INTRA:         -10.182
REMARK INTER:                  -7.962
REMARK INTRA:                  -2.220
REMARK UNBOUND:                -2.462
REMARK SMILES CCCCCCCCCCCCCCCCCC(=O)[O-]
REMARK SMILES IDX 10 1 11 2 12 3 13 4 14 5 15 6 16 7 17 8 18 9 19 10 20 11
REMARK SMILES IDX 9 12 8 13 7 14 6 15 5 16 4 17 3 18 2 19 1 20
REMARK H PARENT
REMARK Flexibility Score: inf
ROOT
ATOM      1  C   UNL     1      12.259   1.553  -2.415  1.00  0.00     0.000 C 
ENDROOT
BRANCH   1   2
ATOM      2  C   UNL     1      11.868   1.671  -0.933  1.00  0.00     0.000 C 
BRANCH   2   3
ATOM      3  C   UNL     1      10.472   2.287  -0.738  1.00  0.00     0.000 C 
BRANCH   3   4
ATOM      4  C   UNL     1      10.212   2.726   0.713  1.00  0.00     0.000 C 
BRANCH   4   5
ATOM      5  C   UNL     1       9.129   3.819   0.844  1.00  0.00     0.000 C 
BRANCH   5   6
ATOM      6  C   UNL     1       9.680   5.109   1.477  1.00  0.00     0.000 C 
BRANCH   6   7
ATOM      7  C   UNL     1       8.900   6.368   1.058  1.00  0.00     0.006 C 
BRANCH   7   8
ATOM      8  C   UNL     1       9.653   7.685   1.322  1.00  0.00     0.053 C 
BRANCH   8   9
ATOM      9  C   UNL     1       9.504   8.162   2.735  1.00  0.00     0.041 C 
ATOM     10  O   UNL     1      10.431   8.811   3.289  1.00  0.00    -0.550 OA
ATOM     11  O   UNL     1       8.354   7.860   3.454  1.00  0.00    -0.550 OA
ENDBRANCH   8   9
ENDBRANCH   7   8
ENDBRANCH   6   7
ENDBRANCH   5   6
ENDBRANCH   4   5
ENDBRANCH   3   4
ENDBRANCH   2   3
ENDBRANCH   1   2
BRANCH   1  12
ATOM     12  C   UNL     1      11.039   1.419  -3.341  1.00  0.00     0.000 C 
BRANCH  12  13
ATOM     13  C   UNL     1      11.477   1.113  -4.782  1.00  0.00    -0.000 C 
BRANCH  13  14
ATOM     14  C   UNL     1      11.186   2.271  -5.750  1.00  0.00    -0.000 C 
BRANCH  14  15
ATOM     15  C   UNL     1      11.077   3.628  -5.033  1.00  0.00    -0.000 C 
BRANCH  15  16
ATOM     16  C   UNL     1      10.114   4.595  -5.741  1.00  0.00    -0.000 C 
BRANCH  16  17
ATOM     17  C   UNL     1       9.016   5.130  -4.808  1.00  0.00    -0.000 C 
BRANCH  17  18
ATOM     18  C   UNL     1       9.220   4.617  -3.374  1.00  0.00    -0.000 C 
BRANCH  18  19
ATOM     19  C   UNL     1       9.560   5.743  -2.386  1.00  0.00    -0.003 C 
ATOM     20  C   UNL     1      11.039   5.764  -2.000  1.00  0.00     0.004 C 
ENDBRANCH  18  19
ENDBRANCH  17  18
ENDBRANCH  16  17
ENDBRANCH  15  16
ENDBRANCH  14  15
ENDBRANCH  13  14
ENDBRANCH  12  13
ENDBRANCH   1  12
TORSDOF 16
ENDMDL
MODEL 7
REMARK VINA RESULT:    -3.971      1.396      2.157
REMARK INTER + INTRA:         -10.147
REMARK INTER:                  -7.766
REMARK INTRA:                  -2.381
REMARK UNBOUND:                -2.462
REMARK SMILES CCCCCCCCCCCCCCCCCC(=O)[O-]
REMARK SMILES IDX 10 1 11 2 12 3 13 4 14 5 15 6 16 7 17 8 18 9 19 10 20 11
REMARK SMILES IDX 9 12 8 13 7 14 6 15 5 16 4 17 3 18 2 19 1 20
REMARK H PARENT
REMARK Flexibility Score: inf
ROOT
ATOM      1  C   UNL     1      12.227   1.585  -2.012  1.00  0.00     0.000 C 
ENDROOT
BRANCH   1   2
ATOM      2  C   UNL     1      11.832   1.610  -0.526  1.00  0.00     0.000 C 
BRANCH   2   3
ATOM      3  C   UNL     1      10.346   1.945  -0.316  1.00  0.00     0.000 C 
BRANCH   3   4
ATOM      4  C   UNL     1      10.111   2.899   0.867  1.00  0.00     0.000 C 
BRANCH   4   5
ATOM      5  C   UNL     1       8.693   3.509   0.898  1.00  0.00     0.000 C 
BRANCH   5   6
ATOM      6  C   UNL     1       8.722   5.038   1.069  1.00  0.00     0.000 C 
BRANCH   6   7
ATOM      7  C   UNL     1       9.988   5.542   1.784  1.00  0.00     0.006 C 
BRANCH   7   8
ATOM      8  C   UNL     1       9.919   7.021   2.206  1.00  0.00     0.053 C 
BRANCH   8   9
ATOM      9  C   UNL     1       8.564   7.417   2.709  1.00  0.00     0.041 C 
ATOM     10  O   UNL     1       7.924   8.347   2.150  1.00  0.00    -0.550 OA
ATOM     11  O   UNL     1       8.020   6.781   3.818  1.00  0.00    -0.550 OA
ENDBRANCH   8   9
ENDBRANCH   7   8
ENDBRANCH   6   7
ENDBRANCH   5   6
ENDBRANCH   4   5
ENDBRANCH   3   4
ENDBRANCH   2   3
ENDBRANCH   1   2
BRANCH   1  12
ATOM     12  C   UNL     1      11.015   1.704  -2.949  1.00  0.00     0.000 C 
BRANCH  12  13
ATOM     13  C   UNL     1      11.375   2.507  -4.209  1.00  0.00    -0.000 C 
BRANCH  13  14
ATOM     14  C   UNL     1      10.770   3.921  -4.206  1.00  0.00    -0.000 C 
BRANCH  14  15
ATOM     15  C   UNL     1      10.013   4.237  -2.904  1.00  0.00    -0.000 C 
BRANCH  15  16
ATOM     16  C   UNL     1      10.783   5.207  -1.993  1.00  0.00    -0.000 C 
BRANCH  16  17
ATOM     17  C   UNL     1      10.817   6.641  -2.546  1.00  0.00    -0.000 C 
BRANCH  17  18
ATOM     18  C   UNL     1      10.391   7.652  -1.469  1.00  0.00    -0.000 C 
BRANCH  18  19
ATOM     19  C   UNL     1       8.865   7.786  -1.355  1.00  0.00    -0.003 C 
ATOM     20  C   UNL     1       8.166   7.776  -2.714  1.00  0.00     0.004 C 
ENDBRANCH  18  19
ENDBRANCH  17  18
ENDBRANCH  16  17
ENDBRANCH  15  16
ENDBRANCH  14  15
ENDBRANCH  13  14
ENDBRANCH  12  13
ENDBRANCH   1  12
TORSDOF 16
ENDMDL
MODEL 8
REMARK VINA RESULT:    -3.896      1.577      4.415
REMARK INTER + INTRA:         -10.002
REMARK INTER:                  -7.235
REMARK INTRA:                  -2.767
REMARK UNBOUND:                -2.462
REMARK SMILES CCCCCCCCCCCCCCCCCC(=O)[O-]
REMARK SMILES IDX 10 1 11 2 12 3 13 4 14 5 15 6 16 7 17 8 18 9 19 10 20 11
REMARK SMILES IDX 9 12 8 13 7 14 6 15 5 16 4 17 3 18 2 19 1 20
REMARK H PARENT
REMARK Flexibility Score: inf
ROOT
ATOM      1  C   UNL     1       9.496   4.668  -3.528  1.00  0.00     0.000 C 
ENDROOT
BRANCH   1   2
ATOM      2  C   UNL     1      10.367   5.922  -3.352  1.00  0.00     0.000 C 
BRANCH   2   3
ATOM      3  C   UNL     1      10.953   6.041  -1.936  1.00  0.00     0.000 C 
BRANCH   3   4
ATOM      4  C   UNL     1      10.439   7.277  -1.179  1.00  0.00     0.000 C 
BRANCH   4   5
ATOM      5  C   UNL     1       9.414   6.946  -0.075  1.00  0.00     0.000 C 
BRANCH   5   6
ATOM      6  C   UNL     1      10.025   7.044   1.334  1.00  0.00     0.000 C 
BRANCH   6   7
ATOM      7  C   UNL     1       9.239   6.248   2.391  1.00  0.00     0.006 C 
BRANCH   7   8
ATOM      8  C   UNL     1       7.855   6.837   2.716  1.00  0.00     0.053 C 
BRANCH   8   9
ATOM      9  C   UNL     1       6.735   5.894   2.396  1.00  0.00     0.041 C 
ATOM     10  O   UNL     1       6.414   5.670   1.199  1.00  0.00    -0.550 OA
ATOM     11  O   UNL     1       6.021   5.288   3.422  1.00  0.00    -0.550 OA
ENDBRANCH   8   9
ENDBRANCH   7   8
ENDBRANCH   6   7
ENDBRANCH   5   6
ENDBRANCH   4   5
ENDBRANCH   3   4
ENDBRANCH   2   3
ENDBRANCH   1   2
BRANCH   1  12
ATOM     12  C   UNL     1       8.006   4.939  -3.268  1.00  0.00     0.000 C 
BRANCH  12  13
ATOM     13  C   UNL     1       7.555   4.296  -1.947  1.00  0.00    -0.000 C 
BRANCH  13  14
ATOM     14  C   UNL     1       8.523   3.208  -1.454  1.00  0.00    -0.000 C 
BRANCH  14  15
ATOM     15  C   UNL     1       9.032   3.472  -0.027  1.00  0.00    -0.000 C 
BRANCH  15  16
ATOM     16  C   UNL     1      10.296   2.663   0.308  1.00  0.00    -0.000 C 
BRANCH  16  17
ATOM     17  C   UNL     1      10.685   1.678  -0.805  1.00  0.00    -0.000 C 
BRANCH  17  18
ATOM     18  C   UNL     1      12.113   1.949  -1.301  1.00  0.00    -0.000 C 
BRANCH  18  19
ATOM     19  C   UNL     1      12.158   2.352  -2.783  1.00  0.00    -0.003 C 
ATOM     20  C   UNL     1      11.410   1.372  -3.686  1.00  0.00     0.004 C 
ENDBRANCH  18  19
ENDBRANCH  17  18
ENDBRANCH  16  17
ENDBRANCH  15  16
ENDBRANCH  14  15
ENDBRANCH  13  14
ENDBRANCH  12  13
ENDBRANCH   1  12
TORSDOF 16
ENDMDL
MODEL 9
REMARK VINA RESULT:    -3.855      1.327      3.868
REMARK INTER + INTRA:          -9.923
REMARK INTER:                  -7.554
REMARK INTRA:                  -2.369
REMARK UNBOUND:                -2.462
REMARK SMILES CCCCCCCCCCCCCCCCCC(=O)[O-]
REMARK SMILES IDX 10 1 11 2 12 3 13 4 14 5 15 6 16 7 17 8 18 9 19 10 20 11
REMARK SMILES IDX 9 12 8 13 7 14 6 15 5 16 4 17 3 18 2 19 1 20
REMARK H PARENT
REMARK Flexibility Score: inf
ROOT
ATOM      1  C   UNL     1      10.365   2.773   0.567  1.00  0.00     0.000 C 
ENDROOT
BRANCH   1   2
ATOM      2  C   UNL     1       9.085   3.610   0.410  1.00  0.00     0.000 C 
BRANCH   2   3
ATOM      3  C   UNL     1       9.101   4.481  -0.857  1.00  0.00     0.000 C 
BRANCH   3   4
ATOM      4  C   UNL     1      10.380   5.324  -0.987  1.00  0.00     0.000 C 
BRANCH   4   5
ATOM      5  C   UNL     1      10.131   6.844  -0.896  1.00  0.00     0.000 C 
BRANCH   5   6
ATOM      6  C   UNL     1       8.710   7.172  -0.405  1.00  0.00     0.000 C 
BRANCH   6   7
ATOM      7  C   UNL     1       8.692   8.145   0.787  1.00  0.00     0.006 C 
BRANCH   7   8
ATOM      8  C   UNL     1       9.852   7.941   1.778  1.00  0.00     0.053 C 
BRANCH   8   9
ATOM      9  C   UNL     1       9.657   6.743   2.658  1.00  0.00     0.041 C 
ATOM     10  O   UNL     1       8.555   6.552   3.237  1.00  0.00    -0.550 OA
ATOM     11  O   UNL     1      10.705   5.856   2.868  1.00  0.00    -0.550 OA
ENDBRANCH   8   9
ENDBRANCH   7   8
ENDBRANCH   6   7
ENDBRANCH   5   6
ENDBRANCH   4   5
ENDBRANCH   3   4
ENDBRANCH   2   3
ENDBRANCH   1   2
BRANCH   1  12
ATOM     12  C   UNL     1      10.504   1.694  -0.518  1.00  0.00     0.000 C 
BRANCH  12  13
ATOM     13  C   UNL     1      11.956   1.598  -1.011  1.00  0.00    -0.000 C 
BRANCH  13  14
ATOM     14  C   UNL     1      12.193   2.372  -2.318  1.00  0.00    -0.000 C 
BRANCH  14  15
ATOM     15  C   UNL     1      11.051   2.183  -3.332  1.00  0.00    -0.000 C 
BRANCH  15  16
ATOM     16  C   UNL     1      11.522   2.333  -4.788  1.00  0.00    -0.000 C 
BRANCH  16  17
ATOM     17  C   UNL     1      10.861   3.520  -5.507  1.00  0.00    -0.000 C 
BRANCH  17  18
ATOM     18  C   UNL     1      10.222   4.485  -4.496  1.00  0.00    -0.000 C 
BRANCH  18  19
ATOM     19  C   UNL     1      10.383   5.958  -4.902  1.00  0.00    -0.003 C 
ATOM     20  C   UNL     1       9.171   6.810  -4.529  1.00  0.00     0.004 C 
ENDBRANCH  18  19
ENDBRANCH  17  18
ENDBRANCH  16  17
ENDBRANCH  15  16
ENDBRANCH  14  15
ENDBRANCH  13  14
ENDBRANCH  12  13
ENDBRANCH   1  12
TORSDOF 16
ENDMDL
