MODEL 1
REMARK VINA RESULT:    -5.235      0.000      0.000
REMARK INTER + INTRA:          -6.768
REMARK INTER:                  -6.307
REMARK INTRA:                  -0.462
REMARK UNBOUND:                -0.462
REMARK SMILES CCCCc1oc(O)c2ccccc12
REMARK SMILES IDX 4 1 5 2 7 3 6 4 9 5 14 6 10 7 13 8 11 9 12 10 8 11 3 13 2 14
REMARK SMILES IDX 1 15
REMARK H PARENT 8 12
REMARK Flexibility Score: inf
ROOT
ATOM      1  C   UNL     1     -51.049  25.552  10.515  1.00  0.00     0.076 C 
ENDROOT
BRANCH   1   2
ATOM      2  C   UNL     1     -49.836  25.227   9.697  1.00  0.00     0.116 A 
ATOM      3  C   UNL     1     -48.642  24.498   8.072  1.00  0.00     0.290 A 
ATOM      4  O   UNL     1     -49.874  24.601   8.535  1.00  0.00    -0.430 OA
ATOM      5  C   UNL     1     -47.763  25.083   8.958  1.00  0.00     0.066 A 
ATOM      6  C   UNL     1     -48.524  25.550   9.995  1.00  0.00     0.027 A 
ATOM      7  C   UNL     1     -46.378  25.242   8.929  1.00  0.00     0.016 A 
ATOM      8  C   UNL     1     -47.955  26.218  11.080  1.00  0.00     0.012 A 
ATOM      9  C   UNL     1     -45.774  25.909  10.012  1.00  0.00     0.001 A 
ATOM     10  C   UNL     1     -46.559  26.394  11.082  1.00  0.00     0.001 A 
BRANCH   3  11
ATOM     11  O   UNL     1     -48.318  23.889   6.863  1.00  0.00    -0.480 OA
ATOM     12  H   UNL     1     -47.354  23.714   6.605  1.00  0.00     0.297 HD
ENDBRANCH   3  11
ENDBRANCH   1   2
BRANCH   1  13
ATOM     13  C   UNL     1     -51.410  27.035  10.372  1.00  0.00     0.008 C 
BRANCH  13  14
ATOM     14  C   UNL     1     -51.549  27.468   8.905  1.00  0.00    -0.003 C 
ATOM     15  C   UNL     1     -50.544  28.549   8.509  1.00  0.00     0.004 C 
ENDBRANCH  13  14
ENDBRANCH   1  13
TORSDOF 4
ENDMDL
MODEL 2
REMARK VINA RESULT:    -4.750      1.578      3.811
REMARK INTER + INTRA:          -6.184
REMARK INTER:                  -5.711
REMARK INTRA:                  -0.473
REMARK UNBOUND:                -0.462
REMARK SMILES CCCCc1oc(O)c2ccccc12
REMARK SMILES IDX 4 1 5 2 7 3 6 4 9 5 14 6 10 7 13 8 11 9 12 10 8 11 3 13 2 14
REMARK SMILES IDX 1 15
REMARK H PARENT 8 12
REMARK Flexibility Score: inf
ROOT
ATOM      1  C   UNL     1     -45.837  26.205  10.598  1.00  0.00     0.076 C 
ENDROOT
BRANCH   1   2
ATOM      2  C   UNL     1     -47.003  25.706   9.799  1.00  0.00     0.116 A 
ATOM      3  C   UNL     1     -48.099  24.726   8.238  1.00  0.00     0.290 A 
ATOM      4  O   UNL     1     -46.890  25.036   8.666  1.00  0.00    -0.430 OA
ATOM      5  C   UNL     1     -49.042  25.204   9.124  1.00  0.00     0.066 A 
ATOM      6  C   UNL     1     -48.342  25.828  10.121  1.00  0.00     0.027 A 
ATOM      7  C   UNL     1     -50.435  25.133   9.132  1.00  0.00     0.016 A 
ATOM      8  C   UNL     1     -48.986  26.426  11.206  1.00  0.00     0.012 A 
ATOM      9  C   UNL     1     -51.113  25.730  10.211  1.00  0.00     0.001 A 
ATOM     10  C   UNL     1     -50.392  26.373  11.243  1.00  0.00     0.001 A 
BRANCH   3  11
ATOM     11  O   UNL     1     -48.348  24.016   7.067  1.00  0.00    -0.480 OA
ATOM     12  H   UNL     1     -48.881  23.155   7.078  1.00  0.00     0.297 HD
ENDBRANCH   3  11
ENDBRANCH   1   2
BRANCH   1  13
ATOM     13  C   UNL     1     -45.044  27.244   9.796  1.00  0.00     0.008 C 
BRANCH  13  14
ATOM     14  C   UNL     1     -45.894  28.463   9.410  1.00  0.00    -0.003 C 
ATOM     15  C   UNL     1     -45.994  28.660   7.898  1.00  0.00     0.004 C 
ENDBRANCH  13  14
ENDBRANCH   1  13
TORSDOF 4
ENDMDL
MODEL 3
REMARK VINA RESULT:    -4.587      1.322      4.163
REMARK INTER + INTRA:          -5.987
REMARK INTER:                  -5.515
REMARK INTRA:                  -0.472
REMARK UNBOUND:                -0.462
REMARK SMILES CCCCc1oc(O)c2ccccc12
REMARK SMILES IDX 4 1 5 2 7 3 6 4 9 5 14 6 10 7 13 8 11 9 12 10 8 11 3 13 2 14
REMARK SMILES IDX 1 15
REMARK H PARENT 8 12
REMARK Flexibility Score: inf
ROOT
ATOM      1  C   UNL     1     -46.489  26.436   8.934  1.00  0.00     0.076 C 
ENDROOT
BRANCH   1   2
ATOM      2  C   UNL     1     -47.821  25.755   8.856  1.00  0.00     0.116 A 
ATOM      3  C   UNL     1     -49.300  24.279   8.371  1.00  0.00     0.290 A 
ATOM      4  O   UNL     1     -48.031  24.613   8.226  1.00  0.00    -0.430 OA
ATOM      5  C   UNL     1     -49.947  25.232   9.128  1.00  0.00     0.066 A 
ATOM      6  C   UNL     1     -49.003  26.174   9.440  1.00  0.00     0.027 A 
ATOM      7  C   UNL     1     -51.267  25.338   9.565  1.00  0.00     0.016 A 
ATOM      8  C   UNL     1     -49.309  27.291  10.217  1.00  0.00     0.012 A 
ATOM      9  C   UNL     1     -51.608  26.457  10.348  1.00  0.00     0.001 A 
ATOM     10  C   UNL     1     -50.634  27.428  10.672  1.00  0.00     0.001 A 
BRANCH   3  11
ATOM     11  O   UNL     1     -49.865  23.127   7.831  1.00  0.00    -0.480 OA
ATOM     12  H   UNL     1     -49.993  22.294   8.390  1.00  0.00     0.297 HD
ENDBRANCH   3  11
ENDBRANCH   1   2
BRANCH   1  13
ATOM     13  C   UNL     1     -45.550  25.669   9.872  1.00  0.00     0.008 C 
BRANCH  13  14
ATOM     14  C   UNL     1     -45.086  26.519  11.065  1.00  0.00    -0.003 C 
ATOM     15  C   UNL     1     -46.173  26.693  12.125  1.00  0.00     0.004 C 
ENDBRANCH  13  14
ENDBRANCH   1  13
TORSDOF 4
ENDMDL
MODEL 4
REMARK VINA RESULT:    -4.442      1.489      4.447
REMARK INTER + INTRA:          -5.812
REMARK INTER:                  -5.282
REMARK INTRA:                  -0.530
REMARK UNBOUND:                -0.462
REMARK SMILES CCCCc1oc(O)c2ccccc12
REMARK SMILES IDX 4 1 5 2 7 3 6 4 9 5 14 6 10 7 13 8 11 9 12 10 8 11 3 13 2 14
REMARK SMILES IDX 1 15
REMARK H PARENT 8 12
REMARK Flexibility Score: inf
ROOT
ATOM      1  C   UNL     1     -47.825  25.040   8.357  1.00  0.00     0.076 C 
ENDROOT
BRANCH   1   2
ATOM      2  C   UNL     1     -48.979  25.192   9.301  1.00  0.00     0.116 A 
ATOM      3  C   UNL     1     -50.273  24.824  10.970  1.00  0.00     0.290 A 
ATOM      4  O   UNL     1     -49.195  24.402  10.337  1.00  0.00    -0.430 OA
ATOM      5  C   UNL     1     -50.781  25.935  10.333  1.00  0.00     0.066 A 
ATOM      6  C   UNL     1     -49.954  26.172   9.267  1.00  0.00     0.027 A 
ATOM      7  C   UNL     1     -51.883  26.745  10.606  1.00  0.00     0.016 A 
ATOM      8  C   UNL     1     -50.166  27.243   8.398  1.00  0.00     0.012 A 
ATOM      9  C   UNL     1     -52.125  27.831   9.743  1.00  0.00     0.001 A 
ATOM     10  C   UNL     1     -51.270  28.078   8.645  1.00  0.00     0.001 A 
BRANCH   3  11
ATOM     11  O   UNL     1     -50.789  24.216  12.112  1.00  0.00    -0.480 OA
ATOM     12  H   UNL     1     -50.601  23.244  12.320  1.00  0.00     0.297 HD
ENDBRANCH   3  11
ENDBRANCH   1   2
BRANCH   1  13
ATOM     13  C   UNL     1     -46.530  25.537   9.011  1.00  0.00     0.008 C 
BRANCH  13  14
ATOM     14  C   UNL     1     -46.374  27.062   8.923  1.00  0.00    -0.003 C 
ATOM     15  C   UNL     1     -46.652  27.763  10.252  1.00  0.00     0.004 C 
ENDBRANCH  13  14
ENDBRANCH   1  13
TORSDOF 4
ENDMDL
MODEL 5
REMARK VINA RESULT:    -4.228      1.855      2.858
REMARK INTER + INTRA:          -5.555
REMARK INTER:                  -4.995
REMARK INTRA:                  -0.560
REMARK UNBOUND:                -0.462
REMARK SMILES CCCCc1oc(O)c2ccccc12
REMARK SMILES IDX 4 1 5 2 7 3 6 4 9 5 14 6 10 7 13 8 11 9 12 10 8 11 3 13 2 14
REMARK SMILES IDX 1 15
REMARK H PARENT 8 12
REMARK Flexibility Score: inf
ROOT
ATOM      1  C   UNL     1     -49.118  25.782   8.204  1.00  0.00     0.076 C 
ENDROOT
BRANCH   1   2
ATOM      2  C   UNL     1     -47.736  25.721   8.780  1.00  0.00     0.116 A 
ATOM      3  C   UNL     1     -45.757  25.003   9.186  1.00  0.00     0.290 A 
ATOM      4  O   UNL     1     -46.885  24.737   8.555  1.00  0.00    -0.430 OA
ATOM      5  C   UNL     1     -45.867  26.208   9.845  1.00  0.00     0.066 A 
ATOM      6  C   UNL     1     -47.130  26.669   9.585  1.00  0.00     0.027 A 
ATOM      7  C   UNL     1     -44.968  26.926  10.633  1.00  0.00     0.016 A 
ATOM      8  C   UNL     1     -47.587  27.886  10.092  1.00  0.00     0.012 A 
ATOM      9  C   UNL     1     -45.401  28.157  11.162  1.00  0.00     0.001 A 
ATOM     10  C   UNL     1     -46.704  28.634  10.892  1.00  0.00     0.001 A 
BRANCH   3  11
ATOM     11  O   UNL     1     -44.641  24.171   9.162  1.00  0.00    -0.480 OA
ATOM     12  H   UNL     1     -43.746  24.502   8.823  1.00  0.00     0.297 HD
ENDBRANCH   3  11
ENDBRANCH   1   2
BRANCH   1  13
ATOM     13  C   UNL     1     -50.105  25.023   9.098  1.00  0.00     0.008 C 
BRANCH  13  14
ATOM     14  C   UNL     1     -50.757  25.926  10.155  1.00  0.00    -0.003 C 
ATOM     15  C   UNL     1     -50.250  25.643  11.569  1.00  0.00     0.004 C 
ENDBRANCH  13  14
ENDBRANCH   1  13
TORSDOF 4
ENDMDL
MODEL 6
REMARK VINA RESULT:    -4.197      2.308      2.943
REMARK INTER + INTRA:          -5.517
REMARK INTER:                  -5.102
REMARK INTRA:                  -0.415
REMARK UNBOUND:                -0.462
REMARK SMILES CCCCc1oc(O)c2ccccc12
REMARK SMILES IDX 4 1 5 2 7 3 6 4 9 5 14 6 10 7 13 8 11 9 12 10 8 11 3 13 2 14
REMARK SMILES IDX 1 15
REMARK H PARENT 8 12
REMARK Flexibility Score: inf
ROOT
ATOM      1  C   UNL     1     -50.537  28.479   8.623  1.00  0.00     0.076 C 
ENDROOT
BRANCH   1   2
ATOM      2  C   UNL     1     -49.080  28.203   8.412  1.00  0.00     0.116 A 
ATOM      3  C   UNL     1     -47.155  28.171   7.466  1.00  0.00     0.290 A 
ATOM      4  O   UNL     1     -48.416  28.530   7.318  1.00  0.00    -0.430 OA
ATOM      5  C   UNL     1     -46.980  27.592   8.705  1.00  0.00     0.066 A 
ATOM      6  C   UNL     1     -48.208  27.614   9.310  1.00  0.00     0.027 A 
ATOM      7  C   UNL     1     -45.855  27.064   9.337  1.00  0.00     0.016 A 
ATOM      8  C   UNL     1     -48.400  27.112  10.598  1.00  0.00     0.012 A 
ATOM      9  C   UNL     1     -46.018  26.546  10.636  1.00  0.00     0.001 A 
ATOM     10  C   UNL     1     -47.285  26.570  11.263  1.00  0.00     0.001 A 
BRANCH   3  11
ATOM     11  O   UNL     1     -46.174  28.368   6.498  1.00  0.00    -0.480 OA
ATOM     12  H   UNL     1     -45.190  28.312   6.729  1.00  0.00     0.297 HD
ENDBRANCH   3  11
ENDBRANCH   1   2
BRANCH   1  13
ATOM     13  C   UNL     1     -51.335  27.170   8.628  1.00  0.00     0.008 C 
BRANCH  13  14
ATOM     14  C   UNL     1     -52.125  26.967   9.929  1.00  0.00    -0.003 C 
ATOM     15  C   UNL     1     -51.961  25.562  10.508  1.00  0.00     0.004 C 
ENDBRANCH  13  14
ENDBRANCH   1  13
TORSDOF 4
ENDMDL
MODEL 7
REMARK VINA RESULT:    -4.193      1.841      4.160
REMARK INTER + INTRA:          -5.513
REMARK INTER:                  -5.350
REMARK INTRA:                  -0.162
REMARK UNBOUND:                -0.462
REMARK SMILES CCCCc1oc(O)c2ccccc12
REMARK SMILES IDX 4 1 5 2 7 3 6 4 9 5 14 6 10 7 13 8 11 9 12 10 8 11 3 13 2 14
REMARK SMILES IDX 1 15
REMARK H PARENT 8 12
REMARK Flexibility Score: inf
ROOT
ATOM      1  C   UNL     1     -48.189  27.971   7.308  1.00  0.00     0.076 C 
ENDROOT
BRANCH   1   2
ATOM      2  C   UNL     1     -48.932  26.852   7.972  1.00  0.00     0.116 A 
ATOM      3  C   UNL     1     -49.450  24.860   8.575  1.00  0.00     0.290 A 
ATOM      4  O   UNL     1     -48.616  25.576   7.844  1.00  0.00    -0.430 OA
ATOM      5  C   UNL     1     -50.344  25.694   9.211  1.00  0.00     0.066 A 
ATOM      6  C   UNL     1     -50.013  26.967   8.828  1.00  0.00     0.027 A 
ATOM      7  C   UNL     1     -51.398  25.438  10.086  1.00  0.00     0.016 A 
ATOM      8  C   UNL     1     -50.712  28.080   9.297  1.00  0.00     0.012 A 
ATOM      9  C   UNL     1     -52.125  26.541  10.574  1.00  0.00     0.001 A 
ATOM     10  C   UNL     1     -51.783  27.855  10.181  1.00  0.00     0.001 A 
BRANCH   3  11
ATOM     11  O   UNL     1     -49.401  23.472   8.670  1.00  0.00    -0.480 OA
ATOM     12  H   UNL     1     -50.166  22.896   8.341  1.00  0.00     0.297 HD
ENDBRANCH   3  11
ENDBRANCH   1   2
BRANCH   1  13
ATOM     13  C   UNL     1     -47.654  28.954   8.355  1.00  0.00     0.008 C 
BRANCH  13  14
ATOM     14  C   UNL     1     -46.132  28.853   8.535  1.00  0.00    -0.003 C 
ATOM     15  C   UNL     1     -45.715  27.650   9.379  1.00  0.00     0.004 C 
ENDBRANCH  13  14
ENDBRANCH   1  13
TORSDOF 4
ENDMDL
MODEL 8
REMARK VINA RESULT:    -4.171      2.340      2.976
REMARK INTER + INTRA:          -5.486
REMARK INTER:                  -4.968
REMARK INTRA:                  -0.518
REMARK UNBOUND:                -0.462
REMARK SMILES CCCCc1oc(O)c2ccccc12
REMARK SMILES IDX 4 1 5 2 7 3 6 4 9 5 14 6 10 7 13 8 11 9 12 10 8 11 3 13 2 14
REMARK SMILES IDX 1 15
REMARK H PARENT 8 12
REMARK Flexibility Score: inf
ROOT
ATOM      1  C   UNL     1     -50.235  25.327   9.153  1.00  0.00     0.076 C 
ENDROOT
BRANCH   1   2
ATOM      2  C   UNL     1     -48.821  25.814   9.239  1.00  0.00     0.116 A 
ATOM      3  C   UNL     1     -46.767  25.931   9.847  1.00  0.00     0.290 A 
ATOM      4  O   UNL     1     -47.905  25.290  10.034  1.00  0.00    -0.430 OA
ATOM      5  C   UNL     1     -46.937  26.909   8.890  1.00  0.00     0.066 A 
ATOM      6  C   UNL     1     -48.248  26.834   8.500  1.00  0.00     0.027 A 
ATOM      7  C   UNL     1     -46.055  27.837   8.338  1.00  0.00     0.016 A 
ATOM      8  C   UNL     1     -48.773  27.681   7.523  1.00  0.00     0.012 A 
ATOM      9  C   UNL     1     -46.556  28.708   7.353  1.00  0.00     0.001 A 
ATOM     10  C   UNL     1     -47.908  28.630   6.948  1.00  0.00     0.001 A 
BRANCH   3  11
ATOM     11  O   UNL     1     -45.590  25.634  10.527  1.00  0.00    -0.480 OA
ATOM     12  H   UNL     1     -45.606  25.253  11.465  1.00  0.00     0.297 HD
ENDBRANCH   3  11
ENDBRANCH   1   2
BRANCH   1  13
ATOM     13  C   UNL     1     -51.041  25.808  10.366  1.00  0.00     0.008 C 
BRANCH  13  14
ATOM     14  C   UNL     1     -51.569  27.240  10.192  1.00  0.00    -0.003 C 
ATOM     15  C   UNL     1     -50.903  28.234  11.143  1.00  0.00     0.004 C 
ENDBRANCH  13  14
ENDBRANCH   1  13
TORSDOF 4
ENDMDL
MODEL 9
REMARK VINA RESULT:    -4.065      8.774     11.262
REMARK INTER + INTRA:          -5.358
REMARK INTER:                  -4.850
REMARK INTRA:                  -0.508
REMARK UNBOUND:                -0.462
REMARK SMILES CCCCc1oc(O)c2ccccc12
REMARK SMILES IDX 4 1 5 2 7 3 6 4 9 5 14 6 10 7 13 8 11 9 12 10 8 11 3 13 2 14
REMARK SMILES IDX 1 15
REMARK H PARENT 8 12
REMARK Flexibility Score: inf
ROOT
ATOM      1  C   UNL     1     -38.613  28.252   5.691  1.00  0.00     0.076 C 
ENDROOT
BRANCH   1   2
ATOM      2  C   UNL     1     -39.240  28.393   7.044  1.00  0.00     0.116 A 
ATOM      3  C   UNL     1     -40.745  28.411   8.572  1.00  0.00     0.290 A 
ATOM      4  O   UNL     1     -40.531  28.248   7.280  1.00  0.00    -0.430 OA
ATOM      5  C   UNL     1     -39.551  28.668   9.211  1.00  0.00     0.066 A 
ATOM      6  C   UNL     1     -38.589  28.655   8.237  1.00  0.00     0.027 A 
ATOM      7  C   UNL     1     -39.241  28.900  10.551  1.00  0.00     0.016 A 
ATOM      8  C   UNL     1     -37.242  28.870   8.532  1.00  0.00     0.012 A 
ATOM      9  C   UNL     1     -37.891  29.125  10.879  1.00  0.00     0.001 A 
ATOM     10  C   UNL     1     -36.897  29.109   9.875  1.00  0.00     0.001 A 
BRANCH   3  11
ATOM     11  O   UNL     1     -42.001  28.325   9.167  1.00  0.00    -0.480 OA
ATOM     12  H   UNL     1     -42.326  27.462   9.585  1.00  0.00     0.297 HD
ENDBRANCH   3  11
ENDBRANCH   1   2
BRANCH   1  13
ATOM     13  C   UNL     1     -38.273  26.784   5.409  1.00  0.00     0.008 C 
BRANCH  13  14
ATOM     14  C   UNL     1     -36.760  26.522   5.394  1.00  0.00    -0.003 C 
ATOM     15  C   UNL     1     -35.941  27.801   5.222  1.00  0.00     0.004 C 
ENDBRANCH  13  14
ENDBRANCH   1  13
TORSDOF 4
ENDMDL
