MODEL 1
REMARK VINA RESULT:    -8.084      0.000      0.000
REMARK INTER + INTRA:         -13.386
REMARK INTER:                 -12.574
REMARK INTRA:                  -0.812
REMARK UNBOUND:                -0.812
REMARK SMILES COc1cc(CNC(=O)CCCCC=CC(C)C)ccc1O
REMARK SMILES IDX 11 1 12 2 13 3 14 4 15 5 16 6 17 7 18 8 10 9 8 10 9 11 7 12
REMARK SMILES IDX 6 14 5 15 4 16 19 17 3 18 20 19 21 20 2 21 1 22 22 23
REMARK H PARENT 7 13 22 24
REMARK Flexibility Score: inf
ROOT
ATOM      1  C   UNL     1       9.846 -44.455  33.522  1.00  0.00     0.010 C 
ENDROOT
BRANCH   1   2
ATOM      2  C   UNL     1       8.627 -43.647  33.047  1.00  0.00     0.005 C 
BRANCH   2   3
ATOM      3  C   UNL     1       7.999 -44.220  31.766  1.00  0.00     0.027 C 
BRANCH   3   4
ATOM      4  C   UNL     1       6.513 -43.978  31.740  1.00  0.00    -0.031 C 
ATOM      5  C   UNL     1       5.595 -44.887  31.359  1.00  0.00    -0.028 C 
BRANCH   5   6
ATOM      6  C   UNL     1       5.905 -46.318  30.971  1.00  0.00     0.005 C 
ATOM      7  C   UNL     1       5.889 -47.208  32.217  1.00  0.00     0.012 C 
ATOM      8  C   UNL     1       4.883 -46.812  29.943  1.00  0.00     0.012 C 
ENDBRANCH   5   6
ENDBRANCH   3   4
ENDBRANCH   2   3
ENDBRANCH   1   2
BRANCH   1   9
ATOM      9  C   UNL     1       9.599 -45.969  33.612  1.00  0.00     0.100 C 
BRANCH   9  10
ATOM     10  C   UNL     1       9.561 -46.446  35.035  1.00  0.00     0.220 C 
ATOM     11  O   UNL     1       9.119 -47.600  35.288  1.00  0.00    -0.275 OA
ATOM     12  N   UNL     1      10.059 -45.613  36.090  1.00  0.00    -0.352 N 
ATOM     13  H   UNL     1      10.454 -44.674  35.856  1.00  0.00     0.163 HD
BRANCH  12  14
ATOM     14  C   UNL     1      10.081 -46.044  37.487  1.00  0.00     0.151 C 
BRANCH  14  15
ATOM     15  C   UNL     1      11.487 -46.377  37.907  1.00  0.00    -0.025 A 
ATOM     16  C   UNL     1      12.569 -46.126  37.048  1.00  0.00     0.056 A 
ATOM     17  C   UNL     1      11.722 -46.975  39.154  1.00  0.00     0.009 A 
ATOM     18  C   UNL     1      13.882 -46.462  37.433  1.00  0.00     0.160 A 
ATOM     19  C   UNL     1      13.021 -47.304  39.543  1.00  0.00     0.050 A 
ATOM     20  C   UNL     1      14.101 -47.050  38.686  1.00  0.00     0.157 A 
BRANCH  18  21
ATOM     21  O   UNL     1      14.988 -46.231  36.600  1.00  0.00    -0.493 OA
ATOM     22  C   UNL     1      15.651 -47.239  35.844  1.00  0.00     0.278 C 
ENDBRANCH  18  21
BRANCH  20  23
ATOM     23  O   UNL     1      15.398 -47.383  39.076  1.00  0.00    -0.504 OA
ATOM     24  H   UNL     1      16.061 -47.786  38.425  1.00  0.00     0.293 HD
ENDBRANCH  20  23
ENDBRANCH  14  15
ENDBRANCH  12  14
ENDBRANCH   9  10
ENDBRANCH   1   9
TORSDOF 10
ENDMDL
MODEL 2
REMARK VINA RESULT:    -7.743      1.423      2.689
REMARK INTER + INTRA:         -12.855
REMARK INTER:                 -12.020
REMARK INTRA:                  -0.836
REMARK UNBOUND:                -0.812
REMARK SMILES COc1cc(CNC(=O)CCCCC=CC(C)C)ccc1O
REMARK SMILES IDX 11 1 12 2 13 3 14 4 15 5 16 6 17 7 18 8 10 9 8 10 9 11 7 12
REMARK SMILES IDX 6 14 5 15 4 16 19 17 3 18 20 19 21 20 2 21 1 22 22 23
REMARK H PARENT 7 13 22 24
REMARK Flexibility Score: inf
ROOT
ATOM      1  C   UNL     1       6.668 -48.577  33.900  1.00  0.00     0.010 C 
ENDROOT
BRANCH   1   2
ATOM      2  C   UNL     1       6.662 -47.642  32.678  1.00  0.00     0.005 C 
BRANCH   2   3
ATOM      3  C   UNL     1       5.323 -46.906  32.502  1.00  0.00     0.027 C 
BRANCH   3   4
ATOM      4  C   UNL     1       5.271 -46.193  31.177  1.00  0.00    -0.031 C 
ATOM      5  C   UNL     1       5.751 -44.954  30.954  1.00  0.00    -0.028 C 
BRANCH   5   6
ATOM      6  C   UNL     1       6.487 -44.115  31.977  1.00  0.00     0.005 C 
ATOM      7  C   UNL     1       7.995 -44.193  31.723  1.00  0.00     0.012 C 
ATOM      8  C   UNL     1       6.003 -42.664  31.906  1.00  0.00     0.012 C 
ENDBRANCH   5   6
ENDBRANCH   3   4
ENDBRANCH   2   3
ENDBRANCH   1   2
BRANCH   1   9
ATOM      9  C   UNL     1       8.043 -48.724  34.570  1.00  0.00     0.100 C 
BRANCH   9  10
ATOM     10  C   UNL     1       8.392 -47.521  35.399  1.00  0.00     0.220 C 
ATOM     11  O   UNL     1       7.535 -47.049  36.194  1.00  0.00    -0.275 OA
ATOM     12  N   UNL     1       9.702 -46.942  35.316  1.00  0.00    -0.352 N 
ATOM     13  H   UNL     1      10.409 -47.369  34.678  1.00  0.00     0.163 HD
BRANCH  12  14
ATOM     14  C   UNL     1      10.105 -45.796  36.129  1.00  0.00     0.151 C 
BRANCH  14  15
ATOM     15  C   UNL     1      10.924 -46.254  37.305  1.00  0.00    -0.025 A 
ATOM     16  C   UNL     1      12.326 -46.186  37.270  1.00  0.00     0.056 A 
ATOM     17  C   UNL     1      10.288 -46.787  38.435  1.00  0.00     0.009 A 
ATOM     18  C   UNL     1      13.092 -46.640  38.362  1.00  0.00     0.160 A 
ATOM     19  C   UNL     1      11.042 -47.233  39.523  1.00  0.00     0.050 A 
ATOM     20  C   UNL     1      12.441 -47.161  39.489  1.00  0.00     0.157 A 
BRANCH  18  21
ATOM     21  O   UNL     1      14.495 -46.592  38.363  1.00  0.00    -0.493 OA
ATOM     22  C   UNL     1      15.330 -47.449  37.591  1.00  0.00     0.278 C 
ENDBRANCH  18  21
BRANCH  20  23
ATOM     23  O   UNL     1      13.193 -47.609  40.575  1.00  0.00    -0.504 OA
ATOM     24  H   UNL     1      14.204 -47.556  40.579  1.00  0.00     0.293 HD
ENDBRANCH  20  23
ENDBRANCH  14  15
ENDBRANCH  12  14
ENDBRANCH   9  10
ENDBRANCH   1   9
TORSDOF 10
ENDMDL
MODEL 3
REMARK VINA RESULT:    -7.615      1.608      2.817
REMARK INTER + INTRA:         -12.656
REMARK INTER:                 -11.955
REMARK INTRA:                  -0.701
REMARK UNBOUND:                -0.812
REMARK SMILES COc1cc(CNC(=O)CCCCC=CC(C)C)ccc1O
REMARK SMILES IDX 11 1 12 2 13 3 14 4 15 5 16 6 17 7 18 8 10 9 8 10 9 11 7 12
REMARK SMILES IDX 6 14 5 15 4 16 19 17 3 18 20 19 21 20 2 21 1 22 22 23
REMARK H PARENT 7 13 22 24
REMARK Flexibility Score: inf
ROOT
ATOM      1  C   UNL     1       7.968 -49.326  35.828  1.00  0.00     0.010 C 
ENDROOT
BRANCH   1   2
ATOM      2  C   UNL     1       6.551 -49.756  35.412  1.00  0.00     0.005 C 
BRANCH   2   3
ATOM      3  C   UNL     1       6.202 -49.334  33.975  1.00  0.00     0.027 C 
BRANCH   3   4
ATOM      4  C   UNL     1       5.457 -48.026  33.964  1.00  0.00    -0.031 C 
ATOM      5  C   UNL     1       5.523 -47.114  32.975  1.00  0.00    -0.028 C 
BRANCH   5   6
ATOM      6  C   UNL     1       6.294 -47.294  31.684  1.00  0.00     0.005 C 
ATOM      7  C   UNL     1       5.406 -46.919  30.494  1.00  0.00     0.012 C 
ATOM      8  C   UNL     1       7.558 -46.429  31.707  1.00  0.00     0.012 C 
ENDBRANCH   5   6
ENDBRANCH   3   4
ENDBRANCH   2   3
ENDBRANCH   1   2
BRANCH   1   9
ATOM      9  C   UNL     1       8.673 -48.418  34.807  1.00  0.00     0.100 C 
BRANCH   9  10
ATOM     10  C   UNL     1       9.356 -47.257  35.471  1.00  0.00     0.220 C 
ATOM     11  O   UNL     1       9.853 -46.343  34.758  1.00  0.00    -0.275 OA
ATOM     12  N   UNL     1       9.406 -47.169  36.902  1.00  0.00    -0.352 N 
ATOM     13  H   UNL     1       8.958 -47.918  37.474  1.00  0.00     0.163 HD
BRANCH  12  14
ATOM     14  C   UNL     1      10.023 -46.041  37.597  1.00  0.00     0.151 C 
BRANCH  14  15
ATOM     15  C   UNL     1      11.437 -46.379  37.984  1.00  0.00    -0.025 A 
ATOM     16  C   UNL     1      12.501 -46.114  37.107  1.00  0.00     0.056 A 
ATOM     17  C   UNL     1      11.697 -46.994  39.217  1.00  0.00     0.009 A 
ATOM     18  C   UNL     1      13.822 -46.454  37.461  1.00  0.00     0.160 A 
ATOM     19  C   UNL     1      13.004 -47.328  39.576  1.00  0.00     0.050 A 
ATOM     20  C   UNL     1      14.067 -47.061  38.702  1.00  0.00     0.157 A 
BRANCH  18  21
ATOM     21  O   UNL     1      14.911 -46.210  36.610  1.00  0.00    -0.493 OA
ATOM     22  C   UNL     1      15.679 -47.227  35.973  1.00  0.00     0.278 C 
ENDBRANCH  18  21
BRANCH  20  23
ATOM     23  O   UNL     1      15.371 -47.397  39.060  1.00  0.00    -0.504 OA
ATOM     24  H   UNL     1      15.957 -47.966  38.460  1.00  0.00     0.293 HD
ENDBRANCH  20  23
ENDBRANCH  14  15
ENDBRANCH  12  14
ENDBRANCH   9  10
ENDBRANCH   1   9
TORSDOF 10
ENDMDL
MODEL 4
REMARK VINA RESULT:    -7.582      2.606      4.359
REMARK INTER + INTRA:         -12.605
REMARK INTER:                 -11.513
REMARK INTRA:                  -1.092
REMARK UNBOUND:                -0.812
REMARK SMILES COc1cc(CNC(=O)CCCCC=CC(C)C)ccc1O
REMARK SMILES IDX 11 1 12 2 13 3 14 4 15 5 16 6 17 7 18 8 10 9 8 10 9 11 7 12
REMARK SMILES IDX 6 14 5 15 4 16 19 17 3 18 20 19 21 20 2 21 1 22 22 23
REMARK H PARENT 7 13 22 24
REMARK Flexibility Score: inf
ROOT
ATOM      1  C   UNL     1       8.167 -48.748  34.085  1.00  0.00     0.010 C 
ENDROOT
BRANCH   1   2
ATOM      2  C   UNL     1       6.649 -48.919  33.906  1.00  0.00     0.005 C 
BRANCH   2   3
ATOM      3  C   UNL     1       6.044 -49.914  34.910  1.00  0.00     0.027 C 
BRANCH   3   4
ATOM      4  C   UNL     1       7.114 -50.522  35.777  1.00  0.00    -0.031 C 
ATOM      5  C   UNL     1       7.408 -50.119  37.028  1.00  0.00    -0.028 C 
BRANCH   5   6
ATOM      6  C   UNL     1       6.660 -49.043  37.788  1.00  0.00     0.005 C 
ATOM      7  C   UNL     1       5.756 -49.688  38.842  1.00  0.00     0.012 C 
ATOM      8  C   UNL     1       7.654 -48.083  38.446  1.00  0.00     0.012 C 
ENDBRANCH   5   6
ENDBRANCH   3   4
ENDBRANCH   2   3
ENDBRANCH   1   2
BRANCH   1   9
ATOM      9  C   UNL     1       8.669 -47.314  33.850  1.00  0.00     0.100 C 
BRANCH   9  10
ATOM     10  C   UNL     1       8.856 -46.569  35.140  1.00  0.00     0.220 C 
ATOM     11  O   UNL     1       7.882 -45.939  35.636  1.00  0.00    -0.275 OA
ATOM     12  N   UNL     1      10.117 -46.609  35.822  1.00  0.00    -0.352 N 
ATOM     13  H   UNL     1      10.901 -47.165  35.413  1.00  0.00     0.163 HD
BRANCH  12  14
ATOM     14  C   UNL     1      10.340 -45.934  37.099  1.00  0.00     0.151 C 
BRANCH  14  15
ATOM     15  C   UNL     1      11.683 -46.314  37.661  1.00  0.00    -0.025 A 
ATOM     16  C   UNL     1      12.850 -46.148  36.898  1.00  0.00     0.056 A 
ATOM     17  C   UNL     1      11.773 -46.870  38.946  1.00  0.00     0.009 A 
ATOM     18  C   UNL     1      14.104 -46.528  37.417  1.00  0.00     0.160 A 
ATOM     19  C   UNL     1      13.013 -47.243  39.467  1.00  0.00     0.050 A 
ATOM     20  C   UNL     1      14.178 -47.074  38.706  1.00  0.00     0.157 A 
BRANCH  18  21
ATOM     21  O   UNL     1      15.292 -46.383  36.683  1.00  0.00    -0.493 OA
ATOM     22  C   UNL     1      15.729 -47.285  35.671  1.00  0.00     0.278 C 
ENDBRANCH  18  21
BRANCH  20  23
ATOM     23  O   UNL     1      15.416 -47.449  39.226  1.00  0.00    -0.504 OA
ATOM     24  H   UNL     1      16.104 -47.935  38.663  1.00  0.00     0.293 HD
ENDBRANCH  20  23
ENDBRANCH  14  15
ENDBRANCH  12  14
ENDBRANCH   9  10
ENDBRANCH   1   9
TORSDOF 10
ENDMDL
MODEL 5
REMARK VINA RESULT:    -7.519      1.509      3.295
REMARK INTER + INTRA:         -12.507
REMARK INTER:                 -11.338
REMARK INTRA:                  -1.169
REMARK UNBOUND:                -0.812
REMARK SMILES COc1cc(CNC(=O)CCCCC=CC(C)C)ccc1O
REMARK SMILES IDX 11 1 12 2 13 3 14 4 15 5 16 6 17 7 18 8 10 9 8 10 9 11 7 12
REMARK SMILES IDX 6 14 5 15 4 16 19 17 3 18 20 19 21 20 2 21 1 22 22 23
REMARK H PARENT 7 13 22 24
REMARK Flexibility Score: inf
ROOT
ATOM      1  C   UNL     1       7.789 -48.453  34.229  1.00  0.00     0.010 C 
ENDROOT
BRANCH   1   2
ATOM      2  C   UNL     1       6.383 -48.598  33.621  1.00  0.00     0.005 C 
BRANCH   2   3
ATOM      3  C   UNL     1       5.849 -47.278  33.041  1.00  0.00     0.027 C 
BRANCH   3   4
ATOM      4  C   UNL     1       6.487 -46.978  31.710  1.00  0.00    -0.031 C 
ATOM      5  C   UNL     1       7.390 -46.002  31.496  1.00  0.00    -0.028 C 
BRANCH   5   6
ATOM      6  C   UNL     1       7.963 -45.103  32.571  1.00  0.00     0.005 C 
ATOM      7  C   UNL     1       9.452 -45.406  32.760  1.00  0.00     0.012 C 
ATOM      8  C   UNL     1       7.756 -43.635  32.188  1.00  0.00     0.012 C 
ENDBRANCH   5   6
ENDBRANCH   3   4
ENDBRANCH   2   3
ENDBRANCH   1   2
BRANCH   1   9
ATOM      9  C   UNL     1       7.793 -48.192  35.744  1.00  0.00     0.100 C 
BRANCH   9  10
ATOM     10  C   UNL     1       8.544 -46.940  36.094  1.00  0.00     0.220 C 
ATOM     11  O   UNL     1       7.905 -45.922  36.472  1.00  0.00    -0.275 OA
ATOM     12  N   UNL     1       9.977 -46.917  36.037  1.00  0.00    -0.352 N 
ATOM     13  H   UNL     1      10.491 -47.782  35.755  1.00  0.00     0.163 HD
BRANCH  12  14
ATOM     14  C   UNL     1      10.758 -45.737  36.404  1.00  0.00     0.151 C 
BRANCH  14  15
ATOM     15  C   UNL     1      12.040 -46.149  37.076  1.00  0.00    -0.025 A 
ATOM     16  C   UNL     1      12.028 -46.674  38.378  1.00  0.00     0.056 A 
ATOM     17  C   UNL     1      13.263 -45.978  36.412  1.00  0.00     0.009 A 
ATOM     18  C   UNL     1      13.233 -47.035  39.015  1.00  0.00     0.160 A 
ATOM     19  C   UNL     1      14.459 -46.339  37.035  1.00  0.00     0.050 A 
ATOM     20  C   UNL     1      14.447 -46.866  38.334  1.00  0.00     0.157 A 
BRANCH  18  21
ATOM     21  O   UNL     1      13.263 -47.558  40.317  1.00  0.00    -0.493 OA
ATOM     22  C   UNL     1      12.294 -47.274  41.321  1.00  0.00     0.278 C 
ENDBRANCH  18  21
BRANCH  20  23
ATOM     23  O   UNL     1      15.642 -47.224  38.957  1.00  0.00    -0.504 OA
ATOM     24  H   UNL     1      16.148 -48.062  38.694  1.00  0.00     0.293 HD
ENDBRANCH  20  23
ENDBRANCH  14  15
ENDBRANCH  12  14
ENDBRANCH   9  10
ENDBRANCH   1   9
TORSDOF 10
ENDMDL
MODEL 6
REMARK VINA RESULT:    -7.393      2.948      7.503
REMARK INTER + INTRA:         -12.311
REMARK INTER:                 -11.093
REMARK INTRA:                  -1.219
REMARK UNBOUND:                -0.812
REMARK SMILES COc1cc(CNC(=O)CCCCC=CC(C)C)ccc1O
REMARK SMILES IDX 11 1 12 2 13 3 14 4 15 5 16 6 17 7 18 8 10 9 8 10 9 11 7 12
REMARK SMILES IDX 6 14 5 15 4 16 19 17 3 18 20 19 21 20 2 21 1 22 22 23
REMARK H PARENT 7 13 22 24
REMARK Flexibility Score: inf
ROOT
ATOM      1  C   UNL     1       7.984 -47.906  38.378  1.00  0.00     0.010 C 
ENDROOT
BRANCH   1   2
ATOM      2  C   UNL     1       7.785 -46.447  38.822  1.00  0.00     0.005 C 
BRANCH   2   3
ATOM      3  C   UNL     1       8.681 -45.465  38.048  1.00  0.00     0.027 C 
BRANCH   3   4
ATOM      4  C   UNL     1       9.318 -46.139  36.862  1.00  0.00    -0.031 C 
ATOM      5  C   UNL     1      10.645 -46.293  36.690  1.00  0.00    -0.028 C 
BRANCH   5   6
ATOM      6  C   UNL     1      11.701 -45.883  37.695  1.00  0.00     0.005 C 
ATOM      7  C   UNL     1      11.724 -46.879  38.858  1.00  0.00     0.012 C 
ATOM      8  C   UNL     1      13.071 -45.817  37.015  1.00  0.00     0.012 C 
ENDBRANCH   5   6
ENDBRANCH   3   4
ENDBRANCH   2   3
ENDBRANCH   1   2
BRANCH   1   9
ATOM      9  C   UNL     1       6.721 -48.775  38.492  1.00  0.00     0.100 C 
BRANCH   9  10
ATOM     10  C   UNL     1       6.221 -49.213  37.145  1.00  0.00     0.220 C 
ATOM     11  O   UNL     1       5.306 -50.077  37.078  1.00  0.00    -0.275 OA
ATOM     12  N   UNL     1       6.752 -48.623  35.950  1.00  0.00    -0.352 N 
ATOM     13  H   UNL     1       7.485 -47.883  36.029  1.00  0.00     0.163 HD
BRANCH  12  14
ATOM     14  C   UNL     1       6.273 -48.984  34.618  1.00  0.00     0.151 C 
BRANCH  14  15
ATOM     15  C   UNL     1       6.802 -48.017  33.594  1.00  0.00    -0.025 A 
ATOM     16  C   UNL     1       8.097 -47.488  33.712  1.00  0.00     0.056 A 
ATOM     17  C   UNL     1       5.987 -47.611  32.528  1.00  0.00     0.009 A 
ATOM     18  C   UNL     1       8.582 -46.563  32.766  1.00  0.00     0.160 A 
ATOM     19  C   UNL     1       6.463 -46.699  31.584  1.00  0.00     0.050 A 
ATOM     20  C   UNL     1       7.758 -46.174  31.701  1.00  0.00     0.157 A 
BRANCH  18  21
ATOM     21  O   UNL     1       9.868 -46.008  32.853  1.00  0.00    -0.493 OA
ATOM     22  C   UNL     1      10.158 -44.727  33.402  1.00  0.00     0.278 C 
ENDBRANCH  18  21
BRANCH  20  23
ATOM     23  O   UNL     1       8.232 -45.261  30.759  1.00  0.00    -0.504 OA
ATOM     24  H   UNL     1       9.076 -45.437  30.227  1.00  0.00     0.293 HD
ENDBRANCH  20  23
ENDBRANCH  14  15
ENDBRANCH  12  14
ENDBRANCH   9  10
ENDBRANCH   1   9
TORSDOF 10
ENDMDL
MODEL 7
REMARK VINA RESULT:    -7.375      1.511      2.184
REMARK INTER + INTRA:         -12.283
REMARK INTER:                 -11.434
REMARK INTRA:                  -0.849
REMARK UNBOUND:                -0.812
REMARK SMILES COc1cc(CNC(=O)CCCCC=CC(C)C)ccc1O
REMARK SMILES IDX 11 1 12 2 13 3 14 4 15 5 16 6 17 7 18 8 10 9 8 10 9 11 7 12
REMARK SMILES IDX 6 14 5 15 4 16 19 17 3 18 20 19 21 20 2 21 1 22 22 23
REMARK H PARENT 7 13 22 24
REMARK Flexibility Score: inf
ROOT
ATOM      1  C   UNL     1       9.230 -45.364  31.778  1.00  0.00     0.010 C 
ENDROOT
BRANCH   1   2
ATOM      2  C   UNL     1       8.051 -44.467  31.364  1.00  0.00     0.005 C 
BRANCH   2   3
ATOM      3  C   UNL     1       6.711 -44.943  31.949  1.00  0.00     0.027 C 
BRANCH   3   4
ATOM      4  C   UNL     1       6.328 -46.289  31.392  1.00  0.00    -0.031 C 
ATOM      5  C   UNL     1       6.351 -47.441  32.089  1.00  0.00    -0.028 C 
BRANCH   5   6
ATOM      6  C   UNL     1       6.691 -47.555  33.560  1.00  0.00     0.005 C 
ATOM      7  C   UNL     1       5.605 -48.359  34.282  1.00  0.00     0.012 C 
ATOM      8  C   UNL     1       8.058 -48.224  33.729  1.00  0.00     0.012 C 
ENDBRANCH   5   6
ENDBRANCH   3   4
ENDBRANCH   2   3
ENDBRANCH   1   2
BRANCH   1   9
ATOM      9  C   UNL     1      10.145 -44.744  32.846  1.00  0.00     0.100 C 
BRANCH   9  10
ATOM     10  C   UNL     1       9.535 -44.819  34.216  1.00  0.00     0.220 C 
ATOM     11  O   UNL     1       8.480 -44.172  34.459  1.00  0.00    -0.275 OA
ATOM     12  N   UNL     1      10.125 -45.651  35.225  1.00  0.00    -0.352 N 
ATOM     13  H   UNL     1      10.978 -46.206  34.994  1.00  0.00     0.163 HD
BRANCH  12  14
ATOM     14  C   UNL     1       9.549 -45.789  36.562  1.00  0.00     0.151 C 
BRANCH  14  15
ATOM     15  C   UNL     1      10.600 -46.246  37.537  1.00  0.00    -0.025 A 
ATOM     16  C   UNL     1      11.964 -46.096  37.240  1.00  0.00     0.056 A 
ATOM     17  C   UNL     1      10.220 -46.859  38.739  1.00  0.00     0.009 A 
ATOM     18  C   UNL     1      12.947 -46.548  38.143  1.00  0.00     0.160 A 
ATOM     19  C   UNL     1      11.188 -47.304  39.640  1.00  0.00     0.050 A 
ATOM     20  C   UNL     1      12.551 -47.151  39.346  1.00  0.00     0.157 A 
BRANCH  18  21
ATOM     21  O   UNL     1      14.320 -46.421  37.880  1.00  0.00    -0.493 OA
ATOM     22  C   UNL     1      15.048 -47.251  36.981  1.00  0.00     0.278 C 
ENDBRANCH  18  21
BRANCH  20  23
ATOM     23  O   UNL     1      13.517 -47.597  40.245  1.00  0.00    -0.504 OA
ATOM     24  H   UNL     1      13.316 -47.702  41.232  1.00  0.00     0.293 HD
ENDBRANCH  20  23
ENDBRANCH  14  15
ENDBRANCH  12  14
ENDBRANCH   9  10
ENDBRANCH   1   9
TORSDOF 10
ENDMDL
MODEL 8
REMARK VINA RESULT:    -7.351      3.113      7.389
REMARK INTER + INTRA:         -12.246
REMARK INTER:                 -10.592
REMARK INTRA:                  -1.654
REMARK UNBOUND:                -0.812
REMARK SMILES COc1cc(CNC(=O)CCCCC=CC(C)C)ccc1O
REMARK SMILES IDX 11 1 12 2 13 3 14 4 15 5 16 6 17 7 18 8 10 9 8 10 9 11 7 12
REMARK SMILES IDX 6 14 5 15 4 16 19 17 3 18 20 19 21 20 2 21 1 22 22 23
REMARK H PARENT 7 13 22 24
REMARK Flexibility Score: inf
ROOT
ATOM      1  C   UNL     1       6.507 -49.192  38.277  1.00  0.00     0.010 C 
ENDROOT
BRANCH   1   2
ATOM      2  C   UNL     1       6.987 -47.780  38.652  1.00  0.00     0.005 C 
BRANCH   2   3
ATOM      3  C   UNL     1       8.513 -47.625  38.545  1.00  0.00     0.027 C 
BRANCH   3   4
ATOM      4  C   UNL     1       8.912 -46.174  38.608  1.00  0.00    -0.031 C 
ATOM      5  C   UNL     1      10.180 -45.725  38.546  1.00  0.00    -0.028 C 
BRANCH   5   6
ATOM      6  C   UNL     1      11.397 -46.599  38.327  1.00  0.00     0.005 C 
ATOM      7  C   UNL     1      12.410 -45.864  37.444  1.00  0.00     0.012 C 
ATOM      8  C   UNL     1      12.025 -46.968  39.674  1.00  0.00     0.012 C 
ENDBRANCH   5   6
ENDBRANCH   3   4
ENDBRANCH   2   3
ENDBRANCH   1   2
BRANCH   1   9
ATOM      9  C   UNL     1       5.447 -49.221  37.164  1.00  0.00     0.100 C 
BRANCH   9  10
ATOM     10  C   UNL     1       6.058 -49.029  35.806  1.00  0.00     0.220 C 
ATOM     11  O   UNL     1       5.349 -48.570  34.869  1.00  0.00    -0.275 OA
ATOM     12  N   UNL     1       7.445 -49.325  35.588  1.00  0.00    -0.352 N 
ATOM     13  H   UNL     1       8.024 -49.669  36.386  1.00  0.00     0.163 HD
BRANCH  12  14
ATOM     14  C   UNL     1       8.097 -49.118  34.297  1.00  0.00     0.151 C 
BRANCH  14  15
ATOM     15  C   UNL     1       8.485 -47.673  34.134  1.00  0.00    -0.025 A 
ATOM     16  C   UNL     1       7.973 -46.911  33.072  1.00  0.00     0.056 A 
ATOM     17  C   UNL     1       9.392 -47.087  35.029  1.00  0.00     0.009 A 
ATOM     18  C   UNL     1       8.357 -45.565  32.907  1.00  0.00     0.160 A 
ATOM     19  C   UNL     1       9.772 -45.753  34.873  1.00  0.00     0.050 A 
ATOM     20  C   UNL     1       9.258 -44.991  33.815  1.00  0.00     0.157 A 
BRANCH  18  21
ATOM     21  O   UNL     1       7.871 -44.772  31.856  1.00  0.00    -0.493 OA
ATOM     22  C   UNL     1       6.521 -44.338  31.733  1.00  0.00     0.278 C 
ENDBRANCH  18  21
BRANCH  20  23
ATOM     23  O   UNL     1       9.640 -43.659  33.659  1.00  0.00    -0.504 OA
ATOM     24  H   UNL     1      10.252 -43.367  32.907  1.00  0.00     0.293 HD
ENDBRANCH  20  23
ENDBRANCH  14  15
ENDBRANCH  12  14
ENDBRANCH   9  10
ENDBRANCH   1   9
TORSDOF 10
ENDMDL
MODEL 9
REMARK VINA RESULT:    -7.322      3.157      7.314
REMARK INTER + INTRA:         -12.199
REMARK INTER:                 -11.187
REMARK INTRA:                  -1.012
REMARK UNBOUND:                -0.812
REMARK SMILES COc1cc(CNC(=O)CCCCC=CC(C)C)ccc1O
REMARK SMILES IDX 11 1 12 2 13 3 14 4 15 5 16 6 17 7 18 8 10 9 8 10 9 11 7 12
REMARK SMILES IDX 6 14 5 15 4 16 19 17 3 18 20 19 21 20 2 21 1 22 22 23
REMARK H PARENT 7 13 22 24
REMARK Flexibility Score: inf
ROOT
ATOM      1  C   UNL     1       5.422 -50.159  36.182  1.00  0.00     0.010 C 
ENDROOT
BRANCH   1   2
ATOM      2  C   UNL     1       6.368 -50.288  37.388  1.00  0.00     0.005 C 
BRANCH   2   3
ATOM      3  C   UNL     1       7.326 -49.093  37.520  1.00  0.00     0.027 C 
BRANCH   3   4
ATOM      4  C   UNL     1       6.856 -48.142  38.589  1.00  0.00    -0.031 C 
ATOM      5  C   UNL     1       7.522 -47.038  38.980  1.00  0.00    -0.028 C 
BRANCH   5   6
ATOM      6  C   UNL     1       8.808 -46.538  38.355  1.00  0.00     0.005 C 
ATOM      7  C   UNL     1       8.926 -45.024  38.555  1.00  0.00     0.012 C 
ATOM      8  C   UNL     1      10.006 -47.258  38.981  1.00  0.00     0.012 C 
ENDBRANCH   5   6
ENDBRANCH   3   4
ENDBRANCH   2   3
ENDBRANCH   1   2
BRANCH   1   9
ATOM      9  C   UNL     1       6.142 -49.971  34.837  1.00  0.00     0.100 C 
BRANCH   9  10
ATOM     10  C   UNL     1       5.726 -48.701  34.153  1.00  0.00     0.220 C 
ATOM     11  O   UNL     1       4.828 -47.985  34.674  1.00  0.00    -0.275 OA
ATOM     12  N   UNL     1       6.372 -48.287  32.941  1.00  0.00    -0.352 N 
ATOM     13  H   UNL     1       7.138 -48.877  32.544  1.00  0.00     0.163 HD
BRANCH  12  14
ATOM     14  C   UNL     1       6.032 -47.041  32.257  1.00  0.00     0.151 C 
BRANCH  14  15
ATOM     15  C   UNL     1       7.091 -46.003  32.509  1.00  0.00    -0.025 A 
ATOM     16  C   UNL     1       8.308 -46.355  33.115  1.00  0.00     0.056 A 
ATOM     17  C   UNL     1       6.853 -44.663  32.170  1.00  0.00     0.009 A 
ATOM     18  C   UNL     1       9.288 -45.376  33.374  1.00  0.00     0.160 A 
ATOM     19  C   UNL     1       7.822 -43.690  32.419  1.00  0.00     0.050 A 
ATOM     20  C   UNL     1       9.039 -44.043  33.020  1.00  0.00     0.157 A 
BRANCH  18  21
ATOM     21  O   UNL     1      10.514 -45.688  33.982  1.00  0.00    -0.493 OA
ATOM     22  C   UNL     1      10.727 -45.734  35.389  1.00  0.00     0.278 C 
ENDBRANCH  18  21
BRANCH  20  23
ATOM     23  O   UNL     1      10.005 -43.070  33.271  1.00  0.00    -0.504 OA
ATOM     24  H   UNL     1       9.751 -42.125  33.536  1.00  0.00     0.293 HD
ENDBRANCH  20  23
ENDBRANCH  14  15
ENDBRANCH  12  14
ENDBRANCH   9  10
ENDBRANCH   1   9
TORSDOF 10
ENDMDL
