MODEL 1
REMARK VINA RESULT:    -3.995      0.000      0.000
REMARK INTER + INTRA:          -6.450
REMARK INTER:                  -5.863
REMARK INTRA:                  -0.587
REMARK UNBOUND:                -0.587
REMARK SMILES C=C1C=C[C@@H](C(C)C)CCC(C)=CCC1
REMARK SMILES IDX 3 1 4 2 5 3 9 4 10 5 11 6 12 7 13 8 6 10 7 11 8 12 2 13 1 14
REMARK SMILES IDX 15 15 14 16
REMARK H PARENT
REMARK Flexibility Score: 70.00
ROOT
ATOM      1  C   UNL     1       1.011  -2.926  16.105  1.00  0.00    -0.001 C 
ATOM      2  C   UNL     1       0.961  -3.423  17.352  1.00  0.00    -0.023 C 
ENDROOT
BRANCH   2   3
ATOM      3  C   UNL     1       1.247  -2.711  18.671  1.00  0.00     0.014 C 
BRANCH   3   4
ATOM      4  C   UNL     1       2.663  -3.035  19.235  1.00  0.00     0.012 C 
BRANCH   4   5
ATOM      5  C   UNL     1       3.638  -3.752  18.274  1.00  0.00     0.031 C 
BRANCH   5   6
ATOM      6  C   UNL     1       4.800  -2.874  17.851  1.00  0.00    -0.077 C 
ATOM      7  C   UNL     1       5.960  -2.696  18.799  1.00  0.00     0.039 C 
ATOM      8  C   UNL     1       4.882  -2.283  16.635  1.00  0.00    -0.028 CG0
ATOM      9  G   UNL     1       3.807  -2.267  15.570  1.00  0.00     0.000 G0
ENDBRANCH   5   6
ENDBRANCH   4   5
ENDBRANCH   3   4
BRANCH   3  10
ATOM     10  C   UNL     1       0.072  -2.748  19.700  1.00  0.00    -0.010 C 
ATOM     11  C   UNL     1       0.595  -2.815  21.145  1.00  0.00     0.008 C 
ATOM     12  C   UNL     1      -0.836  -1.511  19.566  1.00  0.00     0.008 C 
ENDBRANCH   3  10
ENDBRANCH   2   3
BRANCH   1  13
ATOM     13  C   UNL     1       1.350  -1.541  15.743  1.00  0.00    -0.055 C 
ATOM     14  C   UNL     1       0.388  -0.615  15.765  1.00  0.00     0.012 C 
BRANCH  13  15
ATOM     15  C   UNL     1       2.799  -1.100  15.680  1.00  0.00     0.039 C 
BRANCH  15  16
ATOM     16  C   UNL     1       3.811  -2.261  15.551  1.00  0.00     0.032 CG0
ATOM     17  G   UNL     1       4.865  -2.293  16.637  1.00  0.00     0.000 G0
ENDBRANCH  15  16
ENDBRANCH  13  15
ENDBRANCH   1  13
TORSDOF 1
ENDMDL
MODEL 2
REMARK VINA RESULT:    -3.723      2.200      4.288
REMARK INTER + INTRA:          -6.052
REMARK INTER:                  -5.541
REMARK INTRA:                  -0.511
REMARK UNBOUND:                -0.587
REMARK SMILES C=C1C=C[C@@H](C(C)C)CCC(C)=CCC1
REMARK SMILES IDX 3 1 4 2 5 3 9 4 10 5 11 6 12 7 13 8 6 10 7 11 8 12 2 13 1 14
REMARK SMILES IDX 15 15 14 16
REMARK H PARENT
REMARK Flexibility Score: 70.00
ROOT
ATOM      1  C   UNL     1       0.774  -2.278  18.280  1.00  0.00    -0.001 C 
ATOM      2  C   UNL     1       1.614  -1.787  17.354  1.00  0.00    -0.023 C 
ENDROOT
BRANCH   2   3
ATOM      3  C   UNL     1       2.928  -2.377  16.853  1.00  0.00     0.014 C 
BRANCH   3   4
ATOM      4  C   UNL     1       4.134  -2.032  17.777  1.00  0.00     0.012 C 
BRANCH   4   5
ATOM      5  C   UNL     1       4.818  -3.222  18.486  1.00  0.00     0.031 C 
BRANCH   5   6
ATOM      6  C   UNL     1       4.952  -3.018  19.983  1.00  0.00    -0.077 C 
ATOM      7  C   UNL     1       6.127  -2.231  20.508  1.00  0.00     0.039 C 
ATOM      8  C   UNL     1       4.035  -3.458  20.879  1.00  0.00    -0.028 CG0
ATOM      9  G   UNL     1       2.832  -4.326  20.580  1.00  0.00     0.000 G0
ENDBRANCH   5   6
ENDBRANCH   4   5
ENDBRANCH   3   4
BRANCH   3  10
ATOM     10  C   UNL     1       3.171  -2.218  15.317  1.00  0.00    -0.010 C 
ATOM     11  C   UNL     1       2.128  -3.002  14.502  1.00  0.00     0.008 C 
ATOM     12  C   UNL     1       3.117  -0.741  14.886  1.00  0.00     0.008 C 
ENDBRANCH   3  10
ENDBRANCH   2   3
BRANCH   1  13
ATOM     13  C   UNL     1       0.949  -3.540  19.018  1.00  0.00    -0.055 C 
ATOM     14  C   UNL     1       0.904  -4.692  18.344  1.00  0.00     0.012 C 
BRANCH  13  15
ATOM     15  C   UNL     1       1.504  -3.530  20.429  1.00  0.00     0.039 C 
BRANCH  15  16
ATOM     16  C   UNL     1       2.822  -4.319  20.599  1.00  0.00     0.032 CG0
ATOM     17  G   UNL     1       4.036  -3.456  20.865  1.00  0.00     0.000 G0
ENDBRANCH  15  16
ENDBRANCH  13  15
ENDBRANCH   1  13
TORSDOF 1
ENDMDL
MODEL 3
REMARK VINA RESULT:    -3.713      2.772      5.844
REMARK INTER + INTRA:          -6.036
REMARK INTER:                  -5.373
REMARK INTRA:                  -0.663
REMARK UNBOUND:                -0.587
REMARK SMILES C=C1C=C[C@@H](C(C)C)CCC(C)=CCC1
REMARK SMILES IDX 3 1 4 2 5 3 9 4 10 5 11 6 12 7 13 8 6 10 7 11 8 12 2 13 1 14
REMARK SMILES IDX 15 15 14 16
REMARK H PARENT
REMARK Flexibility Score: 70.00
ROOT
ATOM      1  C   UNL     1       4.653  -5.098  20.216  1.00  0.00    -0.001 C 
ATOM      2  C   UNL     1       4.640  -4.355  19.096  1.00  0.00    -0.023 C 
ENDROOT
BRANCH   2   3
ATOM      3  C   UNL     1       4.318  -2.871  18.944  1.00  0.00     0.014 C 
BRANCH   3   4
ATOM      4  C   UNL     1       3.045  -2.617  18.083  1.00  0.00     0.012 C 
BRANCH   4   5
ATOM      5  C   UNL     1       1.900  -3.643  18.230  1.00  0.00     0.031 C 
BRANCH   5   6
ATOM      6  C   UNL     1       0.908  -3.268  19.314  1.00  0.00    -0.077 C 
ATOM      7  C   UNL     1      -0.133  -2.218  19.015  1.00  0.00     0.039 C 
ATOM      8  C   UNL     1       0.868  -3.872  20.527  1.00  0.00    -0.028 CG0
ATOM      9  G   UNL     1       1.857  -4.886  21.058  1.00  0.00     0.000 G0
ENDBRANCH   5   6
ENDBRANCH   4   5
ENDBRANCH   3   4
BRANCH   3  10
ATOM     10  C   UNL     1       5.553  -1.966  18.631  1.00  0.00    -0.010 C 
ATOM     11  C   UNL     1       6.111  -1.319  19.910  1.00  0.00     0.008 C 
ATOM     12  C   UNL     1       6.683  -2.764  17.954  1.00  0.00     0.008 C 
ENDBRANCH   3  10
ENDBRANCH   2   3
BRANCH   1  13
ATOM     13  C   UNL     1       4.363  -4.613  21.574  1.00  0.00    -0.055 C 
ATOM     14  C   UNL     1       5.375  -4.188  22.336  1.00  0.00     0.012 C 
BRANCH  13  15
ATOM     15  C   UNL     1       2.941  -4.279  21.980  1.00  0.00     0.039 C 
BRANCH  15  16
ATOM     16  C   UNL     1       1.859  -4.891  21.063  1.00  0.00     0.032 CG0
ATOM     17  G   UNL     1       0.865  -3.889  20.517  1.00  0.00     0.000 G0
ENDBRANCH  15  16
ENDBRANCH  13  15
ENDBRANCH   1  13
TORSDOF 1
ENDMDL
MODEL 4
REMARK VINA RESULT:    -3.702      2.288      4.367
REMARK INTER + INTRA:          -6.021
REMARK INTER:                  -5.609
REMARK INTRA:                  -0.411
REMARK UNBOUND:                -0.587
REMARK SMILES C=C1C=C[C@@H](C(C)C)CCC(C)=CCC1
REMARK SMILES IDX 3 1 4 2 5 3 9 4 10 5 11 6 12 7 13 8 6 10 7 11 8 12 2 13 1 14
REMARK SMILES IDX 15 15 14 16
REMARK H PARENT
REMARK Flexibility Score: 70.00
ROOT
ATOM      1  C   UNL     1       5.113  -2.253  17.107  1.00  0.00    -0.001 C 
ATOM      2  C   UNL     1       3.820  -2.595  17.242  1.00  0.00    -0.023 C 
ENDROOT
BRANCH   2   3
ATOM      3  C   UNL     1       3.100  -3.119  18.480  1.00  0.00     0.014 C 
BRANCH   3   4
ATOM      4  C   UNL     1       3.349  -4.638  18.724  1.00  0.00     0.012 C 
BRANCH   4   5
ATOM      5  C   UNL     1       4.209  -5.004  19.954  1.00  0.00     0.031 C 
BRANCH   5   6
ATOM      6  C   UNL     1       3.986  -4.070  21.128  1.00  0.00    -0.077 C 
ATOM      7  C   UNL     1       2.771  -4.274  21.999  1.00  0.00     0.039 C 
ATOM      8  C   UNL     1       4.855  -3.090  21.476  1.00  0.00    -0.028 CG0
ATOM      9  G   UNL     1       6.086  -2.666  20.704  1.00  0.00     0.000 G0
ENDBRANCH   5   6
ENDBRANCH   4   5
ENDBRANCH   3   4
BRANCH   3  10
ATOM     10  C   UNL     1       1.622  -2.632  18.629  1.00  0.00    -0.010 C 
ATOM     11  C   UNL     1       1.097  -2.030  17.315  1.00  0.00     0.008 C 
ATOM     12  C   UNL     1       0.687  -3.781  19.048  1.00  0.00     0.008 C 
ENDBRANCH   3  10
ENDBRANCH   2   3
BRANCH   1  13
ATOM     13  C   UNL     1       6.131  -2.302  18.168  1.00  0.00    -0.055 C 
ATOM     14  C   UNL     1       7.391  -2.599  17.839  1.00  0.00     0.012 C 
BRANCH  13  15
ATOM     15  C   UNL     1       5.844  -1.704  19.531  1.00  0.00     0.039 C 
BRANCH  15  16
ATOM     16  C   UNL     1       6.104  -2.664  20.714  1.00  0.00     0.032 CG0
ATOM     17  G   UNL     1       4.857  -3.087  21.460  1.00  0.00     0.000 G0
ENDBRANCH  15  16
ENDBRANCH  13  15
ENDBRANCH   1  13
TORSDOF 1
ENDMDL
MODEL 5
REMARK VINA RESULT:    -3.665      2.414      5.222
REMARK INTER + INTRA:          -5.966
REMARK INTER:                  -5.455
REMARK INTRA:                  -0.511
REMARK UNBOUND:                -0.587
REMARK SMILES C=C1C=C[C@@H](C(C)C)CCC(C)=CCC1
REMARK SMILES IDX 3 1 4 2 5 3 9 4 10 5 11 6 12 7 13 8 6 10 7 11 8 12 2 13 1 14
REMARK SMILES IDX 15 15 14 16
REMARK H PARENT
REMARK Flexibility Score: 70.00
ROOT
ATOM      1  C   UNL     1       3.738  -4.603  18.652  1.00  0.00    -0.001 C 
ATOM      2  C   UNL     1       2.806  -4.017  17.881  1.00  0.00    -0.023 C 
ENDROOT
BRANCH   2   3
ATOM      3  C   UNL     1       2.313  -2.574  17.916  1.00  0.00     0.014 C 
BRANCH   3   4
ATOM      4  C   UNL     1       0.880  -2.442  18.515  1.00  0.00     0.012 C 
BRANCH   4   5
ATOM      5  C   UNL     1       0.449  -3.540  19.512  1.00  0.00     0.031 C 
BRANCH   5   6
ATOM      6  C   UNL     1       0.658  -3.137  20.959  1.00  0.00    -0.077 C 
ATOM      7  C   UNL     1      -0.263  -2.109  21.568  1.00  0.00     0.039 C 
ATOM      8  C   UNL     1       1.597  -3.698  21.759  1.00  0.00    -0.028 CG0
ATOM      9  G   UNL     1       2.665  -4.683  21.336  1.00  0.00     0.000 G0
ENDBRANCH   5   6
ENDBRANCH   4   5
ENDBRANCH   3   4
BRANCH   3  10
ATOM     10  C   UNL     1       2.592  -1.757  16.614  1.00  0.00    -0.010 C 
ATOM     11  C   UNL     1       3.890  -2.222  15.930  1.00  0.00     0.008 C 
ATOM     12  C   UNL     1       1.435  -1.887  15.606  1.00  0.00     0.008 C 
ENDBRANCH   3  10
ENDBRANCH   2   3
BRANCH   1  13
ATOM     13  C   UNL     1       4.510  -3.945  19.718  1.00  0.00    -0.055 C 
ATOM     14  C   UNL     1       5.410  -3.016  19.383  1.00  0.00     0.012 C 
BRANCH  13  15
ATOM     15  C   UNL     1       4.069  -4.060  21.164  1.00  0.00     0.039 C 
BRANCH  15  16
ATOM     16  C   UNL     1       2.671  -4.691  21.354  1.00  0.00     0.032 CG0
ATOM     17  G   UNL     1       1.593  -3.709  21.760  1.00  0.00     0.000 G0
ENDBRANCH  15  16
ENDBRANCH  13  15
ENDBRANCH   1  13
TORSDOF 1
ENDMDL
MODEL 6
REMARK VINA RESULT:    -3.657      2.425      5.526
REMARK INTER + INTRA:          -5.954
REMARK INTER:                  -5.458
REMARK INTRA:                  -0.497
REMARK UNBOUND:                -0.587
REMARK SMILES C=C1C=C[C@@H](C(C)C)CCC(C)=CCC1
REMARK SMILES IDX 3 1 4 2 5 3 9 4 10 5 11 6 12 7 13 8 6 10 7 11 8 12 2 13 1 14
REMARK SMILES IDX 15 15 14 16
REMARK H PARENT
REMARK Flexibility Score: 70.00
ROOT
ATOM      1  C   UNL     1       4.239  -5.119  20.360  1.00  0.00    -0.001 C 
ATOM      2  C   UNL     1       4.916  -4.517  19.367  1.00  0.00    -0.023 C 
ENDROOT
BRANCH   2   3
ATOM      3  C   UNL     1       5.029  -3.027  19.062  1.00  0.00     0.014 C 
BRANCH   3   4
ATOM      4  C   UNL     1       4.162  -2.595  17.842  1.00  0.00     0.012 C 
BRANCH   4   5
ATOM      5  C   UNL     1       3.029  -3.560  17.427  1.00  0.00     0.031 C 
BRANCH   5   6
ATOM      6  C   UNL     1       1.654  -3.057  17.819  1.00  0.00    -0.077 C 
ATOM      7  C   UNL     1       1.018  -1.963  16.997  1.00  0.00     0.039 C 
ATOM      8  C   UNL     1       0.932  -3.581  18.839  1.00  0.00    -0.028 CG0
ATOM      9  G   UNL     1       1.404  -4.622  19.831  1.00  0.00     0.000 G0
ENDBRANCH   5   6
ENDBRANCH   4   5
ENDBRANCH   3   4
BRANCH   3  10
ATOM     10  C   UNL     1       6.485  -2.462  19.106  1.00  0.00    -0.010 C 
ATOM     11  C   UNL     1       7.021  -2.187  17.690  1.00  0.00     0.008 C 
ATOM     12  C   UNL     1       6.561  -1.157  19.919  1.00  0.00     0.008 C 
ENDBRANCH   3  10
ENDBRANCH   2   3
BRANCH   1  13
ATOM     13  C   UNL     1       3.451  -4.440  21.400  1.00  0.00    -0.055 C 
ATOM     14  C   UNL     1       4.084  -3.947  22.469  1.00  0.00     0.012 C 
BRANCH  13  15
ATOM     15  C   UNL     1       2.026  -4.005  21.120  1.00  0.00     0.039 C 
BRANCH  15  16
ATOM     16  C   UNL     1       1.418  -4.615  19.837  1.00  0.00     0.032 CG0
ATOM     17  G   UNL     1       0.921  -3.593  18.836  1.00  0.00     0.000 G0
ENDBRANCH  15  16
ENDBRANCH  13  15
ENDBRANCH   1  13
TORSDOF 1
ENDMDL
MODEL 7
REMARK VINA RESULT:    -3.652      1.631      3.949
REMARK INTER + INTRA:          -5.948
REMARK INTER:                  -5.460
REMARK INTRA:                  -0.488
REMARK UNBOUND:                -0.587
REMARK SMILES C=C1C=C[C@@H](C(C)C)CCC(C)=CCC1
REMARK SMILES IDX 3 1 4 2 5 3 9 4 10 5 11 6 12 7 13 8 6 10 7 11 8 12 2 13 1 14
REMARK SMILES IDX 15 15 14 16
REMARK H PARENT
REMARK Flexibility Score: 70.00
ROOT
ATOM      1  C   UNL     1       1.453  -2.456  17.969  1.00  0.00    -0.001 C 
ATOM      2  C   UNL     1       1.276  -1.968  16.729  1.00  0.00    -0.023 C 
ENDROOT
BRANCH   2   3
ATOM      3  C   UNL     1       1.542  -2.652  15.391  1.00  0.00     0.014 C 
BRANCH   3   4
ATOM      4  C   UNL     1       3.050  -2.639  14.997  1.00  0.00     0.012 C 
BRANCH   4   5
ATOM      5  C   UNL     1       3.940  -1.604  15.720  1.00  0.00     0.031 C 
BRANCH   5   6
ATOM      6  C   UNL     1       5.230  -2.202  16.245  1.00  0.00    -0.077 C 
ATOM      7  C   UNL     1       6.434  -2.248  15.337  1.00  0.00     0.039 C 
ATOM      8  C   UNL     1       5.381  -2.648  17.516  1.00  0.00    -0.028 CG0
ATOM      9  G   UNL     1       4.293  -2.765  18.562  1.00  0.00     0.000 G0
ENDBRANCH   5   6
ENDBRANCH   4   5
ENDBRANCH   3   4
BRANCH   3  10
ATOM     10  C   UNL     1       0.531  -2.283  14.259  1.00  0.00    -0.010 C 
ATOM     11  C   UNL     1      -0.070  -0.884  14.481  1.00  0.00     0.008 C 
ATOM     12  C   UNL     1       1.200  -2.312  12.872  1.00  0.00     0.008 C 
ENDBRANCH   3  10
ENDBRANCH   2   3
BRANCH   1  13
ATOM     13  C   UNL     1       1.942  -3.803  18.302  1.00  0.00    -0.055 C 
ATOM     14  C   UNL     1       1.106  -4.839  18.187  1.00  0.00     0.012 C 
BRANCH  13  15
ATOM     15  C   UNL     1       3.429  -4.065  18.438  1.00  0.00     0.039 C 
BRANCH  15  16
ATOM     16  C   UNL     1       4.288  -2.788  18.574  1.00  0.00     0.032 CG0
ATOM     17  G   UNL     1       5.371  -2.651  17.526  1.00  0.00     0.000 G0
ENDBRANCH  15  16
ENDBRANCH  13  15
ENDBRANCH   1  13
TORSDOF 1
ENDMDL
MODEL 8
REMARK VINA RESULT:    -3.651      1.480      4.290
REMARK INTER + INTRA:          -5.945
REMARK INTER:                  -5.359
REMARK INTRA:                  -0.587
REMARK UNBOUND:                -0.587
REMARK SMILES C=C1C=C[C@@H](C(C)C)CCC(C)=CCC1
REMARK SMILES IDX 3 1 4 2 5 3 9 4 10 5 11 6 12 7 13 8 6 10 7 11 8 12 2 13 1 14
REMARK SMILES IDX 15 15 14 16
REMARK H PARENT
REMARK Flexibility Score: 70.00
ROOT
ATOM      1  C   UNL     1       2.255  -4.491  18.686  1.00  0.00    -0.001 C 
ATOM      2  C   UNL     1       3.514  -4.253  18.281  1.00  0.00    -0.023 C 
ENDROOT
BRANCH   2   3
ATOM      3  C   UNL     1       4.325  -2.966  18.404  1.00  0.00     0.014 C 
BRANCH   3   4
ATOM      4  C   UNL     1       4.541  -2.257  17.033  1.00  0.00     0.012 C 
BRANCH   4   5
ATOM      5  C   UNL     1       3.507  -2.568  15.929  1.00  0.00     0.031 C 
BRANCH   5   6
ATOM      6  C   UNL     1       2.466  -1.476  15.771  1.00  0.00    -0.077 C 
ATOM      7  C   UNL     1       2.840  -0.217  15.028  1.00  0.00     0.039 C 
ATOM      8  C   UNL     1       1.191  -1.594  16.214  1.00  0.00    -0.028 CG0
ATOM      9  G   UNL     1       0.630  -2.728  17.044  1.00  0.00     0.000 G0
ENDBRANCH   5   6
ENDBRANCH   4   5
ENDBRANCH   3   4
BRANCH   3  10
ATOM     10  C   UNL     1       5.579  -3.072  19.329  1.00  0.00    -0.010 C 
ATOM     11  C   UNL     1       6.111  -1.680  19.712  1.00  0.00     0.008 C 
ATOM     12  C   UNL     1       5.265  -3.847  20.622  1.00  0.00     0.008 C 
ENDBRANCH   3  10
ENDBRANCH   2   3
BRANCH   1  13
ATOM     13  C   UNL     1       1.373  -3.530  19.367  1.00  0.00    -0.055 C 
ATOM     14  C   UNL     1       1.464  -3.401  20.694  1.00  0.00     0.012 C 
BRANCH  13  15
ATOM     15  C   UNL     1       0.631  -2.475  18.570  1.00  0.00     0.039 C 
BRANCH  15  16
ATOM     16  C   UNL     1       0.622  -2.721  17.045  1.00  0.00     0.032 CG0
ATOM     17  G   UNL     1       1.202  -1.587  16.227  1.00  0.00     0.000 G0
ENDBRANCH  15  16
ENDBRANCH  13  15
ENDBRANCH   1  13
TORSDOF 1
ENDMDL
MODEL 9
REMARK VINA RESULT:    -3.565      2.475      5.083
REMARK INTER + INTRA:          -5.820
REMARK INTER:                  -5.330
REMARK INTRA:                  -0.491
REMARK UNBOUND:                -0.587
REMARK SMILES C=C1C=C[C@@H](C(C)C)CCC(C)=CCC1
REMARK SMILES IDX 3 1 4 2 5 3 9 4 10 5 11 6 12 7 13 8 6 10 7 11 8 12 2 13 1 14
REMARK SMILES IDX 15 15 14 16
REMARK H PARENT
REMARK Flexibility Score: 70.00
ROOT
ATOM      1  C   UNL     1       5.392  -3.327  18.625  1.00  0.00    -0.001 C 
ATOM      2  C   UNL     1       4.278  -3.220  17.881  1.00  0.00    -0.023 C 
ENDROOT
BRANCH   2   3
ATOM      3  C   UNL     1       3.094  -2.278  18.072  1.00  0.00     0.014 C 
BRANCH   3   4
ATOM      4  C   UNL     1       1.948  -2.915  18.914  1.00  0.00     0.012 C 
BRANCH   4   5
ATOM      5  C   UNL     1       2.197  -4.344  19.443  1.00  0.00     0.031 C 
BRANCH   5   6
ATOM      6  C   UNL     1       2.165  -4.426  20.957  1.00  0.00    -0.077 C 
ATOM      7  C   UNL     1       0.828  -4.481  21.655  1.00  0.00     0.039 C 
ATOM      8  C   UNL     1       3.280  -4.511  21.722  1.00  0.00    -0.028 CG0
ATOM      9  G   UNL     1       4.710  -4.397  21.239  1.00  0.00     0.000 G0
ENDBRANCH   5   6
ENDBRANCH   4   5
ENDBRANCH   3   4
BRANCH   3  10
ATOM     10  C   UNL     1       2.656  -1.511  16.783  1.00  0.00    -0.010 C 
ATOM     11  C   UNL     1       3.456  -1.980  15.555  1.00  0.00     0.008 C 
ATOM     12  C   UNL     1       1.157  -1.703  16.491  1.00  0.00     0.008 C 
ENDBRANCH   3  10
ENDBRANCH   2   3
BRANCH   1  13
ATOM     13  C   UNL     1       5.716  -2.518  19.811  1.00  0.00    -0.055 C 
ATOM     14  C   UNL     1       6.129  -1.259  19.640  1.00  0.00     0.012 C 
BRANCH  13  15
ATOM     15  C   UNL     1       5.272  -2.970  21.188  1.00  0.00     0.039 C 
BRANCH  15  16
ATOM     16  C   UNL     1       4.720  -4.412  21.237  1.00  0.00     0.032 CG0
ATOM     17  G   UNL     1       3.287  -4.515  21.713  1.00  0.00     0.000 G0
ENDBRANCH  15  16
ENDBRANCH  13  15
ENDBRANCH   1  13
TORSDOF 1
ENDMDL
