MODEL 1
REMARK VINA RESULT:    -7.179      0.000      0.000
REMARK INTER + INTRA:          -9.168
REMARK INTER:                  -8.858
REMARK INTRA:                  -0.310
REMARK UNBOUND:                -0.310
REMARK SMILES Oc1cc(O)c2cc(O)c(-c3cc(O)c(O)c(O)c3)[o+]c2c1
REMARK SMILES IDX 10 1 20 2 21 3 22 4 2 5 3 6 4 7 6 8 7 9 8 10 11 11 12 12
REMARK SMILES IDX 13 13 19 14 15 15 17 16 14 17 16 19 18 21 9 23 1 25 5 27
REMARK H PARENT 14 18 16 20 18 22 9 24 1 26 5 28
REMARK Flexibility Score: inf
ROOT
ATOM      1  C   UNL     1      -1.718  10.551  26.992  1.00  0.00     0.402 A 
ATOM      2  O   UNL     1      -1.739  11.847  27.291  1.00  0.00    -0.202 OA
ATOM      3  C   UNL     1      -2.462  12.354  28.285  1.00  0.00     0.368 A 
ATOM      4  C   UNL     1      -2.422  13.731  28.522  1.00  0.00     0.162 A 
ATOM      5  C   UNL     1      -3.173  14.291  29.556  1.00  0.00     0.128 A 
ATOM      6  C   UNL     1      -3.971  13.470  30.361  1.00  0.00     0.093 A 
ATOM      7  C   UNL     1      -4.029  12.088  30.144  1.00  0.00     0.136 A 
ATOM      8  C   UNL     1      -3.264  11.514  29.095  1.00  0.00     0.125 A 
ATOM      9  C   UNL     1      -3.250  10.138  28.813  1.00  0.00     0.078 A 
ATOM     10  C   UNL     1      -2.468   9.646  27.764  1.00  0.00     0.223 A 
ENDROOT
BRANCH   1  11
ATOM     11  C   UNL     1      -0.879  10.110  25.853  1.00  0.00     0.091 A 
ATOM     12  C   UNL     1      -1.494   9.695  24.662  1.00  0.00     0.068 A 
ATOM     13  C   UNL     1      -0.723   9.255  23.577  1.00  0.00     0.162 A 
ATOM     14  C   UNL     1       0.521  10.044  25.959  1.00  0.00     0.068 A 
ATOM     15  C   UNL     1       0.677   9.213  23.684  1.00  0.00     0.200 A 
ATOM     16  C   UNL     1       1.296   9.603  24.878  1.00  0.00     0.162 A 
BRANCH  13  17
ATOM     17  O   UNL     1      -1.345   8.859  22.394  1.00  0.00    -0.504 OA
ATOM     18  H   UNL     1      -1.621   9.531  21.687  1.00  0.00     0.293 HD
ENDBRANCH  13  17
BRANCH  15  19
ATOM     19  O   UNL     1       1.465   8.780  22.617  1.00  0.00    -0.502 OA
ATOM     20  H   UNL     1       2.442   8.540  22.732  1.00  0.00     0.293 HD
ENDBRANCH  15  19
BRANCH  16  21
ATOM     21  O   UNL     1       2.685   9.546  24.984  1.00  0.00    -0.504 OA
ATOM     22  H   UNL     1       3.280   9.542  24.164  1.00  0.00     0.293 HD
ENDBRANCH  16  21
ENDBRANCH   1  11
BRANCH  10  23
ATOM     23  O   UNL     1      -2.414   8.274  27.515  1.00  0.00    -0.500 OA
ATOM     24  H   UNL     1      -3.224   7.678  27.644  1.00  0.00     0.294 HD
ENDBRANCH  10  23
BRANCH   5  25
ATOM     25  O   UNL     1      -3.118  15.666  29.776  1.00  0.00    -0.507 OA
ATOM     26  H   UNL     1      -2.284  16.202  29.566  1.00  0.00     0.293 HD
ENDBRANCH   5  25
BRANCH   7  27
ATOM     27  O   UNL     1      -4.852  11.337  30.989  1.00  0.00    -0.507 OA
ATOM     28  H   UNL     1      -4.584  10.464  31.417  1.00  0.00     0.293 HD
ENDBRANCH   7  27
TORSDOF 7
ENDMDL
MODEL 2
REMARK VINA RESULT:    -6.928      1.556      3.492
REMARK INTER + INTRA:          -8.858
REMARK INTER:                  -8.584
REMARK INTRA:                  -0.274
REMARK UNBOUND:                -0.310
REMARK SMILES Oc1cc(O)c2cc(O)c(-c3cc(O)c(O)c(O)c3)[o+]c2c1
REMARK SMILES IDX 10 1 20 2 21 3 22 4 2 5 3 6 4 7 6 8 7 9 8 10 11 11 12 12
REMARK SMILES IDX 13 13 19 14 15 15 17 16 14 17 16 19 18 21 9 23 1 25 5 27
REMARK H PARENT 14 18 16 20 18 22 9 24 1 26 5 28
REMARK Flexibility Score: inf
ROOT
ATOM      1  C   UNL     1      -2.290  11.002  25.860  1.00  0.00     0.402 A 
ATOM      2  O   UNL     1      -2.808  10.452  26.955  1.00  0.00    -0.202 OA
ATOM      3  C   UNL     1      -2.996  11.120  28.088  1.00  0.00     0.368 A 
ATOM      4  C   UNL     1      -3.545  10.455  29.188  1.00  0.00     0.162 A 
ATOM      5  C   UNL     1      -3.751  11.130  30.391  1.00  0.00     0.128 A 
ATOM      6  C   UNL     1      -3.404  12.482  30.499  1.00  0.00     0.093 A 
ATOM      7  C   UNL     1      -2.851  13.171  29.413  1.00  0.00     0.136 A 
ATOM      8  C   UNL     1      -2.644  12.488  28.186  1.00  0.00     0.125 A 
ATOM      9  C   UNL     1      -2.109  13.101  27.041  1.00  0.00     0.078 A 
ATOM     10  C   UNL     1      -1.937  12.364  25.867  1.00  0.00     0.223 A 
ENDROOT
BRANCH   1  11
ATOM     11  C   UNL     1      -2.122  10.149  24.661  1.00  0.00     0.091 A 
ATOM     12  C   UNL     1      -0.830   9.827  24.218  1.00  0.00     0.068 A 
ATOM     13  C   UNL     1      -0.644   9.038  23.075  1.00  0.00     0.162 A 
ATOM     14  C   UNL     1      -3.230   9.701  23.921  1.00  0.00     0.068 A 
ATOM     15  C   UNL     1      -1.757   8.576  22.354  1.00  0.00     0.200 A 
ATOM     16  C   UNL     1      -3.049   8.914  22.776  1.00  0.00     0.162 A 
BRANCH  13  17
ATOM     17  O   UNL     1       0.645   8.712  22.654  1.00  0.00    -0.504 OA
ATOM     18  H   UNL     1       0.948   7.748  22.567  1.00  0.00     0.293 HD
ENDBRANCH  13  17
BRANCH  15  19
ATOM     19  O   UNL     1      -1.597   7.788  21.214  1.00  0.00    -0.502 OA
ATOM     20  H   UNL     1      -1.841   8.122  20.289  1.00  0.00     0.293 HD
ENDBRANCH  15  19
BRANCH  16  21
ATOM     21  O   UNL     1      -4.151   8.466  22.049  1.00  0.00    -0.504 OA
ATOM     22  H   UNL     1      -4.895   9.095  21.769  1.00  0.00     0.293 HD
ENDBRANCH  16  21
ENDBRANCH   1  11
BRANCH  10  23
ATOM     23  O   UNL     1      -1.452  12.985  24.715  1.00  0.00    -0.500 OA
ATOM     24  H   UNL     1      -2.070  13.452  24.061  1.00  0.00     0.294 HD
ENDBRANCH  10  23
BRANCH   5  25
ATOM     25  O   UNL     1      -4.300  10.448  31.475  1.00  0.00    -0.507 OA
ATOM     26  H   UNL     1      -4.955  10.897  32.105  1.00  0.00     0.293 HD
ENDBRANCH   5  25
BRANCH   7  27
ATOM     27  O   UNL     1      -2.528  14.518  29.602  1.00  0.00    -0.507 OA
ATOM     28  H   UNL     1      -3.067  15.290  29.237  1.00  0.00     0.293 HD
ENDBRANCH   7  27
TORSDOF 7
ENDMDL
MODEL 3
REMARK VINA RESULT:    -6.837      6.523      8.657
REMARK INTER + INTRA:          -8.745
REMARK INTER:                  -8.631
REMARK INTRA:                  -0.114
REMARK UNBOUND:                -0.310
REMARK SMILES Oc1cc(O)c2cc(O)c(-c3cc(O)c(O)c(O)c3)[o+]c2c1
REMARK SMILES IDX 10 1 20 2 21 3 22 4 2 5 3 6 4 7 6 8 7 9 8 10 11 11 12 12
REMARK SMILES IDX 13 13 19 14 15 15 17 16 14 17 16 19 18 21 9 23 1 25 5 27
REMARK H PARENT 14 18 16 20 18 22 9 24 1 26 5 28
REMARK Flexibility Score: inf
ROOT
ATOM      1  C   UNL     1       2.774  15.720  24.856  1.00  0.00     0.402 A 
ATOM      2  O   UNL     1       1.561  15.353  25.260  1.00  0.00    -0.202 OA
ATOM      3  C   UNL     1       1.228  14.091  25.515  1.00  0.00     0.368 A 
ATOM      4  C   UNL     1      -0.074  13.801  25.932  1.00  0.00     0.162 A 
ATOM      5  C   UNL     1      -0.452  12.486  26.204  1.00  0.00     0.128 A 
ATOM      6  C   UNL     1       0.478  11.450  26.059  1.00  0.00     0.093 A 
ATOM      7  C   UNL     1       1.789  11.714  25.643  1.00  0.00     0.136 A 
ATOM      8  C   UNL     1       2.178  13.051  25.368  1.00  0.00     0.125 A 
ATOM      9  C   UNL     1       3.472  13.411  24.959  1.00  0.00     0.078 A 
ATOM     10  C   UNL     1       3.782  14.750  24.710  1.00  0.00     0.223 A 
ENDROOT
BRANCH   1  11
ATOM     11  C   UNL     1       3.018  17.158  24.594  1.00  0.00     0.091 A 
ATOM     12  C   UNL     1       2.623  18.110  25.546  1.00  0.00     0.068 A 
ATOM     13  C   UNL     1       2.824  19.478  25.314  1.00  0.00     0.162 A 
ATOM     14  C   UNL     1       3.586  17.595  23.385  1.00  0.00     0.068 A 
ATOM     15  C   UNL     1       3.413  19.904  24.112  1.00  0.00     0.200 A 
ATOM     16  C   UNL     1       3.788  18.960  23.147  1.00  0.00     0.162 A 
BRANCH  13  17
ATOM     17  O   UNL     1       2.441  20.413  26.273  1.00  0.00    -0.504 OA
ATOM     18  H   UNL     1       1.545  20.356  26.744  1.00  0.00     0.293 HD
ENDBRANCH  13  17
BRANCH  15  19
ATOM     19  O   UNL     1       3.626  21.260  23.858  1.00  0.00    -0.502 OA
ATOM     20  H   UNL     1       3.504  21.660  22.936  1.00  0.00     0.293 HD
ENDBRANCH  15  19
BRANCH  16  21
ATOM     21  O   UNL     1       4.359  19.389  21.950  1.00  0.00    -0.504 OA
ATOM     22  H   UNL     1       4.472  20.374  21.738  1.00  0.00     0.293 HD
ENDBRANCH  16  21
ENDBRANCH   1  11
BRANCH  10  23
ATOM     23  O   UNL     1       5.081  15.114  24.352  1.00  0.00    -0.500 OA
ATOM     24  H   UNL     1       5.766  14.425  24.062  1.00  0.00     0.294 HD
ENDBRANCH  10  23
BRANCH   5  25
ATOM     25  O   UNL     1      -1.755  12.219  26.619  1.00  0.00    -0.507 OA
ATOM     26  H   UNL     1      -2.310  11.493  26.182  1.00  0.00     0.293 HD
ENDBRANCH   5  25
BRANCH   7  27
ATOM     27  O   UNL     1       2.657  10.625  25.519  1.00  0.00    -0.507 OA
ATOM     28  H   UNL     1       2.971  10.057  26.291  1.00  0.00     0.293 HD
ENDBRANCH   7  27
TORSDOF 7
ENDMDL
MODEL 4
REMARK VINA RESULT:    -6.833      1.504      2.132
REMARK INTER + INTRA:          -8.740
REMARK INTER:                  -8.507
REMARK INTRA:                  -0.234
REMARK UNBOUND:                -0.310
REMARK SMILES Oc1cc(O)c2cc(O)c(-c3cc(O)c(O)c(O)c3)[o+]c2c1
REMARK SMILES IDX 10 1 20 2 21 3 22 4 2 5 3 6 4 7 6 8 7 9 8 10 11 11 12 12
REMARK SMILES IDX 13 13 19 14 15 15 17 16 14 17 16 19 18 21 9 23 1 25 5 27
REMARK H PARENT 14 18 16 20 18 22 9 24 1 26 5 28
REMARK Flexibility Score: inf
ROOT
ATOM      1  C   UNL     1      -2.659  10.825  26.819  1.00  0.00     0.402 A 
ATOM      2  O   UNL     1      -2.829  12.118  27.083  1.00  0.00    -0.202 OA
ATOM      3  C   UNL     1      -2.911  12.605  28.316  1.00  0.00     0.368 A 
ATOM      4  C   UNL     1      -3.093  13.980  28.494  1.00  0.00     0.162 A 
ATOM      5  C   UNL     1      -3.186  14.519  29.778  1.00  0.00     0.128 A 
ATOM      6  C   UNL     1      -3.097  13.680  30.894  1.00  0.00     0.093 A 
ATOM      7  C   UNL     1      -2.916  12.299  30.743  1.00  0.00     0.136 A 
ATOM      8  C   UNL     1      -2.818  11.747  29.439  1.00  0.00     0.125 A 
ATOM      9  C   UNL     1      -2.622  10.379  29.192  1.00  0.00     0.078 A 
ATOM     10  C   UNL     1      -2.532   9.910  27.879  1.00  0.00     0.223 A 
ENDROOT
BRANCH   1  11
ATOM     11  C   UNL     1      -2.592  10.404  25.400  1.00  0.00     0.091 A 
ATOM     12  C   UNL     1      -3.744  10.482  24.602  1.00  0.00     0.068 A 
ATOM     13  C   UNL     1      -3.712  10.071  23.262  1.00  0.00     0.162 A 
ATOM     14  C   UNL     1      -1.413   9.873  24.849  1.00  0.00     0.068 A 
ATOM     15  C   UNL     1      -2.523   9.562  22.713  1.00  0.00     0.200 A 
ATOM     16  C   UNL     1      -1.377   9.459  23.511  1.00  0.00     0.162 A 
BRANCH  13  17
ATOM     17  O   UNL     1      -4.858  10.168  22.475  1.00  0.00    -0.504 OA
ATOM     18  H   UNL     1      -5.227  11.064  22.179  1.00  0.00     0.293 HD
ENDBRANCH  13  17
BRANCH  15  19
ATOM     19  O   UNL     1      -2.466   9.149  21.382  1.00  0.00    -0.502 OA
ATOM     20  H   UNL     1      -2.998   8.357  21.040  1.00  0.00     0.293 HD
ENDBRANCH  15  19
BRANCH  16  21
ATOM     21  O   UNL     1      -0.203   8.940  22.967  1.00  0.00    -0.504 OA
ATOM     22  H   UNL     1      -0.047   7.941  22.894  1.00  0.00     0.293 HD
ENDBRANCH  16  21
ENDBRANCH   1  11
BRANCH  10  23
ATOM     23  O   UNL     1      -2.288   8.558  27.634  1.00  0.00    -0.500 OA
ATOM     24  H   UNL     1      -2.207   7.886  28.389  1.00  0.00     0.294 HD
ENDBRANCH  10  23
BRANCH   5  25
ATOM     25  O   UNL     1      -3.366  15.892  29.933  1.00  0.00    -0.507 OA
ATOM     26  H   UNL     1      -2.739  16.446  30.505  1.00  0.00     0.293 HD
ENDBRANCH   5  25
BRANCH   7  27
ATOM     27  O   UNL     1      -2.841  11.529  31.907  1.00  0.00    -0.507 OA
ATOM     28  H   UNL     1      -2.084  11.574  32.572  1.00  0.00     0.293 HD
ENDBRANCH   7  27
TORSDOF 7
ENDMDL
MODEL 5
REMARK VINA RESULT:    -6.766      1.637      3.217
REMARK INTER + INTRA:          -8.658
REMARK INTER:                  -8.288
REMARK INTRA:                  -0.370
REMARK UNBOUND:                -0.310
REMARK SMILES Oc1cc(O)c2cc(O)c(-c3cc(O)c(O)c(O)c3)[o+]c2c1
REMARK SMILES IDX 10 1 20 2 21 3 22 4 2 5 3 6 4 7 6 8 7 9 8 10 11 11 12 12
REMARK SMILES IDX 13 13 19 14 15 15 17 16 14 17 16 19 18 21 9 23 1 25 5 27
REMARK H PARENT 14 18 16 20 18 22 9 24 1 26 5 28
REMARK Flexibility Score: inf
ROOT
ATOM      1  C   UNL     1      -1.637  11.890  27.743  1.00  0.00     0.402 A 
ATOM      2  O   UNL     1      -1.776  11.351  28.951  1.00  0.00    -0.202 OA
ATOM      3  C   UNL     1      -2.488  11.911  29.923  1.00  0.00     0.368 A 
ATOM      4  C   UNL     1      -2.573  11.269  31.162  1.00  0.00     0.162 A 
ATOM      5  C   UNL     1      -3.311  11.836  32.201  1.00  0.00     0.128 A 
ATOM      6  C   UNL     1      -3.971  13.055  32.004  1.00  0.00     0.093 A 
ATOM      7  C   UNL     1      -3.900  13.718  30.772  1.00  0.00     0.136 A 
ATOM      8  C   UNL     1      -3.153  13.144  29.712  1.00  0.00     0.125 A 
ATOM      9  C   UNL     1      -3.039  13.730  28.441  1.00  0.00     0.078 A 
ATOM     10  C   UNL     1      -2.287  13.102  27.444  1.00  0.00     0.223 A 
ENDROOT
BRANCH   1  11
ATOM     11  C   UNL     1      -0.808  11.173  26.747  1.00  0.00     0.091 A 
ATOM     12  C   UNL     1       0.526  11.559  26.552  1.00  0.00     0.068 A 
ATOM     13  C   UNL     1       1.326  10.910  25.602  1.00  0.00     0.162 A 
ATOM     14  C   UNL     1      -1.347  10.148  25.950  1.00  0.00     0.068 A 
ATOM     15  C   UNL     1       0.786   9.871  24.825  1.00  0.00     0.200 A 
ATOM     16  C   UNL     1      -0.552   9.496  24.998  1.00  0.00     0.162 A 
BRANCH  13  17
ATOM     17  O   UNL     1       2.655  11.293  25.428  1.00  0.00    -0.504 OA
ATOM     18  H   UNL     1       3.252  10.846  24.742  1.00  0.00     0.293 HD
ENDBRANCH  13  17
BRANCH  15  19
ATOM     19  O   UNL     1       1.563   9.208  23.874  1.00  0.00    -0.502 OA
ATOM     20  H   UNL     1       2.115   8.390  24.105  1.00  0.00     0.293 HD
ENDBRANCH  15  19
BRANCH  16  21
ATOM     21  O   UNL     1      -1.088   8.475  24.214  1.00  0.00    -0.504 OA
ATOM     22  H   UNL     1      -0.539   8.009  23.500  1.00  0.00     0.293 HD
ENDBRANCH  16  21
ENDBRANCH   1  11
BRANCH  10  23
ATOM     23  O   UNL     1      -2.214  13.659  26.167  1.00  0.00    -0.500 OA
ATOM     24  H   UNL     1      -1.545  14.386  25.940  1.00  0.00     0.294 HD
ENDBRANCH  10  23
BRANCH   5  25
ATOM     25  O   UNL     1      -3.384  11.179  33.428  1.00  0.00    -0.507 OA
ATOM     26  H   UNL     1      -4.254  11.116  33.943  1.00  0.00     0.293 HD
ENDBRANCH   5  25
BRANCH   7  27
ATOM     27  O   UNL     1      -4.584  14.933  30.656  1.00  0.00    -0.507 OA
ATOM     28  H   UNL     1      -5.421  15.065  30.109  1.00  0.00     0.293 HD
ENDBRANCH   7  27
TORSDOF 7
ENDMDL
MODEL 6
REMARK VINA RESULT:    -6.705      1.592      3.098
REMARK INTER + INTRA:          -8.582
REMARK INTER:                  -8.283
REMARK INTRA:                  -0.299
REMARK UNBOUND:                -0.310
REMARK SMILES Oc1cc(O)c2cc(O)c(-c3cc(O)c(O)c(O)c3)[o+]c2c1
REMARK SMILES IDX 10 1 20 2 21 3 22 4 2 5 3 6 4 7 6 8 7 9 8 10 11 11 12 12
REMARK SMILES IDX 13 13 19 14 15 15 17 16 14 17 16 19 18 21 9 23 1 25 5 27
REMARK H PARENT 14 18 16 20 18 22 9 24 1 26 5 28
REMARK Flexibility Score: inf
ROOT
ATOM      1  C   UNL     1      -2.277  10.958  25.767  1.00  0.00     0.402 A 
ATOM      2  O   UNL     1      -2.887  10.403  26.810  1.00  0.00    -0.202 OA
ATOM      3  C   UNL     1      -3.093  11.040  27.958  1.00  0.00     0.368 A 
ATOM      4  C   UNL     1      -3.742  10.373  29.001  1.00  0.00     0.162 A 
ATOM      5  C   UNL     1      -3.969  11.016  30.218  1.00  0.00     0.128 A 
ATOM      6  C   UNL     1      -3.546  12.338  30.397  1.00  0.00     0.093 A 
ATOM      7  C   UNL     1      -2.894  13.029  29.367  1.00  0.00     0.136 A 
ATOM      8  C   UNL     1      -2.663  12.379  28.128  1.00  0.00     0.125 A 
ATOM      9  C   UNL     1      -2.031  12.997  27.037  1.00  0.00     0.078 A 
ATOM     10  C   UNL     1      -1.842  12.293  25.844  1.00  0.00     0.223 A 
ENDROOT
BRANCH   1  11
ATOM     11  C   UNL     1      -2.098  10.139  24.545  1.00  0.00     0.091 A 
ATOM     12  C   UNL     1      -3.226   9.734  23.814  1.00  0.00     0.068 A 
ATOM     13  C   UNL     1      -3.084   8.942  22.666  1.00  0.00     0.162 A 
ATOM     14  C   UNL     1      -0.825   9.710  24.132  1.00  0.00     0.068 A 
ATOM     15  C   UNL     1      -1.806   8.536  22.248  1.00  0.00     0.200 A 
ATOM     16  C   UNL     1      -0.679   8.917  22.987  1.00  0.00     0.162 A 
BRANCH  13  17
ATOM     17  O   UNL     1      -4.211   8.558  21.939  1.00  0.00    -0.504 OA
ATOM     18  H   UNL     1      -4.517   9.073  21.122  1.00  0.00     0.293 HD
ENDBRANCH  13  17
BRANCH  15  19
ATOM     19  O   UNL     1      -1.640   7.750  21.107  1.00  0.00    -0.502 OA
ATOM     20  H   UNL     1      -0.725   7.465  20.779  1.00  0.00     0.293 HD
ENDBRANCH  15  19
BRANCH  16  21
ATOM     21  O   UNL     1       0.587   8.500  22.576  1.00  0.00    -0.504 OA
ATOM     22  H   UNL     1       0.838   7.519  22.544  1.00  0.00     0.293 HD
ENDBRANCH  16  21
ENDBRANCH   1  11
BRANCH  10  23
ATOM     23  O   UNL     1      -1.258  12.922  24.744  1.00  0.00    -0.500 OA
ATOM     24  H   UNL     1      -0.796  12.395  24.013  1.00  0.00     0.294 HD
ENDBRANCH  10  23
BRANCH   5  25
ATOM     25  O   UNL     1      -4.618  10.333  31.244  1.00  0.00    -0.507 OA
ATOM     26  H   UNL     1      -5.323   9.632  31.050  1.00  0.00     0.293 HD
ENDBRANCH   5  25
BRANCH   7  27
ATOM     27  O   UNL     1      -2.499  14.346  29.626  1.00  0.00    -0.507 OA
ATOM     28  H   UNL     1      -2.908  15.159  29.190  1.00  0.00     0.293 HD
ENDBRANCH   7  27
TORSDOF 7
ENDMDL
MODEL 7
REMARK VINA RESULT:    -6.700      1.707      7.297
REMARK INTER + INTRA:          -8.577
REMARK INTER:                  -8.194
REMARK INTRA:                  -0.383
REMARK UNBOUND:                -0.310
REMARK SMILES Oc1cc(O)c2cc(O)c(-c3cc(O)c(O)c(O)c3)[o+]c2c1
REMARK SMILES IDX 10 1 20 2 21 3 22 4 2 5 3 6 4 7 6 8 7 9 8 10 11 11 12 12
REMARK SMILES IDX 13 13 19 14 15 15 17 16 14 17 16 19 18 21 9 23 1 25 5 27
REMARK H PARENT 14 18 16 20 18 22 9 24 1 26 5 28
REMARK Flexibility Score: inf
ROOT
ATOM      1  C   UNL     1      -2.301  11.459  27.208  1.00  0.00     0.402 A 
ATOM      2  O   UNL     1      -3.198  10.665  26.629  1.00  0.00    -0.202 OA
ATOM      3  C   UNL     1      -2.924   9.902  25.576  1.00  0.00     0.368 A 
ATOM      4  C   UNL     1      -3.934   9.102  25.034  1.00  0.00     0.162 A 
ATOM      5  C   UNL     1      -3.677   8.292  23.928  1.00  0.00     0.128 A 
ATOM      6  C   UNL     1      -2.399   8.282  23.355  1.00  0.00     0.093 A 
ATOM      7  C   UNL     1      -1.370   9.075  23.879  1.00  0.00     0.136 A 
ATOM      8  C   UNL     1      -1.628   9.896  25.006  1.00  0.00     0.125 A 
ATOM      9  C   UNL     1      -0.655  10.713  25.606  1.00  0.00     0.078 A 
ATOM     10  C   UNL     1      -0.983  11.493  26.718  1.00  0.00     0.223 A 
ENDROOT
BRANCH   1  11
ATOM     11  C   UNL     1      -2.732  12.270  28.371  1.00  0.00     0.091 A 
ATOM     12  C   UNL     1      -2.649  11.725  29.661  1.00  0.00     0.068 A 
ATOM     13  C   UNL     1      -3.069  12.463  30.776  1.00  0.00     0.162 A 
ATOM     14  C   UNL     1      -3.277  13.555  28.205  1.00  0.00     0.068 A 
ATOM     15  C   UNL     1      -3.592  13.756  30.603  1.00  0.00     0.200 A 
ATOM     16  C   UNL     1      -3.699  14.297  29.316  1.00  0.00     0.162 A 
BRANCH  13  17
ATOM     17  O   UNL     1      -2.968  11.917  32.054  1.00  0.00    -0.504 OA
ATOM     18  H   UNL     1      -3.180  10.942  32.235  1.00  0.00     0.293 HD
ENDBRANCH  13  17
BRANCH  15  19
ATOM     19  O   UNL     1      -4.014  14.512  31.698  1.00  0.00    -0.502 OA
ATOM     20  H   UNL     1      -3.580  15.394  31.942  1.00  0.00     0.293 HD
ENDBRANCH  15  19
BRANCH  16  21
ATOM     21  O   UNL     1      -4.232  15.574  29.148  1.00  0.00    -0.504 OA
ATOM     22  H   UNL     1      -4.099  16.301  29.842  1.00  0.00     0.293 HD
ENDBRANCH  16  21
ENDBRANCH   1  11
BRANCH  10  23
ATOM     23  O   UNL     1      -0.005  12.266  27.344  1.00  0.00    -0.500 OA
ATOM     24  H   UNL     1      -0.239  12.946  28.059  1.00  0.00     0.294 HD
ENDBRANCH  10  23
BRANCH   5  25
ATOM     25  O   UNL     1      -4.697   7.502  23.404  1.00  0.00    -0.507 OA
ATOM     26  H   UNL     1      -4.833   7.409  22.404  1.00  0.00     0.293 HD
ENDBRANCH   5  25
BRANCH   7  27
ATOM     27  O   UNL     1      -0.124   9.010  23.248  1.00  0.00    -0.507 OA
ATOM     28  H   UNL     1       0.330   9.792  22.801  1.00  0.00     0.293 HD
ENDBRANCH   7  27
TORSDOF 7
ENDMDL
MODEL 8
REMARK VINA RESULT:    -6.694      1.359      7.162
REMARK INTER + INTRA:          -8.569
REMARK INTER:                  -8.192
REMARK INTRA:                  -0.377
REMARK UNBOUND:                -0.310
REMARK SMILES Oc1cc(O)c2cc(O)c(-c3cc(O)c(O)c(O)c3)[o+]c2c1
REMARK SMILES IDX 10 1 20 2 21 3 22 4 2 5 3 6 4 7 6 8 7 9 8 10 11 11 12 12
REMARK SMILES IDX 13 13 19 14 15 15 17 16 14 17 16 19 18 21 9 23 1 25 5 27
REMARK H PARENT 14 18 16 20 18 22 9 24 1 26 5 28
REMARK Flexibility Score: inf
ROOT
ATOM      1  C   UNL     1      -2.764  11.519  27.238  1.00  0.00     0.402 A 
ATOM      2  O   UNL     1      -1.502  11.177  26.996  1.00  0.00    -0.202 OA
ATOM      3  C   UNL     1      -1.118  10.535  25.897  1.00  0.00     0.368 A 
ATOM      4  C   UNL     1       0.233  10.216  25.733  1.00  0.00     0.162 A 
ATOM      5  C   UNL     1       0.665   9.541  24.590  1.00  0.00     0.128 A 
ATOM      6  C   UNL     1      -0.259   9.181  23.603  1.00  0.00     0.093 A 
ATOM      7  C   UNL     1      -1.619   9.490  23.744  1.00  0.00     0.136 A 
ATOM      8  C   UNL     1      -2.061  10.179  24.902  1.00  0.00     0.125 A 
ATOM      9  C   UNL     1      -3.400  10.541  25.122  1.00  0.00     0.078 A 
ATOM     10  C   UNL     1      -3.759  11.223  26.288  1.00  0.00     0.223 A 
ENDROOT
BRANCH   1  11
ATOM     11  C   UNL     1      -3.068  12.222  28.505  1.00  0.00     0.091 A 
ATOM     12  C   UNL     1      -3.506  11.485  29.616  1.00  0.00     0.068 A 
ATOM     13  C   UNL     1      -3.819  12.130  30.821  1.00  0.00     0.162 A 
ATOM     14  C   UNL     1      -2.981  13.622  28.604  1.00  0.00     0.068 A 
ATOM     15  C   UNL     1      -3.708  13.526  30.918  1.00  0.00     0.200 A 
ATOM     16  C   UNL     1      -3.294  14.271  29.805  1.00  0.00     0.162 A 
BRANCH  13  17
ATOM     17  O   UNL     1      -4.239  11.385  31.923  1.00  0.00    -0.504 OA
ATOM     18  H   UNL     1      -5.210  11.366  32.213  1.00  0.00     0.293 HD
ENDBRANCH  13  17
BRANCH  15  19
ATOM     19  O   UNL     1      -4.012  14.190  32.107  1.00  0.00    -0.502 OA
ATOM     20  H   UNL     1      -3.401  14.896  32.501  1.00  0.00     0.293 HD
ENDBRANCH  15  19
BRANCH  16  21
ATOM     21  O   UNL     1      -3.200  15.658  29.902  1.00  0.00    -0.504 OA
ATOM     22  H   UNL     1      -2.343  16.149  29.675  1.00  0.00     0.293 HD
ENDBRANCH  16  21
ENDBRANCH   1  11
BRANCH  10  23
ATOM     23  O   UNL     1      -5.080  11.627  26.484  1.00  0.00    -0.500 OA
ATOM     24  H   UNL     1      -5.400  12.551  26.216  1.00  0.00     0.294 HD
ENDBRANCH  10  23
BRANCH   5  25
ATOM     25  O   UNL     1       2.016   9.232  24.446  1.00  0.00    -0.507 OA
ATOM     26  H   UNL     1       2.360   8.289  24.584  1.00  0.00     0.293 HD
ENDBRANCH   5  25
BRANCH   7  27
ATOM     27  O   UNL     1      -2.478   9.093  22.715  1.00  0.00    -0.507 OA
ATOM     28  H   UNL     1      -3.172   8.365  22.800  1.00  0.00     0.293 HD
ENDBRANCH   7  27
TORSDOF 7
ENDMDL
MODEL 9
REMARK VINA RESULT:    -6.640      8.459     10.164
REMARK INTER + INTRA:          -8.502
REMARK INTER:                  -8.557
REMARK INTRA:                   0.054
REMARK UNBOUND:                -0.310
REMARK SMILES Oc1cc(O)c2cc(O)c(-c3cc(O)c(O)c(O)c3)[o+]c2c1
REMARK SMILES IDX 10 1 20 2 21 3 22 4 2 5 3 6 4 7 6 8 7 9 8 10 11 11 12 12
REMARK SMILES IDX 13 13 19 14 15 15 17 16 14 17 16 19 18 21 9 23 1 25 5 27
REMARK H PARENT 14 18 16 20 18 22 9 24 1 26 5 28
REMARK Flexibility Score: inf
ROOT
ATOM      1  C   UNL     1       2.859  17.762  24.333  1.00  0.00     0.402 A 
ATOM      2  O   UNL     1       3.518  18.203  23.266  1.00  0.00    -0.202 OA
ATOM      3  C   UNL     1       3.616  19.491  22.950  1.00  0.00     0.368 A 
ATOM      4  C   UNL     1       4.329  19.859  21.805  1.00  0.00     0.162 A 
ATOM      5  C   UNL     1       4.446  21.202  21.448  1.00  0.00     0.128 A 
ATOM      6  C   UNL     1       3.846  22.188  22.239  1.00  0.00     0.093 A 
ATOM      7  C   UNL     1       3.126  21.846  23.391  1.00  0.00     0.136 A 
ATOM      8  C   UNL     1       3.007  20.481  23.759  1.00  0.00     0.125 A 
ATOM      9  C   UNL     1       2.318  20.046  24.903  1.00  0.00     0.078 A 
ATOM     10  C   UNL     1       2.247  18.683  25.203  1.00  0.00     0.223 A 
ENDROOT
BRANCH   1  11
ATOM     11  C   UNL     1       2.813  16.301  24.572  1.00  0.00     0.091 A 
ATOM     12  C   UNL     1       3.930  15.513  24.250  1.00  0.00     0.068 A 
ATOM     13  C   UNL     1       3.905  14.126  24.448  1.00  0.00     0.162 A 
ATOM     14  C   UNL     1       1.654  15.675  25.063  1.00  0.00     0.068 A 
ATOM     15  C   UNL     1       2.750  13.512  24.959  1.00  0.00     0.200 A 
ATOM     16  C   UNL     1       1.624  14.289  25.261  1.00  0.00     0.162 A 
BRANCH  13  17
ATOM     17  O   UNL     1       5.025  13.356  24.138  1.00  0.00    -0.504 OA
ATOM     18  H   UNL     1       5.785  13.234  24.797  1.00  0.00     0.293 HD
ENDBRANCH  13  17
BRANCH  15  19
ATOM     19  O   UNL     1       2.702  12.133  25.167  1.00  0.00    -0.502 OA
ATOM     20  H   UNL     1       3.483  11.620  25.559  1.00  0.00     0.293 HD
ENDBRANCH  15  19
BRANCH  16  21
ATOM     21  O   UNL     1       0.474  13.673  25.754  1.00  0.00    -0.504 OA
ATOM     22  H   UNL     1       0.462  13.220  26.661  1.00  0.00     0.293 HD
ENDBRANCH  16  21
ENDBRANCH   1  11
BRANCH  10  23
ATOM     23  O   UNL     1       1.605  18.254  26.365  1.00  0.00    -0.500 OA
ATOM     24  H   UNL     1       0.969  17.465  26.362  1.00  0.00     0.294 HD
ENDBRANCH  10  23
BRANCH   5  25
ATOM     25  O   UNL     1       5.161  21.547  20.303  1.00  0.00    -0.507 OA
ATOM     26  H   UNL     1       6.157  21.374  20.229  1.00  0.00     0.293 HD
ENDBRANCH   5  25
BRANCH   7  27
ATOM     27  O   UNL     1       2.554  22.889  24.126  1.00  0.00    -0.507 OA
ATOM     28  H   UNL     1       2.635  22.992  25.126  1.00  0.00     0.293 HD
ENDBRANCH   7  27
TORSDOF 7
ENDMDL
