MODEL 1
REMARK VINA RESULT:    -4.691      0.000      0.000
REMARK INTER + INTRA:          -6.001
REMARK INTER:                  -5.650
REMARK INTRA:                  -0.351
REMARK UNBOUND:                -0.351
REMARK SMILES Oc1cc(O)c2cc(O)c(-c3ccc(O)c(O)c3)[o+]c2c1.[Cl-]
REMARK SMILES IDX 10 1 19 2 20 3 21 4 2 5 3 6 4 7 6 8 7 9 8 10 11 11 12 12
REMARK SMILES IDX 13 13 14 14 18 15 16 16 15 17 17 19 9 21 1 23 5 25
REMARK H PARENT 15 18 17 20 9 22 1 24 5 26
REMARK Flexibility Score: inf
ROOT
ATOM      1  C   UNL     1      98.027 109.522 108.628  1.00  0.00     0.402 A 
ATOM      2  O   UNL     1      99.181 110.036 108.212  1.00  0.00    -0.202 OA
ATOM      3  C   UNL     1      99.270 111.175 107.532  1.00  0.00     0.368 A 
ATOM      4  C   UNL     1     100.529 111.633 107.136  1.00  0.00     0.162 A 
ATOM      5  C   UNL     1     100.653 112.824 106.419  1.00  0.00     0.128 A 
ATOM      6  C   UNL     1      99.510 113.563 106.094  1.00  0.00     0.093 A 
ATOM      7  C   UNL     1      98.237 113.126 106.480  1.00  0.00     0.136 A 
ATOM      8  C   UNL     1      98.108 111.916 107.212  1.00  0.00     0.125 A 
ATOM      9  C   UNL     1      96.875 111.408 107.652  1.00  0.00     0.078 A 
ATOM     10  C   UNL     1      96.827 110.211 108.372  1.00  0.00     0.223 A 
ENDROOT
BRANCH   1  11
ATOM     11  C   UNL     1      98.058 108.240 109.368  1.00  0.00     0.087 A 
ATOM     12  C   UNL     1      98.205 108.252 110.764  1.00  0.00     0.022 A 
ATOM     13  C   UNL     1      98.256 107.054 111.481  1.00  0.00     0.051 A 
ATOM     14  C   UNL     1      98.178 105.826 110.812  1.00  0.00     0.157 A 
ATOM     15  C   UNL     1      98.000 107.005 108.698  1.00  0.00     0.068 A 
ATOM     16  C   UNL     1      98.054 105.802 109.413  1.00  0.00     0.158 A 
BRANCH  14  17
ATOM     17  O   UNL     1      98.228 104.632 111.530  1.00  0.00    -0.504 OA
ATOM     18  H   UNL     1      99.107 104.242 111.851  1.00  0.00     0.293 HD
ENDBRANCH  14  17
BRANCH  16  19
ATOM     19  O   UNL     1      97.987 104.597 108.715  1.00  0.00    -0.504 OA
ATOM     20  H   UNL     1      97.144 104.037 108.689  1.00  0.00     0.293 HD
ENDBRANCH  16  19
ENDBRANCH   1  11
BRANCH  10  21
ATOM     21  O   UNL     1      95.608 109.732 108.852  1.00  0.00    -0.500 OA
ATOM     22  H   UNL     1      95.331 109.855 109.819  1.00  0.00     0.294 HD
ENDBRANCH  10  21
BRANCH   5  23
ATOM     23  O   UNL     1     101.917 113.264 106.032  1.00  0.00    -0.507 OA
ATOM     24  H   UNL     1     102.461 112.769 105.336  1.00  0.00     0.293 HD
ENDBRANCH   5  23
BRANCH   7  25
ATOM     25  O   UNL     1      97.146 113.919 106.115  1.00  0.00    -0.507 OA
ATOM     26  H   UNL     1      96.349 113.587 105.592  1.00  0.00     0.293 HD
ENDBRANCH   7  25
TORSDOF 6
ENDMDL
MODEL 2
REMARK VINA RESULT:    -4.684      9.941     12.167
REMARK INTER + INTRA:          -5.992
REMARK INTER:                  -5.660
REMARK INTRA:                  -0.332
REMARK UNBOUND:                -0.351
REMARK SMILES Oc1cc(O)c2cc(O)c(-c3ccc(O)c(O)c3)[o+]c2c1.[Cl-]
REMARK SMILES IDX 10 1 19 2 20 3 21 4 2 5 3 6 4 7 6 8 7 9 8 10 11 11 12 12
REMARK SMILES IDX 13 13 14 14 18 15 16 16 15 17 17 19 9 21 1 23 5 25
REMARK H PARENT 15 18 17 20 9 22 1 24 5 26
REMARK Flexibility Score: inf
ROOT
ATOM      1  C   UNL     1     101.029 101.036 102.943  1.00  0.00     0.402 A 
ATOM      2  O   UNL     1     101.676  99.959 102.507  1.00  0.00    -0.202 OA
ATOM      3  C   UNL     1     102.989  99.793 102.634  1.00  0.00     0.368 A 
ATOM      4  C   UNL     1     103.578  98.626 102.141  1.00  0.00     0.162 A 
ATOM      5  C   UNL     1     104.954  98.427 102.257  1.00  0.00     0.128 A 
ATOM      6  C   UNL     1     105.749  99.401 102.872  1.00  0.00     0.093 A 
ATOM      7  C   UNL     1     105.183 100.579 103.375  1.00  0.00     0.136 A 
ATOM      8  C   UNL     1     103.783 100.784 103.260  1.00  0.00     0.125 A 
ATOM      9  C   UNL     1     103.128 101.927 103.746  1.00  0.00     0.078 A 
ATOM     10  C   UNL     1     101.744 102.056 103.600  1.00  0.00     0.223 A 
ENDROOT
BRANCH   1  11
ATOM     11  C   UNL     1      99.566 101.108 102.733  1.00  0.00     0.087 A 
ATOM     12  C   UNL     1      99.059 101.860 101.662  1.00  0.00     0.022 A 
ATOM     13  C   UNL     1      97.680 101.959 101.456  1.00  0.00     0.051 A 
ATOM     14  C   UNL     1      96.788 101.320 102.327  1.00  0.00     0.157 A 
ATOM     15  C   UNL     1      98.666 100.485 103.617  1.00  0.00     0.068 A 
ATOM     16  C   UNL     1      97.285 100.583 103.415  1.00  0.00     0.158 A 
BRANCH  14  17
ATOM     17  O   UNL     1      95.413 101.418 102.119  1.00  0.00    -0.504 OA
ATOM     18  H   UNL     1      94.981 102.289 101.832  1.00  0.00     0.293 HD
ENDBRANCH  14  17
BRANCH  16  19
ATOM     19  O   UNL     1      96.424  99.947 104.308  1.00  0.00    -0.504 OA
ATOM     20  H   UNL     1      95.431 100.149 104.335  1.00  0.00     0.293 HD
ENDBRANCH  16  19
ENDBRANCH   1  11
BRANCH  10  21
ATOM     21  O   UNL     1     101.086 103.167 104.127  1.00  0.00    -0.500 OA
ATOM     22  H   UNL     1     101.489 104.095 104.083  1.00  0.00     0.294 HD
ENDBRANCH  10  21
BRANCH   5  23
ATOM     23  O   UNL     1     105.523  97.257 101.759  1.00  0.00    -0.507 OA
ATOM     24  H   UNL     1     105.293  96.349 102.146  1.00  0.00     0.293 HD
ENDBRANCH   5  23
BRANCH   7  25
ATOM     25  O   UNL     1     106.045 101.503 103.972  1.00  0.00    -0.507 OA
ATOM     26  H   UNL     1     106.888 101.856 103.543  1.00  0.00     0.293 HD
ENDBRANCH   7  25
TORSDOF 6
ENDMDL
MODEL 3
REMARK VINA RESULT:    -4.669      1.098      2.597
REMARK INTER + INTRA:          -5.975
REMARK INTER:                  -5.648
REMARK INTRA:                  -0.327
REMARK UNBOUND:                -0.351
REMARK SMILES Oc1cc(O)c2cc(O)c(-c3ccc(O)c(O)c3)[o+]c2c1.[Cl-]
REMARK SMILES IDX 10 1 19 2 20 3 21 4 2 5 3 6 4 7 6 8 7 9 8 10 11 11 12 12
REMARK SMILES IDX 13 13 14 14 18 15 16 16 15 17 17 19 9 21 1 23 5 25
REMARK H PARENT 15 18 17 20 9 22 1 24 5 26
REMARK Flexibility Score: inf
ROOT
ATOM      1  C   UNL     1      98.956 109.299 108.780  1.00  0.00     0.402 A 
ATOM      2  O   UNL     1      98.184 110.244 108.251  1.00  0.00    -0.202 OA
ATOM      3  C   UNL     1      98.664 111.303 107.605  1.00  0.00     0.368 A 
ATOM      4  C   UNL     1      97.772 112.244 107.086  1.00  0.00     0.162 A 
ATOM      5  C   UNL     1      98.247 113.366 106.407  1.00  0.00     0.128 A 
ATOM      6  C   UNL     1      99.625 113.551 106.245  1.00  0.00     0.093 A 
ATOM      7  C   UNL     1     100.540 112.622 106.755  1.00  0.00     0.136 A 
ATOM      8  C   UNL     1     100.059 111.478 107.445  1.00  0.00     0.125 A 
ATOM      9  C   UNL     1     100.901 110.488 107.979  1.00  0.00     0.078 A 
ATOM     10  C   UNL     1     100.354 109.386 108.642  1.00  0.00     0.223 A 
ENDROOT
BRANCH   1  11
ATOM     11  C   UNL     1      98.302 108.174 109.485  1.00  0.00     0.087 A 
ATOM     12  C   UNL     1      97.943 108.318 110.834  1.00  0.00     0.022 A 
ATOM     13  C   UNL     1      97.343 107.262 111.524  1.00  0.00     0.051 A 
ATOM     14  C   UNL     1      97.107 106.040 110.881  1.00  0.00     0.157 A 
ATOM     15  C   UNL     1      98.082 106.938 108.848  1.00  0.00     0.068 A 
ATOM     16  C   UNL     1      97.483 105.877 109.537  1.00  0.00     0.158 A 
BRANCH  14  17
ATOM     17  O   UNL     1      96.507 104.989 111.571  1.00  0.00    -0.504 OA
ATOM     18  H   UNL     1      96.974 104.525 112.343  1.00  0.00     0.293 HD
ENDBRANCH  14  17
BRANCH  16  19
ATOM     19  O   UNL     1      97.275 104.670 108.872  1.00  0.00    -0.504 OA
ATOM     20  H   UNL     1      96.377 104.201 108.878  1.00  0.00     0.293 HD
ENDBRANCH  16  19
ENDBRANCH   1  11
BRANCH  10  21
ATOM     21  O   UNL     1     101.187 108.379 109.128  1.00  0.00    -0.500 OA
ATOM     22  H   UNL     1     101.864 108.555 109.860  1.00  0.00     0.294 HD
ENDBRANCH  10  21
BRANCH   5  23
ATOM     23  O   UNL     1      97.342 114.294 105.896  1.00  0.00    -0.507 OA
ATOM     24  H   UNL     1      96.488 114.529 106.388  1.00  0.00     0.293 HD
ENDBRANCH   5  23
BRANCH   7  25
ATOM     25  O   UNL     1     101.898 112.879 106.554  1.00  0.00    -0.507 OA
ATOM     26  H   UNL     1     102.642 112.245 106.807  1.00  0.00     0.293 HD
ENDBRANCH   7  25
TORSDOF 6
ENDMDL
MODEL 4
REMARK VINA RESULT:    -4.632      8.962     10.457
REMARK INTER + INTRA:          -5.930
REMARK INTER:                  -5.584
REMARK INTRA:                  -0.346
REMARK UNBOUND:                -0.351
REMARK SMILES Oc1cc(O)c2cc(O)c(-c3ccc(O)c(O)c3)[o+]c2c1.[Cl-]
REMARK SMILES IDX 10 1 19 2 20 3 21 4 2 5 3 6 4 7 6 8 7 9 8 10 11 11 12 12
REMARK SMILES IDX 13 13 14 14 18 15 16 16 15 17 17 19 9 21 1 23 5 25
REMARK H PARENT 15 18 17 20 9 22 1 24 5 26
REMARK Flexibility Score: inf
ROOT
ATOM      1  C   UNL     1     100.191 101.532 102.618  1.00  0.00     0.402 A 
ATOM      2  O   UNL     1      99.491 102.146 101.669  1.00  0.00    -0.202 OA
ATOM      3  C   UNL     1      99.746 103.384 101.257  1.00  0.00     0.368 A 
ATOM      4  C   UNL     1      98.952 103.944 100.253  1.00  0.00     0.162 A 
ATOM      5  C   UNL     1      99.195 105.242  99.804  1.00  0.00     0.128 A 
ATOM      6  C   UNL     1     100.240 105.988 100.360  1.00  0.00     0.093 A 
ATOM      7  C   UNL     1     101.051 105.449 101.366  1.00  0.00     0.136 A 
ATOM      8  C   UNL     1     100.808 104.128 101.825  1.00  0.00     0.125 A 
ATOM      9  C   UNL     1     101.577 103.502 102.819  1.00  0.00     0.078 A 
ATOM     10  C   UNL     1     101.280 102.195 103.216  1.00  0.00     0.223 A 
ENDROOT
BRANCH   1  11
ATOM     11  C   UNL     1      99.802 100.156 102.997  1.00  0.00     0.087 A 
ATOM     12  C   UNL     1      98.867  99.961 104.026  1.00  0.00     0.022 A 
ATOM     13  C   UNL     1      98.500  98.669 104.414  1.00  0.00     0.051 A 
ATOM     14  C   UNL     1      99.073  97.554 103.790  1.00  0.00     0.157 A 
ATOM     15  C   UNL     1     100.390  99.032 102.387  1.00  0.00     0.068 A 
ATOM     16  C   UNL     1     100.026  97.738 102.775  1.00  0.00     0.158 A 
BRANCH  14  17
ATOM     17  O   UNL     1      98.703  96.267 104.178  1.00  0.00    -0.504 OA
ATOM     18  H   UNL     1      97.876  95.817 103.802  1.00  0.00     0.293 HD
ENDBRANCH  14  17
BRANCH  16  19
ATOM     19  O   UNL     1     100.625  96.649 102.143  1.00  0.00    -0.504 OA
ATOM     20  H   UNL     1     100.083  95.880 101.767  1.00  0.00     0.293 HD
ENDBRANCH  16  19
ENDBRANCH   1  11
BRANCH  10  21
ATOM     21  O   UNL     1     102.074 101.555 104.167  1.00  0.00    -0.500 OA
ATOM     22  H   UNL     1     102.168 100.547 104.192  1.00  0.00     0.294 HD
ENDBRANCH  10  21
BRANCH   5  23
ATOM     23  O   UNL     1      98.392 105.784  98.802  1.00  0.00    -0.507 OA
ATOM     24  H   UNL     1      97.679 106.474  99.009  1.00  0.00     0.293 HD
ENDBRANCH   5  23
BRANCH   7  25
ATOM     25  O   UNL     1     102.072 106.258 101.872  1.00  0.00    -0.507 OA
ATOM     26  H   UNL     1     102.972 105.916 102.178  1.00  0.00     0.293 HD
ENDBRANCH   7  25
TORSDOF 6
ENDMDL
MODEL 5
REMARK VINA RESULT:    -4.599      1.555      7.125
REMARK INTER + INTRA:          -5.890
REMARK INTER:                  -5.643
REMARK INTRA:                  -0.247
REMARK UNBOUND:                -0.351
REMARK SMILES Oc1cc(O)c2cc(O)c(-c3ccc(O)c(O)c3)[o+]c2c1.[Cl-]
REMARK SMILES IDX 10 1 19 2 20 3 21 4 2 5 3 6 4 7 6 8 7 9 8 10 11 11 12 12
REMARK SMILES IDX 13 13 14 14 18 15 16 16 15 17 17 19 9 21 1 23 5 25
REMARK H PARENT 15 18 17 20 9 22 1 24 5 26
REMARK Flexibility Score: inf
ROOT
ATOM      1  C   UNL     1      98.774 109.927 108.533  1.00  0.00     0.402 A 
ATOM      2  O   UNL     1      97.986 108.866 108.382  1.00  0.00    -0.202 OA
ATOM      3  C   UNL     1      98.252 107.677 108.913  1.00  0.00     0.368 A 
ATOM      4  C   UNL     1      97.362 106.622 108.696  1.00  0.00     0.162 A 
ATOM      5  C   UNL     1      97.617 105.362 109.240  1.00  0.00     0.128 A 
ATOM      6  C   UNL     1      98.770 105.153 110.006  1.00  0.00     0.093 A 
ATOM      7  C   UNL     1      99.676 106.195 110.238  1.00  0.00     0.136 A 
ATOM      8  C   UNL     1      99.419 107.478 109.689  1.00  0.00     0.125 A 
ATOM      9  C   UNL     1     100.264 108.584 109.881  1.00  0.00     0.078 A 
ATOM     10  C   UNL     1      99.942 109.819 109.311  1.00  0.00     0.223 A 
ENDROOT
BRANCH   1  11
ATOM     11  C   UNL     1      98.375 111.195 107.882  1.00  0.00     0.087 A 
ATOM     12  C   UNL     1      97.191 111.833 108.282  1.00  0.00     0.022 A 
ATOM     13  C   UNL     1      96.783 113.020 107.668  1.00  0.00     0.051 A 
ATOM     14  C   UNL     1      97.546 113.579 106.634  1.00  0.00     0.157 A 
ATOM     15  C   UNL     1      99.127 111.748 106.829  1.00  0.00     0.068 A 
ATOM     16  C   UNL     1      98.721 112.936 106.211  1.00  0.00     0.158 A 
BRANCH  14  17
ATOM     17  O   UNL     1      97.138 114.764 106.025  1.00  0.00    -0.504 OA
ATOM     18  H   UNL     1      97.809 115.433 105.664  1.00  0.00     0.293 HD
ENDBRANCH  14  17
BRANCH  16  19
ATOM     19  O   UNL     1      99.495 113.458 105.175  1.00  0.00    -0.504 OA
ATOM     20  H   UNL     1     100.208 114.158 105.338  1.00  0.00     0.293 HD
ENDBRANCH  16  19
ENDBRANCH   1  11
BRANCH  10  21
ATOM     21  O   UNL     1     100.755 110.929 109.543  1.00  0.00    -0.500 OA
ATOM     22  H   UNL     1     101.608 111.082 109.019  1.00  0.00     0.294 HD
ENDBRANCH  10  21
BRANCH   5  23
ATOM     23  O   UNL     1      96.719 104.321 109.012  1.00  0.00    -0.507 OA
ATOM     24  H   UNL     1      96.377 104.109 108.082  1.00  0.00     0.293 HD
ENDBRANCH   5  23
BRANCH   7  25
ATOM     25  O   UNL     1     100.804 105.906 111.011  1.00  0.00    -0.507 OA
ATOM     26  H   UNL     1     101.756 106.042 110.703  1.00  0.00     0.293 HD
ENDBRANCH   7  25
TORSDOF 6
ENDMDL
MODEL 6
REMARK VINA RESULT:    -4.596      9.761     12.650
REMARK INTER + INTRA:          -5.887
REMARK INTER:                  -5.569
REMARK INTRA:                  -0.318
REMARK UNBOUND:                -0.351
REMARK SMILES Oc1cc(O)c2cc(O)c(-c3ccc(O)c(O)c3)[o+]c2c1.[Cl-]
REMARK SMILES IDX 10 1 19 2 20 3 21 4 2 5 3 6 4 7 6 8 7 9 8 10 11 11 12 12
REMARK SMILES IDX 13 13 14 14 18 15 16 16 15 17 17 19 9 21 1 23 5 25
REMARK H PARENT 15 18 17 20 9 22 1 24 5 26
REMARK Flexibility Score: inf
ROOT
ATOM      1  C   UNL     1     101.698 101.133 103.039  1.00  0.00     0.402 A 
ATOM      2  O   UNL     1     101.387  99.941 102.536  1.00  0.00    -0.202 OA
ATOM      3  C   UNL     1     100.205  99.359 102.716  1.00  0.00     0.368 A 
ATOM      4  C   UNL     1      99.973  98.104 102.149  1.00  0.00     0.162 A 
ATOM      5  C   UNL     1      98.743  97.467 102.323  1.00  0.00     0.128 A 
ATOM      6  C   UNL     1      97.736  98.090 103.070  1.00  0.00     0.093 A 
ATOM      7  C   UNL     1      97.944  99.349 103.648  1.00  0.00     0.136 A 
ATOM      8  C   UNL     1      99.193  99.999 103.470  1.00  0.00     0.125 A 
ATOM      9  C   UNL     1      99.486 101.267 104.001  1.00  0.00     0.078 A 
ATOM     10  C   UNL     1     100.738 101.846 103.780  1.00  0.00     0.223 A 
ENDROOT
BRANCH   1  11
ATOM     11  C   UNL     1     103.052 101.671 102.778  1.00  0.00     0.087 A 
ATOM     12  C   UNL     1     103.237 102.604 101.746  1.00  0.00     0.022 A 
ATOM     13  C   UNL     1     104.510 103.110 101.469  1.00  0.00     0.051 A 
ATOM     14  C   UNL     1     105.619 102.679 102.208  1.00  0.00     0.157 A 
ATOM     15  C   UNL     1     104.172 101.225 103.505  1.00  0.00     0.068 A 
ATOM     16  C   UNL     1     105.448 101.729 103.228  1.00  0.00     0.158 A 
BRANCH  14  17
ATOM     17  O   UNL     1     106.887 103.187 101.930  1.00  0.00    -0.504 OA
ATOM     18  H   UNL     1     107.183 103.384 100.981  1.00  0.00     0.293 HD
ENDBRANCH  14  17
BRANCH  16  19
ATOM     19  O   UNL     1     106.533 101.268 103.973  1.00  0.00    -0.504 OA
ATOM     20  H   UNL     1     106.990 101.845 104.670  1.00  0.00     0.293 HD
ENDBRANCH  16  19
ENDBRANCH   1  11
BRANCH  10  21
ATOM     21  O   UNL     1     101.011 103.126 104.265  1.00  0.00    -0.500 OA
ATOM     22  H   UNL     1     100.686 103.431 105.174  1.00  0.00     0.294 HD
ENDBRANCH  10  21
BRANCH   5  23
ATOM     23  O   UNL     1      98.531  96.215 101.750  1.00  0.00    -0.507 OA
ATOM     24  H   UNL     1      99.262  95.734 101.241  1.00  0.00     0.293 HD
ENDBRANCH   5  23
BRANCH   7  25
ATOM     25  O   UNL     1      96.891  99.902 104.380  1.00  0.00    -0.507 OA
ATOM     26  H   UNL     1      96.024  99.425 104.582  1.00  0.00     0.293 HD
ENDBRANCH   7  25
TORSDOF 6
ENDMDL
MODEL 7
REMARK VINA RESULT:    -4.458     12.510     14.068
REMARK INTER + INTRA:          -5.720
REMARK INTER:                  -5.464
REMARK INTRA:                  -0.257
REMARK UNBOUND:                -0.351
REMARK SMILES Oc1cc(O)c2cc(O)c(-c3ccc(O)c(O)c3)[o+]c2c1.[Cl-]
REMARK SMILES IDX 10 1 19 2 20 3 21 4 2 5 3 6 4 7 6 8 7 9 8 10 11 11 12 12
REMARK SMILES IDX 13 13 14 14 18 15 16 16 15 17 17 19 9 21 1 23 5 25
REMARK H PARENT 15 18 17 20 9 22 1 24 5 26
REMARK Flexibility Score: inf
ROOT
ATOM      1  C   UNL     1     108.551 101.755 103.040  1.00  0.00     0.402 A 
ATOM      2  O   UNL     1     108.318 102.996 102.623  1.00  0.00    -0.202 OA
ATOM      3  C   UNL     1     109.206 103.980 102.726  1.00  0.00     0.368 A 
ATOM      4  C   UNL     1     108.867 105.253 102.261  1.00  0.00     0.162 A 
ATOM      5  C   UNL     1     109.777 106.306 102.359  1.00  0.00     0.128 A 
ATOM      6  C   UNL     1     111.038 106.086 102.927  1.00  0.00     0.093 A 
ATOM      7  C   UNL     1     111.402 104.820 103.401  1.00  0.00     0.136 A 
ATOM      8  C   UNL     1     110.478 103.746 103.300  1.00  0.00     0.125 A 
ATOM      9  C   UNL     1     110.762 102.441 103.736  1.00  0.00     0.078 A 
ATOM     10  C   UNL     1     109.802 101.434 103.599  1.00  0.00     0.223 A 
ENDROOT
BRANCH   1  11
ATOM     11  C   UNL     1     107.478 100.749 102.879  1.00  0.00     0.087 A 
ATOM     12  C   UNL     1     107.597  99.764 101.886  1.00  0.00     0.022 A 
ATOM     13  C   UNL     1     106.587  98.816 101.703  1.00  0.00     0.051 A 
ATOM     14  C   UNL     1     105.435  98.848 102.499  1.00  0.00     0.157 A 
ATOM     15  C   UNL     1     106.310 100.790 103.663  1.00  0.00     0.068 A 
ATOM     16  C   UNL     1     105.295  99.843 103.481  1.00  0.00     0.158 A 
BRANCH  14  17
ATOM     17  O   UNL     1     104.430  97.901 102.315  1.00  0.00    -0.504 OA
ATOM     18  H   UNL     1     103.738  97.714 103.033  1.00  0.00     0.293 HD
ENDBRANCH  14  17
BRANCH  16  19
ATOM     19  O   UNL     1     104.155  99.911 104.281  1.00  0.00    -0.504 OA
ATOM     20  H   UNL     1     103.386 100.535 104.068  1.00  0.00     0.293 HD
ENDBRANCH  16  19
ENDBRANCH   1  11
BRANCH  10  21
ATOM     21  O   UNL     1     110.101 100.127 103.986  1.00  0.00    -0.500 OA
ATOM     22  H   UNL     1     109.397  99.399 103.991  1.00  0.00     0.294 HD
ENDBRANCH  10  21
BRANCH   5  23
ATOM     23  O   UNL     1     109.421 107.568 101.890  1.00  0.00    -0.507 OA
ATOM     24  H   UNL     1     109.528 107.821 100.914  1.00  0.00     0.293 HD
ENDBRANCH   5  23
BRANCH   7  25
ATOM     25  O   UNL     1     112.677 104.682 103.956  1.00  0.00    -0.507 OA
ATOM     26  H   UNL     1     113.531 104.641 103.420  1.00  0.00     0.293 HD
ENDBRANCH   7  25
TORSDOF 6
ENDMDL
MODEL 8
REMARK VINA RESULT:    -4.392      3.998      7.498
REMARK INTER + INTRA:          -5.641
REMARK INTER:                  -5.293
REMARK INTRA:                  -0.348
REMARK UNBOUND:                -0.351
REMARK SMILES Oc1cc(O)c2cc(O)c(-c3ccc(O)c(O)c3)[o+]c2c1.[Cl-]
REMARK SMILES IDX 10 1 19 2 20 3 21 4 2 5 3 6 4 7 6 8 7 9 8 10 11 11 12 12
REMARK SMILES IDX 13 13 14 14 18 15 16 16 15 17 17 19 9 21 1 23 5 25
REMARK H PARENT 15 18 17 20 9 22 1 24 5 26
REMARK Flexibility Score: inf
ROOT
ATOM      1  C   UNL     1     102.121 111.436 108.290  1.00  0.00     0.402 A 
ATOM      2  O   UNL     1     102.187 110.112 108.392  1.00  0.00    -0.202 OA
ATOM      3  C   UNL     1     103.234 109.469 108.900  1.00  0.00     0.368 A 
ATOM      4  C   UNL     1     103.211 108.074 108.962  1.00  0.00     0.162 A 
ATOM      5  C   UNL     1     104.297 107.373 109.487  1.00  0.00     0.128 A 
ATOM      6  C   UNL     1     105.417 108.071 109.955  1.00  0.00     0.093 A 
ATOM      7  C   UNL     1     105.464 109.469 109.904  1.00  0.00     0.136 A 
ATOM      8  C   UNL     1     104.360 110.186 109.372  1.00  0.00     0.125 A 
ATOM      9  C   UNL     1     104.314 111.587 109.294  1.00  0.00     0.078 A 
ATOM     10  C   UNL     1     103.189 112.223 108.761  1.00  0.00     0.223 A 
ENDROOT
BRANCH   1  11
ATOM     11  C   UNL     1     100.904 112.034 107.696  1.00  0.00     0.087 A 
ATOM     12  C   UNL     1      99.751 112.177 108.483  1.00  0.00     0.022 A 
ATOM     13  C   UNL     1      98.584 112.720 107.938  1.00  0.00     0.051 A 
ATOM     14  C   UNL     1      98.549 113.112 106.593  1.00  0.00     0.157 A 
ATOM     15  C   UNL     1     100.858 112.410 106.341  1.00  0.00     0.068 A 
ATOM     16  C   UNL     1      99.690 112.952 105.791  1.00  0.00     0.158 A 
BRANCH  14  17
ATOM     17  O   UNL     1      97.385 113.655 106.052  1.00  0.00    -0.504 OA
ATOM     18  H   UNL     1      96.768 114.242 106.602  1.00  0.00     0.293 HD
ENDBRANCH  14  17
BRANCH  16  19
ATOM     19  O   UNL     1      99.684 113.319 104.446  1.00  0.00    -0.504 OA
ATOM     20  H   UNL     1     100.460 113.811 104.020  1.00  0.00     0.293 HD
ENDBRANCH  16  19
ENDBRANCH   1  11
BRANCH  10  21
ATOM     21  O   UNL     1     103.123 113.616 108.730  1.00  0.00    -0.500 OA
ATOM     22  H   UNL     1     102.272 114.103 108.472  1.00  0.00     0.294 HD
ENDBRANCH  10  21
BRANCH   5  23
ATOM     23  O   UNL     1     104.255 105.981 109.540  1.00  0.00    -0.507 OA
ATOM     24  H   UNL     1     103.637 105.493 110.178  1.00  0.00     0.293 HD
ENDBRANCH   5  23
BRANCH   7  25
ATOM     25  O   UNL     1     106.618 110.092 110.388  1.00  0.00    -0.507 OA
ATOM     26  H   UNL     1     107.543 109.689 110.347  1.00  0.00     0.293 HD
ENDBRANCH   7  25
TORSDOF 6
ENDMDL
MODEL 9
REMARK VINA RESULT:    -4.350     13.012     14.690
REMARK INTER + INTRA:          -5.590
REMARK INTER:                  -5.314
REMARK INTRA:                  -0.276
REMARK UNBOUND:                -0.351
REMARK SMILES Oc1cc(O)c2cc(O)c(-c3ccc(O)c(O)c3)[o+]c2c1.[Cl-]
REMARK SMILES IDX 10 1 19 2 20 3 21 4 2 5 3 6 4 7 6 8 7 9 8 10 11 11 12 12
REMARK SMILES IDX 13 13 14 14 18 15 16 16 15 17 17 19 9 21 1 23 5 25
REMARK H PARENT 15 18 17 20 9 22 1 24 5 26
REMARK Flexibility Score: inf
ROOT
ATOM      1  C   UNL     1     108.098 101.619 102.634  1.00  0.00     0.402 A 
ATOM      2  O   UNL     1     108.886 102.608 103.046  1.00  0.00    -0.202 OA
ATOM      3  C   UNL     1     110.205 102.490 103.165  1.00  0.00     0.368 A 
ATOM      4  C   UNL     1     110.948 103.587 103.609  1.00  0.00     0.162 A 
ATOM      5  C   UNL     1     112.333 103.491 103.746  1.00  0.00     0.128 A 
ATOM      6  C   UNL     1     112.982 102.290 103.438  1.00  0.00     0.093 A 
ATOM      7  C   UNL     1     112.260 101.177 102.991  1.00  0.00     0.136 A 
ATOM      8  C   UNL     1     110.851 101.272 102.848  1.00  0.00     0.125 A 
ATOM      9  C   UNL     1     110.048 100.212 102.395  1.00  0.00     0.078 A 
ATOM     10  C   UNL     1     108.666 100.382 102.275  1.00  0.00     0.223 A 
ENDROOT
BRANCH   1  11
ATOM     11  C   UNL     1     106.641 101.871 102.553  1.00  0.00     0.087 A 
ATOM     12  C   UNL     1     106.150 102.778 101.602  1.00  0.00     0.022 A 
ATOM     13  C   UNL     1     104.781 103.047 101.521  1.00  0.00     0.051 A 
ATOM     14  C   UNL     1     103.885 102.424 102.400  1.00  0.00     0.157 A 
ATOM     15  C   UNL     1     105.741 101.263 103.448  1.00  0.00     0.068 A 
ATOM     16  C   UNL     1     104.369 101.532 103.370  1.00  0.00     0.158 A 
BRANCH  14  17
ATOM     17  O   UNL     1     102.520 102.693 102.316  1.00  0.00    -0.504 OA
ATOM     18  H   UNL     1     101.878 102.045 101.873  1.00  0.00     0.293 HD
ENDBRANCH  14  17
BRANCH  16  19
ATOM     19  O   UNL     1     103.506 100.906 104.269  1.00  0.00    -0.504 OA
ATOM     20  H   UNL     1     103.076 100.011 104.067  1.00  0.00     0.293 HD
ENDBRANCH  16  19
ENDBRANCH   1  11
BRANCH  10  21
ATOM     21  O   UNL     1     107.874  99.347 101.777  1.00  0.00    -0.500 OA
ATOM     22  H   UNL     1     107.569  98.580 102.365  1.00  0.00     0.294 HD
ENDBRANCH  10  21
BRANCH   5  23
ATOM     23  O   UNL     1     113.057 104.596 104.190  1.00  0.00    -0.507 OA
ATOM     24  H   UNL     1     113.819 104.984 103.646  1.00  0.00     0.293 HD
ENDBRANCH   5  23
BRANCH   7  25
ATOM     25  O   UNL     1     112.981 100.014 102.707  1.00  0.00    -0.507 OA
ATOM     26  H   UNL     1     112.561  99.126 102.472  1.00  0.00     0.293 HD
ENDBRANCH   7  25
TORSDOF 6
ENDMDL
