MODEL 1
REMARK VINA RESULT:    24.265      0.000      0.000
REMARK INTER + INTRA:          34.895
REMARK INTER:                  34.195
REMARK INTRA:                   0.700
REMARK UNBOUND:                 0.700
REMARK SMILES CC1=CCC(=C(C)C)C(=O)CC(C)=CCC1
REMARK SMILES IDX 12 1 14 2 13 3 15 4 16 5 2 6 1 7 3 8 11 10 9 11 10 12 5 13
REMARK SMILES IDX 6 14 7 15 8 16 4 17
REMARK H PARENT
REMARK Flexibility Score: 60.00
ROOT
ATOM      1  C   UNL     1      86.091  14.463 108.014  1.00  0.00    -0.070 C 
ATOM      2  C   UNL     1      85.650  15.533 107.313  1.00  0.00    -0.027 C 
ATOM      3  C   UNL     1      87.237  13.666 107.447  1.00  0.00     0.039 C 
ENDROOT
BRANCH   2   4
ATOM      4  C   UNL     1      84.621  16.521 107.798  1.00  0.00     0.032 C 
BRANCH   4   5
ATOM      5  C   UNL     1      83.409  16.515 106.860  1.00  0.00     0.034 C 
BRANCH   5   6
ATOM      6  C   UNL     1      83.078  15.128 106.349  1.00  0.00    -0.077 C 
ATOM      7  C   UNL     1      83.485  14.757 104.945  1.00  0.00     0.039 C 
ATOM      8  C   UNL     1      82.367  14.216 107.060  1.00  0.00    -0.023 CG0
ATOM      9  G   UNL     1      81.899  14.331 108.500  1.00  0.00     0.000 G0
ENDBRANCH   5   6
ENDBRANCH   4   5
ENDBRANCH   2   4
BRANCH   1  10
ATOM     10  C   UNL     1      85.478  14.019 109.327  1.00  0.00     0.111 C 
BRANCH  10  11
ATOM     11  C   UNL     1      84.180  13.275 109.118  1.00  0.00     0.163 C 
ATOM     12  O   UNL     1      84.243  12.170 108.514  1.00  0.00    -0.294 OA
BRANCH  11  13
ATOM     13  C   UNL     1      82.843  13.789 109.566  1.00  0.00    -0.002 C 
ATOM     14  C   UNL     1      82.445  13.651 110.868  1.00  0.00    -0.069 C 
ATOM     15  C   UNL     1      83.419  13.249 111.953  1.00  0.00     0.039 C 
ATOM     16  C   UNL     1      81.028  13.941 111.309  1.00  0.00     0.039 C 
BRANCH  13  17
ATOM     17  C   UNL     1      81.880  14.295 108.497  1.00  0.00     0.066 CG0
ATOM     18  G   UNL     1      82.371  14.235 107.062  1.00  0.00     0.000 G0
ENDBRANCH  13  17
ENDBRANCH  11  13
ENDBRANCH  10  11
ENDBRANCH   1  10
TORSDOF 0
ENDMDL
MODEL 2
REMARK VINA RESULT:    24.399      1.713      3.188
REMARK INTER + INTRA:          35.083
REMARK INTER:                  34.680
REMARK INTRA:                   0.404
REMARK UNBOUND:                 0.700
REMARK SMILES CC1=CCC(=C(C)C)C(=O)CC(C)=CCC1
REMARK SMILES IDX 12 1 14 2 13 3 15 4 16 5 2 6 1 7 3 8 11 10 9 11 10 12 5 13
REMARK SMILES IDX 6 14 7 15 8 16 4 17
REMARK H PARENT
REMARK Flexibility Score: 60.00
ROOT
ATOM      1  C   UNL     1      82.513  14.579 106.888  1.00  0.00    -0.070 C 
ATOM      2  C   UNL     1      83.245  15.648 106.495  1.00  0.00    -0.027 C 
ATOM      3  C   UNL     1      81.079  14.809 107.289  1.00  0.00     0.039 C 
ENDROOT
BRANCH   2   4
ATOM      4  C   UNL     1      84.638  15.580 105.925  1.00  0.00     0.032 C 
BRANCH   4   5
ATOM      5  C   UNL     1      85.663  15.912 107.015  1.00  0.00     0.034 C 
BRANCH   5   6
ATOM      6  C   UNL     1      85.052  16.669 108.176  1.00  0.00    -0.077 C 
ATOM      7  C   UNL     1      84.731  18.133 107.996  1.00  0.00     0.039 C 
ATOM      8  C   UNL     1      84.839  16.124 109.400  1.00  0.00    -0.023 CG0
ATOM      9  G   UNL     1      85.025  14.673 109.809  1.00  0.00     0.000 G0
ENDBRANCH   5   6
ENDBRANCH   4   5
ENDBRANCH   2   4
BRANCH   1  10
ATOM     10  C   UNL     1      83.071  13.172 106.964  1.00  0.00     0.111 C 
BRANCH  10  11
ATOM     11  C   UNL     1      84.155  13.052 108.009  1.00  0.00     0.163 C 
ATOM     12  O   UNL     1      85.195  12.415 107.685  1.00  0.00    -0.294 OA
BRANCH  11  13
ATOM     13  C   UNL     1      84.047  13.622 109.392  1.00  0.00    -0.002 C 
ATOM     14  C   UNL     1      82.969  13.329 110.183  1.00  0.00    -0.069 C 
ATOM     15  C   UNL     1      82.006  12.219 109.826  1.00  0.00     0.039 C 
ATOM     16  C   UNL     1      82.705  14.058 111.481  1.00  0.00     0.039 C 
BRANCH  13  17
ATOM     17  C   UNL     1      85.071  14.672 109.812  1.00  0.00     0.066 CG0
ATOM     18  G   UNL     1      84.781  16.103 109.396  1.00  0.00     0.000 G0
ENDBRANCH  13  17
ENDBRANCH  11  13
ENDBRANCH  10  11
ENDBRANCH   1  10
TORSDOF 0
ENDMDL
MODEL 3
REMARK VINA RESULT:    24.461      1.907      4.619
REMARK INTER + INTRA:          35.171
REMARK INTER:                  34.719
REMARK INTRA:                   0.452
REMARK UNBOUND:                 0.700
REMARK SMILES CC1=CCC(=C(C)C)C(=O)CC(C)=CCC1
REMARK SMILES IDX 12 1 14 2 13 3 15 4 16 5 2 6 1 7 3 8 11 10 9 11 10 12 5 13
REMARK SMILES IDX 6 14 7 15 8 16 4 17
REMARK H PARENT
REMARK Flexibility Score: 60.00
ROOT
ATOM      1  C   UNL     1      82.688  14.763 106.864  1.00  0.00    -0.070 C 
ATOM      2  C   UNL     1      82.707  13.588 107.536  1.00  0.00    -0.027 C 
ATOM      3  C   UNL     1      81.433  15.595 106.923  1.00  0.00     0.039 C 
ENDROOT
BRANCH   2   4
ATOM      4  C   UNL     1      83.918  12.708 107.705  1.00  0.00     0.032 C 
BRANCH   4   5
ATOM      5  C   UNL     1      84.229  12.531 109.195  1.00  0.00     0.034 C 
BRANCH   5   6
ATOM      6  C   UNL     1      83.571  13.590 110.055  1.00  0.00    -0.077 C 
ATOM      7  C   UNL     1      82.330  13.224 110.831  1.00  0.00     0.039 C 
ATOM      8  C   UNL     1      83.993  14.878 110.114  1.00  0.00    -0.023 CG0
ATOM      9  G   UNL     1      85.236  15.471 109.476  1.00  0.00     0.000 G0
ENDBRANCH   5   6
ENDBRANCH   4   5
ENDBRANCH   2   4
BRANCH   1  10
ATOM     10  C   UNL     1      83.856  15.270 106.041  1.00  0.00     0.111 C 
BRANCH  10  11
ATOM     11  C   UNL     1      85.062  15.568 106.900  1.00  0.00     0.163 C 
ATOM     12  O   UNL     1      86.178  15.152 106.486  1.00  0.00    -0.294 OA
BRANCH  11  13
ATOM     13  C   UNL     1      84.994  16.299 108.208  1.00  0.00    -0.002 C 
ATOM     14  C   UNL     1      84.893  17.664 108.237  1.00  0.00    -0.069 C 
ATOM     15  C   UNL     1      84.562  18.458 106.994  1.00  0.00     0.039 C 
ATOM     16  C   UNL     1      85.054  18.453 109.517  1.00  0.00     0.039 C 
BRANCH  13  17
ATOM     17  C   UNL     1      85.224  15.499 109.485  1.00  0.00     0.066 CG0
ATOM     18  G   UNL     1      83.995  14.879 110.126  1.00  0.00     0.000 G0
ENDBRANCH  13  17
ENDBRANCH  11  13
ENDBRANCH  10  11
ENDBRANCH   1  10
TORSDOF 0
ENDMDL
MODEL 4
REMARK VINA RESULT:    25.201      1.894      4.730
REMARK INTER + INTRA:          36.214
REMARK INTER:                  33.098
REMARK INTRA:                   3.116
REMARK UNBOUND:                 0.700
REMARK SMILES CC1=CCC(=C(C)C)C(=O)CC(C)=CCC1
REMARK SMILES IDX 12 1 14 2 13 3 15 4 16 5 2 6 1 7 3 8 11 10 9 11 10 12 5 13
REMARK SMILES IDX 6 14 7 15 8 16 4 17
REMARK H PARENT
REMARK Flexibility Score: 60.00
ROOT
ATOM      1  C   UNL     1      83.073  14.258 106.525  1.00  0.00    -0.070 C 
ATOM      2  C   UNL     1      83.362  12.955 106.751  1.00  0.00    -0.027 C 
ATOM      3  C   UNL     1      82.764  14.682 105.113  1.00  0.00     0.039 C 
ENDROOT
BRANCH   2   4
ATOM      4  C   UNL     1      83.548  12.334 108.111  1.00  0.00     0.032 C 
BRANCH   4   5
ATOM      5  C   UNL     1      82.495  12.880 109.082  1.00  0.00     0.034 C 
BRANCH   5   6
ATOM      6  C   UNL     1      83.113  13.552 110.291  1.00  0.00    -0.077 C 
ATOM      7  C   UNL     1      82.234  13.855 111.478  1.00  0.00     0.039 C 
ATOM      8  C   UNL     1      84.404  13.966 110.341  1.00  0.00    -0.023 CG0
ATOM      9  G   UNL     1      85.490  13.729 109.307  1.00  0.00     0.000 G0
ENDBRANCH   5   6
ENDBRANCH   4   5
ENDBRANCH   2   4
BRANCH   1  10
ATOM     10  C   UNL     1      83.065  15.310 107.616  1.00  0.00     0.111 C 
BRANCH  10  11
ATOM     11  C   UNL     1      84.463  15.734 107.999  1.00  0.00     0.163 C 
ATOM     12  O   UNL     1      84.670  16.970 108.138  1.00  0.00    -0.294 OA
BRANCH  11  13
ATOM     13  C   UNL     1      85.602  14.776 108.194  1.00  0.00    -0.002 C 
ATOM     14  C   UNL     1      86.634  14.730 107.296  1.00  0.00    -0.069 C 
ATOM     15  C   UNL     1      86.822  15.809 106.254  1.00  0.00     0.039 C 
ATOM     16  C   UNL     1      87.673  13.633 107.325  1.00  0.00     0.039 C 
BRANCH  13  17
ATOM     17  C   UNL     1      85.479  13.741 109.307  1.00  0.00     0.066 CG0
ATOM     18  G   UNL     1      84.423  14.008 110.365  1.00  0.00     0.000 G0
ENDBRANCH  13  17
ENDBRANCH  11  13
ENDBRANCH  10  11
ENDBRANCH   1  10
TORSDOF 0
ENDMDL
MODEL 5
REMARK VINA RESULT:    26.000      8.795     10.468
REMARK INTER + INTRA:          37.340
REMARK INTER:                  36.793
REMARK INTRA:                   0.546
REMARK UNBOUND:                 0.700
REMARK SMILES CC1=CCC(=C(C)C)C(=O)CC(C)=CCC1
REMARK SMILES IDX 12 1 14 2 13 3 15 4 16 5 2 6 1 7 3 8 11 10 9 11 10 12 5 13
REMARK SMILES IDX 6 14 7 15 8 16 4 17
REMARK H PARENT
REMARK Flexibility Score: 60.00
ROOT
ATOM      1  C   UNL     1      90.233  23.195 111.865  1.00  0.00    -0.070 C 
ATOM      2  C   UNL     1      91.102  22.630 112.736  1.00  0.00    -0.027 C 
ATOM      3  C   UNL     1      90.780  23.746 110.574  1.00  0.00     0.039 C 
ENDROOT
BRANCH   2   4
ATOM      4  C   UNL     1      90.712  21.904 113.997  1.00  0.00     0.032 C 
BRANCH   4   5
ATOM      5  C   UNL     1      91.262  20.473 113.965  1.00  0.00     0.034 C 
BRANCH   5   6
ATOM      6  C   UNL     1      91.594  20.010 112.562  1.00  0.00    -0.077 C 
ATOM      7  C   UNL     1      93.042  19.940 112.146  1.00  0.00     0.039 C 
ATOM      8  C   UNL     1      90.655  19.721 111.625  1.00  0.00    -0.023 CG0
ATOM      9  G   UNL     1      89.150  19.663 111.816  1.00  0.00     0.000 G0
ENDBRANCH   5   6
ENDBRANCH   4   5
ENDBRANCH   2   4
BRANCH   1  10
ATOM     10  C   UNL     1      88.746  23.319 112.135  1.00  0.00     0.111 C 
BRANCH  10  11
ATOM     11  C   UNL     1      88.079  21.967 112.235  1.00  0.00     0.163 C 
ATOM     12  O   UNL     1      87.263  21.800 113.181  1.00  0.00    -0.294 OA
BRANCH  11  13
ATOM     13  C   UNL     1      88.353  20.830 111.295  1.00  0.00    -0.002 C 
ATOM     14  C   UNL     1      87.751  20.782 110.067  1.00  0.00    -0.069 C 
ATOM     15  C   UNL     1      87.029  21.981 109.494  1.00  0.00     0.039 C 
ATOM     16  C   UNL     1      87.815  19.552 109.190  1.00  0.00     0.039 C 
BRANCH  13  17
ATOM     17  C   UNL     1      89.168  19.652 111.821  1.00  0.00     0.066 CG0
ATOM     18  G   UNL     1      90.670  19.724 111.615  1.00  0.00     0.000 G0
ENDBRANCH  13  17
ENDBRANCH  11  13
ENDBRANCH  10  11
ENDBRANCH   1  10
TORSDOF 0
ENDMDL
MODEL 6
REMARK VINA RESULT:    26.055      1.797      3.215
REMARK INTER + INTRA:          37.418
REMARK INTER:                  33.838
REMARK INTRA:                   3.580
REMARK UNBOUND:                 0.700
REMARK SMILES CC1=CCC(=C(C)C)C(=O)CC(C)=CCC1
REMARK SMILES IDX 12 1 14 2 13 3 15 4 16 5 2 6 1 7 3 8 11 10 9 11 10 12 5 13
REMARK SMILES IDX 6 14 7 15 8 16 4 17
REMARK H PARENT
REMARK Flexibility Score: 60.00
ROOT
ATOM      1  C   UNL     1      83.103  13.578 106.949  1.00  0.00    -0.070 C 
ATOM      2  C   UNL     1      83.502  14.262 105.851  1.00  0.00    -0.027 C 
ATOM      3  C   UNL     1      83.500  12.129 107.065  1.00  0.00     0.039 C 
ENDROOT
BRANCH   2   4
ATOM      4  C   UNL     1      83.323  15.744 105.643  1.00  0.00     0.032 C 
BRANCH   4   5
ATOM      5  C   UNL     1      83.077  16.433 106.990  1.00  0.00     0.034 C 
BRANCH   5   6
ATOM      6  C   UNL     1      84.350  16.976 107.605  1.00  0.00    -0.077 C 
ATOM      7  C   UNL     1      84.607  18.462 107.543  1.00  0.00     0.039 C 
ATOM      8  C   UNL     1      85.315  16.193 108.148  1.00  0.00    -0.023 CG0
ATOM      9  G   UNL     1      85.266  14.692 108.376  1.00  0.00     0.000 G0
ENDBRANCH   5   6
ENDBRANCH   4   5
ENDBRANCH   2   4
BRANCH   1  10
ATOM     10  C   UNL     1      82.264  14.191 108.052  1.00  0.00     0.111 C 
BRANCH  10  11
ATOM     11  C   UNL     1      82.945  14.097 109.396  1.00  0.00     0.163 C 
ATOM     12  O   UNL     1      82.204  13.949 110.406  1.00  0.00    -0.294 OA
BRANCH  11  13
ATOM     13  C   UNL     1      84.431  14.195 109.587  1.00  0.00    -0.002 C 
ATOM     14  C   UNL     1      84.987  14.000 110.822  1.00  0.00    -0.069 C 
ATOM     15  C   UNL     1      84.191  13.409 111.963  1.00  0.00     0.039 C 
ATOM     16  C   UNL     1      86.439  14.314 111.106  1.00  0.00     0.039 C 
BRANCH  13  17
ATOM     17  C   UNL     1      85.268  14.693 108.414  1.00  0.00     0.066 CG0
ATOM     18  G   UNL     1      85.279  16.193 108.180  1.00  0.00     0.000 G0
ENDBRANCH  13  17
ENDBRANCH  11  13
ENDBRANCH  10  11
ENDBRANCH   1  10
TORSDOF 0
ENDMDL
MODEL 7
REMARK VINA RESULT:    26.809      9.126     10.571
REMARK INTER + INTRA:          38.481
REMARK INTER:                  38.088
REMARK INTRA:                   0.393
REMARK UNBOUND:                 0.700
REMARK SMILES CC1=CCC(=C(C)C)C(=O)CC(C)=CCC1
REMARK SMILES IDX 12 1 14 2 13 3 15 4 16 5 2 6 1 7 3 8 11 10 9 11 10 12 5 13
REMARK SMILES IDX 6 14 7 15 8 16 4 17
REMARK H PARENT
REMARK Flexibility Score: 60.00
ROOT
ATOM      1  C   UNL     1      90.500  23.155 111.774  1.00  0.00    -0.070 C 
ATOM      2  C   UNL     1      89.237  23.041 111.301  1.00  0.00    -0.027 C 
ATOM      3  C   UNL     1      91.604  23.441 110.790  1.00  0.00     0.039 C 
ENDROOT
BRANCH   2   4
ATOM      4  C   UNL     1      88.003  22.904 112.154  1.00  0.00     0.032 C 
BRANCH   4   5
ATOM      5  C   UNL     1      87.492  21.460 112.105  1.00  0.00     0.034 C 
BRANCH   5   6
ATOM      6  C   UNL     1      88.143  20.652 111.001  1.00  0.00    -0.077 C 
ATOM      7  C   UNL     1      87.621  20.799 109.593  1.00  0.00     0.039 C 
ATOM      8  C   UNL     1      89.128  19.743 111.216  1.00  0.00    -0.023 CG0
ATOM      9  G   UNL     1      89.851  19.459 112.520  1.00  0.00     0.000 G0
ENDBRANCH   5   6
ENDBRANCH   4   5
ENDBRANCH   2   4
BRANCH   1  10
ATOM     10  C   UNL     1      90.858  22.988 113.238  1.00  0.00     0.111 C 
BRANCH  10  11
ATOM     11  C   UNL     1      90.602  21.581 113.723  1.00  0.00     0.163 C 
ATOM     12  O   UNL     1      90.064  21.455 114.857  1.00  0.00    -0.294 OA
BRANCH  11  13
ATOM     13  C   UNL     1      90.972  20.351 112.948  1.00  0.00    -0.002 C 
ATOM     14  C   UNL     1      92.252  20.172 112.497  1.00  0.00    -0.069 C 
ATOM     15  C   UNL     1      93.391  21.035 112.991  1.00  0.00     0.039 C 
ATOM     16  C   UNL     1      92.612  19.074 111.523  1.00  0.00     0.039 C 
BRANCH  13  17
ATOM     17  C   UNL     1      89.848  19.411 112.524  1.00  0.00     0.066 CG0
ATOM     18  G   UNL     1      89.140  19.746 111.224  1.00  0.00     0.000 G0
ENDBRANCH  13  17
ENDBRANCH  11  13
ENDBRANCH  10  11
ENDBRANCH   1  10
TORSDOF 0
ENDMDL
MODEL 8
REMARK VINA RESULT:    27.089      2.161      4.705
REMARK INTER + INTRA:          38.874
REMARK INTER:                  37.519
REMARK INTRA:                   1.356
REMARK UNBOUND:                 0.700
REMARK SMILES CC1=CCC(=C(C)C)C(=O)CC(C)=CCC1
REMARK SMILES IDX 12 1 14 2 13 3 15 4 16 5 2 6 1 7 3 8 11 10 9 11 10 12 5 13
REMARK SMILES IDX 6 14 7 15 8 16 4 17
REMARK H PARENT
REMARK Flexibility Score: 60.00
ROOT
ATOM      1  C   UNL     1      83.352  12.868 107.360  1.00  0.00    -0.070 C 
ATOM      2  C   UNL     1      83.735  12.352 108.552  1.00  0.00    -0.027 C 
ATOM      3  C   UNL     1      83.729  12.118 106.109  1.00  0.00     0.039 C 
ENDROOT
BRANCH   2   4
ATOM      4  C   UNL     1      83.320  12.886 109.898  1.00  0.00     0.032 C 
BRANCH   4   5
ATOM      5  C   UNL     1      83.783  14.340 110.047  1.00  0.00     0.034 C 
BRANCH   5   6
ATOM      6  C   UNL     1      85.284  14.456 110.218  1.00  0.00    -0.077 C 
ATOM      7  C   UNL     1      85.869  14.300 111.599  1.00  0.00     0.039 C 
ATOM      8  C   UNL     1      86.133  14.766 109.206  1.00  0.00    -0.023 CG0
ATOM      9  G   UNL     1      85.798  14.914 107.732  1.00  0.00     0.000 G0
ENDBRANCH   5   6
ENDBRANCH   4   5
ENDBRANCH   2   4
BRANCH   1  10
ATOM     10  C   UNL     1      82.584  14.167 107.224  1.00  0.00     0.111 C 
BRANCH  10  11
ATOM     11  C   UNL     1      83.449  15.277 106.675  1.00  0.00     0.163 C 
ATOM     12  O   UNL     1      83.160  15.716 105.529  1.00  0.00    -0.294 OA
BRANCH  11  13
ATOM     13  C   UNL     1      84.627  15.854 107.403  1.00  0.00    -0.002 C 
ATOM     14  C   UNL     1      84.716  17.202 107.624  1.00  0.00    -0.069 C 
ATOM     15  C   UNL     1      83.531  18.117 107.411  1.00  0.00     0.039 C 
ATOM     16  C   UNL     1      85.981  17.848 108.142  1.00  0.00     0.039 C 
BRANCH  13  17
ATOM     17  C   UNL     1      85.794  14.925 107.720  1.00  0.00     0.066 CG0
ATOM     18  G   UNL     1      86.165  14.780 109.185  1.00  0.00     0.000 G0
ENDBRANCH  13  17
ENDBRANCH  11  13
ENDBRANCH  10  11
ENDBRANCH   1  10
TORSDOF 0
ENDMDL
