MODEL 1
REMARK VINA RESULT:    -6.111      0.000      0.000
REMARK INTER + INTRA:          -8.333
REMARK INTER:                  -7.719
REMARK INTRA:                  -0.614
REMARK UNBOUND:                -0.614
REMARK SMILES O=C(C=Cc1ccc(O)cc1)c1ccc(O)cc1O
REMARK SMILES IDX 4 1 3 2 5 3 6 4 7 5 8 6 11 7 10 8 9 9 2 11 1 12 12 13 18 14
REMARK SMILES IDX 13 15 17 16 14 17 15 18 19 19 16 21
REMARK H PARENT 9 10 19 20 16 22
REMARK Flexibility Score: inf
ROOT
ATOM      1  C   UNL     1       8.603  52.264  22.949  1.00  0.00     0.012 C 
ATOM      2  C   UNL     1       8.124  52.512  21.722  1.00  0.00     0.053 C 
ENDROOT
BRANCH   1   3
ATOM      3  C   UNL     1      10.021  51.923  23.226  1.00  0.00    -0.025 A 
ATOM      4  C   UNL     1      10.614  52.117  24.491  1.00  0.00     0.012 A 
ATOM      5  C   UNL     1      11.958  51.790  24.699  1.00  0.00     0.047 A 
ATOM      6  C   UNL     1      12.730  51.278  23.653  1.00  0.00     0.115 A 
ATOM      7  C   UNL     1      10.810  51.421  22.178  1.00  0.00     0.012 A 
ATOM      8  C   UNL     1      12.153  51.096  22.390  1.00  0.00     0.047 A 
BRANCH   6   9
ATOM      9  O   UNL     1      14.067  50.957  23.877  1.00  0.00    -0.508 OA
ATOM     10  H   UNL     1      14.337  50.074  24.294  1.00  0.00     0.293 HD
ENDBRANCH   6   9
ENDBRANCH   1   3
BRANCH   2  11
ATOM     11  C   UNL     1       6.708  52.863  21.485  1.00  0.00     0.189 C 
ATOM     12  O   UNL     1       5.898  52.912  22.450  1.00  0.00    -0.289 OA
BRANCH  11  13
ATOM     13  C   UNL     1       6.222  53.127  20.112  1.00  0.00     0.064 A 
ATOM     14  C   UNL     1       5.093  53.944  19.861  1.00  0.00     0.130 A 
ATOM     15  C   UNL     1       6.877  52.517  19.026  1.00  0.00     0.020 A 
ATOM     16  C   UNL     1       4.628  54.104  18.550  1.00  0.00     0.093 A 
ATOM     17  C   UNL     1       6.412  52.696  17.722  1.00  0.00     0.047 A 
ATOM     18  C   UNL     1       5.286  53.485  17.480  1.00  0.00     0.119 A 
BRANCH  14  19
ATOM     19  O   UNL     1       4.429  54.632  20.880  1.00  0.00    -0.507 OA
ATOM     20  H   UNL     1       4.231  55.623  20.841  1.00  0.00     0.293 HD
ENDBRANCH  14  19
BRANCH  18  21
ATOM     21  O   UNL     1       4.828  53.648  16.174  1.00  0.00    -0.508 OA
ATOM     22  H   UNL     1       4.482  54.541  15.842  1.00  0.00     0.293 HD
ENDBRANCH  18  21
ENDBRANCH  11  13
ENDBRANCH   2  11
TORSDOF 6
ENDMDL
MODEL 2
REMARK VINA RESULT:    -6.089      1.501      7.543
REMARK INTER + INTRA:          -8.305
REMARK INTER:                  -8.078
REMARK INTRA:                  -0.228
REMARK UNBOUND:                -0.614
REMARK SMILES O=C(C=Cc1ccc(O)cc1)c1ccc(O)cc1O
REMARK SMILES IDX 4 1 3 2 5 3 6 4 7 5 8 6 11 7 10 8 9 9 2 11 1 12 12 13 18 14
REMARK SMILES IDX 13 15 17 16 14 17 15 18 19 19 16 21
REMARK H PARENT 9 10 19 20 16 22
REMARK Flexibility Score: inf
ROOT
ATOM      1  C   UNL     1       6.318  53.048  21.357  1.00  0.00     0.012 C 
ATOM      2  C   UNL     1       7.196  52.086  21.676  1.00  0.00     0.053 C 
ENDROOT
BRANCH   1   3
ATOM      3  C   UNL     1       5.809  53.274  19.981  1.00  0.00    -0.025 A 
ATOM      4  C   UNL     1       4.703  54.104  19.708  1.00  0.00     0.012 A 
ATOM      5  C   UNL     1       4.254  54.277  18.394  1.00  0.00     0.047 A 
ATOM      6  C   UNL     1       4.892  53.620  17.340  1.00  0.00     0.115 A 
ATOM      7  C   UNL     1       6.434  52.606  18.914  1.00  0.00     0.012 A 
ATOM      8  C   UNL     1       5.982  52.781  17.603  1.00  0.00     0.047 A 
BRANCH   6   9
ATOM      9  O   UNL     1       4.434  53.802  16.036  1.00  0.00    -0.508 OA
ATOM     10  H   UNL     1       3.531  53.453  15.739  1.00  0.00     0.293 HD
ENDBRANCH   6   9
ENDBRANCH   1   3
BRANCH   2  11
ATOM     11  C   UNL     1       7.670  51.881  23.061  1.00  0.00     0.189 C 
ATOM     12  O   UNL     1       6.902  52.110  24.034  1.00  0.00    -0.289 OA
BRANCH  11  13
ATOM     13  C   UNL     1       9.058  51.436  23.319  1.00  0.00     0.064 A 
ATOM     14  C   UNL     1      10.172  52.076  22.724  1.00  0.00     0.130 A 
ATOM     15  C   UNL     1       9.275  50.320  24.149  1.00  0.00     0.020 A 
ATOM     16  C   UNL     1      11.461  51.571  22.942  1.00  0.00     0.093 A 
ATOM     17  C   UNL     1      10.565  49.837  24.369  1.00  0.00     0.047 A 
ATOM     18  C   UNL     1      11.660  50.456  23.764  1.00  0.00     0.119 A 
BRANCH  14  19
ATOM     19  O   UNL     1      10.043  53.224  21.940  1.00  0.00    -0.507 OA
ATOM     20  H   UNL     1       9.578  53.232  21.041  1.00  0.00     0.293 HD
ENDBRANCH  14  19
BRANCH  18  21
ATOM     21  O   UNL     1      12.942  49.956  23.986  1.00  0.00    -0.508 OA
ATOM     22  H   UNL     1      13.548  50.352  24.695  1.00  0.00     0.293 HD
ENDBRANCH  18  21
ENDBRANCH  11  13
ENDBRANCH   2  11
TORSDOF 6
ENDMDL
MODEL 3
REMARK VINA RESULT:    -6.065      1.281      1.752
REMARK INTER + INTRA:          -8.275
REMARK INTER:                  -7.700
REMARK INTRA:                  -0.574
REMARK UNBOUND:                -0.614
REMARK SMILES O=C(C=Cc1ccc(O)cc1)c1ccc(O)cc1O
REMARK SMILES IDX 4 1 3 2 5 3 6 4 7 5 8 6 11 7 10 8 9 9 2 11 1 12 12 13 18 14
REMARK SMILES IDX 13 15 17 16 14 17 15 18 19 19 16 21
REMARK H PARENT 9 10 19 20 16 22
REMARK Flexibility Score: inf
ROOT
ATOM      1  C   UNL     1       7.533  52.466  22.287  1.00  0.00     0.012 C 
ATOM      2  C   UNL     1       7.109  52.510  21.016  1.00  0.00     0.053 C 
ENDROOT
BRANCH   1   3
ATOM      3  C   UNL     1       8.792  51.807  22.713  1.00  0.00    -0.025 A 
ATOM      4  C   UNL     1      10.042  52.115  22.137  1.00  0.00     0.012 A 
ATOM      5  C   UNL     1      11.200  51.457  22.565  1.00  0.00     0.047 A 
ATOM      6  C   UNL     1      11.128  50.480  23.561  1.00  0.00     0.115 A 
ATOM      7  C   UNL     1       8.730  50.812  23.703  1.00  0.00     0.012 A 
ATOM      8  C   UNL     1       9.890  50.157  24.128  1.00  0.00     0.047 A 
BRANCH   6   9
ATOM      9  O   UNL     1      12.291  49.835  23.977  1.00  0.00    -0.508 OA
ATOM     10  H   UNL     1      12.256  48.985  24.527  1.00  0.00     0.293 HD
ENDBRANCH   6   9
ENDBRANCH   1   3
BRANCH   2  11
ATOM     11  C   UNL     1       5.855  53.188  20.626  1.00  0.00     0.189 C 
ATOM     12  O   UNL     1       5.160  53.784  21.495  1.00  0.00    -0.289 OA
BRANCH  11  13
ATOM     13  C   UNL     1       5.387  53.149  19.223  1.00  0.00     0.064 A 
ATOM     14  C   UNL     1       4.418  54.056  18.730  1.00  0.00     0.130 A 
ATOM     15  C   UNL     1       5.892  52.157  18.362  1.00  0.00     0.020 A 
ATOM     16  C   UNL     1       3.954  53.932  17.414  1.00  0.00     0.093 A 
ATOM     17  C   UNL     1       5.432  52.053  17.048  1.00  0.00     0.047 A 
ATOM     18  C   UNL     1       4.460  52.934  16.572  1.00  0.00     0.119 A 
BRANCH  14  19
ATOM     19  O   UNL     1       3.916  55.105  19.504  1.00  0.00    -0.507 OA
ATOM     20  H   UNL     1       3.277  54.968  20.276  1.00  0.00     0.293 HD
ENDBRANCH  14  19
BRANCH  18  21
ATOM     21  O   UNL     1       4.004  52.813  15.261  1.00  0.00    -0.508 OA
ATOM     22  H   UNL     1       3.126  53.224  14.966  1.00  0.00     0.293 HD
ENDBRANCH  18  21
ENDBRANCH  11  13
ENDBRANCH   2  11
TORSDOF 6
ENDMDL
MODEL 4
REMARK VINA RESULT:    -6.063      1.614      7.495
REMARK INTER + INTRA:          -8.272
REMARK INTER:                  -7.659
REMARK INTRA:                  -0.614
REMARK UNBOUND:                -0.614
REMARK SMILES O=C(C=Cc1ccc(O)cc1)c1ccc(O)cc1O
REMARK SMILES IDX 4 1 3 2 5 3 6 4 7 5 8 6 11 7 10 8 9 9 2 11 1 12 12 13 18 14
REMARK SMILES IDX 13 15 17 16 14 17 15 18 19 19 16 21
REMARK H PARENT 9 10 19 20 16 22
REMARK Flexibility Score: inf
ROOT
ATOM      1  C   UNL     1       6.625  52.081  20.636  1.00  0.00     0.012 C 
ATOM      2  C   UNL     1       6.988  52.809  21.702  1.00  0.00     0.053 C 
ENDROOT
BRANCH   1   3
ATOM      3  C   UNL     1       5.960  52.650  19.437  1.00  0.00    -0.025 A 
ATOM      4  C   UNL     1       6.462  52.465  18.132  1.00  0.00     0.012 A 
ATOM      5  C   UNL     1       5.805  53.032  17.035  1.00  0.00     0.047 A 
ATOM      6  C   UNL     1       4.652  53.797  17.222  1.00  0.00     0.115 A 
ATOM      7  C   UNL     1       4.808  53.434  19.615  1.00  0.00     0.012 A 
ATOM      8  C   UNL     1       4.155  53.999  18.515  1.00  0.00     0.047 A 
BRANCH   6   9
ATOM      9  O   UNL     1       4.008  54.355  16.118  1.00  0.00    -0.508 OA
ATOM     10  H   UNL     1       3.437  53.793  15.499  1.00  0.00     0.293 HD
ENDBRANCH   6   9
ENDBRANCH   1   3
BRANCH   2  11
ATOM     11  C   UNL     1       7.661  52.210  22.873  1.00  0.00     0.189 C 
ATOM     12  O   UNL     1       7.064  52.146  23.982  1.00  0.00    -0.289 OA
BRANCH  11  13
ATOM     13  C   UNL     1       9.050  51.710  22.764  1.00  0.00     0.064 A 
ATOM     14  C   UNL     1       9.553  50.702  23.623  1.00  0.00     0.130 A 
ATOM     15  C   UNL     1       9.907  52.278  21.804  1.00  0.00     0.020 A 
ATOM     16  C   UNL     1      10.895  50.315  23.528  1.00  0.00     0.093 A 
ATOM     17  C   UNL     1      11.240  51.873  21.710  1.00  0.00     0.047 A 
ATOM     18  C   UNL     1      11.739  50.895  22.573  1.00  0.00     0.119 A 
BRANCH  14  19
ATOM     19  O   UNL     1       8.747  50.047  24.557  1.00  0.00    -0.507 OA
ATOM     20  H   UNL     1       8.985  49.971  25.537  1.00  0.00     0.293 HD
ENDBRANCH  14  19
BRANCH  18  21
ATOM     21  O   UNL     1      13.073  50.507  22.473  1.00  0.00    -0.508 OA
ATOM     22  H   UNL     1      13.662  50.826  21.713  1.00  0.00     0.293 HD
ENDBRANCH  18  21
ENDBRANCH  11  13
ENDBRANCH   2  11
TORSDOF 6
ENDMDL
MODEL 5
REMARK VINA RESULT:    -5.948      1.462      7.673
REMARK INTER + INTRA:          -8.126
REMARK INTER:                  -8.061
REMARK INTRA:                  -0.065
REMARK UNBOUND:                -0.614
REMARK SMILES O=C(C=Cc1ccc(O)cc1)c1ccc(O)cc1O
REMARK SMILES IDX 4 1 3 2 5 3 6 4 7 5 8 6 11 7 10 8 9 9 2 11 1 12 12 13 18 14
REMARK SMILES IDX 13 15 17 16 14 17 15 18 19 19 16 21
REMARK H PARENT 9 10 19 20 16 22
REMARK Flexibility Score: inf
ROOT
ATOM      1  C   UNL     1       7.372  52.125  21.953  1.00  0.00     0.012 C 
ATOM      2  C   UNL     1       8.554  52.580  22.393  1.00  0.00     0.053 C 
ENDROOT
BRANCH   1   3
ATOM      3  C   UNL     1       6.702  52.626  20.727  1.00  0.00    -0.025 A 
ATOM      4  C   UNL     1       5.713  53.631  20.759  1.00  0.00     0.012 A 
ATOM      5  C   UNL     1       5.103  54.061  19.576  1.00  0.00     0.047 A 
ATOM      6  C   UNL     1       5.460  53.492  18.352  1.00  0.00     0.115 A 
ATOM      7  C   UNL     1       7.042  52.050  19.491  1.00  0.00     0.012 A 
ATOM      8  C   UNL     1       6.430  52.483  18.311  1.00  0.00     0.047 A 
BRANCH   6   9
ATOM      9  O   UNL     1       4.843  53.933  17.182  1.00  0.00    -0.508 OA
ATOM     10  H   UNL     1       3.878  54.241  17.176  1.00  0.00     0.293 HD
ENDBRANCH   6   9
ENDBRANCH   1   3
BRANCH   2  11
ATOM     11  C   UNL     1       9.199  52.048  23.611  1.00  0.00     0.189 C 
ATOM     12  O   UNL     1       8.512  51.821  24.644  1.00  0.00    -0.289 OA
BRANCH  11  13
ATOM     13  C   UNL     1      10.659  51.806  23.641  1.00  0.00     0.064 A 
ATOM     14  C   UNL     1      11.338  51.189  22.563  1.00  0.00     0.130 A 
ATOM     15  C   UNL     1      11.387  52.164  24.791  1.00  0.00     0.020 A 
ATOM     16  C   UNL     1      12.708  50.915  22.670  1.00  0.00     0.093 A 
ATOM     17  C   UNL     1      12.755  51.899  24.878  1.00  0.00     0.047 A 
ATOM     18  C   UNL     1      13.417  51.271  23.823  1.00  0.00     0.119 A 
BRANCH  14  19
ATOM     19  O   UNL     1      10.697  50.861  21.366  1.00  0.00    -0.507 OA
ATOM     20  H   UNL     1       9.694  50.908  21.244  1.00  0.00     0.293 HD
ENDBRANCH  14  19
BRANCH  18  21
ATOM     21  O   UNL     1      14.781  51.005  23.928  1.00  0.00    -0.508 OA
ATOM     22  H   UNL     1      15.176  50.130  23.604  1.00  0.00     0.293 HD
ENDBRANCH  18  21
ENDBRANCH  11  13
ENDBRANCH   2  11
TORSDOF 6
ENDMDL
MODEL 6
REMARK VINA RESULT:    -5.774      1.135      1.737
REMARK INTER + INTRA:          -7.907
REMARK INTER:                  -7.697
REMARK INTRA:                  -0.210
REMARK UNBOUND:                -0.614
REMARK SMILES O=C(C=Cc1ccc(O)cc1)c1ccc(O)cc1O
REMARK SMILES IDX 4 1 3 2 5 3 6 4 7 5 8 6 11 7 10 8 9 9 2 11 1 12 12 13 18 14
REMARK SMILES IDX 13 15 17 16 14 17 15 18 19 19 16 21
REMARK H PARENT 9 10 19 20 16 22
REMARK Flexibility Score: inf
ROOT
ATOM      1  C   UNL     1       8.963  52.098  23.477  1.00  0.00     0.012 C 
ATOM      2  C   UNL     1       8.295  52.372  22.347  1.00  0.00     0.053 C 
ENDROOT
BRANCH   1   3
ATOM      3  C   UNL     1      10.420  51.821  23.525  1.00  0.00    -0.025 A 
ATOM      4  C   UNL     1      11.209  52.106  24.659  1.00  0.00     0.012 A 
ATOM      5  C   UNL     1      12.582  51.836  24.651  1.00  0.00     0.047 A 
ATOM      6  C   UNL     1      13.187  51.292  23.517  1.00  0.00     0.115 A 
ATOM      7  C   UNL     1      11.043  51.287  22.384  1.00  0.00     0.012 A 
ATOM      8  C   UNL     1      12.415  51.020  22.381  1.00  0.00     0.047 A 
BRANCH   6   9
ATOM      9  O   UNL     1      14.556  51.028  23.525  1.00  0.00    -0.508 OA
ATOM     10  H   UNL     1      14.941  50.247  24.041  1.00  0.00     0.293 HD
ENDBRANCH   6   9
ENDBRANCH   1   3
BRANCH   2  11
ATOM     11  C   UNL     1       6.845  52.657  22.338  1.00  0.00     0.189 C 
ATOM     12  O   UNL     1       6.180  52.592  23.408  1.00  0.00    -0.289 OA
BRANCH  11  13
ATOM     13  C   UNL     1       6.155  52.989  21.072  1.00  0.00     0.064 A 
ATOM     14  C   UNL     1       6.267  52.171  19.921  1.00  0.00     0.130 A 
ATOM     15  C   UNL     1       5.396  54.171  20.996  1.00  0.00     0.020 A 
ATOM     16  C   UNL     1       5.655  52.567  18.725  1.00  0.00     0.093 A 
ATOM     17  C   UNL     1       4.778  54.547  19.802  1.00  0.00     0.047 A 
ATOM     18  C   UNL     1       4.909  53.750  18.664  1.00  0.00     0.119 A 
BRANCH  14  19
ATOM     19  O   UNL     1       6.951  50.953  19.934  1.00  0.00    -0.507 OA
ATOM     20  H   UNL     1       6.485  50.057  19.980  1.00  0.00     0.293 HD
ENDBRANCH  14  19
BRANCH  18  21
ATOM     21  O   UNL     1       4.294  54.142  17.476  1.00  0.00    -0.508 OA
ATOM     22  H   UNL     1       4.336  55.100  17.149  1.00  0.00     0.293 HD
ENDBRANCH  18  21
ENDBRANCH  11  13
ENDBRANCH   2  11
TORSDOF 6
ENDMDL
MODEL 7
REMARK VINA RESULT:    -5.557      2.198      7.481
REMARK INTER + INTRA:          -7.633
REMARK INTER:                  -6.939
REMARK INTRA:                  -0.694
REMARK UNBOUND:                -0.614
REMARK SMILES O=C(C=Cc1ccc(O)cc1)c1ccc(O)cc1O
REMARK SMILES IDX 4 1 3 2 5 3 6 4 7 5 8 6 11 7 10 8 9 9 2 11 1 12 12 13 18 14
REMARK SMILES IDX 13 15 17 16 14 17 15 18 19 19 16 21
REMARK H PARENT 9 10 19 20 16 22
REMARK Flexibility Score: inf
ROOT
ATOM      1  C   UNL     1       7.345  52.460  20.453  1.00  0.00     0.012 C 
ATOM      2  C   UNL     1       8.130  53.180  21.268  1.00  0.00     0.053 C 
ENDROOT
BRANCH   1   3
ATOM      3  C   UNL     1       6.180  53.021  19.725  1.00  0.00    -0.025 A 
ATOM      4  C   UNL     1       5.837  52.618  18.418  1.00  0.00     0.012 A 
ATOM      5  C   UNL     1       4.735  53.185  17.769  1.00  0.00     0.047 A 
ATOM      6  C   UNL     1       3.970  54.166  18.405  1.00  0.00     0.115 A 
ATOM      7  C   UNL     1       5.413  54.019  20.349  1.00  0.00     0.012 A 
ATOM      8  C   UNL     1       4.313  54.584  19.696  1.00  0.00     0.047 A 
BRANCH   6   9
ATOM      9  O   UNL     1       2.875  54.721  17.745  1.00  0.00    -0.508 OA
ATOM     10  H   UNL     1       2.600  55.684  17.895  1.00  0.00     0.293 HD
ENDBRANCH   6   9
ENDBRANCH   1   3
BRANCH   2  11
ATOM     11  C   UNL     1       9.291  52.590  21.967  1.00  0.00     0.189 C 
ATOM     12  O   UNL     1       9.230  52.345  23.203  1.00  0.00    -0.289 OA
BRANCH  11  13
ATOM     13  C   UNL     1      10.544  52.310  21.232  1.00  0.00     0.064 A 
ATOM     14  C   UNL     1      11.368  51.202  21.548  1.00  0.00     0.130 A 
ATOM     15  C   UNL     1      10.951  53.193  20.214  1.00  0.00     0.020 A 
ATOM     16  C   UNL     1      12.581  51.022  20.872  1.00  0.00     0.093 A 
ATOM     17  C   UNL     1      12.156  52.994  19.538  1.00  0.00     0.047 A 
ATOM     18  C   UNL     1      12.976  51.914  19.867  1.00  0.00     0.119 A 
BRANCH  14  19
ATOM     19  O   UNL     1      11.002  50.249  22.502  1.00  0.00    -0.507 OA
ATOM     20  H   UNL     1      11.643  49.558  22.868  1.00  0.00     0.293 HD
ENDBRANCH  14  19
BRANCH  18  21
ATOM     21  O   UNL     1      14.180  51.732  19.189  1.00  0.00    -0.508 OA
ATOM     22  H   UNL     1      14.207  51.349  18.252  1.00  0.00     0.293 HD
ENDBRANCH  18  21
ENDBRANCH  11  13
ENDBRANCH   2  11
TORSDOF 6
ENDMDL
MODEL 8
REMARK VINA RESULT:    -5.544      3.905      7.604
REMARK INTER + INTRA:          -7.617
REMARK INTER:                  -6.979
REMARK INTRA:                  -0.638
REMARK UNBOUND:                -0.614
REMARK SMILES O=C(C=Cc1ccc(O)cc1)c1ccc(O)cc1O
REMARK SMILES IDX 4 1 3 2 5 3 6 4 7 5 8 6 11 7 10 8 9 9 2 11 1 12 12 13 18 14
REMARK SMILES IDX 13 15 17 16 14 17 15 18 19 19 16 21
REMARK H PARENT 9 10 19 20 16 22
REMARK Flexibility Score: inf
ROOT
ATOM      1  C   UNL     1      12.044  51.589  18.506  1.00  0.00     0.012 C 
ATOM      2  C   UNL     1      11.514  50.934  19.549  1.00  0.00     0.053 C 
ENDROOT
BRANCH   1   3
ATOM      3  C   UNL     1      11.603  51.394  17.102  1.00  0.00    -0.025 A 
ATOM      4  C   UNL     1      10.834  52.352  16.409  1.00  0.00     0.012 A 
ATOM      5  C   UNL     1      10.433  52.116  15.089  1.00  0.00     0.047 A 
ATOM      6  C   UNL     1      10.782  50.925  14.448  1.00  0.00     0.115 A 
ATOM      7  C   UNL     1      11.935  50.193  16.452  1.00  0.00     0.012 A 
ATOM      8  C   UNL     1      11.532  49.962  15.134  1.00  0.00     0.047 A 
BRANCH   6   9
ATOM      9  O   UNL     1      10.375  50.706  13.133  1.00  0.00    -0.508 OA
ATOM     10  H   UNL     1      10.902  51.070  12.349  1.00  0.00     0.293 HD
ENDBRANCH   6   9
ENDBRANCH   1   3
BRANCH   2  11
ATOM     11  C   UNL     1      11.969  51.165  20.936  1.00  0.00     0.189 C 
ATOM     12  O   UNL     1      13.202  51.198  21.202  1.00  0.00    -0.289 OA
BRANCH  11  13
ATOM     13  C   UNL     1      10.985  51.325  22.030  1.00  0.00     0.064 A 
ATOM     14  C   UNL     1      10.945  50.443  23.137  1.00  0.00     0.130 A 
ATOM     15  C   UNL     1      10.036  52.361  21.949  1.00  0.00     0.020 A 
ATOM     16  C   UNL     1       9.948  50.593  24.110  1.00  0.00     0.093 A 
ATOM     17  C   UNL     1       9.056  52.509  22.932  1.00  0.00     0.047 A 
ATOM     18  C   UNL     1       9.006  51.625  24.011  1.00  0.00     0.119 A 
BRANCH  14  19
ATOM     19  O   UNL     1      11.889  49.431  23.320  1.00  0.00    -0.507 OA
ATOM     20  H   UNL     1      12.628  49.236  22.657  1.00  0.00     0.293 HD
ENDBRANCH  14  19
BRANCH  18  21
ATOM     21  O   UNL     1       8.017  51.779  24.981  1.00  0.00    -0.508 OA
ATOM     22  H   UNL     1       7.044  51.912  24.729  1.00  0.00     0.293 HD
ENDBRANCH  18  21
ENDBRANCH  11  13
ENDBRANCH   2  11
TORSDOF 6
ENDMDL
