MODEL 1
REMARK VINA RESULT:    -7.886      0.000      0.000
REMARK INTER + INTRA:          -8.481
REMARK INTER:                  -8.577
REMARK INTRA:                   0.096
REMARK UNBOUND:                 0.096
REMARK SMILES C[C@@H]1[C@@H](C)CC[C@@]2(C(=O)[O-])CC[C@]3(C)C(=CC[C@H]4[C@]5(C)CC[C@H](O)C(C)(C)[C@@H]5CC[C@@]43C)[C@@H]12
REMARK SMILES IDX 7 1 6 2 11 3 33 4 5 5 12 6 15 7 2 8 3 9 13 10 16 11 1 12
REMARK SMILES IDX 4 13 14 14 31 15 17 16 18 17 30 18 32 19 19 20 29 21 28 22
REMARK SMILES IDX 21 23 20 24 25 25 22 26 23 27 26 28 27 29 8 30 9 31 10 32
REMARK SMILES IDX 24 33
REMARK H PARENT 24 34
REMARK Flexibility Score: inf
ROOT
ATOM      1  C   UNL     1     -16.976 -53.092 112.376  1.00  0.00     0.017 C 
ATOM      2  C   UNL     1     -18.154 -52.136 112.039  1.00  0.00     0.014 C 
ATOM      3  C   UNL     1     -15.883 -52.944 111.275  1.00  0.00     0.014 C 
ATOM      4  C   UNL     1     -16.447 -52.759 113.830  1.00  0.00     0.030 C 
ATOM      5  C   UNL     1     -19.329 -52.292 113.010  1.00  0.00     0.004 C 
ATOM      6  C   UNL     1     -14.983 -51.709 111.403  1.00  0.00     0.013 C 
ATOM      7  C   UNL     1     -15.493 -51.529 113.817  1.00  0.00    -0.063 C 
ATOM      8  C   UNL     1     -17.619 -52.744 114.904  1.00  0.00    -0.003 C 
ATOM      9  C   UNL     1     -18.929 -51.997 114.464  1.00  0.00    -0.011 C 
ATOM     10  C   UNL     1     -14.312 -51.558 112.810  1.00  0.00    -0.006 C 
ATOM     11  C   UNL     1     -15.714 -50.438 114.599  1.00  0.00    -0.027 C 
ATOM     12  C   UNL     1     -17.982 -54.170 115.373  1.00  0.00     0.008 C 
ATOM     13  C   UNL     1     -18.925 -50.483 114.730  1.00  0.00     0.008 C 
ATOM     14  C   UNL     1     -13.433 -52.822 113.093  1.00  0.00     0.017 C 
ATOM     15  C   UNL     1     -13.378 -50.234 112.912  1.00  0.00    -0.020 C 
ATOM     16  C   UNL     1     -15.070 -49.090 114.418  1.00  0.00     0.032 C 
ATOM     17  C   UNL     1     -14.321 -48.985 113.078  1.00  0.00     0.006 C 
ATOM     18  C   UNL     1     -12.448 -50.072 111.659  1.00  0.00     0.008 C 
ATOM     19  C   UNL     1     -12.426 -50.343 114.152  1.00  0.00     0.012 C 
ATOM     20  C   UNL     1     -13.779 -47.516 112.702  1.00  0.00    -0.025 C 
ATOM     21  C   UNL     1     -12.842 -48.916 110.737  1.00  0.00     0.005 C 
ATOM     22  C   UNL     1     -12.711 -47.574 111.509  1.00  0.00     0.003 C 
ATOM     23  C   UNL     1     -15.042 -46.671 112.304  1.00  0.00     0.010 C 
ATOM     24  C   UNL     1     -13.135 -46.829 113.945  1.00  0.00     0.012 C 
ATOM     25  C   UNL     1     -12.592 -46.280 110.567  1.00  0.00    -0.006 C 
ATOM     26  C   UNL     1     -14.752 -45.366 111.572  1.00  0.00     0.033 C 
ATOM     27  C   UNL     1     -13.976 -45.631 110.284  1.00  0.00     0.120 C 
ATOM     28  C   UNL     1     -11.647 -45.224 111.214  1.00  0.00     0.014 C 
ATOM     29  C   UNL     1     -11.923 -46.595 109.197  1.00  0.00     0.014 C 
ENDROOT
BRANCH   1  30
ATOM     30  C   UNL     1     -17.420 -54.549 112.273  1.00  0.00     0.048 C 
ATOM     31  O   UNL     1     -18.468 -54.861 111.645  1.00  0.00    -0.550 OA
ATOM     32  O   UNL     1     -16.590 -55.568 112.729  1.00  0.00    -0.550 OA
ENDBRANCH   1  30
BRANCH  27  33
ATOM     33  O   UNL     1     -14.754 -46.457 109.448  1.00  0.00    -0.393 OA
ATOM     34  H   UNL     1     -15.301 -47.045 110.032  1.00  0.00     0.210 HD
ENDBRANCH  27  33
TORSDOF 2
ENDMDL
MODEL 2
REMARK VINA RESULT:    -7.644      7.350     11.519
REMARK INTER + INTRA:          -8.218
REMARK INTER:                  -8.313
REMARK INTRA:                   0.094
REMARK UNBOUND:                 0.096
REMARK SMILES C[C@@H]1[C@@H](C)CC[C@@]2(C(=O)[O-])CC[C@]3(C)C(=CC[C@H]4[C@]5(C)CC[C@H](O)C(C)(C)[C@@H]5CC[C@@]43C)[C@@H]12
REMARK SMILES IDX 7 1 6 2 11 3 33 4 5 5 12 6 15 7 2 8 3 9 13 10 16 11 1 12
REMARK SMILES IDX 4 13 14 14 31 15 17 16 18 17 30 18 32 19 19 20 29 21 28 22
REMARK SMILES IDX 21 23 20 24 25 25 22 26 23 27 26 28 27 29 8 30 9 31 10 32
REMARK SMILES IDX 24 33
REMARK H PARENT 24 34
REMARK Flexibility Score: inf
ROOT
ATOM      1  C   UNL     1     -14.517 -43.546 107.224  1.00  0.00     0.017 C 
ATOM      2  C   UNL     1     -13.852 -44.616 106.315  1.00  0.00     0.014 C 
ATOM      3  C   UNL     1     -14.928 -42.328 106.343  1.00  0.00     0.014 C 
ATOM      4  C   UNL     1     -15.737 -44.207 107.985  1.00  0.00     0.030 C 
ATOM      5  C   UNL     1     -13.314 -45.808 107.113  1.00  0.00     0.004 C 
ATOM      6  C   UNL     1     -16.216 -42.509 105.530  1.00  0.00     0.013 C 
ATOM      7  C   UNL     1     -17.000 -44.273 107.077  1.00  0.00    -0.063 C 
ATOM      8  C   UNL     1     -15.321 -45.548 108.731  1.00  0.00    -0.003 C 
ATOM      9  C   UNL     1     -14.417 -46.530 107.902  1.00  0.00    -0.011 C 
ATOM     10  C   UNL     1     -17.448 -42.956 106.387  1.00  0.00    -0.006 C 
ATOM     11  C   UNL     1     -17.652 -45.443 106.834  1.00  0.00    -0.027 C 
ATOM     12  C   UNL     1     -14.644 -45.259 110.088  1.00  0.00     0.008 C 
ATOM     13  C   UNL     1     -15.189 -47.501 106.994  1.00  0.00     0.008 C 
ATOM     14  C   UNL     1     -17.723 -41.875 107.485  1.00  0.00     0.017 C 
ATOM     15  C   UNL     1     -18.789 -43.150 105.492  1.00  0.00    -0.020 C 
ATOM     16  C   UNL     1     -18.646 -45.673 105.729  1.00  0.00     0.032 C 
ATOM     17  C   UNL     1     -18.662 -44.514 104.716  1.00  0.00     0.006 C 
ATOM     18  C   UNL     1     -19.009 -41.958 104.498  1.00  0.00     0.008 C 
ATOM     19  C   UNL     1     -20.052 -43.186 106.418  1.00  0.00     0.012 C 
ATOM     20  C   UNL     1     -19.540 -44.766 103.391  1.00  0.00    -0.025 C 
ATOM     21  C   UNL     1     -18.773 -42.320 103.029  1.00  0.00     0.005 C 
ATOM     22  C   UNL     1     -19.802 -43.401 102.594  1.00  0.00     0.003 C 
ATOM     23  C   UNL     1     -18.734 -45.795 102.520  1.00  0.00     0.010 C 
ATOM     24  C   UNL     1     -20.904 -45.431 103.748  1.00  0.00     0.012 C 
ATOM     25  C   UNL     1     -20.016 -43.506 101.007  1.00  0.00    -0.006 C 
ATOM     26  C   UNL     1     -19.182 -45.916 101.068  1.00  0.00     0.033 C 
ATOM     27  C   UNL     1     -19.083 -44.568 100.359  1.00  0.00     0.120 C 
ATOM     28  C   UNL     1     -21.500 -43.850 100.682  1.00  0.00     0.014 C 
ATOM     29  C   UNL     1     -19.775 -42.152 100.278  1.00  0.00     0.014 C 
ENDROOT
BRANCH   1  30
ATOM     30  C   UNL     1     -13.501 -42.972 108.209  1.00  0.00     0.048 C 
ATOM     31  O   UNL     1     -12.264 -43.124 108.022  1.00  0.00    -0.550 OA
ATOM     32  O   UNL     1     -13.919 -42.134 109.238  1.00  0.00    -0.550 OA
ENDBRANCH   1  30
BRANCH  27  33
ATOM     33  O   UNL     1     -17.742 -44.138 100.385  1.00  0.00    -0.393 OA
ATOM     34  H   UNL     1     -17.166 -44.946 100.343  1.00  0.00     0.210 HD
ENDBRANCH  27  33
TORSDOF 2
ENDMDL
MODEL 3
REMARK VINA RESULT:    -7.249      1.945      7.753
REMARK INTER + INTRA:          -7.789
REMARK INTER:                  -7.885
REMARK INTRA:                   0.096
REMARK UNBOUND:                 0.096
REMARK SMILES C[C@@H]1[C@@H](C)CC[C@@]2(C(=O)[O-])CC[C@]3(C)C(=CC[C@H]4[C@]5(C)CC[C@H](O)C(C)(C)[C@@H]5CC[C@@]43C)[C@@H]12
REMARK SMILES IDX 7 1 6 2 11 3 33 4 5 5 12 6 15 7 2 8 3 9 13 10 16 11 1 12
REMARK SMILES IDX 4 13 14 14 31 15 17 16 18 17 30 18 32 19 19 20 29 21 28 22
REMARK SMILES IDX 21 23 20 24 25 25 22 26 23 27 26 28 27 29 8 30 9 31 10 32
REMARK SMILES IDX 24 33
REMARK H PARENT 24 34
REMARK Flexibility Score: inf
ROOT
ATOM      1  C   UNL     1     -13.750 -45.524 111.221  1.00  0.00     0.017 C 
ATOM      2  C   UNL     1     -15.042 -45.464 110.360  1.00  0.00     0.014 C 
ATOM      3  C   UNL     1     -14.154 -45.688 112.717  1.00  0.00     0.014 C 
ATOM      4  C   UNL     1     -12.835 -46.701 110.689  1.00  0.00     0.030 C 
ATOM      5  C   UNL     1     -14.747 -45.194 108.881  1.00  0.00     0.004 C 
ATOM      6  C   UNL     1     -14.560 -47.105 113.138  1.00  0.00     0.013 C 
ATOM      7  C   UNL     1     -13.309 -48.078 111.240  1.00  0.00    -0.063 C 
ATOM      8  C   UNL     1     -12.585 -46.604 109.121  1.00  0.00    -0.003 C 
ATOM      9  C   UNL     1     -13.855 -46.278 108.255  1.00  0.00    -0.011 C 
ATOM     10  C   UNL     1     -13.501 -48.201 112.775  1.00  0.00    -0.006 C 
ATOM     11  C   UNL     1     -13.612 -49.117 110.414  1.00  0.00    -0.027 C 
ATOM     12  C   UNL     1     -11.467 -45.594 108.783  1.00  0.00     0.008 C 
ATOM     13  C   UNL     1     -14.690 -47.504 107.852  1.00  0.00     0.008 C 
ATOM     14  C   UNL     1     -12.150 -47.858 113.486  1.00  0.00     0.017 C 
ATOM     15  C   UNL     1     -13.970 -49.689 113.224  1.00  0.00    -0.020 C 
ATOM     16  C   UNL     1     -14.387 -50.345 110.808  1.00  0.00     0.032 C 
ATOM     17  C   UNL     1     -15.046 -50.192 112.190  1.00  0.00     0.006 C 
ATOM     18  C   UNL     1     -14.543 -49.709 114.683  1.00  0.00     0.008 C 
ATOM     19  C   UNL     1     -12.743 -50.662 113.222  1.00  0.00     0.012 C 
ATOM     20  C   UNL     1     -16.066 -51.367 112.604  1.00  0.00    -0.025 C 
ATOM     21  C   UNL     1     -16.056 -49.929 114.756  1.00  0.00     0.005 C 
ATOM     22  C   UNL     1     -16.402 -51.325 114.170  1.00  0.00     0.003 C 
ATOM     23  C   UNL     1     -17.355 -51.155 111.733  1.00  0.00     0.010 C 
ATOM     24  C   UNL     1     -15.481 -52.764 112.234  1.00  0.00     0.012 C 
ATOM     25  C   UNL     1     -17.829 -51.898 114.630  1.00  0.00    -0.006 C 
ATOM     26  C   UNL     1     -18.591 -51.919 112.196  1.00  0.00     0.033 C 
ATOM     27  C   UNL     1     -18.959 -51.534 113.626  1.00  0.00     0.120 C 
ATOM     28  C   UNL     1     -17.763 -53.445 114.799  1.00  0.00     0.014 C 
ATOM     29  C   UNL     1     -18.256 -51.384 116.036  1.00  0.00     0.014 C 
ENDROOT
BRANCH   1  30
ATOM     30  C   UNL     1     -13.011 -44.189 111.173  1.00  0.00     0.048 C 
ATOM     31  O   UNL     1     -13.583 -43.149 110.748  1.00  0.00    -0.550 OA
ATOM     32  O   UNL     1     -11.751 -44.065 111.751  1.00  0.00    -0.550 OA
ENDBRANCH   1  30
BRANCH  27  33
ATOM     33  O   UNL     1     -19.238 -50.153 113.667  1.00  0.00    -0.393 OA
ATOM     34  H   UNL     1     -19.562 -49.939 114.581  1.00  0.00     0.210 HD
ENDBRANCH  27  33
TORSDOF 2
ENDMDL
MODEL 4
REMARK VINA RESULT:    -7.213      7.638     11.273
REMARK INTER + INTRA:          -7.750
REMARK INTER:                  -7.844
REMARK INTRA:                   0.094
REMARK UNBOUND:                 0.096
REMARK SMILES C[C@@H]1[C@@H](C)CC[C@@]2(C(=O)[O-])CC[C@]3(C)C(=CC[C@H]4[C@]5(C)CC[C@H](O)C(C)(C)[C@@H]5CC[C@@]43C)[C@@H]12
REMARK SMILES IDX 7 1 6 2 11 3 33 4 5 5 12 6 15 7 2 8 3 9 13 10 16 11 1 12
REMARK SMILES IDX 4 13 14 14 31 15 17 16 18 17 30 18 32 19 19 20 29 21 28 22
REMARK SMILES IDX 21 23 20 24 25 25 22 26 23 27 26 28 27 29 8 30 9 31 10 32
REMARK SMILES IDX 24 33
REMARK H PARENT 24 34
REMARK Flexibility Score: inf
ROOT
ATOM      1  C   UNL     1     -13.323 -44.863 105.802  1.00  0.00     0.017 C 
ATOM      2  C   UNL     1     -12.826 -45.436 104.446  1.00  0.00     0.014 C 
ATOM      3  C   UNL     1     -14.275 -43.663 105.518  1.00  0.00     0.014 C 
ATOM      4  C   UNL     1     -14.013 -46.025 106.628  1.00  0.00     0.030 C 
ATOM      5  C   UNL     1     -11.795 -46.555 104.628  1.00  0.00     0.004 C 
ATOM      6  C   UNL     1     -15.702 -44.039 105.097  1.00  0.00     0.013 C 
ATOM      7  C   UNL     1     -15.475 -46.265 106.152  1.00  0.00    -0.063 C 
ATOM      8  C   UNL     1     -13.079 -47.306 106.750  1.00  0.00    -0.003 C 
ATOM      9  C   UNL     1     -12.355 -47.743 105.426  1.00  0.00    -0.011 C 
ATOM     10  C   UNL     1     -16.411 -45.029 106.082  1.00  0.00    -0.006 C 
ATOM     11  C   UNL     1     -15.907 -47.489 105.744  1.00  0.00    -0.027 C 
ATOM     12  C   UNL     1     -12.031 -47.144 107.872  1.00  0.00     0.008 C 
ATOM     13  C   UNL     1     -13.180 -48.668 104.517  1.00  0.00     0.008 C 
ATOM     14  C   UNL     1     -16.488 -44.369 107.499  1.00  0.00     0.017 C 
ATOM     15  C   UNL     1     -17.912 -45.414 105.599  1.00  0.00    -0.020 C 
ATOM     16  C   UNL     1     -17.164 -47.754 104.960  1.00  0.00     0.032 C 
ATOM     17  C   UNL     1     -17.793 -46.455 104.424  1.00  0.00     0.006 C 
ATOM     18  C   UNL     1     -18.727 -44.152 105.148  1.00  0.00     0.008 C 
ATOM     19  C   UNL     1     -18.712 -46.050 106.786  1.00  0.00     0.012 C 
ATOM     20  C   UNL     1     -19.019 -46.652 103.400  1.00  0.00    -0.025 C 
ATOM     21  C   UNL     1     -18.973 -44.076 103.639  1.00  0.00     0.005 C 
ATOM     22  C   UNL     1     -19.836 -45.289 103.196  1.00  0.00     0.003 C 
ATOM     23  C   UNL     1     -18.389 -47.153 102.051  1.00  0.00     0.010 C 
ATOM     24  C   UNL     1     -19.985 -47.768 103.902  1.00  0.00     0.012 C 
ATOM     25  C   UNL     1     -20.587 -45.086 101.793  1.00  0.00    -0.006 C 
ATOM     26  C   UNL     1     -19.299 -47.068 100.832  1.00  0.00     0.033 C 
ATOM     27  C   UNL     1     -19.754 -45.630 100.597  1.00  0.00     0.120 C 
ATOM     28  C   UNL     1     -21.978 -45.786 101.816  1.00  0.00     0.014 C 
ATOM     29  C   UNL     1     -20.921 -43.594 101.501  1.00  0.00     0.014 C 
ENDROOT
BRANCH   1  30
ATOM     30  C   UNL     1     -12.164 -44.248 106.582  1.00  0.00     0.048 C 
ATOM     31  O   UNL     1     -11.075 -43.972 106.010  1.00  0.00    -0.550 OA
ATOM     32  O   UNL     1     -12.348 -43.830 107.897  1.00  0.00    -0.550 OA
ENDBRANCH   1  30
BRANCH  27  33
ATOM     33  O   UNL     1     -18.619 -44.826 100.372  1.00  0.00    -0.393 OA
ATOM     34  H   UNL     1     -18.866 -44.138  99.699  1.00  0.00     0.210 HD
ENDBRANCH  27  33
TORSDOF 2
ENDMDL
MODEL 5
REMARK VINA RESULT:    -7.209      7.043     11.077
REMARK INTER + INTRA:          -7.746
REMARK INTER:                  -7.842
REMARK INTRA:                   0.096
REMARK UNBOUND:                 0.096
REMARK SMILES C[C@@H]1[C@@H](C)CC[C@@]2(C(=O)[O-])CC[C@]3(C)C(=CC[C@H]4[C@]5(C)CC[C@H](O)C(C)(C)[C@@H]5CC[C@@]43C)[C@@H]12
REMARK SMILES IDX 7 1 6 2 11 3 33 4 5 5 12 6 15 7 2 8 3 9 13 10 16 11 1 12
REMARK SMILES IDX 4 13 14 14 31 15 17 16 18 17 30 18 32 19 19 20 29 21 28 22
REMARK SMILES IDX 21 23 20 24 25 25 22 26 23 27 26 28 27 29 8 30 9 31 10 32
REMARK SMILES IDX 24 33
REMARK H PARENT 24 34
REMARK Flexibility Score: inf
ROOT
ATOM      1  C   UNL     1     -14.226 -44.331 107.022  1.00  0.00     0.017 C 
ATOM      2  C   UNL     1     -13.990 -45.847 106.778  1.00  0.00     0.014 C 
ATOM      3  C   UNL     1     -14.382 -43.622 105.643  1.00  0.00     0.014 C 
ATOM      4  C   UNL     1     -15.489 -44.154 107.961  1.00  0.00     0.030 C 
ATOM      5  C   UNL     1     -13.716 -46.612 108.077  1.00  0.00     0.004 C 
ATOM      6  C   UNL     1     -15.753 -43.779 104.973  1.00  0.00     0.013 C 
ATOM      7  C   UNL     1     -16.815 -44.268 107.153  1.00  0.00    -0.063 C 
ATOM      8  C   UNL     1     -15.378 -45.031 109.283  1.00  0.00    -0.003 C 
ATOM      9  C   UNL     1     -14.880 -46.506 109.075  1.00  0.00    -0.011 C 
ATOM     10  C   UNL     1     -16.956 -43.375 105.892  1.00  0.00    -0.006 C 
ATOM     11  C   UNL     1     -17.787 -45.159 107.488  1.00  0.00    -0.027 C 
ATOM     12  C   UNL     1     -14.498 -44.344 110.351  1.00  0.00     0.008 C 
ATOM     13  C   UNL     1     -15.986 -47.515 108.729  1.00  0.00     0.008 C 
ATOM     14  C   UNL     1     -16.796 -41.875 106.310  1.00  0.00     0.017 C 
ATOM     15  C   UNL     1     -18.390 -43.566 105.155  1.00  0.00    -0.020 C 
ATOM     16  C   UNL     1     -18.924 -45.583 106.599  1.00  0.00     0.032 C 
ATOM     17  C   UNL     1     -18.733 -45.102 105.150  1.00  0.00     0.006 C 
ATOM     18  C   UNL     1     -18.382 -42.989 103.696  1.00  0.00     0.008 C 
ATOM     19  C   UNL     1     -19.501 -42.781 105.930  1.00  0.00     0.012 C 
ATOM     20  C   UNL     1     -19.790 -45.683 104.083  1.00  0.00    -0.025 C 
ATOM     21  C   UNL     1     -18.423 -44.059 102.603  1.00  0.00     0.005 C 
ATOM     22  C   UNL     1     -19.752 -44.856 102.711  1.00  0.00     0.003 C 
ATOM     23  C   UNL     1     -19.403 -47.189 103.858  1.00  0.00     0.010 C 
ATOM     24  C   UNL     1     -21.235 -45.660 104.667  1.00  0.00     0.012 C 
ATOM     25  C   UNL     1     -20.164 -45.637 101.372  1.00  0.00    -0.006 C 
ATOM     26  C   UNL     1     -20.027 -47.850 102.634  1.00  0.00     0.033 C 
ATOM     27  C   UNL     1     -19.641 -47.101 101.361  1.00  0.00     0.120 C 
ATOM     28  C   UNL     1     -21.712 -45.638 101.199  1.00  0.00     0.014 C 
ATOM     29  C   UNL     1     -19.643 -44.935 100.084  1.00  0.00     0.014 C 
ENDROOT
BRANCH   1  30
ATOM     30  C   UNL     1     -12.988 -43.686 107.639  1.00  0.00     0.048 C 
ATOM     31  O   UNL     1     -11.866 -44.259 107.582  1.00  0.00    -0.550 OA
ATOM     32  O   UNL     1     -13.045 -42.385 108.128  1.00  0.00    -0.550 OA
ENDBRANCH   1  30
BRANCH  27  33
ATOM     33  O   UNL     1     -18.238 -47.130 101.226  1.00  0.00    -0.393 OA
ATOM     34  H   UNL     1     -17.974 -46.349 100.671  1.00  0.00     0.210 HD
ENDBRANCH  27  33
TORSDOF 2
ENDMDL
MODEL 6
REMARK VINA RESULT:    -7.168      7.910     11.253
REMARK INTER + INTRA:          -7.700
REMARK INTER:                  -7.802
REMARK INTRA:                   0.102
REMARK UNBOUND:                 0.096
REMARK SMILES C[C@@H]1[C@@H](C)CC[C@@]2(C(=O)[O-])CC[C@]3(C)C(=CC[C@H]4[C@]5(C)CC[C@H](O)C(C)(C)[C@@H]5CC[C@@]43C)[C@@H]12
REMARK SMILES IDX 7 1 6 2 11 3 33 4 5 5 12 6 15 7 2 8 3 9 13 10 16 11 1 12
REMARK SMILES IDX 4 13 14 14 31 15 17 16 18 17 30 18 32 19 19 20 29 21 28 22
REMARK SMILES IDX 21 23 20 24 25 25 22 26 23 27 26 28 27 29 8 30 9 31 10 32
REMARK SMILES IDX 24 33
REMARK H PARENT 24 34
REMARK Flexibility Score: inf
ROOT
ATOM      1  C   UNL     1     -19.905 -46.282 102.201  1.00  0.00     0.017 C 
ATOM      2  C   UNL     1     -18.983 -46.407 100.956  1.00  0.00     0.014 C 
ATOM      3  C   UNL     1     -19.508 -47.382 103.229  1.00  0.00     0.014 C 
ATOM      4  C   UNL     1     -19.786 -44.813 102.780  1.00  0.00     0.030 C 
ATOM      5  C   UNL     1     -19.371 -45.432  99.840  1.00  0.00     0.004 C 
ATOM      6  C   UNL     1     -18.257 -47.082 104.065  1.00  0.00     0.013 C 
ATOM      7  C   UNL     1     -18.514 -44.656 103.663  1.00  0.00    -0.063 C 
ATOM      8  C   UNL     1     -20.024 -43.708 101.662  1.00  0.00    -0.003 C 
ATOM      9  C   UNL     1     -19.298 -43.965 100.293  1.00  0.00    -0.011 C 
ATOM     10  C   UNL     1     -18.301 -45.697 104.794  1.00  0.00    -0.006 C 
ATOM     11  C   UNL     1     -17.584 -43.692 103.419  1.00  0.00    -0.027 C 
ATOM     12  C   UNL     1     -21.528 -43.474 101.402  1.00  0.00     0.008 C 
ATOM     13  C   UNL     1     -17.852 -43.447 100.226  1.00  0.00     0.008 C 
ATOM     14  C   UNL     1     -19.536 -45.666 105.754  1.00  0.00     0.017 C 
ATOM     15  C   UNL     1     -16.956 -45.408 105.657  1.00  0.00    -0.020 C 
ATOM     16  C   UNL     1     -16.188 -43.667 103.978  1.00  0.00     0.032 C 
ATOM     17  C   UNL     1     -15.813 -44.998 104.655  1.00  0.00     0.006 C 
ATOM     18  C   UNL     1     -16.530 -46.651 106.514  1.00  0.00     0.008 C 
ATOM     19  C   UNL     1     -17.209 -44.243 106.672  1.00  0.00     0.012 C 
ATOM     20  C   UNL     1     -14.272 -45.141 105.096  1.00  0.00    -0.025 C 
ATOM     21  C   UNL     1     -15.263 -47.348 106.012  1.00  0.00     0.005 C 
ATOM     22  C   UNL     1     -14.063 -46.366 106.106  1.00  0.00     0.003 C 
ATOM     23  C   UNL     1     -13.453 -45.341 103.770  1.00  0.00     0.010 C 
ATOM     24  C   UNL     1     -13.762 -43.825 105.759  1.00  0.00     0.012 C 
ATOM     25  C   UNL     1     -12.626 -47.080 106.107  1.00  0.00    -0.006 C 
ATOM     26  C   UNL     1     -12.029 -45.854 103.951  1.00  0.00     0.033 C 
ATOM     27  C   UNL     1     -12.027 -47.196 104.677  1.00  0.00     0.120 C 
ATOM     28  C   UNL     1     -11.635 -46.301 107.023  1.00  0.00     0.014 C 
ATOM     29  C   UNL     1     -12.666 -48.508 106.725  1.00  0.00     0.014 C 
ENDROOT
BRANCH   1  30
ATOM     30  C   UNL     1     -21.350 -46.612 101.834  1.00  0.00     0.048 C 
ATOM     31  O   UNL     1     -21.626 -47.169 100.737  1.00  0.00    -0.550 OA
ATOM     32  O   UNL     1     -22.365 -46.454 102.772  1.00  0.00    -0.550 OA
ENDBRANCH   1  30
BRANCH  27  33
ATOM     33  O   UNL     1     -12.750 -48.130 103.907  1.00  0.00    -0.393 OA
ATOM     34  H   UNL     1     -13.689 -48.124 104.232  1.00  0.00     0.210 HD
ENDBRANCH  27  33
TORSDOF 2
ENDMDL
MODEL 7
REMARK VINA RESULT:    -7.120      8.061     11.636
REMARK INTER + INTRA:          -7.648
REMARK INTER:                  -7.832
REMARK INTRA:                   0.184
REMARK UNBOUND:                 0.096
REMARK SMILES C[C@@H]1[C@@H](C)CC[C@@]2(C(=O)[O-])CC[C@]3(C)C(=CC[C@H]4[C@]5(C)CC[C@H](O)C(C)(C)[C@@H]5CC[C@@]43C)[C@@H]12
REMARK SMILES IDX 7 1 6 2 11 3 33 4 5 5 12 6 15 7 2 8 3 9 13 10 16 11 1 12
REMARK SMILES IDX 4 13 14 14 31 15 17 16 18 17 30 18 32 19 19 20 29 21 28 22
REMARK SMILES IDX 21 23 20 24 25 25 22 26 23 27 26 28 27 29 8 30 9 31 10 32
REMARK SMILES IDX 24 33
REMARK H PARENT 24 34
REMARK Flexibility Score: inf
ROOT
ATOM      1  C   UNL     1     -20.230 -45.512 102.344  1.00  0.00     0.017 C 
ATOM      2  C   UNL     1     -19.054 -45.849 101.386  1.00  0.00     0.014 C 
ATOM      3  C   UNL     1     -20.056 -46.332 103.657  1.00  0.00     0.014 C 
ATOM      4  C   UNL     1     -20.262 -43.947 102.584  1.00  0.00     0.030 C 
ATOM      5  C   UNL     1     -19.198 -45.169 100.020  1.00  0.00     0.004 C 
ATOM      6  C   UNL     1     -19.026 -45.776 104.648  1.00  0.00     0.013 C 
ATOM      7  C   UNL     1     -19.219 -43.519 103.657  1.00  0.00    -0.063 C 
ATOM      8  C   UNL     1     -20.261 -43.132 101.218  1.00  0.00    -0.003 C 
ATOM      9  C   UNL     1     -19.246 -43.637 100.131  1.00  0.00    -0.011 C 
ATOM     10  C   UNL     1     -19.248 -44.270 105.015  1.00  0.00    -0.006 C 
ATOM     11  C   UNL     1     -18.271 -42.576 103.403  1.00  0.00    -0.027 C 
ATOM     12  C   UNL     1     -21.673 -43.057 100.598  1.00  0.00     0.008 C 
ATOM     13  C   UNL     1     -17.829 -43.057 100.257  1.00  0.00     0.008 C 
ATOM     14  C   UNL     1     -20.666 -44.107 105.657  1.00  0.00     0.017 C 
ATOM     15  C   UNL     1     -18.132 -43.714 106.055  1.00  0.00    -0.020 C 
ATOM     16  C   UNL     1     -17.034 -42.340 104.226  1.00  0.00     0.032 C 
ATOM     17  C   UNL     1     -16.802 -43.463 105.252  1.00  0.00     0.006 C 
ATOM     18  C   UNL     1     -17.890 -44.708 107.244  1.00  0.00     0.008 C 
ATOM     19  C   UNL     1     -18.620 -42.372 106.699  1.00  0.00     0.012 C 
ATOM     20  C   UNL     1     -15.394 -43.408 106.032  1.00  0.00    -0.025 C 
ATOM     21  C   UNL     1     -16.535 -45.418 107.196  1.00  0.00     0.005 C 
ATOM     22  C   UNL     1     -15.398 -44.365 107.316  1.00  0.00     0.003 C 
ATOM     23  C   UNL     1     -14.300 -43.843 104.992  1.00  0.00     0.010 C 
ATOM     24  C   UNL     1     -15.062 -41.949 106.470  1.00  0.00     0.012 C 
ATOM     25  C   UNL     1     -13.988 -44.969 107.786  1.00  0.00    -0.006 C 
ATOM     26  C   UNL     1     -12.944 -44.211 105.585  1.00  0.00     0.033 C 
ATOM     27  C   UNL     1     -13.085 -45.359 106.581  1.00  0.00     0.120 C 
ATOM     28  C   UNL     1     -13.235 -43.946 108.689  1.00  0.00     0.014 C 
ATOM     29  C   UNL     1     -14.145 -46.225 108.691  1.00  0.00     0.014 C 
ENDROOT
BRANCH   1  30
ATOM     30  C   UNL     1     -21.553 -46.006 101.763  1.00  0.00     0.048 C 
ATOM     31  O   UNL     1     -21.586 -46.612 100.658  1.00  0.00    -0.550 OA
ATOM     32  O   UNL     1     -22.718 -45.939 102.520  1.00  0.00    -0.550 OA
ENDBRANCH   1  30
BRANCH  27  33
ATOM     33  O   UNL     1     -13.607 -46.482 105.910  1.00  0.00    -0.393 OA
ATOM     34  H   UNL     1     -14.265 -46.916 106.515  1.00  0.00     0.210 HD
ENDBRANCH  27  33
TORSDOF 2
ENDMDL
MODEL 8
REMARK VINA RESULT:    -6.724      6.110      9.169
REMARK INTER + INTRA:          -7.217
REMARK INTER:                  -7.331
REMARK INTRA:                   0.113
REMARK UNBOUND:                 0.096
REMARK SMILES C[C@@H]1[C@@H](C)CC[C@@]2(C(=O)[O-])CC[C@]3(C)C(=CC[C@H]4[C@]5(C)CC[C@H](O)C(C)(C)[C@@H]5CC[C@@]43C)[C@@H]12
REMARK SMILES IDX 7 1 6 2 11 3 33 4 5 5 12 6 15 7 2 8 3 9 13 10 16 11 1 12
REMARK SMILES IDX 4 13 14 14 31 15 17 16 18 17 30 18 32 19 19 20 29 21 28 22
REMARK SMILES IDX 21 23 20 24 25 25 22 26 23 27 26 28 27 29 8 30 9 31 10 32
REMARK SMILES IDX 24 33
REMARK H PARENT 24 34
REMARK Flexibility Score: inf
ROOT
ATOM      1  C   UNL     1     -18.674 -45.823 105.478  1.00  0.00     0.017 C 
ATOM      2  C   UNL     1     -18.461 -47.297 105.920  1.00  0.00     0.014 C 
ATOM      3  C   UNL     1     -18.785 -44.931 106.751  1.00  0.00     0.014 C 
ATOM      4  C   UNL     1     -17.488 -45.398 104.520  1.00  0.00     0.030 C 
ATOM      5  C   UNL     1     -18.448 -48.267 104.734  1.00  0.00     0.004 C 
ATOM      6  C   UNL     1     -17.455 -44.586 107.431  1.00  0.00     0.013 C 
ATOM      7  C   UNL     1     -16.218 -45.009 105.331  1.00  0.00    -0.063 C 
ATOM      8  C   UNL     1     -17.286 -46.429 103.325  1.00  0.00    -0.003 C 
ATOM      9  C   UNL     1     -17.333 -47.947 103.727  1.00  0.00    -0.011 C 
ATOM     10  C   UNL     1     -16.393 -43.962 106.464  1.00  0.00    -0.006 C 
ATOM     11  C   UNL     1     -15.014 -45.605 105.114  1.00  0.00    -0.027 C 
ATOM     12  C   UNL     1     -18.290 -46.177 102.179  1.00  0.00     0.008 C 
ATOM     13  C   UNL     1     -15.990 -48.527 104.200  1.00  0.00     0.008 C 
ATOM     14  C   UNL     1     -16.974 -42.643 105.852  1.00  0.00     0.017 C 
ATOM     15  C   UNL     1     -14.994 -43.622 107.215  1.00  0.00    -0.020 C 
ATOM     16  C   UNL     1     -13.835 -45.553 106.047  1.00  0.00     0.032 C 
ATOM     17  C   UNL     1     -14.212 -44.972 107.421  1.00  0.00     0.006 C 
ATOM     18  C   UNL     1     -15.225 -42.893 108.584  1.00  0.00     0.008 C 
ATOM     19  C   UNL     1     -14.138 -42.645 106.339  1.00  0.00     0.012 C 
ATOM     20  C   UNL     1     -13.071 -45.072 108.552  1.00  0.00    -0.025 C 
ATOM     21  C   UNL     1     -14.909 -43.754 109.809  1.00  0.00     0.005 C 
ATOM     22  C   UNL     1     -13.401 -44.126 109.802  1.00  0.00     0.003 C 
ATOM     23  C   UNL     1     -13.003 -46.583 108.974  1.00  0.00     0.010 C 
ATOM     24  C   UNL     1     -11.677 -44.692 107.965  1.00  0.00     0.012 C 
ATOM     25  C   UNL     1     -12.826 -44.572 111.232  1.00  0.00    -0.006 C 
ATOM     26  C   UNL     1     -12.256 -46.867 110.273  1.00  0.00     0.033 C 
ATOM     27  C   UNL     1     -12.892 -46.112 111.437  1.00  0.00     0.120 C 
ATOM     28  C   UNL     1     -11.353 -44.090 111.398  1.00  0.00     0.014 C 
ATOM     29  C   UNL     1     -13.578 -43.901 112.418  1.00  0.00     0.014 C 
ENDROOT
BRANCH   1  30
ATOM     30  C   UNL     1     -20.025 -45.661 104.785  1.00  0.00     0.048 C 
ATOM     31  O   UNL     1     -20.866 -46.600 104.782  1.00  0.00    -0.550 OA
ATOM     32  O   UNL     1     -20.413 -44.421 104.288  1.00  0.00    -0.550 OA
ENDBRANCH   1  30
BRANCH  27  33
ATOM     33  O   UNL     1     -14.227 -46.540 111.580  1.00  0.00    -0.393 OA
ATOM     34  H   UNL     1     -14.801 -45.730 111.605  1.00  0.00     0.210 HD
ENDBRANCH  27  33
TORSDOF 2
ENDMDL
MODEL 9
REMARK VINA RESULT:    -6.602      1.858      7.930
REMARK INTER + INTRA:          -7.085
REMARK INTER:                  -7.181
REMARK INTRA:                   0.096
REMARK UNBOUND:                 0.096
REMARK SMILES C[C@@H]1[C@@H](C)CC[C@@]2(C(=O)[O-])CC[C@]3(C)C(=CC[C@H]4[C@]5(C)CC[C@H](O)C(C)(C)[C@@H]5CC[C@@]43C)[C@@H]12
REMARK SMILES IDX 7 1 6 2 11 3 33 4 5 5 12 6 15 7 2 8 3 9 13 10 16 11 1 12
REMARK SMILES IDX 4 13 14 14 31 15 17 16 18 17 30 18 32 19 19 20 29 21 28 22
REMARK SMILES IDX 21 23 20 24 25 25 22 26 23 27 26 28 27 29 8 30 9 31 10 32
REMARK SMILES IDX 24 33
REMARK H PARENT 24 34
REMARK Flexibility Score: inf
ROOT
ATOM      1  C   UNL     1     -14.510 -46.184 108.437  1.00  0.00     0.017 C 
ATOM      2  C   UNL     1     -14.424 -47.366 107.432  1.00  0.00     0.014 C 
ATOM      3  C   UNL     1     -15.912 -46.207 109.116  1.00  0.00     0.014 C 
ATOM      4  C   UNL     1     -13.314 -46.301 109.468  1.00  0.00     0.030 C 
ATOM      5  C   UNL     1     -13.116 -47.361 106.634  1.00  0.00     0.004 C 
ATOM      6  C   UNL     1     -16.083 -47.239 110.238  1.00  0.00     0.013 C 
ATOM      7  C   UNL     1     -13.637 -47.328 110.593  1.00  0.00    -0.063 C 
ATOM      8  C   UNL     1     -11.909 -46.454 108.740  1.00  0.00    -0.003 C 
ATOM      9  C   UNL     1     -11.877 -47.465 107.538  1.00  0.00    -0.011 C 
ATOM     10  C   UNL     1     -14.982 -47.154 111.348  1.00  0.00    -0.006 C 
ATOM     11  C   UNL     1     -12.816 -48.379 110.865  1.00  0.00    -0.027 C 
ATOM     12  C   UNL     1     -11.358 -45.090 108.270  1.00  0.00     0.008 C 
ATOM     13  C   UNL     1     -11.615 -48.927 107.934  1.00  0.00     0.008 C 
ATOM     14  C   UNL     1     -15.020 -45.730 111.997  1.00  0.00     0.017 C 
ATOM     15  C   UNL     1     -15.187 -48.268 112.512  1.00  0.00    -0.020 C 
ATOM     16  C   UNL     1     -13.191 -49.591 111.673  1.00  0.00     0.032 C 
ATOM     17  C   UNL     1     -14.704 -49.656 111.947  1.00  0.00     0.006 C 
ATOM     18  C   UNL     1     -16.678 -48.347 112.992  1.00  0.00     0.008 C 
ATOM     19  C   UNL     1     -14.340 -47.889 113.774  1.00  0.00     0.012 C 
ATOM     20  C   UNL     1     -15.228 -51.021 112.621  1.00  0.00    -0.025 C 
ATOM     21  C   UNL     1     -17.405 -49.623 112.561  1.00  0.00     0.005 C 
ATOM     22  C   UNL     1     -16.710 -50.854 113.205  1.00  0.00     0.003 C 
ATOM     23  C   UNL     1     -15.171 -52.115 111.496  1.00  0.00     0.010 C 
ATOM     24  C   UNL     1     -14.267 -51.479 113.761  1.00  0.00     0.012 C 
ATOM     25  C   UNL     1     -17.626 -52.170 113.268  1.00  0.00    -0.006 C 
ATOM     26  C   UNL     1     -15.948 -53.394 111.788  1.00  0.00     0.033 C 
ATOM     27  C   UNL     1     -17.423 -53.087 112.029  1.00  0.00     0.120 C 
ATOM     28  C   UNL     1     -17.326 -52.978 114.566  1.00  0.00     0.014 C 
ATOM     29  C   UNL     1     -19.144 -51.840 113.374  1.00  0.00     0.014 C 
ENDROOT
BRANCH   1  30
ATOM     30  C   UNL     1     -14.470 -44.848 107.699  1.00  0.00     0.048 C 
ATOM     31  O   UNL     1     -14.671 -44.792 106.456  1.00  0.00    -0.550 OA
ATOM     32  O   UNL     1     -14.374 -43.657 108.411  1.00  0.00    -0.550 OA
ENDBRANCH   1  30
BRANCH  27  33
ATOM     33  O   UNL     1     -17.957 -52.486 110.871  1.00  0.00    -0.393 OA
ATOM     34  H   UNL     1     -17.216 -52.382 110.218  1.00  0.00     0.210 HD
ENDBRANCH  27  33
TORSDOF 2
ENDMDL
