MODEL 1
REMARK VINA RESULT:     2.151      0.000      0.000
REMARK INTER + INTRA:           2.537
REMARK INTER:                   2.591
REMARK INTRA:                  -0.055
REMARK UNBOUND:                -0.055
REMARK SMILES NC(=O)C[C@H]([NH3+])C(=O)[O-]
REMARK SMILES IDX 4 1 5 2 6 3 7 7 8 8 9 9 2 10 3 11 1 12
REMARK H PARENT 6 4 6 5 6 6 1 13 1 14
REMARK Flexibility Score: inf
ROOT
ATOM      1  C   UNL     1       1.480   0.101  -7.597  1.00  0.00     0.171 C 
ENDROOT
BRANCH   1   2
ATOM      2  C   UNL     1       2.303  -0.328  -8.829  1.00  0.00     0.237 C 
BRANCH   2   3
ATOM      3  N   UNL     1       2.926   0.839  -9.463  1.00  0.00    -0.350 N 
ATOM      4  H   UNL     1       3.736   1.167  -8.887  1.00  0.00     0.345 HD
ATOM      5  H   UNL     1       2.232   1.620  -9.524  1.00  0.00     0.345 HD
ATOM      6  H   UNL     1       3.260   0.605 -10.426  1.00  0.00     0.345 HD
ENDBRANCH   2   3
BRANCH   2   7
ATOM      7  C   UNL     1       1.445  -1.066  -9.824  1.00  0.00     0.100 C 
ATOM      8  O   UNL     1       1.900  -1.370 -10.960  1.00  0.00    -0.544 OA
ATOM      9  O   UNL     1       0.136  -1.398  -9.500  1.00  0.00    -0.544 OA
ENDBRANCH   2   7
ENDBRANCH   1   2
BRANCH   1  10
ATOM     10  C   UNL     1       2.341   0.225  -6.373  1.00  0.00     0.223 C 
ATOM     11  O   UNL     1       1.917   0.867  -5.374  1.00  0.00    -0.275 OA
ATOM     12  N   UNL     1       3.650  -0.345  -6.344  1.00  0.00    -0.369 N 
ATOM     13  H   UNL     1       4.023  -0.863  -7.169  1.00  0.00     0.159 HD
ATOM     14  H   UNL     1       4.250  -0.243  -5.496  1.00  0.00     0.159 HD
ENDBRANCH   1  10
TORSDOF 4
ENDMDL
MODEL 2
REMARK VINA RESULT:     2.655      4.947      5.991
REMARK INTER + INTRA:           3.144
REMARK INTER:                   3.360
REMARK INTRA:                  -0.217
REMARK UNBOUND:                -0.055
REMARK SMILES NC(=O)C[C@H]([NH3+])C(=O)[O-]
REMARK SMILES IDX 4 1 5 2 6 3 7 7 8 8 9 9 2 10 3 11 1 12
REMARK H PARENT 6 4 6 5 6 6 1 13 1 14
REMARK Flexibility Score: inf
ROOT
ATOM      1  C   UNL     1      -1.796  -2.879 -11.313  1.00  0.00     0.171 C 
ENDROOT
BRANCH   1   2
ATOM      2  C   UNL     1      -2.228  -4.335 -11.046  1.00  0.00     0.237 C 
BRANCH   2   3
ATOM      3  N   UNL     1      -1.699  -4.800  -9.759  1.00  0.00    -0.350 N 
ATOM      4  H   UNL     1      -1.955  -4.121  -9.003  1.00  0.00     0.345 HD
ATOM      5  H   UNL     1      -0.656  -4.857  -9.804  1.00  0.00     0.345 HD
ATOM      6  H   UNL     1      -2.082  -5.743  -9.519  1.00  0.00     0.345 HD
ENDBRANCH   2   3
BRANCH   2   7
ATOM      7  C   UNL     1      -1.772  -5.248 -12.156  1.00  0.00     0.100 C 
ATOM      8  O   UNL     1      -1.429  -4.775 -13.273  1.00  0.00    -0.544 OA
ATOM      9  O   UNL     1      -1.747  -6.622 -11.958  1.00  0.00    -0.544 OA
ENDBRANCH   2   7
ENDBRANCH   1   2
BRANCH   1  10
ATOM     10  C   UNL     1      -1.092  -2.284 -10.127  1.00  0.00     0.223 C 
ATOM     11  O   UNL     1      -1.715  -2.132  -9.042  1.00  0.00    -0.275 OA
ATOM     12  N   UNL     1       0.266  -1.854 -10.229  1.00  0.00    -0.369 N 
ATOM     13  H   UNL     1       0.791  -1.956 -11.126  1.00  0.00     0.159 HD
ATOM     14  H   UNL     1       0.747  -1.428  -9.406  1.00  0.00     0.159 HD
ENDBRANCH   1  10
TORSDOF 4
ENDMDL
MODEL 3
REMARK VINA RESULT:     2.975      1.907      4.225
REMARK INTER + INTRA:           3.529
REMARK INTER:                   3.603
REMARK INTRA:                  -0.074
REMARK UNBOUND:                -0.055
REMARK SMILES NC(=O)C[C@H]([NH3+])C(=O)[O-]
REMARK SMILES IDX 4 1 5 2 6 3 7 7 8 8 9 9 2 10 3 11 1 12
REMARK H PARENT 6 4 6 5 6 6 1 13 1 14
REMARK Flexibility Score: inf
ROOT
ATOM      1  C   UNL     1       2.254   0.227  -8.714  1.00  0.00     0.171 C 
ENDROOT
BRANCH   1   2
ATOM      2  C   UNL     1       1.777  -0.015  -7.268  1.00  0.00     0.237 C 
BRANCH   2   3
ATOM      3  N   UNL     1       0.811   1.015  -6.867  1.00  0.00    -0.350 N 
ATOM      4  H   UNL     1      -0.071   0.562  -6.528  1.00  0.00     0.345 HD
ATOM      5  H   UNL     1       0.572   1.615  -7.690  1.00  0.00     0.345 HD
ATOM      6  H   UNL     1       1.204   1.617  -6.108  1.00  0.00     0.345 HD
ENDBRANCH   2   3
BRANCH   2   7
ATOM      7  C   UNL     1       2.940  -0.038  -6.309  1.00  0.00     0.100 C 
ATOM      8  O   UNL     1       2.783   0.295  -5.104  1.00  0.00    -0.544 OA
ATOM      9  O   UNL     1       4.201  -0.410  -6.757  1.00  0.00    -0.544 OA
ENDBRANCH   2   7
ENDBRANCH   1   2
BRANCH   1  10
ATOM     10  C   UNL     1       1.617  -0.735  -9.675  1.00  0.00     0.223 C 
ATOM     11  O   UNL     1       2.209  -1.032 -10.747  1.00  0.00    -0.275 OA
ATOM     12  N   UNL     1       0.327  -1.285  -9.404  1.00  0.00    -0.369 N 
ATOM     13  H   UNL     1      -0.186  -1.035  -8.530  1.00  0.00     0.159 HD
ATOM     14  H   UNL     1      -0.119  -1.941 -10.083  1.00  0.00     0.159 HD
ENDBRANCH   1  10
TORSDOF 4
ENDMDL
MODEL 4
REMARK VINA RESULT:     2.988      1.739      4.132
REMARK INTER + INTRA:           3.544
REMARK INTER:                   3.745
REMARK INTRA:                  -0.200
REMARK UNBOUND:                -0.055
REMARK SMILES NC(=O)C[C@H]([NH3+])C(=O)[O-]
REMARK SMILES IDX 4 1 5 2 6 3 7 7 8 8 9 9 2 10 3 11 1 12
REMARK H PARENT 6 4 6 5 6 6 1 13 1 14
REMARK Flexibility Score: inf
ROOT
ATOM      1  C   UNL     1       2.316   0.198  -8.633  1.00  0.00     0.171 C 
ENDROOT
BRANCH   1   2
ATOM      2  C   UNL     1       1.812  -0.001  -7.189  1.00  0.00     0.237 C 
BRANCH   2   3
ATOM      3  N   UNL     1       0.831   1.033  -6.841  1.00  0.00    -0.350 N 
ATOM      4  H   UNL     1       0.047   0.608  -6.291  1.00  0.00     0.345 HD
ATOM      5  H   UNL     1       0.428   1.447  -7.714  1.00  0.00     0.345 HD
ATOM      6  H   UNL     1       1.276   1.793  -6.278  1.00  0.00     0.345 HD
ENDBRANCH   2   3
BRANCH   2   7
ATOM      7  C   UNL     1       2.957   0.018  -6.209  1.00  0.00     0.100 C 
ATOM      8  O   UNL     1       2.781   0.420  -5.027  1.00  0.00    -0.544 OA
ATOM      9  O   UNL     1       4.222  -0.392  -6.611  1.00  0.00    -0.544 OA
ENDBRANCH   2   7
ENDBRANCH   1   2
BRANCH   1  10
ATOM     10  C   UNL     1       1.636  -0.740  -9.590  1.00  0.00     0.223 C 
ATOM     11  O   UNL     1       0.478  -1.165  -9.332  1.00  0.00    -0.275 OA
ATOM     12  N   UNL     1       2.306  -1.185 -10.770  1.00  0.00    -0.369 N 
ATOM     13  H   UNL     1       3.273  -0.857 -10.989  1.00  0.00     0.159 HD
ATOM     14  H   UNL     1       1.836  -1.849 -11.424  1.00  0.00     0.159 HD
ENDBRANCH   1  10
TORSDOF 4
ENDMDL
MODEL 5
REMARK VINA RESULT:     3.178      1.017      4.187
REMARK INTER + INTRA:           3.773
REMARK INTER:                   3.877
REMARK INTRA:                  -0.103
REMARK UNBOUND:                -0.055
REMARK SMILES NC(=O)C[C@H]([NH3+])C(=O)[O-]
REMARK SMILES IDX 4 1 5 2 6 3 7 7 8 8 9 9 2 10 3 11 1 12
REMARK H PARENT 6 4 6 5 6 6 1 13 1 14
REMARK Flexibility Score: inf
ROOT
ATOM      1  C   UNL     1       1.346  -0.237  -7.913  1.00  0.00     0.171 C 
ENDROOT
BRANCH   1   2
ATOM      2  C   UNL     1       2.288   0.325  -6.829  1.00  0.00     0.237 C 
BRANCH   2   3
ATOM      3  N   UNL     1       2.892  -0.768  -6.058  1.00  0.00    -0.350 N 
ATOM      4  H   UNL     1       2.330  -1.643  -6.181  1.00  0.00     0.345 HD
ATOM      5  H   UNL     1       2.894  -0.524  -5.041  1.00  0.00     0.345 HD
ATOM      6  H   UNL     1       3.875  -0.942  -6.369  1.00  0.00     0.345 HD
ENDBRANCH   2   3
BRANCH   2   7
ATOM      7  C   UNL     1       1.555   1.268  -5.909  1.00  0.00     0.100 C 
ATOM      8  O   UNL     1       0.335   1.527  -6.098  1.00  0.00    -0.544 OA
ATOM      9  O   UNL     1       2.228   1.873  -4.856  1.00  0.00    -0.544 OA
ENDBRANCH   2   7
ENDBRANCH   1   2
BRANCH   1  10
ATOM     10  C   UNL     1       1.972  -0.173  -9.277  1.00  0.00     0.223 C 
ATOM     11  O   UNL     1       1.562  -0.940 -10.189  1.00  0.00    -0.275 OA
ATOM     12  N   UNL     1       3.055   0.720  -9.538  1.00  0.00    -0.369 N 
ATOM     13  H   UNL     1       3.420   1.348  -8.788  1.00  0.00     0.159 HD
ATOM     14  H   UNL     1       3.498   0.750 -10.483  1.00  0.00     0.159 HD
ENDBRANCH   1  10
TORSDOF 4
ENDMDL
MODEL 6
REMARK VINA RESULT:     3.261      5.191      6.228
REMARK INTER + INTRA:           3.873
REMARK INTER:                   3.520
REMARK INTRA:                   0.353
REMARK UNBOUND:                -0.055
REMARK SMILES NC(=O)C[C@H]([NH3+])C(=O)[O-]
REMARK SMILES IDX 4 1 5 2 6 3 7 7 8 8 9 9 2 10 3 11 1 12
REMARK H PARENT 6 4 6 5 6 6 1 13 1 14
REMARK Flexibility Score: inf
ROOT
ATOM      1  C   UNL     1      -1.926  -2.961 -11.476  1.00  0.00     0.171 C 
ENDROOT
BRANCH   1   2
ATOM      2  C   UNL     1      -2.295  -4.445 -11.279  1.00  0.00     0.237 C 
BRANCH   2   3
ATOM      3  N   UNL     1      -1.872  -4.907  -9.952  1.00  0.00    -0.350 N 
ATOM      4  H   UNL     1      -2.449  -4.441  -9.212  1.00  0.00     0.345 HD
ATOM      5  H   UNL     1      -0.871  -4.651  -9.791  1.00  0.00     0.345 HD
ATOM      6  H   UNL     1      -1.976  -5.944  -9.869  1.00  0.00     0.345 HD
ENDBRANCH   2   3
BRANCH   2   7
ATOM      7  C   UNL     1      -1.677  -5.305 -12.351  1.00  0.00     0.100 C 
ATOM      8  O   UNL     1      -1.235  -4.786 -13.412  1.00  0.00    -0.544 OA
ATOM      9  O   UNL     1      -1.608  -6.682 -12.183  1.00  0.00    -0.544 OA
ENDBRANCH   2   7
ENDBRANCH   1   2
BRANCH   1  10
ATOM     10  C   UNL     1      -1.106  -2.437 -10.333  1.00  0.00     0.223 C 
ATOM     11  O   UNL     1       0.118  -2.190 -10.504  1.00  0.00    -0.275 OA
ATOM     12  N   UNL     1      -1.690  -2.254  -9.043  1.00  0.00    -0.369 N 
ATOM     13  H   UNL     1      -2.698  -2.472  -8.879  1.00  0.00     0.159 HD
ATOM     14  H   UNL     1      -1.113  -1.905  -8.247  1.00  0.00     0.159 HD
ENDBRANCH   1  10
TORSDOF 4
ENDMDL
MODEL 7
REMARK VINA RESULT:     3.480      4.181      5.832
REMARK INTER + INTRA:           4.137
REMARK INTER:                   4.393
REMARK INTRA:                  -0.256
REMARK UNBOUND:                -0.055
REMARK SMILES NC(=O)C[C@H]([NH3+])C(=O)[O-]
REMARK SMILES IDX 4 1 5 2 6 3 7 7 8 8 9 9 2 10 3 11 1 12
REMARK H PARENT 6 4 6 5 6 6 1 13 1 14
REMARK Flexibility Score: inf
ROOT
ATOM      1  C   UNL     1      -1.339  -2.654 -11.258  1.00  0.00     0.171 C 
ENDROOT
BRANCH   1   2
ATOM      2  C   UNL     1      -0.735  -2.528  -9.845  1.00  0.00     0.237 C 
BRANCH   2   3
ATOM      3  N   UNL     1      -1.751  -2.067  -8.892  1.00  0.00    -0.350 N 
ATOM      4  H   UNL     1      -2.701  -2.370  -9.211  1.00  0.00     0.345 HD
ATOM      5  H   UNL     1      -1.742  -1.022  -8.844  1.00  0.00     0.345 HD
ATOM      6  H   UNL     1      -1.567  -2.453  -7.938  1.00  0.00     0.345 HD
ENDBRANCH   2   3
BRANCH   2   7
ATOM      7  C   UNL     1       0.446  -1.590  -9.842  1.00  0.00     0.100 C 
ATOM      8  O   UNL     1       1.272  -1.599 -10.794  1.00  0.00    -0.544 OA
ATOM      9  O   UNL     1       0.639  -0.722  -8.775  1.00  0.00    -0.544 OA
ENDBRANCH   2   7
ENDBRANCH   1   2
BRANCH   1  10
ATOM     10  C   UNL     1      -1.889  -4.030 -11.504  1.00  0.00     0.223 C 
ATOM     11  O   UNL     1      -2.367  -4.692 -10.543  1.00  0.00    -0.275 OA
ATOM     12  N   UNL     1      -1.841  -4.610 -12.807  1.00  0.00    -0.369 N 
ATOM     13  H   UNL     1      -1.431  -4.082 -13.610  1.00  0.00     0.159 HD
ATOM     14  H   UNL     1      -2.210  -5.573 -12.970  1.00  0.00     0.159 HD
ENDBRANCH   1  10
TORSDOF 4
ENDMDL
MODEL 8
REMARK VINA RESULT:     3.713      6.606      8.450
REMARK INTER + INTRA:           4.418
REMARK INTER:                   4.666
REMARK INTRA:                  -0.248
REMARK UNBOUND:                -0.055
REMARK SMILES NC(=O)C[C@H]([NH3+])C(=O)[O-]
REMARK SMILES IDX 4 1 5 2 6 3 7 7 8 8 9 9 2 10 3 11 1 12
REMARK H PARENT 6 4 6 5 6 6 1 13 1 14
REMARK Flexibility Score: inf
ROOT
ATOM      1  C   UNL     1      -2.961  -3.308 -13.459  1.00  0.00     0.171 C 
ENDROOT
BRANCH   1   2
ATOM      2  C   UNL     1      -1.727  -3.908 -12.756  1.00  0.00     0.237 C 
BRANCH   2   3
ATOM      3  N   UNL     1      -1.513  -5.294 -13.188  1.00  0.00    -0.350 N 
ATOM      4  H   UNL     1      -0.847  -5.316 -13.996  1.00  0.00     0.345 HD
ATOM      5  H   UNL     1      -2.420  -5.709 -13.504  1.00  0.00     0.345 HD
ATOM      6  H   UNL     1      -1.127  -5.872 -12.407  1.00  0.00     0.345 HD
ENDBRANCH   2   3
BRANCH   2   7
ATOM      7  C   UNL     1      -1.874  -3.847 -11.257  1.00  0.00     0.100 C 
ATOM      8  O   UNL     1      -2.484  -4.760 -10.636  1.00  0.00    -0.544 OA
ATOM      9  O   UNL     1      -1.351  -2.771 -10.551  1.00  0.00    -0.544 OA
ENDBRANCH   2   7
ENDBRANCH   1   2
BRANCH   1  10
ATOM     10  C   UNL     1      -2.843  -3.393 -14.953  1.00  0.00     0.223 C 
ATOM     11  O   UNL     1      -1.712  -3.569 -15.482  1.00  0.00    -0.275 OA
ATOM     12  N   UNL     1      -3.994  -3.237 -15.783  1.00  0.00    -0.369 N 
ATOM     13  H   UNL     1      -4.935  -3.072 -15.362  1.00  0.00     0.159 HD
ATOM     14  H   UNL     1      -3.905  -3.282 -16.822  1.00  0.00     0.159 HD
ENDBRANCH   1  10
TORSDOF 4
ENDMDL
MODEL 9
REMARK VINA RESULT:     3.808     11.735     12.907
REMARK INTER + INTRA:           4.533
REMARK INTER:                   4.617
REMARK INTRA:                  -0.084
REMARK UNBOUND:                -0.055
REMARK SMILES NC(=O)C[C@H]([NH3+])C(=O)[O-]
REMARK SMILES IDX 4 1 5 2 6 3 7 7 8 8 9 9 2 10 3 11 1 12
REMARK H PARENT 6 4 6 5 6 6 1 13 1 14
REMARK Flexibility Score: inf
ROOT
ATOM      1  C   UNL     1      -6.081   4.869 -17.374  1.00  0.00     0.171 C 
ENDROOT
BRANCH   1   2
ATOM      2  C   UNL     1      -5.000   3.888 -16.877  1.00  0.00     0.237 C 
BRANCH   2   3
ATOM      3  N   UNL     1      -4.700   4.129 -15.461  1.00  0.00    -0.350 N 
ATOM      4  H   UNL     1      -5.586   4.326 -14.939  1.00  0.00     0.345 HD
ATOM      5  H   UNL     1      -4.076   4.963 -15.369  1.00  0.00     0.345 HD
ATOM      6  H   UNL     1      -4.226   3.299 -15.036  1.00  0.00     0.345 HD
ENDBRANCH   2   3
BRANCH   2   7
ATOM      7  C   UNL     1      -3.743   4.003 -17.702  1.00  0.00     0.100 C 
ATOM      8  O   UNL     1      -3.158   2.969 -18.125  1.00  0.00    -0.544 OA
ATOM      9  O   UNL     1      -3.211   5.254 -17.986  1.00  0.00    -0.544 OA
ENDBRANCH   2   7
ENDBRANCH   1   2
BRANCH   1  10
ATOM     10  C   UNL     1      -7.459   4.419 -16.982  1.00  0.00     0.223 C 
ATOM     11  O   UNL     1      -7.743   3.191 -16.998  1.00  0.00    -0.275 OA
ATOM     12  N   UNL     1      -8.462   5.372 -16.629  1.00  0.00    -0.369 N 
ATOM     13  H   UNL     1      -8.248   6.394 -16.629  1.00  0.00     0.159 HD
ATOM     14  H   UNL     1      -9.423   5.056 -16.372  1.00  0.00     0.159 HD
ENDBRANCH   1  10
TORSDOF 4
ENDMDL
