MODEL 1
REMARK VINA RESULT:    -1.619      0.000      0.000
REMARK INTER + INTRA:          -2.289
REMARK INTER:                  -1.950
REMARK INTRA:                  -0.339
REMARK UNBOUND:                -0.339
REMARK SMILES O=c1c(O)c(-c2ccc(O)cc2O)oc2cc(O)cc(O)c12
REMARK SMILES IDX 5 1 3 2 2 3 1 4 22 5 20 6 19 7 17 8 16 9 15 10 14 11 6 12
REMARK SMILES IDX 8 13 7 14 9 15 11 16 12 17 10 18 13 20 4 22 21 24 18 26
REMARK H PARENT 10 19 13 21 4 23 21 25 18 27
REMARK Flexibility Score: inf
ROOT
ATOM      1  C   UNL     1      47.991   6.402  67.789  1.00  0.00     0.184 A 
ATOM      2  C   UNL     1      47.477   6.780  69.042  1.00  0.00     0.208 A 
ATOM      3  C   UNL     1      46.305   6.165  69.508  1.00  0.00     0.238 A 
ATOM      4  O   UNL     1      45.841   6.489  70.636  1.00  0.00    -0.285 OA
ATOM      5  C   UNL     1      45.659   5.202  68.707  1.00  0.00     0.111 A 
ATOM      6  C   UNL     1      44.473   4.537  69.101  1.00  0.00     0.134 A 
ATOM      7  C   UNL     1      43.884   3.597  68.242  1.00  0.00     0.093 A 
ATOM      8  C   UNL     1      44.459   3.308  67.000  1.00  0.00     0.123 A 
ATOM      9  C   UNL     1      45.629   3.959  66.607  1.00  0.00     0.094 A 
ATOM     10  C   UNL     1      46.232   4.899  67.449  1.00  0.00     0.146 A 
ATOM     11  O   UNL     1      47.348   5.501  67.052  1.00  0.00    -0.451 OA
ENDROOT
BRANCH   1  12
ATOM     12  C   UNL     1      49.226   7.001  67.244  1.00  0.00     0.063 A 
ATOM     13  C   UNL     1      51.597   6.786  66.749  1.00  0.00     0.047 A 
ATOM     14  C   UNL     1      50.409   6.247  67.251  1.00  0.00     0.020 A 
ATOM     15  C   UNL     1      51.618   8.092  66.245  1.00  0.00     0.119 A 
ATOM     16  C   UNL     1      50.449   8.859  66.255  1.00  0.00     0.093 A 
ATOM     17  C   UNL     1      49.254   8.327  66.763  1.00  0.00     0.130 A 
BRANCH  15  18
ATOM     18  O   UNL     1      52.795   8.639  65.738  1.00  0.00    -0.508 OA
ATOM     19  H   UNL     1      53.060   8.519  64.767  1.00  0.00     0.293 HD
ENDBRANCH  15  18
BRANCH  17  20
ATOM     20  O   UNL     1      48.108   9.120  66.812  1.00  0.00    -0.507 OA
ATOM     21  H   UNL     1      47.658   9.350  67.690  1.00  0.00     0.293 HD
ENDBRANCH  17  20
ENDBRANCH   1  12
BRANCH   2  22
ATOM     22  O   UNL     1      48.116   7.772  69.791  1.00  0.00    -0.502 OA
ATOM     23  H   UNL     1      47.942   7.899  70.781  1.00  0.00     0.293 HD
ENDBRANCH   2  22
BRANCH   6  24
ATOM     24  O   UNL     1      43.875   4.805  70.334  1.00  0.00    -0.507 OA
ATOM     25  H   UNL     1      44.393   5.229  71.095  1.00  0.00     0.293 HD
ENDBRANCH   6  24
BRANCH   8  26
ATOM     26  O   UNL     1      43.875   2.374  66.147  1.00  0.00    -0.508 OA
ATOM     27  H   UNL     1      43.197   1.700  66.484  1.00  0.00     0.293 HD
ENDBRANCH   8  26
TORSDOF 6
ENDMDL
MODEL 2
REMARK VINA RESULT:    -1.493      1.698      2.064
REMARK INTER + INTRA:          -2.138
REMARK INTER:                  -1.722
REMARK INTRA:                  -0.415
REMARK UNBOUND:                -0.339
REMARK SMILES O=c1c(O)c(-c2ccc(O)cc2O)oc2cc(O)cc(O)c12
REMARK SMILES IDX 5 1 3 2 2 3 1 4 22 5 20 6 19 7 17 8 16 9 15 10 14 11 6 12
REMARK SMILES IDX 8 13 7 14 9 15 11 16 12 17 10 18 13 20 4 22 21 24 18 26
REMARK H PARENT 10 19 13 21 4 23 21 25 18 27
REMARK Flexibility Score: inf
ROOT
ATOM      1  C   UNL     1      48.478   6.564  66.973  1.00  0.00     0.184 A 
ATOM      2  C   UNL     1      47.314   7.291  67.275  1.00  0.00     0.208 A 
ATOM      3  C   UNL     1      46.166   6.594  67.682  1.00  0.00     0.238 A 
ATOM      4  O   UNL     1      45.118   7.237  67.967  1.00  0.00    -0.285 OA
ATOM      5  C   UNL     1      46.197   5.187  67.760  1.00  0.00     0.111 A 
ATOM      6  C   UNL     1      45.084   4.408  68.159  1.00  0.00     0.134 A 
ATOM      7  C   UNL     1      45.192   3.011  68.201  1.00  0.00     0.093 A 
ATOM      8  C   UNL     1      46.390   2.377  67.855  1.00  0.00     0.123 A 
ATOM      9  C   UNL     1      47.491   3.140  67.462  1.00  0.00     0.094 A 
ATOM     10  C   UNL     1      47.405   4.535  67.414  1.00  0.00     0.146 A 
ATOM     11  O   UNL     1      48.469   5.236  67.041  1.00  0.00    -0.451 OA
ENDROOT
BRANCH   1  12
ATOM     12  C   UNL     1      49.724   7.236  66.548  1.00  0.00     0.063 A 
ATOM     13  C   UNL     1      51.047   8.226  64.765  1.00  0.00     0.047 A 
ATOM     14  C   UNL     1      49.878   7.595  65.201  1.00  0.00     0.020 A 
ATOM     15  C   UNL     1      52.082   8.493  65.670  1.00  0.00     0.119 A 
ATOM     16  C   UNL     1      51.946   8.117  67.009  1.00  0.00     0.093 A 
ATOM     17  C   UNL     1      50.779   7.478  67.454  1.00  0.00     0.130 A 
BRANCH  15  18
ATOM     18  O   UNL     1      53.249   9.125  65.247  1.00  0.00    -0.508 OA
ATOM     19  H   UNL     1      53.222   9.955  64.666  1.00  0.00     0.293 HD
ENDBRANCH  15  18
BRANCH  17  20
ATOM     20  O   UNL     1      50.677   7.065  68.782  1.00  0.00    -0.507 OA
ATOM     21  H   UNL     1      50.832   7.705  69.552  1.00  0.00     0.293 HD
ENDBRANCH  17  20
ENDBRANCH   1  12
BRANCH   2  22
ATOM     22  O   UNL     1      47.301   8.682  67.144  1.00  0.00    -0.502 OA
ATOM     23  H   UNL     1      46.532   9.251  67.477  1.00  0.00     0.293 HD
ENDBRANCH   2  22
BRANCH   6  24
ATOM     24  O   UNL     1      43.875   5.012  68.509  1.00  0.00    -0.507 OA
ATOM     25  H   UNL     1      43.193   4.540  69.093  1.00  0.00     0.293 HD
ENDBRANCH   6  24
BRANCH   8  26
ATOM     26  O   UNL     1      46.498   0.989  67.897  1.00  0.00    -0.508 OA
ATOM     27  H   UNL     1      46.648   0.496  68.769  1.00  0.00     0.293 HD
ENDBRANCH   8  26
TORSDOF 6
ENDMDL
MODEL 3
REMARK VINA RESULT:    -0.022      1.758      3.328
REMARK INTER + INTRA:          -0.365
REMARK INTER:                  -0.043
REMARK INTRA:                  -0.321
REMARK UNBOUND:                -0.339
REMARK SMILES O=c1c(O)c(-c2ccc(O)cc2O)oc2cc(O)cc(O)c12
REMARK SMILES IDX 5 1 3 2 2 3 1 4 22 5 20 6 19 7 17 8 16 9 15 10 14 11 6 12
REMARK SMILES IDX 8 13 7 14 9 15 11 16 12 17 10 18 13 20 4 22 21 24 18 26
REMARK H PARENT 10 19 13 21 4 23 21 25 18 27
REMARK Flexibility Score: inf
ROOT
ATOM      1  C   UNL     1      48.622   6.842  67.194  1.00  0.00     0.184 A 
ATOM      2  C   UNL     1      48.243   5.494  67.063  1.00  0.00     0.208 A 
ATOM      3  C   UNL     1      47.004   5.086  67.579  1.00  0.00     0.238 A 
ATOM      4  O   UNL     1      46.648   3.881  67.457  1.00  0.00    -0.285 OA
ATOM      5  C   UNL     1      46.178   6.024  68.231  1.00  0.00     0.111 A 
ATOM      6  C   UNL     1      44.915   5.695  68.780  1.00  0.00     0.134 A 
ATOM      7  C   UNL     1      44.157   6.684  69.423  1.00  0.00     0.093 A 
ATOM      8  C   UNL     1      44.634   7.994  69.525  1.00  0.00     0.123 A 
ATOM      9  C   UNL     1      45.878   8.325  68.984  1.00  0.00     0.094 A 
ATOM     10  C   UNL     1      46.649   7.354  68.338  1.00  0.00     0.146 A 
ATOM     11  O   UNL     1      47.827   7.697  67.829  1.00  0.00    -0.451 OA
ENDROOT
BRANCH   1  12
ATOM     12  C   UNL     1      49.909   7.340  66.665  1.00  0.00     0.063 A 
ATOM     13  C   UNL     1      51.102   8.651  65.001  1.00  0.00     0.047 A 
ATOM     14  C   UNL     1      49.903   8.167  65.532  1.00  0.00     0.020 A 
ATOM     15  C   UNL     1      52.324   8.302  65.592  1.00  0.00     0.119 A 
ATOM     16  C   UNL     1      52.340   7.460  66.707  1.00  0.00     0.093 A 
ATOM     17  C   UNL     1      51.140   6.965  67.241  1.00  0.00     0.130 A 
BRANCH  15  18
ATOM     18  O   UNL     1      53.525   8.782  65.074  1.00  0.00    -0.508 OA
ATOM     19  H   UNL     1      53.762   8.671  64.095  1.00  0.00     0.293 HD
ENDBRANCH  15  18
BRANCH  17  20
ATOM     20  O   UNL     1      51.174   6.086  68.324  1.00  0.00    -0.507 OA
ATOM     21  H   UNL     1      51.989   5.519  68.524  1.00  0.00     0.293 HD
ENDBRANCH  17  20
ENDBRANCH   1  12
BRANCH   2  22
ATOM     22  O   UNL     1      49.104   4.579  66.452  1.00  0.00    -0.502 OA
ATOM     23  H   UNL     1      49.244   3.642  66.813  1.00  0.00     0.293 HD
ENDBRANCH   2  22
BRANCH   6  24
ATOM     24  O   UNL     1      44.412   4.395  68.695  1.00  0.00    -0.507 OA
ATOM     25  H   UNL     1      44.464   3.751  69.476  1.00  0.00     0.293 HD
ENDBRANCH   6  24
BRANCH   8  26
ATOM     26  O   UNL     1      43.881   8.978  70.164  1.00  0.00    -0.508 OA
ATOM     27  H   UNL     1      44.252   9.907  70.326  1.00  0.00     0.293 HD
ENDBRANCH   8  26
TORSDOF 6
ENDMDL
