MODEL 1
REMARK VINA RESULT:    -4.113      0.000      0.000
REMARK INTER + INTRA:          -5.291
REMARK INTER:                  -5.074
REMARK INTRA:                  -0.217
REMARK UNBOUND:                -0.217
REMARK SMILES CCCCC=CC(C)=O
REMARK SMILES IDX 4 1 3 2 2 3 1 4 5 5 6 6 7 7 9 8 8 9
REMARK H PARENT
REMARK Flexibility Score: inf
ROOT
ATOM      1  C   UNL     1      11.235 -29.940  21.929  1.00  0.00     0.027 C 
ENDROOT
BRANCH   1   2
ATOM      2  C   UNL     1      11.315 -28.779  22.932  1.00  0.00     0.004 C 
BRANCH   2   3
ATOM      3  C   UNL     1      12.489 -28.938  23.908  1.00  0.00    -0.003 C 
ATOM      4  C   UNL     1      12.598 -27.734  24.839  1.00  0.00     0.004 C 
ENDBRANCH   2   3
ENDBRANCH   1   2
BRANCH   1   5
ATOM      5  C   UNL     1      12.382 -30.900  22.072  1.00  0.00    -0.023 C 
ATOM      6  C   UNL     1      13.055 -31.348  21.005  1.00  0.00     0.042 C 
BRANCH   6   7
ATOM      7  C   UNL     1      14.187 -32.292  21.097  1.00  0.00     0.152 C 
ATOM      8  O   UNL     1      14.180 -33.315  20.363  1.00  0.00    -0.295 OA
ATOM      9  C   UNL     1      15.340 -32.076  22.031  1.00  0.00     0.093 C 
ENDBRANCH   6   7
ENDBRANCH   1   5
TORSDOF 4
ENDMDL
MODEL 2
REMARK VINA RESULT:    -3.977      1.452      2.024
REMARK INTER + INTRA:          -5.124
REMARK INTER:                  -4.954
REMARK INTRA:                  -0.170
REMARK UNBOUND:                -0.217
REMARK SMILES CCCCC=CC(C)=O
REMARK SMILES IDX 4 1 3 2 2 3 1 4 5 5 6 6 7 7 9 8 8 9
REMARK H PARENT
REMARK Flexibility Score: inf
ROOT
ATOM      1  C   UNL     1      13.034 -31.018  21.173  1.00  0.00     0.027 C 
ENDROOT
BRANCH   1   2
ATOM      2  C   UNL     1      12.262 -30.470  22.382  1.00  0.00     0.004 C 
BRANCH   2   3
ATOM      3  C   UNL     1      13.182 -30.198  23.581  1.00  0.00    -0.003 C 
ATOM      4  C   UNL     1      12.808 -28.892  24.276  1.00  0.00     0.004 C 
ENDBRANCH   2   3
ENDBRANCH   1   2
BRANCH   1   5
ATOM      5  C   UNL     1      13.931 -32.167  21.539  1.00  0.00    -0.023 C 
ATOM      6  C   UNL     1      14.264 -33.106  20.645  1.00  0.00     0.042 C 
BRANCH   6   7
ATOM      7  C   UNL     1      15.140 -34.252  20.960  1.00  0.00     0.152 C 
ATOM      8  O   UNL     1      15.240 -35.185  20.118  1.00  0.00    -0.295 OA
ATOM      9  C   UNL     1      15.911 -34.347  22.242  1.00  0.00     0.093 C 
ENDBRANCH   6   7
ENDBRANCH   1   5
TORSDOF 4
ENDMDL
MODEL 3
REMARK VINA RESULT:    -3.952      2.135      2.429
REMARK INTER + INTRA:          -5.094
REMARK INTER:                  -4.901
REMARK INTRA:                  -0.192
REMARK UNBOUND:                -0.217
REMARK SMILES CCCCC=CC(C)=O
REMARK SMILES IDX 4 1 3 2 2 3 1 4 5 5 6 6 7 7 9 8 8 9
REMARK H PARENT
REMARK Flexibility Score: inf
ROOT
ATOM      1  C   UNL     1      11.987 -29.112  23.145  1.00  0.00     0.027 C 
ENDROOT
BRANCH   1   2
ATOM      2  C   UNL     1      11.766 -27.796  23.906  1.00  0.00     0.004 C 
BRANCH   2   3
ATOM      3  C   UNL     1      12.799 -27.595  25.024  1.00  0.00    -0.003 C 
ATOM      4  C   UNL     1      13.645 -26.350  24.774  1.00  0.00     0.004 C 
ENDBRANCH   2   3
ENDBRANCH   1   2
BRANCH   1   5
ATOM      5  C   UNL     1      13.211 -29.847  23.616  1.00  0.00    -0.023 C 
ATOM      6  C   UNL     1      13.407 -31.138  23.320  1.00  0.00     0.042 C 
BRANCH   6   7
ATOM      7  C   UNL     1      14.592 -31.900  23.762  1.00  0.00     0.152 C 
ATOM      8  O   UNL     1      15.709 -31.319  23.788  1.00  0.00    -0.295 OA
ATOM      9  C   UNL     1      14.512 -33.338  24.180  1.00  0.00     0.093 C 
ENDBRANCH   6   7
ENDBRANCH   1   5
TORSDOF 4
ENDMDL
MODEL 4
REMARK VINA RESULT:    -3.919      2.395      3.619
REMARK INTER + INTRA:          -5.052
REMARK INTER:                  -4.927
REMARK INTRA:                  -0.126
REMARK UNBOUND:                -0.217
REMARK SMILES CCCCC=CC(C)=O
REMARK SMILES IDX 4 1 3 2 2 3 1 4 5 5 6 6 7 7 9 8 8 9
REMARK H PARENT
REMARK Flexibility Score: inf
ROOT
ATOM      1  C   UNL     1      13.517 -32.127  20.543  1.00  0.00     0.027 C 
ENDROOT
BRANCH   1   2
ATOM      2  C   UNL     1      13.649 -30.785  21.277  1.00  0.00     0.004 C 
BRANCH   2   3
ATOM      3  C   UNL     1      12.507 -30.557  22.278  1.00  0.00    -0.003 C 
ATOM      4  C   UNL     1      11.155 -30.527  21.571  1.00  0.00     0.004 C 
ENDBRANCH   2   3
ENDBRANCH   1   2
BRANCH   1   5
ATOM      5  C   UNL     1      14.538 -33.131  20.998  1.00  0.00    -0.023 C 
ATOM      6  C   UNL     1      14.964 -34.110  20.190  1.00  0.00     0.042 C 
BRANCH   6   7
ATOM      7  C   UNL     1      15.963 -35.119  20.594  1.00  0.00     0.152 C 
ATOM      8  O   UNL     1      16.410 -35.088  21.771  1.00  0.00    -0.295 OA
ATOM      9  C   UNL     1      16.464 -36.176  19.655  1.00  0.00     0.093 C 
ENDBRANCH   6   7
ENDBRANCH   1   5
TORSDOF 4
ENDMDL
MODEL 5
REMARK VINA RESULT:    -3.904      1.502      1.868
REMARK INTER + INTRA:          -5.034
REMARK INTER:                  -4.882
REMARK INTRA:                  -0.152
REMARK UNBOUND:                -0.217
REMARK SMILES CCCCC=CC(C)=O
REMARK SMILES IDX 4 1 3 2 2 3 1 4 5 5 6 6 7 7 9 8 8 9
REMARK H PARENT
REMARK Flexibility Score: inf
ROOT
ATOM      1  C   UNL     1      13.302 -30.183  23.968  1.00  0.00     0.027 C 
ENDROOT
BRANCH   1   2
ATOM      2  C   UNL     1      12.318 -29.428  23.062  1.00  0.00     0.004 C 
BRANCH   2   3
ATOM      3  C   UNL     1      11.752 -28.173  23.742  1.00  0.00    -0.003 C 
ATOM      4  C   UNL     1      12.632 -27.736  24.909  1.00  0.00     0.004 C 
ENDBRANCH   2   3
ENDBRANCH   1   2
BRANCH   1   5
ATOM      5  C   UNL     1      13.601 -31.565  23.460  1.00  0.00    -0.023 C 
ATOM      6  C   UNL     1      14.300 -31.760  22.334  1.00  0.00     0.042 C 
BRANCH   6   7
ATOM      7  C   UNL     1      14.616 -33.099  21.797  1.00  0.00     0.152 C 
ATOM      8  O   UNL     1      15.048 -33.980  22.587  1.00  0.00    -0.295 OA
ATOM      9  C   UNL     1      14.441 -33.445  20.349  1.00  0.00     0.093 C 
ENDBRANCH   6   7
ENDBRANCH   1   5
TORSDOF 4
ENDMDL
MODEL 6
REMARK VINA RESULT:    -3.838      1.986      2.934
REMARK INTER + INTRA:          -4.952
REMARK INTER:                  -4.767
REMARK INTRA:                  -0.185
REMARK UNBOUND:                -0.217
REMARK SMILES CCCCC=CC(C)=O
REMARK SMILES IDX 4 1 3 2 2 3 1 4 5 5 6 6 7 7 9 8 8 9
REMARK H PARENT
REMARK Flexibility Score: inf
ROOT
ATOM      1  C   UNL     1      13.346 -30.166  23.928  1.00  0.00     0.027 C 
ENDROOT
BRANCH   1   2
ATOM      2  C   UNL     1      12.873 -29.275  22.770  1.00  0.00     0.004 C 
BRANCH   2   3
ATOM      3  C   UNL     1      11.346 -29.304  22.605  1.00  0.00    -0.003 C 
ATOM      4  C   UNL     1      10.926 -30.333  21.561  1.00  0.00     0.004 C 
ENDBRANCH   2   3
ENDBRANCH   1   2
BRANCH   1   5
ATOM      5  C   UNL     1      14.255 -31.270  23.465  1.00  0.00    -0.023 C 
ATOM      6  C   UNL     1      14.205 -32.491  24.012  1.00  0.00     0.042 C 
BRANCH   6   7
ATOM      7  C   UNL     1      15.079 -33.605  23.592  1.00  0.00     0.152 C 
ATOM      8  O   UNL     1      14.994 -34.024  22.407  1.00  0.00    -0.295 OA
ATOM      9  C   UNL     1      16.060 -34.252  24.523  1.00  0.00     0.093 C 
ENDBRANCH   6   7
ENDBRANCH   1   5
TORSDOF 4
ENDMDL
MODEL 7
REMARK VINA RESULT:    -3.804      2.916      4.991
REMARK INTER + INTRA:          -4.911
REMARK INTER:                  -4.690
REMARK INTRA:                  -0.221
REMARK UNBOUND:                -0.217
REMARK SMILES CCCCC=CC(C)=O
REMARK SMILES IDX 4 1 3 2 2 3 1 4 5 5 6 6 7 7 9 8 8 9
REMARK H PARENT
REMARK Flexibility Score: inf
ROOT
ATOM      1  C   UNL     1      14.431 -30.567  23.345  1.00  0.00     0.027 C 
ENDROOT
BRANCH   1   2
ATOM      2  C   UNL     1      13.278 -31.434  22.817  1.00  0.00     0.004 C 
BRANCH   2   3
ATOM      3  C   UNL     1      12.764 -30.946  21.455  1.00  0.00    -0.003 C 
ATOM      4  C   UNL     1      11.304 -30.513  21.541  1.00  0.00     0.004 C 
ENDBRANCH   2   3
ENDBRANCH   1   2
BRANCH   1   5
ATOM      5  C   UNL     1      14.080 -29.106  23.379  1.00  0.00    -0.023 C 
ATOM      6  C   UNL     1      13.183 -28.623  24.248  1.00  0.00     0.042 C 
BRANCH   6   7
ATOM      7  C   UNL     1      12.806 -27.198  24.316  1.00  0.00     0.152 C 
ATOM      8  O   UNL     1      11.705 -26.840  23.819  1.00  0.00    -0.295 OA
ATOM      9  C   UNL     1      13.684 -26.163  24.953  1.00  0.00     0.093 C 
ENDBRANCH   6   7
ENDBRANCH   1   5
TORSDOF 4
ENDMDL
MODEL 8
REMARK VINA RESULT:    -3.773      2.279      4.968
REMARK INTER + INTRA:          -4.872
REMARK INTER:                  -4.693
REMARK INTRA:                  -0.179
REMARK UNBOUND:                -0.217
REMARK SMILES CCCCC=CC(C)=O
REMARK SMILES IDX 4 1 3 2 2 3 1 4 5 5 6 6 7 7 9 8 8 9
REMARK H PARENT
REMARK Flexibility Score: inf
ROOT
ATOM      1  C   UNL     1      13.512 -31.998  20.702  1.00  0.00     0.027 C 
ENDROOT
BRANCH   1   2
ATOM      2  C   UNL     1      14.804 -32.263  21.488  1.00  0.00     0.004 C 
BRANCH   2   3
ATOM      3  C   UNL     1      14.991 -33.753  21.808  1.00  0.00    -0.003 C 
ATOM      4  C   UNL     1      15.180 -34.570  20.534  1.00  0.00     0.004 C 
ENDBRANCH   2   3
ENDBRANCH   1   2
BRANCH   1   5
ATOM      5  C   UNL     1      12.649 -30.954  21.355  1.00  0.00    -0.023 C 
ATOM      6  C   UNL     1      13.055 -30.298  22.449  1.00  0.00     0.042 C 
BRANCH   6   7
ATOM      7  C   UNL     1      12.241 -29.267  23.124  1.00  0.00     0.152 C 
ATOM      8  O   UNL     1      11.116 -28.973  22.641  1.00  0.00    -0.295 OA
ATOM      9  C   UNL     1      12.706 -28.560  24.362  1.00  0.00     0.093 C 
ENDBRANCH   6   7
ENDBRANCH   1   5
TORSDOF 4
ENDMDL
MODEL 9
REMARK VINA RESULT:    -3.698      6.825      8.911
REMARK INTER + INTRA:          -4.780
REMARK INTER:                  -4.551
REMARK INTRA:                  -0.229
REMARK UNBOUND:                -0.217
REMARK SMILES CCCCC=CC(C)=O
REMARK SMILES IDX 4 1 3 2 2 3 1 4 5 5 6 6 7 7 9 8 8 9
REMARK H PARENT
REMARK Flexibility Score: inf
ROOT
ATOM      1  C   UNL     1      17.943 -37.282  27.094  1.00  0.00     0.027 C 
ENDROOT
BRANCH   1   2
ATOM      2  C   UNL     1      16.596 -38.006  27.236  1.00  0.00     0.004 C 
BRANCH   2   3
ATOM      3  C   UNL     1      16.154 -38.123  28.702  1.00  0.00    -0.003 C 
ATOM      4  C   UNL     1      17.307 -37.811  29.651  1.00  0.00     0.004 C 
ENDBRANCH   2   3
ENDBRANCH   1   2
BRANCH   1   5
ATOM      5  C   UNL     1      17.990 -36.395  25.882  1.00  0.00    -0.023 C 
ATOM      6  C   UNL     1      16.894 -35.774  25.427  1.00  0.00     0.042 C 
BRANCH   6   7
ATOM      7  C   UNL     1      16.893 -34.897  24.240  1.00  0.00     0.152 C 
ATOM      8  O   UNL     1      16.198 -33.846  24.266  1.00  0.00    -0.295 OA
ATOM      9  C   UNL     1      17.686 -35.211  23.006  1.00  0.00     0.093 C 
ENDBRANCH   6   7
ENDBRANCH   1   5
TORSDOF 4
ENDMDL
