MODEL 1
REMARK VINA RESULT:    -6.222      0.000      0.000
REMARK INTER + INTRA:         -11.647
REMARK INTER:                  -9.314
REMARK INTRA:                  -2.333
REMARK UNBOUND:                -2.333
REMARK SMILES C[C@@H]1O[C@@H](O[C@H]2[C@H](Oc3cc(O)c4c(c3)O[C@@H](c3ccc(O)cc3)CC4=O)O[C@H](CO)[C@H](O)[C@H]2O)[C@@H](O)[C@H](O)[C@H]1O
REMARK SMILES IDX 6 1 34 2 32 3 29 4 28 5 7 6 5 7 4 8 1 9 2 10 40 11 3 12
REMARK SMILES IDX 38 13 36 14 41 15 39 17 37 19 35 21 8 23 9 24 10 25 15 26
REMARK SMILES IDX 11 27 14 28 13 29 16 30 26 31 17 32 27 33 25 34 12 35 18 37
REMARK SMILES IDX 19 38 24 39 20 40 23 41 21 42 22 43 33 45 30 47 31 48
REMARK H PARENT 41 16 39 18 37 20 35 22 12 36 22 44 33 46 31 49
REMARK Flexibility Score: inf
ROOT
ATOM      1  C   UNL     1      57.754  -4.032 -46.830  1.00  0.00     0.221 C 
ATOM      2  C   UNL     1      58.335  -3.719 -45.460  1.00  0.00     0.181 C 
ATOM      3  C   UNL     1      59.738  -4.546 -45.271  1.00  0.00     0.177 C 
ATOM      4  C   UNL     1      59.700  -6.076 -45.647  1.00  0.00     0.179 C 
ATOM      5  O   UNL     1      58.257  -6.380 -45.762  1.00  0.00    -0.332 OA
ATOM      6  C   UNL     1      57.501  -5.609 -46.759  1.00  0.00     0.339 C 
ENDROOT
BRANCH   1   7
ATOM      7  O   UNL     1      58.811  -3.854 -47.861  1.00  0.00    -0.337 OA
BRANCH   7   8
ATOM      8  C   UNL     1      59.187  -2.514 -48.241  1.00  0.00     0.282 C 
ATOM      9  C   UNL     1      57.493  -2.481 -51.601  1.00  0.00     0.041 C 
ATOM     10  C   UNL     1      58.420  -3.015 -50.454  1.00  0.00     0.150 C 
ATOM     11  C   UNL     1      59.871  -3.200 -51.044  1.00  0.00     0.174 C 
ATOM     12  O   UNL     1      58.370  -2.111 -49.377  1.00  0.00    -0.344 OA
ATOM     13  C   UNL     1      60.765  -3.664 -49.884  1.00  0.00     0.179 C 
ATOM     14  C   UNL     1      60.645  -2.652 -48.714  1.00  0.00     0.202 C 
BRANCH  11  15
ATOM     15  O   UNL     1      59.819  -4.175 -52.040  1.00  0.00    -0.388 OA
ATOM     16  H   UNL     1      59.402  -4.977 -51.635  1.00  0.00     0.211 HD
ENDBRANCH  11  15
BRANCH  13  17
ATOM     17  O   UNL     1      62.125  -3.729 -50.368  1.00  0.00    -0.387 OA
ATOM     18  H   UNL     1      62.700  -3.337 -49.652  1.00  0.00     0.211 HD
ENDBRANCH  13  17
BRANCH  14  19
ATOM     19  O   UNL     1      61.484  -3.031 -47.643  1.00  0.00    -0.385 OA
ATOM     20  H   UNL     1      61.604  -2.262 -47.007  1.00  0.00     0.211 HD
ENDBRANCH  14  19
ENDBRANCH   7   8
ENDBRANCH   1   7
BRANCH   2  21
ATOM     21  O   UNL     1      58.263  -2.553 -44.671  1.00  0.00    -0.387 OA
ATOM     22  H   UNL     1      58.953  -1.940 -45.048  1.00  0.00     0.211 HD
ENDBRANCH   2  21
BRANCH   6  23
ATOM     23  O   UNL     1      56.061  -5.832 -46.703  1.00  0.00    -0.462 OA
BRANCH  23  24
ATOM     24  C   UNL     1      55.194  -5.988 -47.755  1.00  0.00     0.130 A 
ATOM     25  C   UNL     1      54.503  -7.182 -48.047  1.00  0.00     0.093 A 
ATOM     26  C   UNL     1      54.767  -4.827 -48.415  1.00  0.00     0.094 A 
ATOM     27  C   UNL     1      53.463  -7.235 -49.006  1.00  0.00     0.133 A 
ATOM     28  C   UNL     1      53.748  -4.842 -49.352  1.00  0.00     0.138 A 
ATOM     29  C   UNL     1      53.167  -6.077 -49.706  1.00  0.00     0.102 A 
ATOM     30  O   UNL     1      53.179  -3.629 -49.852  1.00  0.00    -0.484 OA
ATOM     31  C   UNL     1      52.224  -6.042 -50.851  1.00  0.00     0.174 C 
ATOM     32  C   UNL     1      52.081  -3.571 -50.783  1.00  0.00     0.211 C 
ATOM     33  O   UNL     1      52.730  -6.360 -52.001  1.00  0.00    -0.294 OA
ATOM     34  C   UNL     1      51.270  -4.900 -50.730  1.00  0.00     0.131 C 
BRANCH  27  35
ATOM     35  O   UNL     1      52.691  -8.385 -49.187  1.00  0.00    -0.507 OA
ATOM     36  H   UNL     1      52.174  -8.874 -48.462  1.00  0.00     0.293 HD
ENDBRANCH  27  35
BRANCH  32  37
ATOM     37  C   UNL     1      52.554  -3.279 -52.211  1.00  0.00    -0.007 A 
ATOM     38  C   UNL     1      53.930  -3.182 -52.503  1.00  0.00     0.011 A 
ATOM     39  C   UNL     1      51.616  -3.201 -53.249  1.00  0.00     0.011 A 
ATOM     40  C   UNL     1      54.355  -2.970 -53.837  1.00  0.00     0.046 A 
ATOM     41  C   UNL     1      52.043  -3.019 -54.573  1.00  0.00     0.046 A 
ATOM     42  C   UNL     1      53.408  -2.883 -54.841  1.00  0.00     0.115 A 
BRANCH  42  43
ATOM     43  O   UNL     1      53.819  -2.659 -56.174  1.00  0.00    -0.508 OA
ATOM     44  H   UNL     1      54.082  -1.727 -56.472  1.00  0.00     0.293 HD
ENDBRANCH  42  43
ENDBRANCH  32  37
ENDBRANCH  23  24
ENDBRANCH   6  23
BRANCH   3  45
ATOM     45  O   UNL     1      60.976  -3.907 -44.816  1.00  0.00    -0.387 OA
ATOM     46  H   UNL     1      61.557  -4.457 -44.167  1.00  0.00     0.211 HD
ENDBRANCH   3  45
BRANCH   4  47
ATOM     47  C   UNL     1      60.507  -6.959 -44.377  1.00  0.00     0.191 C 
BRANCH  47  48
ATOM     48  O   UNL     1      61.916  -6.879 -44.631  1.00  0.00    -0.394 OA
ATOM     49  H   UNL     1      62.141  -6.470 -45.521  1.00  0.00     0.210 HD
ENDBRANCH  47  48
ENDBRANCH   4  47
TORSDOF 14
ENDMDL
MODEL 2
REMARK VINA RESULT:    -6.169      2.046      3.862
REMARK INTER + INTRA:         -11.567
REMARK INTER:                  -9.797
REMARK INTRA:                  -1.770
REMARK UNBOUND:                -2.333
REMARK SMILES C[C@@H]1O[C@@H](O[C@H]2[C@H](Oc3cc(O)c4c(c3)O[C@@H](c3ccc(O)cc3)CC4=O)O[C@H](CO)[C@H](O)[C@H]2O)[C@@H](O)[C@H](O)[C@H]1O
REMARK SMILES IDX 6 1 34 2 32 3 29 4 28 5 7 6 5 7 4 8 1 9 2 10 40 11 3 12
REMARK SMILES IDX 38 13 36 14 41 15 39 17 37 19 35 21 8 23 9 24 10 25 15 26
REMARK SMILES IDX 11 27 14 28 13 29 16 30 26 31 17 32 27 33 25 34 12 35 18 37
REMARK SMILES IDX 19 38 24 39 20 40 23 41 21 42 22 43 33 45 30 47 31 48
REMARK H PARENT 41 16 39 18 37 20 35 22 12 36 22 44 33 46 31 49
REMARK Flexibility Score: inf
ROOT
ATOM      1  C   UNL     1      58.891  -3.707 -47.015  1.00  0.00     0.221 C 
ATOM      2  C   UNL     1      59.676  -3.426 -45.743  1.00  0.00     0.181 C 
ATOM      3  C   UNL     1      60.697  -4.676 -45.454  1.00  0.00     0.177 C 
ATOM      4  C   UNL     1      60.072  -6.120 -45.548  1.00  0.00     0.179 C 
ATOM      5  O   UNL     1      58.612  -5.877 -45.560  1.00  0.00    -0.332 OA
ATOM      6  C   UNL     1      58.094  -5.045 -46.654  1.00  0.00     0.339 C 
ENDROOT
BRANCH   1   7
ATOM      7  O   UNL     1      59.837  -4.098 -48.094  1.00  0.00    -0.337 OA
BRANCH   7   8
ATOM      8  C   UNL     1      60.695  -3.086 -48.661  1.00  0.00     0.282 C 
ATOM      9  C   UNL     1      57.979  -0.779 -49.869  1.00  0.00     0.041 C 
ATOM     10  C   UNL     1      58.754  -2.130 -49.689  1.00  0.00     0.150 C 
ATOM     11  C   UNL     1      59.086  -2.699 -51.122  1.00  0.00     0.174 C 
ATOM     12  O   UNL     1      59.899  -1.891 -48.907  1.00  0.00    -0.344 OA
ATOM     13  C   UNL     1      59.896  -3.986 -50.911  1.00  0.00     0.179 C 
ATOM     14  C   UNL     1      61.125  -3.673 -50.017  1.00  0.00     0.202 C 
BRANCH  11  15
ATOM     15  O   UNL     1      57.884  -2.980 -51.772  1.00  0.00    -0.388 OA
ATOM     16  H   UNL     1      57.862  -2.422 -52.589  1.00  0.00     0.211 HD
ENDBRANCH  11  15
BRANCH  13  17
ATOM     17  O   UNL     1      60.315  -4.467 -52.208  1.00  0.00    -0.387 OA
ATOM     18  H   UNL     1      60.774  -3.705 -52.659  1.00  0.00     0.211 HD
ENDBRANCH  13  17
BRANCH  14  19
ATOM     19  O   UNL     1      61.912  -4.831 -49.833  1.00  0.00    -0.385 OA
ATOM     20  H   UNL     1      61.430  -5.639 -50.189  1.00  0.00     0.211 HD
ENDBRANCH  14  19
ENDBRANCH   7   8
ENDBRANCH   1   7
BRANCH   2  21
ATOM     21  O   UNL     1      60.107  -2.210 -45.174  1.00  0.00    -0.387 OA
ATOM     22  H   UNL     1      59.758  -2.220 -44.241  1.00  0.00     0.211 HD
ENDBRANCH   2  21
BRANCH   6  23
ATOM     23  O   UNL     1      56.684  -4.704 -46.512  1.00  0.00    -0.462 OA
BRANCH  23  24
ATOM     24  C   UNL     1      55.726  -4.663 -47.495  1.00  0.00     0.130 A 
ATOM     25  C   UNL     1      55.713  -3.733 -48.555  1.00  0.00     0.093 A 
ATOM     26  C   UNL     1      54.868  -5.766 -47.604  1.00  0.00     0.094 A 
ATOM     27  C   UNL     1      54.834  -3.861 -49.657  1.00  0.00     0.133 A 
ATOM     28  C   UNL     1      54.003  -5.927 -48.672  1.00  0.00     0.138 A 
ATOM     29  C   UNL     1      53.931  -4.911 -49.648  1.00  0.00     0.102 A 
ATOM     30  O   UNL     1      53.297  -7.152 -48.881  1.00  0.00    -0.484 OA
ATOM     31  C   UNL     1      52.848  -5.056 -50.652  1.00  0.00     0.174 C 
ATOM     32  C   UNL     1      52.426  -7.408 -50.000  1.00  0.00     0.211 C 
ATOM     33  O   UNL     1      51.763  -4.394 -50.402  1.00  0.00    -0.294 OA
ATOM     34  C   UNL     1      52.783  -6.452 -51.178  1.00  0.00     0.131 C 
BRANCH  27  35
ATOM     35  O   UNL     1      54.924  -3.018 -50.768  1.00  0.00    -0.507 OA
ATOM     36  H   UNL     1      54.165  -2.471 -51.162  1.00  0.00     0.293 HD
ENDBRANCH  27  35
BRANCH  32  37
ATOM     37  C   UNL     1      50.948  -7.273 -49.619  1.00  0.00    -0.007 A 
ATOM     38  C   UNL     1      49.947  -7.311 -50.611  1.00  0.00     0.011 A 
ATOM     39  C   UNL     1      50.585  -7.208 -48.267  1.00  0.00     0.011 A 
ATOM     40  C   UNL     1      48.582  -7.244 -50.239  1.00  0.00     0.046 A 
ATOM     41  C   UNL     1      49.231  -7.170 -47.902  1.00  0.00     0.046 A 
ATOM     42  C   UNL     1      48.251  -7.166 -48.899  1.00  0.00     0.115 A 
BRANCH  42  43
ATOM     43  O   UNL     1      46.893  -7.085 -48.516  1.00  0.00    -0.508 OA
ATOM     44  H   UNL     1      46.520  -7.738 -47.837  1.00  0.00     0.293 HD
ENDBRANCH  42  43
ENDBRANCH  32  37
ENDBRANCH  23  24
ENDBRANCH   6  23
BRANCH   3  45
ATOM     45  O   UNL     1      62.119  -4.483 -45.162  1.00  0.00    -0.387 OA
ATOM     46  H   UNL     1      62.756  -5.216 -45.507  1.00  0.00     0.211 HD
ENDBRANCH   3  45
BRANCH   4  47
ATOM     47  C   UNL     1      60.624  -7.033 -44.167  1.00  0.00     0.191 C 
BRANCH  47  48
ATOM     48  O   UNL     1      62.011  -7.326 -44.377  1.00  0.00    -0.394 OA
ATOM     49  H   UNL     1      62.580  -6.508 -44.504  1.00  0.00     0.210 HD
ENDBRANCH  47  48
ENDBRANCH   4  47
TORSDOF 14
ENDMDL
MODEL 3
REMARK VINA RESULT:    -5.812      2.301      3.485
REMARK INTER + INTRA:         -11.032
REMARK INTER:                  -8.648
REMARK INTRA:                  -2.385
REMARK UNBOUND:                -2.333
REMARK SMILES C[C@@H]1O[C@@H](O[C@H]2[C@H](Oc3cc(O)c4c(c3)O[C@@H](c3ccc(O)cc3)CC4=O)O[C@H](CO)[C@H](O)[C@H]2O)[C@@H](O)[C@H](O)[C@H]1O
REMARK SMILES IDX 6 1 34 2 32 3 29 4 28 5 7 6 5 7 4 8 1 9 2 10 40 11 3 12
REMARK SMILES IDX 38 13 36 14 41 15 39 17 37 19 35 21 8 23 9 24 10 25 15 26
REMARK SMILES IDX 11 27 14 28 13 29 16 30 26 31 17 32 27 33 25 34 12 35 18 37
REMARK SMILES IDX 19 38 24 39 20 40 23 41 21 42 22 43 33 45 30 47 31 48
REMARK H PARENT 41 16 39 18 37 20 35 22 12 36 22 44 33 46 31 49
REMARK Flexibility Score: inf
ROOT
ATOM      1  C   UNL     1      56.956  -4.322 -46.488  1.00  0.00     0.221 C 
ATOM      2  C   UNL     1      58.035  -3.982 -45.471  1.00  0.00     0.181 C 
ATOM      3  C   UNL     1      59.505  -4.101 -46.188  1.00  0.00     0.177 C 
ATOM      4  C   UNL     1      59.766  -5.409 -47.027  1.00  0.00     0.179 C 
ATOM      5  O   UNL     1      58.665  -6.314 -46.631  1.00  0.00    -0.332 OA
ATOM      6  C   UNL     1      57.299  -5.834 -46.880  1.00  0.00     0.339 C 
ENDROOT
BRANCH   1   7
ATOM      7  O   UNL     1      57.191  -3.536 -47.728  1.00  0.00    -0.337 OA
BRANCH   7   8
ATOM      8  C   UNL     1      56.462  -2.306 -47.916  1.00  0.00     0.282 C 
ATOM      9  C   UNL     1      54.847  -3.206 -51.194  1.00  0.00     0.041 C 
ATOM     10  C   UNL     1      56.010  -3.011 -50.160  1.00  0.00     0.150 C 
ATOM     11  C   UNL     1      57.082  -2.050 -50.805  1.00  0.00     0.174 C 
ATOM     12  O   UNL     1      55.468  -2.514 -48.961  1.00  0.00    -0.344 OA
ATOM     13  C   UNL     1      58.174  -1.832 -49.747  1.00  0.00     0.179 C 
ATOM     14  C   UNL     1      57.518  -1.317 -48.438  1.00  0.00     0.202 C 
BRANCH  11  15
ATOM     15  O   UNL     1      57.612  -2.677 -51.932  1.00  0.00    -0.388 OA
ATOM     16  H   UNL     1      56.903  -2.678 -52.621  1.00  0.00     0.211 HD
ENDBRANCH  11  15
BRANCH  13  17
ATOM     17  O   UNL     1      59.110  -0.861 -50.267  1.00  0.00    -0.387 OA
ATOM     18  H   UNL     1      60.023  -1.223 -50.087  1.00  0.00     0.211 HD
ENDBRANCH  13  17
BRANCH  14  19
ATOM     19  O   UNL     1      58.502  -1.071 -47.455  1.00  0.00    -0.385 OA
ATOM     20  H   UNL     1      58.386  -0.150 -47.070  1.00  0.00     0.211 HD
ENDBRANCH  14  19
ENDBRANCH   7   8
ENDBRANCH   1   7
BRANCH   2  21
ATOM     21  O   UNL     1      58.021  -3.104 -44.368  1.00  0.00    -0.387 OA
ATOM     22  H   UNL     1      58.977  -2.991 -44.112  1.00  0.00     0.211 HD
ENDBRANCH   2  21
BRANCH   6  23
ATOM     23  O   UNL     1      56.265  -6.691 -46.313  1.00  0.00    -0.462 OA
BRANCH  23  24
ATOM     24  C   UNL     1      54.957  -6.806 -46.712  1.00  0.00     0.130 A 
ATOM     25  C   UNL     1      53.858  -6.874 -45.831  1.00  0.00     0.093 A 
ATOM     26  C   UNL     1      54.674  -6.576 -48.065  1.00  0.00     0.094 A 
ATOM     27  C   UNL     1      52.522  -6.777 -46.285  1.00  0.00     0.133 A 
ATOM     28  C   UNL     1      53.379  -6.468 -48.543  1.00  0.00     0.138 A 
ATOM     29  C   UNL     1      52.306  -6.666 -47.649  1.00  0.00     0.102 A 
ATOM     30  O   UNL     1      53.111  -6.019 -49.873  1.00  0.00    -0.484 OA
ATOM     31  C   UNL     1      50.958  -6.730 -48.264  1.00  0.00     0.174 C 
ATOM     32  C   UNL     1      51.790  -5.830 -50.416  1.00  0.00     0.211 C 
ATOM     33  O   UNL     1      50.508  -7.921 -48.501  1.00  0.00    -0.294 OA
ATOM     34  C   UNL     1      50.765  -5.632 -49.259  1.00  0.00     0.131 C 
BRANCH  27  35
ATOM     35  O   UNL     1      51.448  -6.703 -45.394  1.00  0.00    -0.507 OA
ATOM     36  H   UNL     1      50.873  -5.884 -45.222  1.00  0.00     0.293 HD
ENDBRANCH  27  35
BRANCH  32  37
ATOM     37  C   UNL     1      51.369  -6.991 -51.323  1.00  0.00    -0.007 A 
ATOM     38  C   UNL     1      50.148  -6.945 -52.026  1.00  0.00     0.011 A 
ATOM     39  C   UNL     1      52.249  -8.062 -51.527  1.00  0.00     0.011 A 
ATOM     40  C   UNL     1      49.800  -7.999 -52.904  1.00  0.00     0.046 A 
ATOM     41  C   UNL     1      51.912  -9.090 -52.421  1.00  0.00     0.046 A 
ATOM     42  C   UNL     1      50.679  -9.051 -53.078  1.00  0.00     0.115 A 
BRANCH  42  43
ATOM     43  O   UNL     1      50.337 -10.115 -53.943  1.00  0.00    -0.508 OA
ATOM     44  H   UNL     1      49.364 -10.349 -54.096  1.00  0.00     0.293 HD
ENDBRANCH  42  43
ENDBRANCH  32  37
ENDBRANCH  23  24
ENDBRANCH   6  23
BRANCH   3  45
ATOM     45  O   UNL     1      60.516  -3.044 -46.097  1.00  0.00    -0.387 OA
ATOM     46  H   UNL     1      61.465  -3.297 -46.409  1.00  0.00     0.211 HD
ENDBRANCH   3  45
BRANCH   4  47
ATOM     47  C   UNL     1      61.353  -6.004 -46.611  1.00  0.00     0.191 C 
BRANCH  47  48
ATOM     48  O   UNL     1      62.113  -6.076 -47.825  1.00  0.00    -0.394 OA
ATOM     49  H   UNL     1      62.811  -5.358 -47.905  1.00  0.00     0.210 HD
ENDBRANCH  47  48
ENDBRANCH   4  47
TORSDOF 14
ENDMDL
MODEL 4
REMARK VINA RESULT:    -5.775      2.740      5.812
REMARK INTER + INTRA:         -10.978
REMARK INTER:                  -8.815
REMARK INTRA:                  -2.163
REMARK UNBOUND:                -2.333
REMARK SMILES C[C@@H]1O[C@@H](O[C@H]2[C@H](Oc3cc(O)c4c(c3)O[C@@H](c3ccc(O)cc3)CC4=O)O[C@H](CO)[C@H](O)[C@H]2O)[C@@H](O)[C@H](O)[C@H]1O
REMARK SMILES IDX 6 1 34 2 32 3 29 4 28 5 7 6 5 7 4 8 1 9 2 10 40 11 3 12
REMARK SMILES IDX 38 13 36 14 41 15 39 17 37 19 35 21 8 23 9 24 10 25 15 26
REMARK SMILES IDX 11 27 14 28 13 29 16 30 26 31 17 32 27 33 25 34 12 35 18 37
REMARK SMILES IDX 19 38 24 39 20 40 23 41 21 42 22 43 33 45 30 47 31 48
REMARK H PARENT 41 16 39 18 37 20 35 22 12 36 22 44 33 46 31 49
REMARK Flexibility Score: inf
ROOT
ATOM      1  C   UNL     1      58.510  -1.795 -49.450  1.00  0.00     0.221 C 
ATOM      2  C   UNL     1      58.773  -0.305 -49.299  1.00  0.00     0.181 C 
ATOM      3  C   UNL     1      58.500   0.133 -47.742  1.00  0.00     0.177 C 
ATOM      4  C   UNL     1      57.153  -0.377 -47.102  1.00  0.00     0.179 C 
ATOM      5  O   UNL     1      56.365  -0.853 -48.260  1.00  0.00    -0.332 OA
ATOM      6  C   UNL     1      56.964  -1.926 -49.065  1.00  0.00     0.339 C 
ENDROOT
BRANCH   1   7
ATOM      7  O   UNL     1      59.240  -2.529 -48.383  1.00  0.00    -0.337 OA
BRANCH   7   8
ATOM      8  C   UNL     1      58.695  -3.775 -47.903  1.00  0.00     0.282 C 
ATOM      9  C   UNL     1      59.537  -3.296 -44.267  1.00  0.00     0.041 C 
ATOM     10  C   UNL     1      59.788  -3.357 -45.814  1.00  0.00     0.150 C 
ATOM     11  C   UNL     1      60.952  -4.387 -46.080  1.00  0.00     0.174 C 
ATOM     12  O   UNL     1      58.584  -3.702 -46.452  1.00  0.00    -0.344 OA
ATOM     13  C   UNL     1      61.132  -4.469 -47.603  1.00  0.00     0.179 C 
ATOM     14  C   UNL     1      59.769  -4.819 -48.257  1.00  0.00     0.202 C 
BRANCH  11  15
ATOM     15  O   UNL     1      62.113  -3.904 -45.477  1.00  0.00    -0.388 OA
ATOM     16  H   UNL     1      62.709  -4.681 -45.336  1.00  0.00     0.211 HD
ENDBRANCH  11  15
BRANCH  13  17
ATOM     17  O   UNL     1      62.112  -5.494 -47.882  1.00  0.00    -0.387 OA
ATOM     18  H   UNL     1      61.762  -6.017 -48.657  1.00  0.00     0.211 HD
ENDBRANCH  13  17
BRANCH  14  19
ATOM     19  O   UNL     1      59.908  -4.937 -49.658  1.00  0.00    -0.385 OA
ATOM     20  H   UNL     1      60.325  -4.104 -50.037  1.00  0.00     0.211 HD
ENDBRANCH  14  19
ENDBRANCH   7   8
ENDBRANCH   1   7
BRANCH   2  21
ATOM     21  O   UNL     1      59.675   0.547 -49.969  1.00  0.00    -0.387 OA
ATOM     22  H   UNL     1      60.517   0.503 -49.438  1.00  0.00     0.211 HD
ENDBRANCH   2  21
BRANCH   6  23
ATOM     23  O   UNL     1      56.221  -2.229 -50.283  1.00  0.00    -0.462 OA
BRANCH  23  24
ATOM     24  C   UNL     1      55.199  -3.130 -50.441  1.00  0.00     0.130 A 
ATOM     25  C   UNL     1      54.582  -3.426 -51.674  1.00  0.00     0.093 A 
ATOM     26  C   UNL     1      54.932  -3.996 -49.372  1.00  0.00     0.094 A 
ATOM     27  C   UNL     1      53.684  -4.509 -51.826  1.00  0.00     0.133 A 
ATOM     28  C   UNL     1      54.066  -5.070 -49.488  1.00  0.00     0.138 A 
ATOM     29  C   UNL     1      53.374  -5.258 -50.702  1.00  0.00     0.102 A 
ATOM     30  O   UNL     1      53.971  -6.064 -48.465  1.00  0.00    -0.484 OA
ATOM     31  C   UNL     1      52.322  -6.303 -50.691  1.00  0.00     0.174 C 
ATOM     32  C   UNL     1      53.135  -7.235 -48.545  1.00  0.00     0.211 C 
ATOM     33  O   UNL     1      51.115  -5.880 -50.486  1.00  0.00    -0.294 OA
ATOM     34  C   UNL     1      52.811  -7.553 -50.035  1.00  0.00     0.131 C 
BRANCH  27  35
ATOM     35  O   UNL     1      53.190  -4.881 -53.079  1.00  0.00    -0.507 OA
ATOM     36  H   UNL     1      53.692  -4.817 -53.959  1.00  0.00     0.293 HD
ENDBRANCH  27  35
BRANCH  32  37
ATOM     37  C   UNL     1      51.847  -7.077 -47.729  1.00  0.00    -0.007 A 
ATOM     38  C   UNL     1      50.832  -8.053 -47.799  1.00  0.00     0.011 A 
ATOM     39  C   UNL     1      51.720  -6.004 -46.838  1.00  0.00     0.011 A 
ATOM     40  C   UNL     1      49.672  -7.923 -46.996  1.00  0.00     0.046 A 
ATOM     41  C   UNL     1      50.583  -5.895 -46.023  1.00  0.00     0.046 A 
ATOM     42  C   UNL     1      49.566  -6.847 -46.134  1.00  0.00     0.115 A 
BRANCH  42  43
ATOM     43  O   UNL     1      48.408  -6.700 -45.337  1.00  0.00    -0.508 OA
ATOM     44  H   UNL     1      47.840  -7.509 -45.118  1.00  0.00     0.293 HD
ENDBRANCH  42  43
ENDBRANCH  32  37
ENDBRANCH  23  24
ENDBRANCH   6  23
BRANCH   3  45
ATOM     45  O   UNL     1      59.460   0.920 -46.963  1.00  0.00    -0.387 OA
ATOM     46  H   UNL     1      59.202   1.902 -46.786  1.00  0.00     0.211 HD
ENDBRANCH   3  45
BRANCH   4  47
ATOM     47  C   UNL     1      56.423   0.962 -46.255  1.00  0.00     0.191 C 
BRANCH  47  48
ATOM     48  O   UNL     1      55.088   1.109 -46.758  1.00  0.00    -0.394 OA
ATOM     49  H   UNL     1      54.399   1.240 -46.038  1.00  0.00     0.210 HD
ENDBRANCH  47  48
ENDBRANCH   4  47
TORSDOF 14
ENDMDL
MODEL 5
REMARK VINA RESULT:    -5.726      7.196      9.931
REMARK INTER + INTRA:         -10.904
REMARK INTER:                  -8.832
REMARK INTRA:                  -2.072
REMARK UNBOUND:                -2.333
REMARK SMILES C[C@@H]1O[C@@H](O[C@H]2[C@H](Oc3cc(O)c4c(c3)O[C@@H](c3ccc(O)cc3)CC4=O)O[C@H](CO)[C@H](O)[C@H]2O)[C@@H](O)[C@H](O)[C@H]1O
REMARK SMILES IDX 6 1 34 2 32 3 29 4 28 5 7 6 5 7 4 8 1 9 2 10 40 11 3 12
REMARK SMILES IDX 38 13 36 14 41 15 39 17 37 19 35 21 8 23 9 24 10 25 15 26
REMARK SMILES IDX 11 27 14 28 13 29 16 30 26 31 17 32 27 33 25 34 12 35 18 37
REMARK SMILES IDX 19 38 24 39 20 40 23 41 21 42 22 43 33 45 30 47 31 48
REMARK H PARENT 41 16 39 18 37 20 35 22 12 36 22 44 33 46 31 49
REMARK Flexibility Score: inf
ROOT
ATOM      1  C   UNL     1      54.535   4.271 -47.596  1.00  0.00     0.221 C 
ATOM      2  C   UNL     1      53.571   4.879 -46.589  1.00  0.00     0.181 C 
ATOM      3  C   UNL     1      53.705   6.513 -46.635  1.00  0.00     0.177 C 
ATOM      4  C   UNL     1      55.170   7.091 -46.590  1.00  0.00     0.179 C 
ATOM      5  O   UNL     1      55.999   5.936 -46.184  1.00  0.00    -0.332 OA
ATOM      6  C   UNL     1      55.961   4.759 -47.063  1.00  0.00     0.339 C 
ENDROOT
BRANCH   1   7
ATOM      7  O   UNL     1      54.358   4.948 -48.909  1.00  0.00    -0.337 OA
BRANCH   7   8
ATOM      8  C   UNL     1      55.533   5.320 -49.658  1.00  0.00     0.282 C 
ATOM      9  C   UNL     1      54.326   8.702 -50.786  1.00  0.00     0.041 C 
ATOM     10  C   UNL     1      54.278   7.150 -50.560  1.00  0.00     0.150 C 
ATOM     11  C   UNL     1      54.048   6.460 -51.959  1.00  0.00     0.174 C 
ATOM     12  O   UNL     1      55.471   6.750 -49.932  1.00  0.00    -0.344 OA
ATOM     13  C   UNL     1      54.068   4.944 -51.713  1.00  0.00     0.179 C 
ATOM     14  C   UNL     1      55.387   4.563 -50.990  1.00  0.00     0.202 C 
BRANCH  11  15
ATOM     15  O   UNL     1      52.804   6.859 -52.447  1.00  0.00    -0.388 OA
ATOM     16  H   UNL     1      52.518   6.172 -53.099  1.00  0.00     0.211 HD
ENDBRANCH  11  15
BRANCH  13  17
ATOM     17  O   UNL     1      53.977   4.282 -52.995  1.00  0.00    -0.387 OA
ATOM     18  H   UNL     1      54.912   4.174 -53.325  1.00  0.00     0.211 HD
ENDBRANCH  13  17
BRANCH  14  19
ATOM     19  O   UNL     1      55.451   3.167 -50.780  1.00  0.00    -0.385 OA
ATOM     20  H   UNL     1      54.807   2.694 -51.390  1.00  0.00     0.211 HD
ENDBRANCH  14  19
ENDBRANCH   7   8
ENDBRANCH   1   7
BRANCH   2  21
ATOM     21  O   UNL     1      52.314   4.434 -46.130  1.00  0.00    -0.387 OA
ATOM     22  H   UNL     1      52.021   5.118 -45.467  1.00  0.00     0.211 HD
ENDBRANCH   2  21
BRANCH   6  23
ATOM     23  O   UNL     1      56.659   3.600 -46.521  1.00  0.00    -0.462 OA
BRANCH  23  24
ATOM     24  C   UNL     1      56.551   2.292 -46.921  1.00  0.00     0.130 A 
ATOM     25  C   UNL     1      55.559   1.399 -46.465  1.00  0.00     0.093 A 
ATOM     26  C   UNL     1      57.299   1.896 -48.038  1.00  0.00     0.094 A 
ATOM     27  C   UNL     1      55.357   0.131 -47.061  1.00  0.00     0.133 A 
ATOM     28  C   UNL     1      57.121   0.667 -48.650  1.00  0.00     0.138 A 
ATOM     29  C   UNL     1      56.206  -0.247 -48.088  1.00  0.00     0.102 A 
ATOM     30  O   UNL     1      57.730   0.366 -49.908  1.00  0.00    -0.484 OA
ATOM     31  C   UNL     1      56.210  -1.609 -48.675  1.00  0.00     0.174 C 
ATOM     32  C   UNL     1      57.542  -0.868 -50.627  1.00  0.00     0.211 C 
ATOM     33  O   UNL     1      56.922  -2.487 -48.043  1.00  0.00    -0.294 OA
ATOM     34  C   UNL     1      56.220  -1.553 -50.168  1.00  0.00     0.131 C 
BRANCH  27  35
ATOM     35  O   UNL     1      54.283  -0.686 -46.698  1.00  0.00    -0.507 OA
ATOM     36  H   UNL     1      54.352  -1.629 -46.328  1.00  0.00     0.293 HD
ENDBRANCH  27  35
BRANCH  32  37
ATOM     37  C   UNL     1      58.734  -1.817 -50.459  1.00  0.00    -0.007 A 
ATOM     38  C   UNL     1      59.759  -1.522 -49.537  1.00  0.00     0.011 A 
ATOM     39  C   UNL     1      58.755  -3.031 -51.158  1.00  0.00     0.011 A 
ATOM     40  C   UNL     1      60.825  -2.436 -49.351  1.00  0.00     0.046 A 
ATOM     41  C   UNL     1      59.798  -3.947 -50.948  1.00  0.00     0.046 A 
ATOM     42  C   UNL     1      60.829  -3.621 -50.062  1.00  0.00     0.115 A 
BRANCH  42  43
ATOM     43  O   UNL     1      61.894  -4.535 -49.894  1.00  0.00    -0.508 OA
ATOM     44  H   UNL     1      62.610  -4.355 -49.201  1.00  0.00     0.293 HD
ENDBRANCH  42  43
ENDBRANCH  32  37
ENDBRANCH  23  24
ENDBRANCH   6  23
BRANCH   3  45
ATOM     45  O   UNL     1      52.542   7.397 -46.750  1.00  0.00    -0.387 OA
ATOM     46  H   UNL     1      52.579   8.267 -46.198  1.00  0.00     0.211 HD
ENDBRANCH   3  45
BRANCH   4  47
ATOM     47  C   UNL     1      55.189   8.410 -45.448  1.00  0.00     0.191 C 
BRANCH  47  48
ATOM     48  O   UNL     1      56.555   8.623 -45.066  1.00  0.00    -0.394 OA
ATOM     49  H   UNL     1      57.139   8.934 -45.823  1.00  0.00     0.210 HD
ENDBRANCH  47  48
ENDBRANCH   4  47
TORSDOF 14
ENDMDL
MODEL 6
REMARK VINA RESULT:    -5.704      3.798      5.502
REMARK INTER + INTRA:         -10.872
REMARK INTER:                  -9.123
REMARK INTRA:                  -1.749
REMARK UNBOUND:                -2.333
REMARK SMILES C[C@@H]1O[C@@H](O[C@H]2[C@H](Oc3cc(O)c4c(c3)O[C@@H](c3ccc(O)cc3)CC4=O)O[C@H](CO)[C@H](O)[C@H]2O)[C@@H](O)[C@H](O)[C@H]1O
REMARK SMILES IDX 6 1 34 2 32 3 29 4 28 5 7 6 5 7 4 8 1 9 2 10 40 11 3 12
REMARK SMILES IDX 38 13 36 14 41 15 39 17 37 19 35 21 8 23 9 24 10 25 15 26
REMARK SMILES IDX 11 27 14 28 13 29 16 30 26 31 17 32 27 33 25 34 12 35 18 37
REMARK SMILES IDX 19 38 24 39 20 40 23 41 21 42 22 43 33 45 30 47 31 48
REMARK H PARENT 41 16 39 18 37 20 35 22 12 36 22 44 33 46 31 49
REMARK Flexibility Score: inf
ROOT
ATOM      1  C   UNL     1      58.556  -2.836 -45.924  1.00  0.00     0.221 C 
ATOM      2  C   UNL     1      59.445  -2.190 -44.872  1.00  0.00     0.181 C 
ATOM      3  C   UNL     1      60.729  -3.168 -44.581  1.00  0.00     0.177 C 
ATOM      4  C   UNL     1      60.403  -4.690 -44.337  1.00  0.00     0.179 C 
ATOM      5  O   UNL     1      58.939  -4.713 -44.125  1.00  0.00    -0.332 OA
ATOM      6  C   UNL     1      58.109  -4.202 -45.223  1.00  0.00     0.339 C 
ENDROOT
BRANCH   1   7
ATOM      7  O   UNL     1      59.393  -3.249 -47.082  1.00  0.00    -0.337 OA
BRANCH   7   8
ATOM      8  C   UNL     1      60.292  -2.283 -47.665  1.00  0.00     0.282 C 
ATOM      9  C   UNL     1      58.265  -1.549 -50.749  1.00  0.00     0.041 C 
ATOM     10  C   UNL     1      59.007  -2.425 -49.681  1.00  0.00     0.150 C 
ATOM     11  C   UNL     1      60.064  -3.323 -50.433  1.00  0.00     0.174 C 
ATOM     12  O   UNL     1      59.583  -1.574 -48.722  1.00  0.00    -0.344 OA
ATOM     13  C   UNL     1      60.813  -4.121 -49.356  1.00  0.00     0.179 C 
ATOM     14  C   UNL     1      61.398  -3.137 -48.308  1.00  0.00     0.202 C 
BRANCH  11  15
ATOM     15  O   UNL     1      59.378  -4.183 -51.290  1.00  0.00    -0.388 OA
ATOM     16  H   UNL     1      59.188  -5.008 -50.778  1.00  0.00     0.211 HD
ENDBRANCH  11  15
BRANCH  13  17
ATOM     17  O   UNL     1      61.868  -4.865 -50.005  1.00  0.00    -0.387 OA
ATOM     18  H   UNL     1      62.063  -4.393 -50.862  1.00  0.00     0.211 HD
ENDBRANCH  13  17
BRANCH  14  19
ATOM     19  O   UNL     1      62.125  -3.839 -47.322  1.00  0.00    -0.385 OA
ATOM     20  H   UNL     1      62.830  -4.413 -47.752  1.00  0.00     0.211 HD
ENDBRANCH  14  19
ENDBRANCH   7   8
ENDBRANCH   1   7
BRANCH   2  21
ATOM     21  O   UNL     1      59.698  -0.834 -44.584  1.00  0.00    -0.387 OA
ATOM     22  H   UNL     1      59.847  -0.799 -43.600  1.00  0.00     0.211 HD
ENDBRANCH   2  21
BRANCH   6  23
ATOM     23  O   UNL     1      56.694  -4.092 -44.886  1.00  0.00    -0.462 OA
BRANCH  23  24
ATOM     24  C   UNL     1      55.690  -4.981 -45.175  1.00  0.00     0.130 A 
ATOM     25  C   UNL     1      55.829  -6.086 -46.040  1.00  0.00     0.093 A 
ATOM     26  C   UNL     1      54.547  -4.947 -44.364  1.00  0.00     0.094 A 
ATOM     27  C   UNL     1      54.839  -7.092 -46.141  1.00  0.00     0.133 A 
ATOM     28  C   UNL     1      53.563  -5.919 -44.432  1.00  0.00     0.138 A 
ATOM     29  C   UNL     1      53.681  -6.940 -45.397  1.00  0.00     0.102 A 
ATOM     30  O   UNL     1      52.520  -5.991 -43.457  1.00  0.00    -0.484 OA
ATOM     31  C   UNL     1      52.502  -7.828 -45.544  1.00  0.00     0.174 C 
ATOM     32  C   UNL     1      51.499  -7.008 -43.434  1.00  0.00     0.211 C 
ATOM     33  O   UNL     1      51.683  -7.516 -46.498  1.00  0.00    -0.294 OA
ATOM     34  C   UNL     1      51.986  -8.266 -44.213  1.00  0.00     0.131 C 
BRANCH  27  35
ATOM     35  O   UNL     1      55.048  -8.252 -46.891  1.00  0.00    -0.507 OA
ATOM     36  H   UNL     1      54.778  -9.193 -46.619  1.00  0.00     0.293 HD
ENDBRANCH  27  35
BRANCH  32  37
ATOM     37  C   UNL     1      50.169  -6.498 -44.000  1.00  0.00    -0.007 A 
ATOM     38  C   UNL     1      49.064  -7.365 -44.120  1.00  0.00     0.011 A 
ATOM     39  C   UNL     1      50.025  -5.140 -44.310  1.00  0.00     0.011 A 
ATOM     40  C   UNL     1      47.825  -6.867 -44.591  1.00  0.00     0.046 A 
ATOM     41  C   UNL     1      48.787  -4.645 -44.749  1.00  0.00     0.046 A 
ATOM     42  C   UNL     1      47.712  -5.525 -44.903  1.00  0.00     0.115 A 
BRANCH  42  43
ATOM     43  O   UNL     1      46.484  -5.019 -45.386  1.00  0.00    -0.508 OA
ATOM     44  H   UNL     1      45.612  -5.433 -45.082  1.00  0.00     0.293 HD
ENDBRANCH  42  43
ENDBRANCH  32  37
ENDBRANCH  23  24
ENDBRANCH   6  23
BRANCH   3  45
ATOM     45  O   UNL     1      62.110  -2.678 -44.581  1.00  0.00    -0.387 OA
ATOM     46  H   UNL     1      62.227  -1.656 -44.517  1.00  0.00     0.211 HD
ENDBRANCH   3  45
BRANCH   4  47
ATOM     47  C   UNL     1      61.325  -5.220 -42.954  1.00  0.00     0.191 C 
BRANCH  47  48
ATOM     48  O   UNL     1      60.895  -6.551 -42.639  1.00  0.00    -0.394 OA
ATOM     49  H   UNL     1      61.605  -7.108 -42.197  1.00  0.00     0.210 HD
ENDBRANCH  47  48
ENDBRANCH   4  47
TORSDOF 14
ENDMDL
MODEL 7
REMARK VINA RESULT:    -5.685      2.926      5.394
REMARK INTER + INTRA:         -10.842
REMARK INTER:                  -8.717
REMARK INTRA:                  -2.126
REMARK UNBOUND:                -2.333
REMARK SMILES C[C@@H]1O[C@@H](O[C@H]2[C@H](Oc3cc(O)c4c(c3)O[C@@H](c3ccc(O)cc3)CC4=O)O[C@H](CO)[C@H](O)[C@H]2O)[C@@H](O)[C@H](O)[C@H]1O
REMARK SMILES IDX 6 1 34 2 32 3 29 4 28 5 7 6 5 7 4 8 1 9 2 10 40 11 3 12
REMARK SMILES IDX 38 13 36 14 41 15 39 17 37 19 35 21 8 23 9 24 10 25 15 26
REMARK SMILES IDX 11 27 14 28 13 29 16 30 26 31 17 32 27 33 25 34 12 35 18 37
REMARK SMILES IDX 19 38 24 39 20 40 23 41 21 42 22 43 33 45 30 47 31 48
REMARK H PARENT 41 16 39 18 37 20 35 22 12 36 22 44 33 46 31 49
REMARK Flexibility Score: inf
ROOT
ATOM      1  C   UNL     1      59.067  -5.904 -46.757  1.00  0.00     0.221 C 
ATOM      2  C   UNL     1      59.146  -4.887 -47.885  1.00  0.00     0.181 C 
ATOM      3  C   UNL     1      58.869  -3.389 -47.278  1.00  0.00     0.177 C 
ATOM      4  C   UNL     1      57.616  -3.242 -46.334  1.00  0.00     0.179 C 
ATOM      5  O   UNL     1      56.858  -4.495 -46.548  1.00  0.00    -0.332 OA
ATOM      6  C   UNL     1      57.561  -5.748 -46.242  1.00  0.00     0.339 C 
ENDROOT
BRANCH   1   7
ATOM      7  O   UNL     1      59.914  -5.444 -45.626  1.00  0.00    -0.337 OA
BRANCH   7   8
ATOM      8  C   UNL     1      61.326  -5.739 -45.655  1.00  0.00     0.282 C 
ATOM      9  C   UNL     1      61.345  -8.252 -42.854  1.00  0.00     0.041 C 
ATOM     10  C   UNL     1      61.046  -6.891 -43.574  1.00  0.00     0.150 C 
ATOM     11  C   UNL     1      61.675  -5.732 -42.709  1.00  0.00     0.174 C 
ATOM     12  O   UNL     1      61.560  -6.951 -44.881  1.00  0.00    -0.344 OA
ATOM     13  C   UNL     1      61.418  -4.423 -43.471  1.00  0.00     0.179 C 
ATOM     14  C   UNL     1      61.974  -4.556 -44.913  1.00  0.00     0.202 C 
BRANCH  11  15
ATOM     15  O   UNL     1      61.034  -5.710 -41.471  1.00  0.00    -0.388 OA
ATOM     16  H   UNL     1      60.541  -6.564 -41.387  1.00  0.00     0.211 HD
ENDBRANCH  11  15
BRANCH  13  17
ATOM     17  O   UNL     1      62.086  -3.356 -42.761  1.00  0.00    -0.387 OA
ATOM     18  H   UNL     1      61.407  -2.637 -42.623  1.00  0.00     0.211 HD
ENDBRANCH  13  17
BRANCH  14  19
ATOM     19  O   UNL     1      61.785  -3.354 -45.630  1.00  0.00    -0.385 OA
ATOM     20  H   UNL     1      62.496  -3.254 -46.334  1.00  0.00     0.211 HD
ENDBRANCH  14  19
ENDBRANCH   7   8
ENDBRANCH   1   7
BRANCH   2  21
ATOM     21  O   UNL     1      59.915  -4.878 -49.067  1.00  0.00    -0.387 OA
ATOM     22  H   UNL     1      59.401  -5.431 -49.717  1.00  0.00     0.211 HD
ENDBRANCH   2  21
BRANCH   6  23
ATOM     23  O   UNL     1      56.825  -6.943 -46.636  1.00  0.00    -0.462 OA
BRANCH  23  24
ATOM     24  C   UNL     1      55.476  -7.064 -46.859  1.00  0.00     0.130 A 
ATOM     25  C   UNL     1      54.510  -7.200 -45.842  1.00  0.00     0.093 A 
ATOM     26  C   UNL     1      55.008  -6.770 -48.147  1.00  0.00     0.094 A 
ATOM     27  C   UNL     1      53.122  -7.107 -46.105  1.00  0.00     0.133 A 
ATOM     28  C   UNL     1      53.659  -6.663 -48.437  1.00  0.00     0.138 A 
ATOM     29  C   UNL     1      52.721  -6.929 -47.418  1.00  0.00     0.102 A 
ATOM     30  O   UNL     1      53.205  -6.152 -49.693  1.00  0.00    -0.484 OA
ATOM     31  C   UNL     1      51.302  -6.989 -47.846  1.00  0.00     0.174 C 
ATOM     32  C   UNL     1      51.819  -5.961 -50.040  1.00  0.00     0.211 C 
ATOM     33  O   UNL     1      50.840  -8.175 -48.084  1.00  0.00    -0.294 OA
ATOM     34  C   UNL     1      50.961  -5.845 -48.745  1.00  0.00     0.131 C 
BRANCH  27  35
ATOM     35  O   UNL     1      52.180  -7.101 -45.073  1.00  0.00    -0.507 OA
ATOM     36  H   UNL     1      51.233  -7.465 -45.130  1.00  0.00     0.293 HD
ENDBRANCH  27  35
BRANCH  32  37
ATOM     37  C   UNL     1      51.294  -7.083 -50.943  1.00  0.00    -0.007 A 
ATOM     38  C   UNL     1      49.956  -7.076 -51.388  1.00  0.00     0.011 A 
ATOM     39  C   UNL     1      52.175  -8.069 -51.404  1.00  0.00     0.011 A 
ATOM     40  C   UNL     1      49.501  -8.087 -52.268  1.00  0.00     0.046 A 
ATOM     41  C   UNL     1      51.727  -9.053 -52.299  1.00  0.00     0.046 A 
ATOM     42  C   UNL     1      50.387  -9.057 -52.698  1.00  0.00     0.115 A 
BRANCH  42  43
ATOM     43  O   UNL     1      49.941 -10.079 -53.567  1.00  0.00    -0.508 OA
ATOM     44  H   UNL     1      49.262 -10.756 -53.243  1.00  0.00     0.293 HD
ENDBRANCH  42  43
ENDBRANCH  32  37
ENDBRANCH  23  24
ENDBRANCH   6  23
BRANCH   3  45
ATOM     45  O   UNL     1      59.748  -2.250 -47.556  1.00  0.00    -0.387 OA
ATOM     46  H   UNL     1      59.449  -1.624 -48.319  1.00  0.00     0.211 HD
ENDBRANCH   3  45
BRANCH   4  47
ATOM     47  C   UNL     1      56.752  -1.804 -46.811  1.00  0.00     0.191 C 
BRANCH  47  48
ATOM     48  O   UNL     1      55.371  -2.165 -46.957  1.00  0.00    -0.394 OA
ATOM     49  H   UNL     1      54.840  -1.507 -47.499  1.00  0.00     0.210 HD
ENDBRANCH  47  48
ENDBRANCH   4  47
TORSDOF 14
ENDMDL
MODEL 8
REMARK VINA RESULT:    -5.612      3.408      5.105
REMARK INTER + INTRA:         -10.733
REMARK INTER:                  -8.682
REMARK INTRA:                  -2.051
REMARK UNBOUND:                -2.333
REMARK SMILES C[C@@H]1O[C@@H](O[C@H]2[C@H](Oc3cc(O)c4c(c3)O[C@@H](c3ccc(O)cc3)CC4=O)O[C@H](CO)[C@H](O)[C@H]2O)[C@@H](O)[C@H](O)[C@H]1O
REMARK SMILES IDX 6 1 34 2 32 3 29 4 28 5 7 6 5 7 4 8 1 9 2 10 40 11 3 12
REMARK SMILES IDX 38 13 36 14 41 15 39 17 37 19 35 21 8 23 9 24 10 25 15 26
REMARK SMILES IDX 11 27 14 28 13 29 16 30 26 31 17 32 27 33 25 34 12 35 18 37
REMARK SMILES IDX 19 38 24 39 20 40 23 41 21 42 22 43 33 45 30 47 31 48
REMARK H PARENT 41 16 39 18 37 20 35 22 12 36 22 44 33 46 31 49
REMARK Flexibility Score: inf
ROOT
ATOM      1  C   UNL     1      57.103  -4.002 -46.304  1.00  0.00     0.221 C 
ATOM      2  C   UNL     1      58.234  -3.756 -45.318  1.00  0.00     0.181 C 
ATOM      3  C   UNL     1      59.662  -4.118 -46.037  1.00  0.00     0.177 C 
ATOM      4  C   UNL     1      59.727  -5.497 -46.799  1.00  0.00     0.179 C 
ATOM      5  O   UNL     1      58.518  -6.216 -46.340  1.00  0.00    -0.332 OA
ATOM      6  C   UNL     1      57.228  -5.567 -46.607  1.00  0.00     0.339 C 
ENDROOT
BRANCH   1   7
ATOM      7  O   UNL     1      57.424  -3.329 -47.591  1.00  0.00    -0.337 OA
BRANCH   7   8
ATOM      8  C   UNL     1      56.865  -2.025 -47.848  1.00  0.00     0.282 C 
ATOM      9  C   UNL     1      55.312  -2.821 -51.182  1.00  0.00     0.041 C 
ATOM     10  C   UNL     1      56.438  -2.739 -50.094  1.00  0.00     0.150 C 
ATOM     11  C   UNL     1      57.653  -1.940 -50.706  1.00  0.00     0.174 C 
ATOM     12  O   UNL     1      55.906  -2.141 -48.938  1.00  0.00    -0.344 OA
ATOM     13  C   UNL     1      58.711  -1.826 -49.599  1.00  0.00     0.179 C 
ATOM     14  C   UNL     1      58.062  -1.192 -48.340  1.00  0.00     0.202 C 
BRANCH  11  15
ATOM     15  O   UNL     1      58.154  -2.664 -51.788  1.00  0.00    -0.388 OA
ATOM     16  H   UNL     1      57.531  -2.521 -52.543  1.00  0.00     0.211 HD
ENDBRANCH  11  15
BRANCH  13  17
ATOM     17  O   UNL     1      59.786  -0.997 -50.094  1.00  0.00    -0.387 OA
ATOM     18  H   UNL     1      60.627  -1.522 -49.975  1.00  0.00     0.211 HD
ENDBRANCH  13  17
BRANCH  14  19
ATOM     19  O   UNL     1      59.020  -1.040 -47.313  1.00  0.00    -0.385 OA
ATOM     20  H   UNL     1      59.295  -0.076 -47.234  1.00  0.00     0.211 HD
ENDBRANCH  14  19
ENDBRANCH   7   8
ENDBRANCH   1   7
BRANCH   2  21
ATOM     21  O   UNL     1      58.358  -2.821 -44.269  1.00  0.00    -0.387 OA
ATOM     22  H   UNL     1      59.319  -2.847 -44.010  1.00  0.00     0.211 HD
ENDBRANCH   2  21
BRANCH   6  23
ATOM     23  O   UNL     1      56.094  -6.238 -45.982  1.00  0.00    -0.462 OA
BRANCH  23  24
ATOM     24  C   UNL     1      54.846  -6.448 -46.512  1.00  0.00     0.130 A 
ATOM     25  C   UNL     1      54.605  -6.913 -47.821  1.00  0.00     0.093 A 
ATOM     26  C   UNL     1      53.762  -6.460 -45.623  1.00  0.00     0.094 A 
ATOM     27  C   UNL     1      53.319  -7.317 -48.252  1.00  0.00     0.133 A 
ATOM     28  C   UNL     1      52.494  -6.858 -46.009  1.00  0.00     0.138 A 
ATOM     29  C   UNL     1      52.268  -7.196 -47.359  1.00  0.00     0.102 A 
ATOM     30  O   UNL     1      51.456  -7.072 -45.048  1.00  0.00    -0.484 OA
ATOM     31  C   UNL     1      50.852  -7.421 -47.740  1.00  0.00     0.174 C 
ATOM     32  C   UNL     1      50.133  -7.539 -45.373  1.00  0.00     0.211 C 
ATOM     33  O   UNL     1      50.247  -6.404 -48.268  1.00  0.00    -0.294 OA
ATOM     34  C   UNL     1      50.155  -8.285 -46.741  1.00  0.00     0.131 C 
BRANCH  27  35
ATOM     35  O   UNL     1      53.117  -7.907 -49.502  1.00  0.00    -0.507 OA
ATOM     36  H   UNL     1      53.636  -7.697 -50.350  1.00  0.00     0.293 HD
ENDBRANCH  27  35
BRANCH  32  37
ATOM     37  C   UNL     1      49.110  -6.398 -45.392  1.00  0.00    -0.007 A 
ATOM     38  C   UNL     1      47.764  -6.649 -45.728  1.00  0.00     0.011 A 
ATOM     39  C   UNL     1      49.496  -5.116 -44.980  1.00  0.00     0.011 A 
ATOM     40  C   UNL     1      46.818  -5.596 -45.685  1.00  0.00     0.046 A 
ATOM     41  C   UNL     1      48.549  -4.082 -44.911  1.00  0.00     0.046 A 
ATOM     42  C   UNL     1      47.228  -4.337 -45.288  1.00  0.00     0.115 A 
BRANCH  42  43
ATOM     43  O   UNL     1      46.295  -3.275 -45.254  1.00  0.00    -0.508 OA
ATOM     44  H   UNL     1      46.501  -2.440 -44.720  1.00  0.00     0.293 HD
ENDBRANCH  42  43
ENDBRANCH  32  37
ENDBRANCH  23  24
ENDBRANCH   6  23
BRANCH   3  45
ATOM     45  O   UNL     1      60.810  -3.208 -46.017  1.00  0.00    -0.387 OA
ATOM     46  H   UNL     1      60.917  -2.634 -45.167  1.00  0.00     0.211 HD
ENDBRANCH   3  45
BRANCH   4  47
ATOM     47  C   UNL     1      61.223  -6.280 -46.359  1.00  0.00     0.191 C 
BRANCH  47  48
ATOM     48  O   UNL     1      62.076  -6.248 -47.512  1.00  0.00    -0.394 OA
ATOM     49  H   UNL     1      62.833  -5.593 -47.433  1.00  0.00     0.210 HD
ENDBRANCH  47  48
ENDBRANCH   4  47
TORSDOF 14
ENDMDL
MODEL 9
REMARK VINA RESULT:    -5.478      1.317      2.004
REMARK INTER + INTRA:         -10.533
REMARK INTER:                  -8.547
REMARK INTRA:                  -1.985
REMARK UNBOUND:                -2.333
REMARK SMILES C[C@@H]1O[C@@H](O[C@H]2[C@H](Oc3cc(O)c4c(c3)O[C@@H](c3ccc(O)cc3)CC4=O)O[C@H](CO)[C@H](O)[C@H]2O)[C@@H](O)[C@H](O)[C@H]1O
REMARK SMILES IDX 6 1 34 2 32 3 29 4 28 5 7 6 5 7 4 8 1 9 2 10 40 11 3 12
REMARK SMILES IDX 38 13 36 14 41 15 39 17 37 19 35 21 8 23 9 24 10 25 15 26
REMARK SMILES IDX 11 27 14 28 13 29 16 30 26 31 17 32 27 33 25 34 12 35 18 37
REMARK SMILES IDX 19 38 24 39 20 40 23 41 21 42 22 43 33 45 30 47 31 48
REMARK H PARENT 41 16 39 18 37 20 35 22 12 36 22 44 33 46 31 49
REMARK Flexibility Score: inf
ROOT
ATOM      1  C   UNL     1      56.603  -4.084 -46.335  1.00  0.00     0.221 C 
ATOM      2  C   UNL     1      57.244  -4.209 -44.962  1.00  0.00     0.181 C 
ATOM      3  C   UNL     1      58.836  -4.557 -45.142  1.00  0.00     0.177 C 
ATOM      4  C   UNL     1      59.184  -5.718 -46.150  1.00  0.00     0.179 C 
ATOM      5  O   UNL     1      57.884  -6.378 -46.398  1.00  0.00    -0.332 OA
ATOM      6  C   UNL     1      56.819  -5.539 -46.963  1.00  0.00     0.339 C 
ENDROOT
BRANCH   1   7
ATOM      7  O   UNL     1      57.424  -3.173 -47.175  1.00  0.00    -0.337 OA
BRANCH   7   8
ATOM      8  C   UNL     1      56.751  -2.209 -48.011  1.00  0.00     0.282 C 
ATOM      9  C   UNL     1      58.604  -2.966 -51.198  1.00  0.00     0.041 C 
ATOM     10  C   UNL     1      58.420  -2.612 -49.681  1.00  0.00     0.150 C 
ATOM     11  C   UNL     1      59.203  -1.274 -49.393  1.00  0.00     0.174 C 
ATOM     12  O   UNL     1      57.044  -2.522 -49.403  1.00  0.00    -0.344 OA
ATOM     13  C   UNL     1      58.953  -0.924 -47.918  1.00  0.00     0.179 C 
ATOM     14  C   UNL     1      57.424  -0.870 -47.660  1.00  0.00     0.202 C 
BRANCH  11  15
ATOM     15  O   UNL     1      60.560  -1.502 -49.616  1.00  0.00    -0.388 OA
ATOM     16  H   UNL     1      60.667  -2.474 -49.769  1.00  0.00     0.211 HD
ENDBRANCH  11  15
BRANCH  13  17
ATOM     17  O   UNL     1      59.562   0.360 -47.655  1.00  0.00    -0.387 OA
ATOM     18  H   UNL     1      59.136   1.010 -48.282  1.00  0.00     0.211 HD
ENDBRANCH  13  17
BRANCH  14  19
ATOM     19  O   UNL     1      57.159  -0.515 -46.319  1.00  0.00    -0.385 OA
ATOM     20  H   UNL     1      57.125   0.486 -46.226  1.00  0.00     0.211 HD
ENDBRANCH  14  19
ENDBRANCH   7   8
ENDBRANCH   1   7
BRANCH   2  21
ATOM     21  O   UNL     1      56.948  -3.566 -43.743  1.00  0.00    -0.387 OA
ATOM     22  H   UNL     1      56.870  -2.599 -43.970  1.00  0.00     0.211 HD
ENDBRANCH   2  21
BRANCH   6  23
ATOM     23  O   UNL     1      55.521  -6.201 -47.021  1.00  0.00    -0.462 OA
BRANCH  23  24
ATOM     24  C   UNL     1      54.692  -6.331 -48.108  1.00  0.00     0.130 A 
ATOM     25  C   UNL     1      53.981  -7.505 -48.430  1.00  0.00     0.093 A 
ATOM     26  C   UNL     1      54.323  -5.158 -48.780  1.00  0.00     0.094 A 
ATOM     27  C   UNL     1      52.980  -7.528 -49.430  1.00  0.00     0.133 A 
ATOM     28  C   UNL     1      53.343  -5.143 -49.757  1.00  0.00     0.138 A 
ATOM     29  C   UNL     1      52.743  -6.361 -50.138  1.00  0.00     0.102 A 
ATOM     30  O   UNL     1      52.827  -3.914 -50.276  1.00  0.00    -0.484 OA
ATOM     31  C   UNL     1      51.848  -6.299 -51.320  1.00  0.00     0.174 C 
ATOM     32  C   UNL     1      51.769  -3.824 -51.250  1.00  0.00     0.211 C 
ATOM     33  O   UNL     1      52.391  -6.628 -52.449  1.00  0.00    -0.294 OA
ATOM     34  C   UNL     1      50.921  -5.131 -51.233  1.00  0.00     0.131 C 
BRANCH  27  35
ATOM     35  O   UNL     1      52.184  -8.656 -49.645  1.00  0.00    -0.507 OA
ATOM     36  H   UNL     1      51.638  -8.849 -50.479  1.00  0.00     0.293 HD
ENDBRANCH  27  35
BRANCH  32  37
ATOM     37  C   UNL     1      52.307  -3.543 -52.658  1.00  0.00    -0.007 A 
ATOM     38  C   UNL     1      51.421  -3.299 -53.727  1.00  0.00     0.011 A 
ATOM     39  C   UNL     1      53.689  -3.434 -52.861  1.00  0.00     0.011 A 
ATOM     40  C   UNL     1      51.934  -2.984 -55.009  1.00  0.00     0.046 A 
ATOM     41  C   UNL     1      54.191  -3.092 -54.126  1.00  0.00     0.046 A 
ATOM     42  C   UNL     1      53.301  -2.895 -55.186  1.00  0.00     0.115 A 
BRANCH  42  43
ATOM     43  O   UNL     1      53.824  -2.594 -56.464  1.00  0.00    -0.508 OA
ATOM     44  H   UNL     1      53.866  -1.632 -56.779  1.00  0.00     0.293 HD
ENDBRANCH  42  43
ENDBRANCH  32  37
ENDBRANCH  23  24
ENDBRANCH   6  23
BRANCH   3  45
ATOM     45  O   UNL     1      59.891  -3.817 -44.445  1.00  0.00    -0.387 OA
ATOM     46  H   UNL     1      59.581  -3.212 -43.670  1.00  0.00     0.211 HD
ENDBRANCH   3  45
BRANCH   4  47
ATOM     47  C   UNL     1      60.366  -6.751 -45.389  1.00  0.00     0.191 C 
BRANCH  47  48
ATOM     48  O   UNL     1      61.656  -6.169 -45.622  1.00  0.00    -0.394 OA
ATOM     49  H   UNL     1      61.686  -5.573 -46.431  1.00  0.00     0.210 HD
ENDBRANCH  47  48
ENDBRANCH   4  47
TORSDOF 14
ENDMDL
