MODEL 1
REMARK VINA RESULT:    -4.932      0.000      0.000
REMARK INTER + INTRA:          -5.546
REMARK INTER:                  -5.508
REMARK INTRA:                  -0.038
REMARK UNBOUND:                -0.038
REMARK SMILES O=C([O-])c1ccc(O)c(O)c1
REMARK SMILES IDX 4 1 11 2 5 3 9 4 6 5 7 6 2 7 1 8 3 9 10 10 8 12
REMARK H PARENT 10 11 8 13
REMARK Flexibility Score: inf
ROOT
ATOM      1  C   UNL     1       8.982  -6.763  -7.861  1.00  0.00     0.001 A 
ATOM      2  C   UNL     1       9.974  -6.021  -7.199  1.00  0.00     0.060 A 
ATOM      3  C   UNL     1       7.670  -6.743  -7.361  1.00  0.00     0.014 A 
ATOM      4  C   UNL     1       9.671  -5.268  -6.058  1.00  0.00     0.158 A 
ATOM      5  C   UNL     1       7.359  -5.995  -6.224  1.00  0.00     0.051 A 
ATOM      6  C   UNL     1       8.345  -5.256  -5.563  1.00  0.00     0.157 A 
ENDROOT
BRANCH   1   7
ATOM      7  C   UNL     1       9.318  -7.553  -9.066  1.00  0.00     0.072 C 
ATOM      8  O   UNL     1      10.195  -8.457  -9.015  1.00  0.00    -0.545 OA
ATOM      9  O   UNL     1       8.672  -7.310 -10.272  1.00  0.00    -0.545 OA
ENDBRANCH   1   7
BRANCH   4  10
ATOM     10  O   UNL     1      10.708  -4.555  -5.453  1.00  0.00    -0.504 OA
ATOM     11  H   UNL     1      11.487  -4.986  -4.977  1.00  0.00     0.293 HD
ENDBRANCH   4  10
BRANCH   6  12
ATOM     12  O   UNL     1       7.968  -4.530  -4.431  1.00  0.00    -0.504 OA
ATOM     13  H   UNL     1       7.547  -4.939  -3.611  1.00  0.00     0.293 HD
ENDBRANCH   6  12
TORSDOF 3
ENDMDL
MODEL 2
REMARK VINA RESULT:    -4.738     17.600     18.754
REMARK INTER + INTRA:          -5.330
REMARK INTER:                  -5.293
REMARK INTRA:                  -0.037
REMARK UNBOUND:                -0.038
REMARK SMILES O=C([O-])c1ccc(O)c(O)c1
REMARK SMILES IDX 4 1 11 2 5 3 9 4 6 5 7 6 2 7 1 8 3 9 10 10 8 12
REMARK H PARENT 10 11 8 13
REMARK Flexibility Score: inf
ROOT
ATOM      1  C   UNL     1      21.098   0.932 -20.537  1.00  0.00     0.001 A 
ATOM      2  C   UNL     1      19.931   0.151 -20.600  1.00  0.00     0.060 A 
ATOM      3  C   UNL     1      21.639   1.247 -19.281  1.00  0.00     0.014 A 
ATOM      4  C   UNL     1      19.310  -0.312 -19.433  1.00  0.00     0.158 A 
ATOM      5  C   UNL     1      21.026   0.790 -18.113  1.00  0.00     0.051 A 
ATOM      6  C   UNL     1      19.865   0.013 -18.172  1.00  0.00     0.157 A 
ENDROOT
BRANCH   1   7
ATOM      7  C   UNL     1      21.742   1.413 -21.780  1.00  0.00     0.072 C 
ATOM      8  O   UNL     1      21.794   2.645 -22.038  1.00  0.00    -0.545 OA
ATOM      9  O   UNL     1      22.300   0.513 -22.679  1.00  0.00    -0.545 OA
ENDBRANCH   1   7
BRANCH   4  10
ATOM     10  O   UNL     1      18.154  -1.083 -19.572  1.00  0.00    -0.504 OA
ATOM     11  H   UNL     1      17.591  -1.109 -20.410  1.00  0.00     0.293 HD
ENDBRANCH   4  10
BRANCH   6  12
ATOM     12  O   UNL     1      19.301  -0.413 -16.968  1.00  0.00    -0.504 OA
ATOM     13  H   UNL     1      18.348  -0.227 -16.693  1.00  0.00     0.293 HD
ENDBRANCH   6  12
TORSDOF 3
ENDMDL
MODEL 3
REMARK VINA RESULT:    -4.695     18.076     19.420
REMARK INTER + INTRA:          -5.282
REMARK INTER:                  -5.242
REMARK INTRA:                  -0.040
REMARK UNBOUND:                -0.038
REMARK SMILES O=C([O-])c1ccc(O)c(O)c1
REMARK SMILES IDX 4 1 11 2 5 3 9 4 6 5 7 6 2 7 1 8 3 9 10 10 8 12
REMARK H PARENT 10 11 8 13
REMARK Flexibility Score: inf
ROOT
ATOM      1  C   UNL     1      20.292  -0.540 -20.328  1.00  0.00     0.001 A 
ATOM      2  C   UNL     1      20.705   0.769 -20.026  1.00  0.00     0.060 A 
ATOM      3  C   UNL     1      20.661  -1.104 -21.560  1.00  0.00     0.014 A 
ATOM      4  C   UNL     1      21.474   1.509 -20.933  1.00  0.00     0.158 A 
ATOM      5  C   UNL     1      21.428  -0.372 -22.469  1.00  0.00     0.051 A 
ATOM      6  C   UNL     1      21.840   0.930 -22.172  1.00  0.00     0.157 A 
ENDROOT
BRANCH   1   7
ATOM      7  C   UNL     1      19.479  -1.310 -19.359  1.00  0.00     0.072 C 
ATOM      8  O   UNL     1      18.508  -0.769 -18.766  1.00  0.00    -0.545 OA
ATOM      9  O   UNL     1      19.776  -2.640 -19.091  1.00  0.00    -0.545 OA
ENDBRANCH   1   7
BRANCH   4  10
ATOM     10  O   UNL     1      21.848   2.803 -20.565  1.00  0.00    -0.504 OA
ATOM     11  H   UNL     1      21.570   3.247 -19.702  1.00  0.00     0.293 HD
ENDBRANCH   4  10
BRANCH   6  12
ATOM     12  O   UNL     1      22.605   1.607 -23.124  1.00  0.00    -0.504 OA
ATOM     13  H   UNL     1      23.304   1.167 -23.704  1.00  0.00     0.293 HD
ENDBRANCH   6  12
TORSDOF 3
ENDMDL
MODEL 4
REMARK VINA RESULT:    -4.668     17.434     18.812
REMARK INTER + INTRA:          -5.252
REMARK INTER:                  -5.214
REMARK INTRA:                  -0.037
REMARK UNBOUND:                -0.038
REMARK SMILES O=C([O-])c1ccc(O)c(O)c1
REMARK SMILES IDX 4 1 11 2 5 3 9 4 6 5 7 6 2 7 1 8 3 9 10 10 8 12
REMARK H PARENT 10 11 8 13
REMARK Flexibility Score: inf
ROOT
ATOM      1  C   UNL     1      20.784   0.313 -18.652  1.00  0.00     0.001 A 
ATOM      2  C   UNL     1      21.227   1.155 -19.686  1.00  0.00     0.060 A 
ATOM      3  C   UNL     1      20.336  -0.978 -18.971  1.00  0.00     0.014 A 
ATOM      4  C   UNL     1      21.227   0.722 -21.019  1.00  0.00     0.158 A 
ATOM      5  C   UNL     1      20.333  -1.418 -20.296  1.00  0.00     0.051 A 
ATOM      6  C   UNL     1      20.773  -0.583 -21.327  1.00  0.00     0.157 A 
ENDROOT
BRANCH   1   7
ATOM      7  C   UNL     1      20.790   0.786 -17.250  1.00  0.00     0.072 C 
ATOM      8  O   UNL     1      21.872   1.093 -16.682  1.00  0.00    -0.545 OA
ATOM      9  O   UNL     1      19.602   0.898 -16.538  1.00  0.00    -0.545 OA
ENDBRANCH   1   7
BRANCH   4  10
ATOM     10  O   UNL     1      21.682   1.612 -21.993  1.00  0.00    -0.504 OA
ATOM     11  H   UNL     1      22.420   1.402 -22.650  1.00  0.00     0.293 HD
ENDBRANCH   4  10
BRANCH   6  12
ATOM     12  O   UNL     1      20.744  -1.083 -22.631  1.00  0.00    -0.504 OA
ATOM     13  H   UNL     1      21.465  -1.666 -23.028  1.00  0.00     0.293 HD
ENDBRANCH   6  12
TORSDOF 3
ENDMDL
MODEL 5
REMARK VINA RESULT:    -4.654     17.299     18.297
REMARK INTER + INTRA:          -5.236
REMARK INTER:                  -5.198
REMARK INTRA:                  -0.038
REMARK UNBOUND:                -0.038
REMARK SMILES O=C([O-])c1ccc(O)c(O)c1
REMARK SMILES IDX 4 1 11 2 5 3 9 4 6 5 7 6 2 7 1 8 3 9 10 10 8 12
REMARK H PARENT 10 11 8 13
REMARK Flexibility Score: inf
ROOT
ATOM      1  C   UNL     1      20.792   0.525 -20.394  1.00  0.00     0.001 A 
ATOM      2  C   UNL     1      21.285   0.896 -19.132  1.00  0.00     0.060 A 
ATOM      3  C   UNL     1      19.650  -0.288 -20.468  1.00  0.00     0.014 A 
ATOM      4  C   UNL     1      20.653   0.467 -17.958  1.00  0.00     0.158 A 
ATOM      5  C   UNL     1      19.014  -0.719 -19.302  1.00  0.00     0.051 A 
ATOM      6  C   UNL     1      19.503  -0.353 -18.045  1.00  0.00     0.157 A 
ENDROOT
BRANCH   1   7
ATOM      7  C   UNL     1      21.471   0.987 -21.626  1.00  0.00     0.072 C 
ATOM      8  O   UNL     1      21.647   2.216 -21.838  1.00  0.00    -0.545 OA
ATOM      9  O   UNL     1      21.924   0.070 -22.567  1.00  0.00    -0.545 OA
ENDBRANCH   1   7
BRANCH   4  10
ATOM     10  O   UNL     1      21.199   0.874 -16.738  1.00  0.00    -0.504 OA
ATOM     11  H   UNL     1      21.735   0.272 -16.131  1.00  0.00     0.293 HD
ENDBRANCH   4  10
BRANCH   6  12
ATOM     12  O   UNL     1      18.821  -0.818 -16.918  1.00  0.00    -0.504 OA
ATOM     13  H   UNL     1      18.481  -0.222 -16.177  1.00  0.00     0.293 HD
ENDBRANCH   6  12
TORSDOF 3
ENDMDL
MODEL 6
REMARK VINA RESULT:    -4.573     17.636     19.081
REMARK INTER + INTRA:          -5.145
REMARK INTER:                  -5.101
REMARK INTRA:                  -0.045
REMARK UNBOUND:                -0.038
REMARK SMILES O=C([O-])c1ccc(O)c(O)c1
REMARK SMILES IDX 4 1 11 2 5 3 9 4 6 5 7 6 2 7 1 8 3 9 10 10 8 12
REMARK H PARENT 10 11 8 13
REMARK Flexibility Score: inf
ROOT
ATOM      1  C   UNL     1      20.267  -0.403 -19.590  1.00  0.00     0.001 A 
ATOM      2  C   UNL     1      20.383  -1.020 -20.847  1.00  0.00     0.060 A 
ATOM      3  C   UNL     1      20.832   0.868 -19.401  1.00  0.00     0.014 A 
ATOM      4  C   UNL     1      21.049  -0.384 -21.903  1.00  0.00     0.158 A 
ATOM      5  C   UNL     1      21.497   1.508 -20.448  1.00  0.00     0.051 A 
ATOM      6  C   UNL     1      21.614   0.897 -21.700  1.00  0.00     0.157 A 
ENDROOT
BRANCH   1   7
ATOM      7  C   UNL     1      19.560  -1.088 -18.484  1.00  0.00     0.072 C 
ATOM      8  O   UNL     1      19.055  -2.229 -18.657  1.00  0.00    -0.545 OA
ATOM      9  O   UNL     1      19.444  -0.481 -17.240  1.00  0.00    -0.545 OA
ENDBRANCH   1   7
BRANCH   4  10
ATOM     10  O   UNL     1      21.125  -1.057 -23.125  1.00  0.00    -0.504 OA
ATOM     11  H   UNL     1      20.368  -1.596 -23.520  1.00  0.00     0.293 HD
ENDBRANCH   4  10
BRANCH   6  12
ATOM     12  O   UNL     1      22.292   1.591 -22.705  1.00  0.00    -0.504 OA
ATOM     13  H   UNL     1      22.573   1.181 -23.583  1.00  0.00     0.293 HD
ENDBRANCH   6  12
TORSDOF 3
ENDMDL
MODEL 7
REMARK VINA RESULT:    -4.564      1.970      2.773
REMARK INTER + INTRA:          -5.135
REMARK INTER:                  -5.098
REMARK INTRA:                  -0.037
REMARK UNBOUND:                -0.038
REMARK SMILES O=C([O-])c1ccc(O)c(O)c1
REMARK SMILES IDX 4 1 11 2 5 3 9 4 6 5 7 6 2 7 1 8 3 9 10 10 8 12
REMARK H PARENT 10 11 8 13
REMARK Flexibility Score: inf
ROOT
ATOM      1  C   UNL     1       8.425  -7.771  -9.145  1.00  0.00     0.001 A 
ATOM      2  C   UNL     1       7.861  -6.536  -8.787  1.00  0.00     0.060 A 
ATOM      3  C   UNL     1       9.679  -8.126  -8.621  1.00  0.00     0.014 A 
ATOM      4  C   UNL     1       8.529  -5.663  -7.919  1.00  0.00     0.158 A 
ATOM      5  C   UNL     1      10.351  -7.262  -7.755  1.00  0.00     0.051 A 
ATOM      6  C   UNL     1       9.792  -6.031  -7.396  1.00  0.00     0.157 A 
ENDROOT
BRANCH   1   7
ATOM      7  C   UNL     1       7.707  -8.683 -10.064  1.00  0.00     0.072 C 
ATOM      8  O   UNL     1       7.318  -9.814  -9.669  1.00  0.00    -0.545 OA
ATOM      9  O   UNL     1       7.450  -8.303 -11.376  1.00  0.00    -0.545 OA
ENDBRANCH   1   7
BRANCH   4  10
ATOM     10  O   UNL     1       7.907  -4.452  -7.606  1.00  0.00    -0.504 OA
ATOM     11  H   UNL     1       8.252  -3.803  -6.914  1.00  0.00     0.293 HD
ENDBRANCH   4  10
BRANCH   6  12
ATOM     12  O   UNL     1      10.516  -5.213  -6.526  1.00  0.00    -0.504 OA
ATOM     13  H   UNL     1      10.106  -4.475  -5.972  1.00  0.00     0.293 HD
ENDBRANCH   6  12
TORSDOF 3
ENDMDL
MODEL 8
REMARK VINA RESULT:    -4.529      2.122      2.708
REMARK INTER + INTRA:          -5.096
REMARK INTER:                  -5.057
REMARK INTRA:                  -0.039
REMARK UNBOUND:                -0.038
REMARK SMILES O=C([O-])c1ccc(O)c(O)c1
REMARK SMILES IDX 4 1 11 2 5 3 9 4 6 5 7 6 2 7 1 8 3 9 10 10 8 12
REMARK H PARENT 10 11 8 13
REMARK Flexibility Score: inf
ROOT
ATOM      1  C   UNL     1       9.832  -6.259  -8.279  1.00  0.00     0.001 A 
ATOM      2  C   UNL     1       9.242  -6.044  -7.021  1.00  0.00     0.060 A 
ATOM      3  C   UNL     1       9.130  -5.879  -9.434  1.00  0.00     0.014 A 
ATOM      4  C   UNL     1       7.975  -5.458  -6.911  1.00  0.00     0.158 A 
ATOM      5  C   UNL     1       7.867  -5.294  -9.332  1.00  0.00     0.051 A 
ATOM      6  C   UNL     1       7.278  -5.078  -8.083  1.00  0.00     0.157 A 
ENDROOT
BRANCH   1   7
ATOM      7  C   UNL     1      11.172  -6.879  -8.379  1.00  0.00     0.072 C 
ATOM      8  O   UNL     1      11.438  -7.936  -7.746  1.00  0.00    -0.545 OA
ATOM      9  O   UNL     1      12.157  -6.305  -9.173  1.00  0.00    -0.545 OA
ENDBRANCH   1   7
BRANCH   4  10
ATOM     10  O   UNL     1       7.452  -5.274  -5.629  1.00  0.00    -0.504 OA
ATOM     11  H   UNL     1       7.076  -6.019  -5.061  1.00  0.00     0.293 HD
ENDBRANCH   4  10
BRANCH   6  12
ATOM     12  O   UNL     1       6.012  -4.489  -8.050  1.00  0.00    -0.504 OA
ATOM     13  H   UNL     1       5.448  -4.406  -7.216  1.00  0.00     0.293 HD
ENDBRANCH   6  12
TORSDOF 3
ENDMDL
MODEL 9
REMARK VINA RESULT:    -4.511      1.843      2.630
REMARK INTER + INTRA:          -5.076
REMARK INTER:                  -5.034
REMARK INTRA:                  -0.042
REMARK UNBOUND:                -0.038
REMARK SMILES O=C([O-])c1ccc(O)c(O)c1
REMARK SMILES IDX 4 1 11 2 5 3 9 4 6 5 7 6 2 7 1 8 3 9 10 10 8 12
REMARK H PARENT 10 11 8 13
REMARK Flexibility Score: inf
ROOT
ATOM      1  C   UNL     1       8.597  -7.259  -9.620  1.00  0.00     0.001 A 
ATOM      2  C   UNL     1       9.966  -6.952  -9.692  1.00  0.00     0.060 A 
ATOM      3  C   UNL     1       7.868  -6.859  -8.489  1.00  0.00     0.014 A 
ATOM      4  C   UNL     1      10.604  -6.257  -8.657  1.00  0.00     0.158 A 
ATOM      5  C   UNL     1       8.496  -6.165  -7.454  1.00  0.00     0.051 A 
ATOM      6  C   UNL     1       9.859  -5.859  -7.522  1.00  0.00     0.157 A 
ENDROOT
BRANCH   1   7
ATOM      7  C   UNL     1       7.937  -7.995 -10.723  1.00  0.00     0.072 C 
ATOM      8  O   UNL     1       6.981  -8.781 -10.486  1.00  0.00    -0.545 OA
ATOM      9  O   UNL     1       8.362  -7.828 -12.035  1.00  0.00    -0.545 OA
ENDBRANCH   1   7
BRANCH   4  10
ATOM     10  O   UNL     1      11.967  -5.987  -8.798  1.00  0.00    -0.504 OA
ATOM     11  H   UNL     1      12.584  -6.499  -9.412  1.00  0.00     0.293 HD
ENDBRANCH   4  10
BRANCH   6  12
ATOM     12  O   UNL     1      10.427  -5.163  -6.453  1.00  0.00    -0.504 OA
ATOM     13  H   UNL     1      11.383  -4.841  -6.432  1.00  0.00     0.293 HD
ENDBRANCH   6  12
TORSDOF 3
ENDMDL
