MODEL 1
REMARK VINA RESULT:    -3.203      0.000      0.000
REMARK INTER + INTRA:          -5.395
REMARK INTER:                  -4.889
REMARK INTRA:                  -0.506
REMARK UNBOUND:                -0.506
REMARK SMILES CC1=CCC[C@@H](C)C(=O)C[C@@H](C(C)C)C(=O)C1
REMARK SMILES IDX 8 1 9 2 6 3 7 4 5 5 4 6 3 7 2 8 1 9 10 11 11 12 15 13 16 14
REMARK SMILES IDX 17 15 12 17 13 18 14 19
REMARK H PARENT
REMARK Flexibility Score: 70.00
ROOT
ATOM      1  C   UNL     1      -4.299  -0.366   6.332  1.00  0.00     0.136 C 
ATOM      2  O   UNL     1      -4.615   0.755   6.705  1.00  0.00    -0.299 OA
ENDROOT
BRANCH   1   3
ATOM      3  C   UNL     1      -4.160  -1.485   7.369  1.00  0.00     0.053 C 
ATOM      4  C   UNL     1      -5.484  -1.755   8.106  1.00  0.00     0.016 C 
BRANCH   3   5
ATOM      5  C   UNL     1      -3.035  -1.197   8.404  1.00  0.00     0.015 C 
BRANCH   5   6
ATOM      6  C   UNL     1      -1.633  -0.909   7.822  1.00  0.00     0.028 C 
BRANCH   6   7
ATOM      7  C   UNL     1      -0.863  -2.055   7.196  1.00  0.00    -0.028 C 
ATOM      8  C   UNL     1      -0.604  -2.261   5.881  1.00  0.00    -0.070 CG0
ATOM      9  C   UNL     1       0.340  -3.383   5.525  1.00  0.00     0.039 C 
ATOM     10  G   UNL     1      -1.279  -1.513   4.743  1.00  0.00     0.000 G0
ENDBRANCH   6   7
ENDBRANCH   5   6
ENDBRANCH   3   5
ENDBRANCH   1   3
BRANCH   1  11
ATOM     11  C   UNL     1      -4.159  -0.596   4.830  1.00  0.00     0.087 C 
BRANCH  11  12
ATOM     12  C   UNL     1      -3.858  -2.062   4.421  1.00  0.00     0.066 C 
BRANCH  12  13
ATOM     13  C   UNL     1      -2.392  -2.278   4.078  1.00  0.00     0.140 C 
ATOM     14  O   UNL     1      -2.125  -3.054   3.172  1.00  0.00    -0.299 OA
BRANCH  13  15
ATOM     15  C   UNL     1      -1.271  -1.493   4.740  1.00  0.00     0.106 CG0
ATOM     16  G   UNL     1      -0.642  -2.281   5.878  1.00  0.00     0.000 G0
ENDBRANCH  13  15
ENDBRANCH  12  13
BRANCH  12  17
ATOM     17  C   UNL     1      -4.767  -2.553   3.249  1.00  0.00    -0.006 C 
ATOM     18  C   UNL     1      -5.429  -1.388   2.489  1.00  0.00     0.008 C 
ATOM     19  C   UNL     1      -5.869  -3.504   3.754  1.00  0.00     0.008 C 
ENDBRANCH  12  17
ENDBRANCH  11  12
ENDBRANCH   1  11
TORSDOF 1
ENDMDL
MODEL 2
REMARK VINA RESULT:    -3.199      3.489      5.619
REMARK INTER + INTRA:          -5.389
REMARK INTER:                  -5.204
REMARK INTRA:                  -0.184
REMARK UNBOUND:                -0.506
REMARK SMILES CC1=CCC[C@@H](C)C(=O)C[C@@H](C(C)C)C(=O)C1
REMARK SMILES IDX 8 1 9 2 6 3 7 4 5 5 4 6 3 7 2 8 1 9 10 11 11 12 15 13 16 14
REMARK SMILES IDX 17 15 12 17 13 18 14 19
REMARK H PARENT
REMARK Flexibility Score: 70.00
ROOT
ATOM      1  C   UNL     1      -5.028  -6.402   2.917  1.00  0.00     0.136 C 
ATOM      2  O   UNL     1      -5.163  -7.185   3.848  1.00  0.00    -0.299 OA
ENDROOT
BRANCH   1   3
ATOM      3  C   UNL     1      -6.228  -5.559   2.475  1.00  0.00     0.053 C 
ATOM      4  C   UNL     1      -6.003  -4.915   1.096  1.00  0.00     0.016 C 
BRANCH   3   5
ATOM      5  C   UNL     1      -6.595  -4.459   3.512  1.00  0.00     0.015 C 
BRANCH   5   6
ATOM      6  C   UNL     1      -5.415  -3.644   4.086  1.00  0.00     0.028 C 
BRANCH   6   7
ATOM      7  C   UNL     1      -4.932  -2.434   3.312  1.00  0.00    -0.028 C 
ATOM      8  C   UNL     1      -3.664  -2.150   2.922  1.00  0.00    -0.070 CG0
ATOM      9  C   UNL     1      -3.466  -0.968   2.005  1.00  0.00     0.039 C 
ATOM     10  G   UNL     1      -2.425  -2.869   3.430  1.00  0.00     0.000 G0
ENDBRANCH   6   7
ENDBRANCH   5   6
ENDBRANCH   3   5
ENDBRANCH   1   3
BRANCH   1  11
ATOM     11  C   UNL     1      -3.633  -6.249   2.320  1.00  0.00     0.087 C 
BRANCH  11  12
ATOM     12  C   UNL     1      -2.607  -5.535   3.239  1.00  0.00     0.066 C 
BRANCH  12  13
ATOM     13  C   UNL     1      -2.176  -4.186   2.684  1.00  0.00     0.140 C 
ATOM     14  O   UNL     1      -1.704  -4.154   1.556  1.00  0.00    -0.299 OA
BRANCH  13  15
ATOM     15  C   UNL     1      -2.407  -2.881   3.429  1.00  0.00     0.106 CG0
ATOM     16  G   UNL     1      -3.643  -2.161   2.913  1.00  0.00     0.000 G0
ENDBRANCH  13  15
ENDBRANCH  12  13
BRANCH  12  17
ATOM     17  C   UNL     1      -1.356  -6.422   3.539  1.00  0.00    -0.006 C 
ATOM     18  C   UNL     1      -1.715  -7.909   3.713  1.00  0.00     0.008 C 
ATOM     19  C   UNL     1      -0.617  -5.939   4.802  1.00  0.00     0.008 C 
ENDBRANCH  12  17
ENDBRANCH  11  12
ENDBRANCH   1  11
TORSDOF 1
ENDMDL
MODEL 3
REMARK VINA RESULT:    -3.194      3.456      5.720
REMARK INTER + INTRA:          -5.381
REMARK INTER:                  -5.056
REMARK INTRA:                  -0.325
REMARK UNBOUND:                -0.506
REMARK SMILES CC1=CCC[C@@H](C)C(=O)C[C@@H](C(C)C)C(=O)C1
REMARK SMILES IDX 8 1 9 2 6 3 7 4 5 5 4 6 3 7 2 8 1 9 10 11 11 12 15 13 16 14
REMARK SMILES IDX 17 15 12 17 13 18 14 19
REMARK H PARENT
REMARK Flexibility Score: 70.00
ROOT
ATOM      1  C   UNL     1      -1.792  -3.954   2.186  1.00  0.00     0.136 C 
ATOM      2  O   UNL     1      -0.989  -4.256   1.313  1.00  0.00    -0.299 OA
ENDROOT
BRANCH   1   3
ATOM      3  C   UNL     1      -1.634  -4.560   3.583  1.00  0.00     0.053 C 
ATOM      4  C   UNL     1      -0.488  -3.902   4.372  1.00  0.00     0.016 C 
BRANCH   3   5
ATOM      5  C   UNL     1      -1.424  -6.101   3.541  1.00  0.00     0.015 C 
BRANCH   5   6
ATOM      6  C   UNL     1      -2.509  -6.916   2.804  1.00  0.00     0.028 C 
BRANCH   6   7
ATOM      7  C   UNL     1      -3.923  -6.893   3.349  1.00  0.00    -0.028 C 
ATOM      8  C   UNL     1      -5.003  -6.258   2.828  1.00  0.00    -0.070 CG0
ATOM      9  C   UNL     1      -6.345  -6.535   3.460  1.00  0.00     0.039 C 
ATOM     10  G   UNL     1      -4.939  -5.210   1.729  1.00  0.00     0.000 G0
ENDBRANCH   6   7
ENDBRANCH   5   6
ENDBRANCH   3   5
ENDBRANCH   1   3
BRANCH   1  11
ATOM     11  C   UNL     1      -2.848  -2.908   1.841  1.00  0.00     0.087 C 
BRANCH  11  12
ATOM     12  C   UNL     1      -4.082  -2.896   2.781  1.00  0.00     0.066 C 
BRANCH  12  13
ATOM     13  C   UNL     1      -5.198  -3.800   2.282  1.00  0.00     0.140 C 
ATOM     14  O   UNL     1      -6.334  -3.346   2.255  1.00  0.00    -0.299 OA
BRANCH  13  15
ATOM     15  C   UNL     1      -4.940  -5.190   1.723  1.00  0.00     0.106 CG0
ATOM     16  G   UNL     1      -5.011  -6.246   2.813  1.00  0.00     0.000 G0
ENDBRANCH  13  15
ENDBRANCH  12  13
BRANCH  12  17
ATOM     17  C   UNL     1      -4.625  -1.452   3.032  1.00  0.00    -0.006 C 
ATOM     18  C   UNL     1      -3.788  -0.374   2.318  1.00  0.00     0.008 C 
ATOM     19  C   UNL     1      -4.673  -1.126   4.537  1.00  0.00     0.008 C 
ENDBRANCH  12  17
ENDBRANCH  11  12
ENDBRANCH   1  11
TORSDOF 1
ENDMDL
MODEL 4
REMARK VINA RESULT:    -3.015      2.524      4.378
REMARK INTER + INTRA:          -5.107
REMARK INTER:                  -4.882
REMARK INTRA:                  -0.225
REMARK UNBOUND:                -0.506
REMARK SMILES CC1=CCC[C@@H](C)C(=O)C[C@@H](C(C)C)C(=O)C1
REMARK SMILES IDX 8 1 9 2 6 3 7 4 5 5 4 6 3 7 2 8 1 9 10 11 11 12 15 13 16 14
REMARK SMILES IDX 17 15 12 17 13 18 14 19
REMARK H PARENT
REMARK Flexibility Score: 70.00
ROOT
ATOM      1  C   UNL     1      -4.639  -3.579   2.257  1.00  0.00     0.136 C 
ATOM      2  O   UNL     1      -5.469  -3.508   1.361  1.00  0.00    -0.299 OA
ENDROOT
BRANCH   1   3
ATOM      3  C   UNL     1      -5.057  -4.152   3.615  1.00  0.00     0.053 C 
ATOM      4  C   UNL     1      -6.064  -5.306   3.469  1.00  0.00     0.016 C 
BRANCH   3   5
ATOM      5  C   UNL     1      -5.640  -3.065   4.563  1.00  0.00     0.015 C 
BRANCH   5   6
ATOM      6  C   UNL     1      -4.610  -2.169   5.285  1.00  0.00     0.028 C 
BRANCH   6   7
ATOM      7  C   UNL     1      -4.346  -0.783   4.732  1.00  0.00    -0.028 C 
ATOM      8  C   UNL     1      -3.175  -0.286   4.262  1.00  0.00    -0.070 CG0
ATOM      9  C   UNL     1      -3.209   1.068   3.596  1.00  0.00     0.039 C 
ATOM     10  G   UNL     1      -1.819  -0.946   4.456  1.00  0.00     0.000 G0
ENDBRANCH   6   7
ENDBRANCH   5   6
ENDBRANCH   3   5
ENDBRANCH   1   3
BRANCH   1  11
ATOM     11  C   UNL     1      -3.206  -3.177   1.924  1.00  0.00     0.087 C 
BRANCH  11  12
ATOM     12  C   UNL     1      -2.223  -3.216   3.124  1.00  0.00     0.066 C 
BRANCH  12  13
ATOM     13  C   UNL     1      -1.488  -1.899   3.312  1.00  0.00     0.140 C 
ATOM     14  O   UNL     1      -0.673  -1.570   2.461  1.00  0.00    -0.299 OA
BRANCH  13  15
ATOM     15  C   UNL     1      -1.802  -0.939   4.448  1.00  0.00     0.106 CG0
ATOM     16  G   UNL     1      -3.175  -0.308   4.275  1.00  0.00     0.000 G0
ENDBRANCH  13  15
ENDBRANCH  12  13
BRANCH  12  17
ATOM     17  C   UNL     1      -1.203  -4.396   3.021  1.00  0.00    -0.006 C 
ATOM     18  C   UNL     1      -1.894  -5.756   2.811  1.00  0.00     0.008 C 
ATOM     19  C   UNL     1      -0.316  -4.480   4.278  1.00  0.00     0.008 C 
ENDBRANCH  12  17
ENDBRANCH  11  12
ENDBRANCH   1  11
TORSDOF 1
ENDMDL
MODEL 5
REMARK VINA RESULT:    -2.997     10.027     12.928
REMARK INTER + INTRA:          -5.079
REMARK INTER:                  -4.503
REMARK INTRA:                  -0.576
REMARK UNBOUND:                -0.506
REMARK SMILES CC1=CCC[C@@H](C)C(=O)C[C@@H](C(C)C)C(=O)C1
REMARK SMILES IDX 8 1 9 2 6 3 7 4 5 5 4 6 3 7 2 8 1 9 10 11 11 12 15 13 16 14
REMARK SMILES IDX 17 15 12 17 13 18 14 19
REMARK H PARENT
REMARK Flexibility Score: 70.00
ROOT
ATOM      1  C   UNL     1       2.003  -1.103  16.159  1.00  0.00     0.136 C 
ATOM      2  O   UNL     1       2.959  -0.494  15.699  1.00  0.00    -0.299 OA
ENDROOT
BRANCH   1   3
ATOM      3  C   UNL     1       1.422  -2.280  15.370  1.00  0.00     0.053 C 
ATOM      4  C   UNL     1       2.495  -3.327  15.022  1.00  0.00     0.016 C 
BRANCH   3   5
ATOM      5  C   UNL     1       0.696  -1.824  14.072  1.00  0.00     0.015 C 
BRANCH   5   6
ATOM      6  C   UNL     1      -0.593  -0.996  14.269  1.00  0.00     0.028 C 
BRANCH   6   7
ATOM      7  C   UNL     1      -1.755  -1.635  15.003  1.00  0.00    -0.028 C 
ATOM      8  C   UNL     1      -2.231  -1.324  16.235  1.00  0.00    -0.070 CG0
ATOM      9  C   UNL     1      -3.515  -1.985  16.672  1.00  0.00     0.039 C 
ATOM     10  G   UNL     1      -1.506  -0.445  17.241  1.00  0.00     0.000 G0
ENDBRANCH   6   7
ENDBRANCH   5   6
ENDBRANCH   3   5
ENDBRANCH   1   3
BRANCH   1  11
ATOM     11  C   UNL     1       1.513  -0.703  17.547  1.00  0.00     0.087 C 
BRANCH  11  12
ATOM     12  C   UNL     1       0.585  -1.739  18.233  1.00  0.00     0.066 C 
BRANCH  12  13
ATOM     13  C   UNL     1      -0.849  -1.246  18.346  1.00  0.00     0.140 C 
ATOM     14  O   UNL     1      -1.442  -1.445  19.397  1.00  0.00    -0.299 OA
BRANCH  13  15
ATOM     15  C   UNL     1      -1.525  -0.433  17.254  1.00  0.00     0.106 CG0
ATOM     16  G   UNL     1      -2.209  -1.332  16.237  1.00  0.00     0.000 G0
ENDBRANCH  13  15
ENDBRANCH  12  13
BRANCH  12  17
ATOM     17  C   UNL     1       1.118  -2.181  19.634  1.00  0.00    -0.006 C 
ATOM     18  C   UNL     1       2.174  -1.212  20.196  1.00  0.00     0.008 C 
ATOM     19  C   UNL     1       1.723  -3.597  19.582  1.00  0.00     0.008 C 
ENDBRANCH  12  17
ENDBRANCH  11  12
ENDBRANCH   1  11
TORSDOF 1
ENDMDL
MODEL 6
REMARK VINA RESULT:    -2.968     10.421     12.931
REMARK INTER + INTRA:          -5.036
REMARK INTER:                  -4.475
REMARK INTRA:                  -0.561
REMARK UNBOUND:                -0.506
REMARK SMILES CC1=CCC[C@@H](C)C(=O)C[C@@H](C(C)C)C(=O)C1
REMARK SMILES IDX 8 1 9 2 6 3 7 4 5 5 4 6 3 7 2 8 1 9 10 11 11 12 15 13 16 14
REMARK SMILES IDX 17 15 12 17 13 18 14 19
REMARK H PARENT
REMARK Flexibility Score: 70.00
ROOT
ATOM      1  C   UNL     1      -2.719   1.048  16.805  1.00  0.00     0.136 C 
ATOM      2  O   UNL     1      -3.500   0.112  16.705  1.00  0.00    -0.299 OA
ENDROOT
BRANCH   1   3
ATOM      3  C   UNL     1      -2.629   2.068  15.666  1.00  0.00     0.053 C 
ATOM      4  C   UNL     1      -4.018   2.454  15.127  1.00  0.00     0.016 C 
BRANCH   3   5
ATOM      5  C   UNL     1      -1.733   1.572  14.495  1.00  0.00     0.015 C 
BRANCH   5   6
ATOM      6  C   UNL     1      -0.570   0.631  14.880  1.00  0.00     0.028 C 
BRANCH   6   7
ATOM      7  C   UNL     1       0.808   1.230  15.078  1.00  0.00    -0.028 C 
ATOM      8  C   UNL     1       1.563   1.221  16.205  1.00  0.00    -0.070 CG0
ATOM      9  C   UNL     1       2.980   1.729  16.097  1.00  0.00     0.039 C 
ATOM     10  G   UNL     1       1.049   0.838  17.583  1.00  0.00     0.000 G0
ENDBRANCH   6   7
ENDBRANCH   5   6
ENDBRANCH   3   5
ENDBRANCH   1   3
BRANCH   1  11
ATOM     11  C   UNL     1      -1.950   1.188  18.115  1.00  0.00     0.087 C 
BRANCH  11  12
ATOM     12  C   UNL     1      -1.012   2.421  18.191  1.00  0.00     0.066 C 
BRANCH  12  13
ATOM     13  C   UNL     1       0.450   2.027  18.327  1.00  0.00     0.140 C 
ATOM     14  O   UNL     1       1.141   2.654  19.118  1.00  0.00    -0.299 OA
BRANCH  13  15
ATOM     15  C   UNL     1       1.049   0.831  17.605  1.00  0.00     0.106 CG0
ATOM     16  G   UNL     1       1.542   1.212  16.218  1.00  0.00     0.000 G0
ENDBRANCH  13  15
ENDBRANCH  12  13
BRANCH  12  17
ATOM     17  C   UNL     1      -1.416   3.408  19.333  1.00  0.00    -0.006 C 
ATOM     18  C   UNL     1      -2.313   2.746  20.395  1.00  0.00     0.008 C 
ATOM     19  C   UNL     1      -2.143   4.646  18.773  1.00  0.00     0.008 C 
ENDBRANCH  12  17
ENDBRANCH  11  12
ENDBRANCH   1  11
TORSDOF 1
ENDMDL
MODEL 7
REMARK VINA RESULT:    -2.920      2.499      5.630
REMARK INTER + INTRA:          -4.963
REMARK INTER:                  -4.701
REMARK INTRA:                  -0.262
REMARK UNBOUND:                -0.506
REMARK SMILES CC1=CCC[C@@H](C)C(=O)C[C@@H](C(C)C)C(=O)C1
REMARK SMILES IDX 8 1 9 2 6 3 7 4 5 5 4 6 3 7 2 8 1 9 10 11 11 12 15 13 16 14
REMARK SMILES IDX 17 15 12 17 13 18 14 19
REMARK H PARENT
REMARK Flexibility Score: 70.00
ROOT
ATOM      1  C   UNL     1      -0.655  -4.525   4.089  1.00  0.00     0.136 C 
ATOM      2  O   UNL     1      -0.102  -5.194   4.951  1.00  0.00    -0.299 OA
ENDROOT
BRANCH   1   3
ATOM      3  C   UNL     1      -1.626  -5.212   3.124  1.00  0.00     0.053 C 
ATOM      4  C   UNL     1      -1.680  -6.733   3.346  1.00  0.00     0.016 C 
BRANCH   3   5
ATOM      5  C   UNL     1      -1.294  -4.911   1.635  1.00  0.00     0.015 C 
BRANCH   5   6
ATOM      6  C   UNL     1      -1.945  -3.645   1.035  1.00  0.00     0.028 C 
BRANCH   6   7
ATOM      7  C   UNL     1      -3.235  -3.138   1.648  1.00  0.00    -0.028 C 
ATOM      8  C   UNL     1      -3.426  -1.996   2.354  1.00  0.00    -0.070 CG0
ATOM      9  C   UNL     1      -4.846  -1.624   2.706  1.00  0.00     0.039 C 
ATOM     10  G   UNL     1      -2.308  -1.127   2.906  1.00  0.00     0.000 G0
ENDBRANCH   6   7
ENDBRANCH   5   6
ENDBRANCH   3   5
ENDBRANCH   1   3
BRANCH   1  11
ATOM     11  C   UNL     1      -0.408  -3.020   4.098  1.00  0.00     0.087 C 
BRANCH  11  12
ATOM     12  C   UNL     1      -1.285  -2.223   5.099  1.00  0.00     0.066 C 
BRANCH  12  13
ATOM     13  C   UNL     1      -2.186  -1.214   4.402  1.00  0.00     0.140 C 
ATOM     14  O   UNL     1      -2.776  -0.398   5.096  1.00  0.00    -0.299 OA
BRANCH  13  15
ATOM     15  C   UNL     1      -2.292  -1.116   2.889  1.00  0.00     0.106 CG0
ATOM     16  G   UNL     1      -3.418  -1.988   2.356  1.00  0.00     0.000 G0
ENDBRANCH  13  15
ENDBRANCH  12  13
BRANCH  12  17
ATOM     17  C   UNL     1      -0.437  -1.518   6.206  1.00  0.00    -0.006 C 
ATOM     18  C   UNL     1       0.935  -1.049   5.688  1.00  0.00     0.008 C 
ATOM     19  C   UNL     1      -0.219  -2.443   7.418  1.00  0.00     0.008 C 
ENDBRANCH  12  17
ENDBRANCH  11  12
ENDBRANCH   1  11
TORSDOF 1
ENDMDL
MODEL 8
REMARK VINA RESULT:    -2.918      2.624      5.657
REMARK INTER + INTRA:          -4.959
REMARK INTER:                  -4.711
REMARK INTRA:                  -0.248
REMARK UNBOUND:                -0.506
REMARK SMILES CC1=CCC[C@@H](C)C(=O)C[C@@H](C(C)C)C(=O)C1
REMARK SMILES IDX 8 1 9 2 6 3 7 4 5 5 4 6 3 7 2 8 1 9 10 11 11 12 15 13 16 14
REMARK SMILES IDX 17 15 12 17 13 18 14 19
REMARK H PARENT
REMARK Flexibility Score: 70.00
ROOT
ATOM      1  C   UNL     1      -1.388  -4.417   2.620  1.00  0.00     0.136 C 
ATOM      2  O   UNL     1      -1.012  -4.709   1.493  1.00  0.00    -0.299 OA
ENDROOT
BRANCH   1   3
ATOM      3  C   UNL     1      -2.265  -5.408   3.392  1.00  0.00     0.053 C 
ATOM      4  C   UNL     1      -1.599  -6.789   3.520  1.00  0.00     0.016 C 
BRANCH   3   5
ATOM      5  C   UNL     1      -3.678  -5.564   2.761  1.00  0.00     0.015 C 
BRANCH   5   6
ATOM      6  C   UNL     1      -4.808  -4.735   3.410  1.00  0.00     0.028 C 
BRANCH   6   7
ATOM      7  C   UNL     1      -5.487  -3.666   2.578  1.00  0.00    -0.028 C 
ATOM      8  C   UNL     1      -5.237  -2.333   2.575  1.00  0.00    -0.070 CG0
ATOM      9  C   UNL     1      -5.925  -1.497   1.523  1.00  0.00     0.039 C 
ATOM     10  G   UNL     1      -4.400  -1.611   3.619  1.00  0.00     0.000 G0
ENDBRANCH   6   7
ENDBRANCH   5   6
ENDBRANCH   3   5
ENDBRANCH   1   3
BRANCH   1  11
ATOM     11  C   UNL     1      -0.870  -3.114   3.221  1.00  0.00     0.087 C 
BRANCH  11  12
ATOM     12  C   UNL     1      -1.893  -2.354   4.106  1.00  0.00     0.066 C 
BRANCH  12  13
ATOM     13  C   UNL     1      -2.919  -1.592   3.282  1.00  0.00     0.140 C 
ATOM     14  O   UNL     1      -2.536  -1.040   2.260  1.00  0.00    -0.299 OA
BRANCH  13  15
ATOM     15  C   UNL     1      -4.401  -1.584   3.620  1.00  0.00     0.106 CG0
ATOM     16  G   UNL     1      -5.210  -2.337   2.577  1.00  0.00     0.000 G0
ENDBRANCH  13  15
ENDBRANCH  12  13
BRANCH  12  17
ATOM     17  C   UNL     1      -1.201  -1.397   5.129  1.00  0.00    -0.006 C 
ATOM     18  C   UNL     1       0.093  -0.774   4.572  1.00  0.00     0.008 C 
ATOM     19  C   UNL     1      -0.871  -2.127   6.445  1.00  0.00     0.008 C 
ENDBRANCH  12  17
ENDBRANCH  11  12
ENDBRANCH   1  11
TORSDOF 1
ENDMDL
MODEL 9
REMARK VINA RESULT:    -2.889      1.656      3.961
REMARK INTER + INTRA:          -4.915
REMARK INTER:                  -4.589
REMARK INTRA:                  -0.326
REMARK UNBOUND:                -0.506
REMARK SMILES CC1=CCC[C@@H](C)C(=O)C[C@@H](C(C)C)C(=O)C1
REMARK SMILES IDX 8 1 9 2 6 3 7 4 5 5 4 6 3 7 2 8 1 9 10 11 11 12 15 13 16 14
REMARK SMILES IDX 17 15 12 17 13 18 14 19
REMARK H PARENT
REMARK Flexibility Score: 70.00
ROOT
ATOM      1  C   UNL     1      -4.755  -2.275   4.917  1.00  0.00     0.136 C 
ATOM      2  O   UNL     1      -5.320  -3.359   4.862  1.00  0.00    -0.299 OA
ENDROOT
BRANCH   1   3
ATOM      3  C   UNL     1      -4.620  -1.441   3.639  1.00  0.00     0.053 C 
ATOM      4  C   UNL     1      -5.853  -1.579   2.728  1.00  0.00     0.016 C 
BRANCH   3   5
ATOM      5  C   UNL     1      -3.334  -1.789   2.837  1.00  0.00     0.015 C 
BRANCH   5   6
ATOM      6  C   UNL     1      -2.208  -2.491   3.627  1.00  0.00     0.028 C 
BRANCH   6   7
ATOM      7  C   UNL     1      -0.961  -1.698   3.964  1.00  0.00    -0.028 C 
ATOM      8  C   UNL     1      -0.561  -1.259   5.183  1.00  0.00    -0.070 CG0
ATOM      9  C   UNL     1       0.813  -0.644   5.285  1.00  0.00     0.039 C 
ATOM     10  G   UNL     1      -1.437  -1.246   6.425  1.00  0.00     0.000 G0
ENDBRANCH   6   7
ENDBRANCH   5   6
ENDBRANCH   3   5
ENDBRANCH   1   3
BRANCH   1  11
ATOM     11  C   UNL     1      -4.305  -1.782   6.289  1.00  0.00     0.087 C 
BRANCH  11  12
ATOM     12  C   UNL     1      -3.910  -0.283   6.344  1.00  0.00     0.066 C 
BRANCH  12  13
ATOM     13  C   UNL     1      -2.406  -0.085   6.443  1.00  0.00     0.140 C 
ATOM     14  O   UNL     1      -1.988   1.051   6.620  1.00  0.00    -0.299 OA
BRANCH  13  15
ATOM     15  C   UNL     1      -1.423  -1.244   6.438  1.00  0.00     0.106 CG0
ATOM     16  G   UNL     1      -0.575  -1.245   5.177  1.00  0.00     0.000 G0
ENDBRANCH  13  15
ENDBRANCH  12  13
BRANCH  12  17
ATOM     17  C   UNL     1      -4.635   0.482   7.498  1.00  0.00    -0.006 C 
ATOM     18  C   UNL     1      -5.668  -0.395   8.229  1.00  0.00     0.008 C 
ATOM     19  C   UNL     1      -5.341   1.747   6.974  1.00  0.00     0.008 C 
ENDBRANCH  12  17
ENDBRANCH  11  12
ENDBRANCH   1  11
TORSDOF 1
ENDMDL
