MODEL 1
REMARK VINA RESULT:    -3.136      0.000      0.000
REMARK INTER + INTRA:          -5.733
REMARK INTER:                  -4.785
REMARK INTRA:                  -0.948
REMARK UNBOUND:                -0.948
REMARK SMILES CCCCCCCCCCC(=O)[O-]
REMARK SMILES IDX 7 1 8 2 9 3 10 4 11 5 12 6 13 7 6 8 5 9 4 10 3 11 2 12 1 13
REMARK H PARENT
REMARK Flexibility Score: inf
ROOT
ATOM      1  C   UNL     1     -11.110 -17.970  20.358  1.00  0.00     0.000 C 
ENDROOT
BRANCH   1   2
ATOM      2  C   UNL     1     -11.065 -18.587  18.954  1.00  0.00     0.000 C 
BRANCH   2   3
ATOM      3  C   UNL     1     -11.124 -20.121  19.025  1.00  0.00     0.006 C 
BRANCH   3   4
ATOM      4  C   UNL     1      -9.733 -20.760  18.920  1.00  0.00     0.053 C 
BRANCH   4   5
ATOM      5  C   UNL     1      -9.562 -21.507  17.634  1.00  0.00     0.041 C 
ATOM      6  O   UNL     1      -9.762 -20.931  16.533  1.00  0.00    -0.550 OA
ATOM      7  O   UNL     1      -9.148 -22.834  17.651  1.00  0.00    -0.550 OA
ENDBRANCH   4   5
ENDBRANCH   3   4
ENDBRANCH   2   3
ENDBRANCH   1   2
BRANCH   1   8
ATOM      8  C   UNL     1      -9.702 -17.884  20.964  1.00  0.00     0.000 C 
BRANCH   8   9
ATOM      9  C   UNL     1      -9.645 -18.397  22.415  1.00  0.00    -0.000 C 
BRANCH   9  10
ATOM     10  C   UNL     1     -10.817 -19.306  22.831  1.00  0.00    -0.000 C 
BRANCH  10  11
ATOM     11  C   UNL     1     -10.537 -20.820  22.743  1.00  0.00    -0.000 C 
BRANCH  11  12
ATOM     12  C   UNL     1      -9.058 -21.213  22.898  1.00  0.00    -0.003 C 
ATOM     13  C   UNL     1      -8.871 -22.552  23.612  1.00  0.00     0.004 C 
ENDBRANCH  11  12
ENDBRANCH  10  11
ENDBRANCH   9  10
ENDBRANCH   8   9
ENDBRANCH   1   8
TORSDOF 9
ENDMDL
MODEL 2
REMARK VINA RESULT:    -3.036      2.785      4.474
REMARK INTER + INTRA:          -5.582
REMARK INTER:                  -4.459
REMARK INTRA:                  -1.122
REMARK UNBOUND:                -0.948
REMARK SMILES CCCCCCCCCCC(=O)[O-]
REMARK SMILES IDX 7 1 8 2 9 3 10 4 11 5 12 6 13 7 6 8 5 9 4 10 3 11 2 12 1 13
REMARK H PARENT
REMARK Flexibility Score: inf
ROOT
ATOM      1  C   UNL     1      -9.641 -18.399  22.288  1.00  0.00     0.000 C 
ENDROOT
BRANCH   1   2
ATOM      2  C   UNL     1     -11.035 -18.834  22.757  1.00  0.00     0.000 C 
BRANCH   2   3
ATOM      3  C   UNL     1     -11.121 -20.363  22.883  1.00  0.00     0.006 C 
BRANCH   3   4
ATOM      4  C   UNL     1      -9.737 -21.024  22.878  1.00  0.00     0.053 C 
BRANCH   4   5
ATOM      5  C   UNL     1      -9.725 -22.294  23.670  1.00  0.00     0.041 C 
ATOM      6  O   UNL     1     -10.785 -22.723  24.197  1.00  0.00    -0.550 OA
ATOM      7  O   UNL     1      -8.549 -23.023  23.797  1.00  0.00    -0.550 OA
ENDBRANCH   4   5
ENDBRANCH   3   4
ENDBRANCH   2   3
ENDBRANCH   1   2
BRANCH   1   8
ATOM      8  C   UNL     1      -9.703 -17.770  20.889  1.00  0.00     0.000 C 
BRANCH   8   9
ATOM      9  C   UNL     1     -11.089 -17.908  20.234  1.00  0.00    -0.000 C 
BRANCH   9  10
ATOM     10  C   UNL     1     -11.125 -18.778  18.961  1.00  0.00    -0.000 C 
BRANCH  10  11
ATOM     11  C   UNL     1     -10.960 -20.293  19.197  1.00  0.00    -0.000 C 
BRANCH  11  12
ATOM     12  C   UNL     1      -9.608 -20.873  18.749  1.00  0.00    -0.003 C 
ATOM     13  C   UNL     1      -9.264 -22.187  19.450  1.00  0.00     0.004 C 
ENDBRANCH  11  12
ENDBRANCH  10  11
ENDBRANCH   9  10
ENDBRANCH   8   9
ENDBRANCH   1   8
TORSDOF 9
ENDMDL
MODEL 3
REMARK VINA RESULT:    -2.852      1.206      3.427
REMARK INTER + INTRA:          -5.301
REMARK INTER:                  -4.398
REMARK INTRA:                  -0.903
REMARK UNBOUND:                -0.948
REMARK SMILES CCCCCCCCCCC(=O)[O-]
REMARK SMILES IDX 7 1 8 2 9 3 10 4 11 5 12 6 13 7 6 8 5 9 4 10 3 11 2 12 1 13
REMARK H PARENT
REMARK Flexibility Score: inf
ROOT
ATOM      1  C   UNL     1      -8.570 -22.591  22.077  1.00  0.00     0.000 C 
ENDROOT
BRANCH   1   2
ATOM      2  C   UNL     1      -9.690 -23.059  21.140  1.00  0.00     0.000 C 
BRANCH   2   3
ATOM      3  C   UNL     1      -9.252 -22.966  19.670  1.00  0.00     0.006 C 
BRANCH   3   4
ATOM      4  C   UNL     1      -9.530 -21.582  19.069  1.00  0.00     0.053 C 
BRANCH   4   5
ATOM      5  C   UNL     1      -9.194 -21.533  17.611  1.00  0.00     0.041 C 
ATOM      6  O   UNL     1      -9.965 -20.954  16.801  1.00  0.00    -0.550 OA
ATOM      7  O   UNL     1      -8.011 -22.097  17.150  1.00  0.00    -0.550 OA
ENDBRANCH   4   5
ENDBRANCH   3   4
ENDBRANCH   2   3
ENDBRANCH   1   2
BRANCH   1   8
ATOM      8  C   UNL     1      -9.094 -21.562  23.090  1.00  0.00     0.000 C 
BRANCH   8   9
ATOM      9  C   UNL     1     -10.535 -21.111  22.790  1.00  0.00    -0.000 C 
BRANCH   9  10
ATOM     10  C   UNL     1     -10.746 -19.584  22.756  1.00  0.00    -0.000 C 
BRANCH  10  11
ATOM     11  C   UNL     1      -9.483 -18.755  22.450  1.00  0.00    -0.000 C 
BRANCH  11  12
ATOM     12  C   UNL     1      -9.610 -17.802  21.249  1.00  0.00    -0.003 C 
ATOM     13  C   UNL     1     -10.705 -18.224  20.269  1.00  0.00     0.004 C 
ENDBRANCH  11  12
ENDBRANCH  10  11
ENDBRANCH   9  10
ENDBRANCH   8   9
ENDBRANCH   1   8
TORSDOF 9
ENDMDL
MODEL 4
REMARK VINA RESULT:    -2.844     18.426     19.717
REMARK INTER + INTRA:          -5.288
REMARK INTER:                  -4.577
REMARK INTRA:                  -0.711
REMARK UNBOUND:                -0.948
REMARK SMILES CCCCCCCCCCC(=O)[O-]
REMARK SMILES IDX 7 1 8 2 9 3 10 4 11 5 12 6 13 7 6 8 5 9 4 10 3 11 2 12 1 13
REMARK H PARENT
REMARK Flexibility Score: inf
ROOT
ATOM      1  C   UNL     1       7.761 -19.642  11.686  1.00  0.00     0.000 C 
ENDROOT
BRANCH   1   2
ATOM      2  C   UNL     1       8.366 -20.110  10.357  1.00  0.00     0.000 C 
BRANCH   2   3
ATOM      3  C   UNL     1       9.009 -21.498  10.504  1.00  0.00     0.006 C 
BRANCH   3   4
ATOM      4  C   UNL     1       7.994 -22.631  10.300  1.00  0.00     0.053 C 
BRANCH   4   5
ATOM      5  C   UNL     1       7.639 -22.804   8.856  1.00  0.00     0.041 C 
ATOM      6  O   UNL     1       6.437 -22.752   8.487  1.00  0.00    -0.550 OA
ATOM      7  O   UNL     1       8.641 -22.992   7.911  1.00  0.00    -0.550 OA
ENDBRANCH   4   5
ENDBRANCH   3   4
ENDBRANCH   2   3
ENDBRANCH   1   2
BRANCH   1   8
ATOM      8  C   UNL     1       8.842 -19.519  12.769  1.00  0.00     0.000 C 
BRANCH   8   9
ATOM      9  C   UNL     1       8.423 -20.159  14.106  1.00  0.00    -0.000 C 
BRANCH   9  10
ATOM     10  C   UNL     1       7.939 -21.619  14.006  1.00  0.00    -0.000 C 
BRANCH  10  11
ATOM     11  C   UNL     1       7.032 -22.090  15.161  1.00  0.00    -0.000 C 
BRANCH  11  12
ATOM     12  C   UNL     1       6.956 -21.125  16.357  1.00  0.00    -0.003 C 
ATOM     13  C   UNL     1       6.136 -21.683  17.520  1.00  0.00     0.004 C 
ENDBRANCH  11  12
ENDBRANCH  10  11
ENDBRANCH   9  10
ENDBRANCH   8   9
ENDBRANCH   1   8
TORSDOF 9
ENDMDL
MODEL 5
REMARK VINA RESULT:    -2.838      2.917      5.850
REMARK INTER + INTRA:          -5.278
REMARK INTER:                  -4.763
REMARK INTRA:                  -0.515
REMARK UNBOUND:                -0.948
REMARK SMILES CCCCCCCCCCC(=O)[O-]
REMARK SMILES IDX 7 1 8 2 9 3 10 4 11 5 12 6 13 7 6 8 5 9 4 10 3 11 2 12 1 13
REMARK H PARENT
REMARK Flexibility Score: inf
ROOT
ATOM      1  C   UNL     1      -9.559 -22.227  20.955  1.00  0.00     0.000 C 
ENDROOT
BRANCH   1   2
ATOM      2  C   UNL     1     -10.361 -21.622  22.114  1.00  0.00     0.000 C 
BRANCH   2   3
ATOM      3  C   UNL     1     -10.954 -20.260  21.722  1.00  0.00     0.006 C 
BRANCH   3   4
ATOM      4  C   UNL     1     -10.551 -19.149  22.700  1.00  0.00     0.053 C 
BRANCH   4   5
ATOM      5  C   UNL     1      -9.627 -18.157  22.064  1.00  0.00     0.041 C 
ATOM      6  O   UNL     1      -8.862 -17.455  22.776  1.00  0.00    -0.550 OA
ATOM      7  O   UNL     1      -9.587 -18.032  20.680  1.00  0.00    -0.550 OA
ENDBRANCH   4   5
ENDBRANCH   3   4
ENDBRANCH   2   3
ENDBRANCH   1   2
BRANCH   1   8
ATOM      8  C   UNL     1     -10.136 -21.789  19.601  1.00  0.00     0.000 C 
BRANCH   8   9
ATOM      9  C   UNL     1      -9.058 -21.269  18.632  1.00  0.00    -0.000 C 
BRANCH   9  10
ATOM     10  C   UNL     1      -9.348 -21.519  17.139  1.00  0.00    -0.000 C 
BRANCH  10  11
ATOM     11  C   UNL     1     -10.745 -21.077  16.659  1.00  0.00    -0.000 C 
BRANCH  11  12
ATOM     12  C   UNL     1     -10.744 -19.911  15.656  1.00  0.00    -0.003 C 
ATOM     13  C   UNL     1      -9.837 -20.164  14.451  1.00  0.00     0.004 C 
ENDBRANCH  11  12
ENDBRANCH  10  11
ENDBRANCH   9  10
ENDBRANCH   8   9
ENDBRANCH   1   8
TORSDOF 9
ENDMDL
MODEL 6
REMARK VINA RESULT:    -2.826      2.610      5.521
REMARK INTER + INTRA:          -5.261
REMARK INTER:                  -4.701
REMARK INTRA:                  -0.561
REMARK UNBOUND:                -0.948
REMARK SMILES CCCCCCCCCCC(=O)[O-]
REMARK SMILES IDX 7 1 8 2 9 3 10 4 11 5 12 6 13 7 6 8 5 9 4 10 3 11 2 12 1 13
REMARK H PARENT
REMARK Flexibility Score: inf
ROOT
ATOM      1  C   UNL     1     -11.114 -19.060  20.355  1.00  0.00     0.000 C 
ENDROOT
BRANCH   1   2
ATOM      2  C   UNL     1     -10.296 -18.204  21.329  1.00  0.00     0.000 C 
BRANCH   2   3
ATOM      3  C   UNL     1      -9.579 -19.082  22.366  1.00  0.00     0.006 C 
BRANCH   3   4
ATOM      4  C   UNL     1     -10.404 -20.317  22.750  1.00  0.00     0.053 C 
BRANCH   4   5
ATOM      5  C   UNL     1      -9.604 -21.577  22.639  1.00  0.00     0.041 C 
ATOM      6  O   UNL     1      -9.909 -22.450  21.786  1.00  0.00    -0.550 OA
ATOM      7  O   UNL     1      -8.498 -21.772  23.458  1.00  0.00    -0.550 OA
ENDBRANCH   4   5
ENDBRANCH   3   4
ENDBRANCH   2   3
ENDBRANCH   1   2
BRANCH   1   8
ATOM      8  C   UNL     1     -10.275 -19.453  19.131  1.00  0.00     0.000 C 
BRANCH   8   9
ATOM      9  C   UNL     1     -10.581 -20.876  18.629  1.00  0.00    -0.000 C 
BRANCH   9  10
ATOM     10  C   UNL     1     -10.303 -21.113  17.131  1.00  0.00    -0.000 C 
BRANCH  10  11
ATOM     11  C   UNL     1     -11.125 -20.235  16.165  1.00  0.00    -0.000 C 
BRANCH  11  12
ATOM     12  C   UNL     1     -10.776 -20.412  14.677  1.00  0.00    -0.003 C 
ATOM     13  C   UNL     1      -9.274 -20.339  14.406  1.00  0.00     0.004 C 
ENDBRANCH  11  12
ENDBRANCH  10  11
ENDBRANCH   9  10
ENDBRANCH   8   9
ENDBRANCH   1   8
TORSDOF 9
ENDMDL
MODEL 7
REMARK VINA RESULT:    -2.733      1.566      2.429
REMARK INTER + INTRA:          -5.119
REMARK INTER:                  -4.507
REMARK INTRA:                  -0.612
REMARK UNBOUND:                -0.948
REMARK SMILES CCCCCCCCCCC(=O)[O-]
REMARK SMILES IDX 7 1 8 2 9 3 10 4 11 5 12 6 13 7 6 8 5 9 4 10 3 11 2 12 1 13
REMARK H PARENT
REMARK Flexibility Score: inf
ROOT
ATOM      1  C   UNL     1      -9.962 -20.185  19.118  1.00  0.00     0.000 C 
ENDROOT
BRANCH   1   2
ATOM      2  C   UNL     1     -10.389 -20.985  17.881  1.00  0.00     0.000 C 
BRANCH   2   3
ATOM      3  C   UNL     1      -9.628 -22.317  17.798  1.00  0.00     0.006 C 
BRANCH   3   4
ATOM      4  C   UNL     1      -8.309 -22.281  18.581  1.00  0.00     0.053 C 
BRANCH   4   5
ATOM      5  C   UNL     1      -7.121 -22.332  17.672  1.00  0.00     0.041 C 
ATOM      6  O   UNL     1      -5.987 -22.639  18.125  1.00  0.00    -0.550 OA
ATOM      7  O   UNL     1      -7.273 -22.071  16.315  1.00  0.00    -0.550 OA
ENDBRANCH   4   5
ENDBRANCH   3   4
ENDBRANCH   2   3
ENDBRANCH   1   2
BRANCH   1   8
ATOM      8  C   UNL     1     -10.898 -18.990  19.349  1.00  0.00     0.000 C 
BRANCH   8   9
ATOM      9  C   UNL     1     -10.410 -18.057  20.472  1.00  0.00    -0.000 C 
BRANCH   9  10
ATOM     10  C   UNL     1     -10.760 -18.519  21.901  1.00  0.00    -0.000 C 
BRANCH  10  11
ATOM     11  C   UNL     1      -9.660 -19.327  22.618  1.00  0.00    -0.000 C 
BRANCH  11  12
ATOM     12  C   UNL     1      -9.973 -20.821  22.803  1.00  0.00    -0.003 C 
ATOM     13  C   UNL     1      -8.725 -21.661  23.075  1.00  0.00     0.004 C 
ENDBRANCH  11  12
ENDBRANCH  10  11
ENDBRANCH   9  10
ENDBRANCH   8   9
ENDBRANCH   1   8
TORSDOF 9
ENDMDL
MODEL 8
REMARK VINA RESULT:    -2.692      3.173      5.377
REMARK INTER + INTRA:          -5.056
REMARK INTER:                  -4.489
REMARK INTRA:                  -0.567
REMARK UNBOUND:                -0.948
REMARK SMILES CCCCCCCCCCC(=O)[O-]
REMARK SMILES IDX 7 1 8 2 9 3 10 4 11 5 12 6 13 7 6 8 5 9 4 10 3 11 2 12 1 13
REMARK H PARENT
REMARK Flexibility Score: inf
ROOT
ATOM      1  C   UNL     1     -10.090 -20.371  19.485  1.00  0.00     0.000 C 
ENDROOT
BRANCH   1   2
ATOM      2  C   UNL     1     -11.102 -19.239  19.270  1.00  0.00     0.000 C 
BRANCH   2   3
ATOM      3  C   UNL     1     -11.109 -18.272  20.464  1.00  0.00     0.006 C 
BRANCH   3   4
ATOM      4  C   UNL     1      -9.691 -17.902  20.917  1.00  0.00     0.053 C 
BRANCH   4   5
ATOM      5  C   UNL     1      -9.457 -18.255  22.353  1.00  0.00     0.041 C 
ATOM      6  O   UNL     1      -9.689 -19.422  22.766  1.00  0.00    -0.550 OA
ATOM      7  O   UNL     1      -8.951 -17.303  23.230  1.00  0.00    -0.550 OA
ENDBRANCH   4   5
ENDBRANCH   3   4
ENDBRANCH   2   3
ENDBRANCH   1   2
BRANCH   1   8
ATOM      8  C   UNL     1     -10.795 -21.664  19.920  1.00  0.00     0.000 C 
BRANCH   8   9
ATOM      9  C   UNL     1     -10.375 -22.884  19.081  1.00  0.00    -0.000 C 
BRANCH   9  10
ATOM     10  C   UNL     1      -9.557 -22.556  17.817  1.00  0.00    -0.000 C 
BRANCH  10  11
ATOM     11  C   UNL     1      -8.114 -23.100  17.810  1.00  0.00    -0.000 C 
BRANCH  11  12
ATOM     12  C   UNL     1      -7.022 -22.033  17.625  1.00  0.00    -0.003 C 
ATOM     13  C   UNL     1      -6.329 -22.121  16.265  1.00  0.00     0.004 C 
ENDBRANCH  11  12
ENDBRANCH  10  11
ENDBRANCH   9  10
ENDBRANCH   8   9
ENDBRANCH   1   8
TORSDOF 9
ENDMDL
MODEL 9
REMARK VINA RESULT:    -2.634     18.213     19.579
REMARK INTER + INTRA:          -4.967
REMARK INTER:                  -4.363
REMARK INTRA:                  -0.605
REMARK UNBOUND:                -0.948
REMARK SMILES CCCCCCCCCCC(=O)[O-]
REMARK SMILES IDX 7 1 8 2 9 3 10 4 11 5 12 6 13 7 6 8 5 9 4 10 3 11 2 12 1 13
REMARK H PARENT
REMARK Flexibility Score: inf
ROOT
ATOM      1  C   UNL     1       6.240 -22.524  12.320  1.00  0.00     0.000 C 
ENDROOT
BRANCH   1   2
ATOM      2  C   UNL     1       6.382 -23.025  10.878  1.00  0.00     0.000 C 
BRANCH   2   3
ATOM      3  C   UNL     1       7.812 -22.809  10.359  1.00  0.00     0.006 C 
BRANCH   3   4
ATOM      4  C   UNL     1       7.832 -22.135   8.981  1.00  0.00     0.053 C 
BRANCH   4   5
ATOM      5  C   UNL     1       8.359 -20.735   9.054  1.00  0.00     0.041 C 
ATOM      6  O   UNL     1       8.803 -20.169   8.021  1.00  0.00    -0.550 OA
ATOM      7  O   UNL     1       8.329 -20.044  10.259  1.00  0.00    -0.550 OA
ENDBRANCH   4   5
ENDBRANCH   3   4
ENDBRANCH   2   3
ENDBRANCH   1   2
BRANCH   1   8
ATOM      8  C   UNL     1       7.611 -22.412  13.001  1.00  0.00     0.000 C 
BRANCH   8   9
ATOM      9  C   UNL     1       7.928 -20.983  13.474  1.00  0.00    -0.000 C 
BRANCH   9  10
ATOM     10  C   UNL     1       7.981 -20.799  15.004  1.00  0.00    -0.000 C 
BRANCH  10  11
ATOM     11  C   UNL     1       8.257 -22.084  15.810  1.00  0.00    -0.000 C 
BRANCH  11  12
ATOM     12  C   UNL     1       7.446 -22.219  17.110  1.00  0.00    -0.003 C 
ATOM     13  C   UNL     1       6.214 -21.314  17.137  1.00  0.00     0.004 C 
ENDBRANCH  11  12
ENDBRANCH  10  11
ENDBRANCH   9  10
ENDBRANCH   8   9
ENDBRANCH   1   8
TORSDOF 9
ENDMDL
