MODEL 1
REMARK VINA RESULT:    -4.735      0.000      0.000
REMARK INTER + INTRA:         -10.125
REMARK INTER:                  -8.610
REMARK INTRA:                  -1.515
REMARK UNBOUND:                -1.515
REMARK SMILES CCCCCCCCCCCCCC[C@H](C)C(=O)[O-]
REMARK SMILES IDX 9 1 10 2 11 3 12 4 13 5 14 6 15 7 16 8 17 9 18 10 19 11 8 12
REMARK SMILES IDX 7 13 6 14 5 15 4 16 3 17 2 18 1 19
REMARK H PARENT
REMARK Flexibility Score: inf
ROOT
ATOM      1  C   UNL     1      44.052  56.871  47.377  1.00  0.00     0.000 C 
ENDROOT
BRANCH   1   2
ATOM      2  C   UNL     1      44.090  58.061  46.406  1.00  0.00     0.000 C 
BRANCH   2   3
ATOM      3  C   UNL     1      43.884  57.594  44.957  1.00  0.00     0.000 C 
BRANCH   3   4
ATOM      4  C   UNL     1      42.451  57.102  44.680  1.00  0.00     0.000 C 
BRANCH   4   5
ATOM      5  C   UNL     1      41.332  58.061  45.127  1.00  0.00     0.001 C 
BRANCH   5   6
ATOM      6  C   UNL     1      40.136  57.328  45.763  1.00  0.00     0.009 C 
BRANCH   6   7
ATOM      7  C   UNL     1      40.492  56.494  47.015  1.00  0.00     0.032 C 
ATOM      8  C   UNL     1      39.733  55.160  47.080  1.00  0.00     0.014 C 
BRANCH   7   9
ATOM      9  C   UNL     1      40.332  57.295  48.282  1.00  0.00     0.044 C 
ATOM     10  O   UNL     1      39.236  57.848  48.563  1.00  0.00    -0.550 OA
ATOM     11  O   UNL     1      41.422  57.474  49.123  1.00  0.00    -0.550 OA
ENDBRANCH   7   9
ENDBRANCH   6   7
ENDBRANCH   5   6
ENDBRANCH   4   5
ENDBRANCH   3   4
ENDBRANCH   2   3
ENDBRANCH   1   2
BRANCH   1  12
ATOM     12  C   UNL     1      45.429  56.555  47.982  1.00  0.00     0.000 C 
BRANCH  12  13
ATOM     13  C   UNL     1      46.038  57.754  48.726  1.00  0.00    -0.000 C 
BRANCH  13  14
ATOM     14  C   UNL     1      44.994  58.427  49.626  1.00  0.00    -0.000 C 
BRANCH  14  15
ATOM     15  C   UNL     1      45.299  59.923  49.798  1.00  0.00    -0.000 C 
BRANCH  15  16
ATOM     16  C   UNL     1      44.330  60.827  49.013  1.00  0.00    -0.000 C 
BRANCH  16  17
ATOM     17  C   UNL     1      43.161  61.395  49.839  1.00  0.00    -0.000 C 
BRANCH  17  18
ATOM     18  C   UNL     1      41.823  61.360  49.085  1.00  0.00    -0.003 C 
ATOM     19  C   UNL     1      41.885  60.402  47.899  1.00  0.00     0.004 C 
ENDBRANCH  17  18
ENDBRANCH  16  17
ENDBRANCH  15  16
ENDBRANCH  14  15
ENDBRANCH  13  14
ENDBRANCH  12  13
ENDBRANCH   1  12
TORSDOF 14
ENDMDL
MODEL 2
REMARK VINA RESULT:    -4.631      1.545      5.293
REMARK INTER + INTRA:          -9.937
REMARK INTER:                  -8.130
REMARK INTRA:                  -1.807
REMARK UNBOUND:                -1.515
REMARK SMILES CCCCCCCCCCCCCC[C@H](C)C(=O)[O-]
REMARK SMILES IDX 9 1 10 2 11 3 12 4 13 5 14 6 15 7 16 8 17 9 18 10 19 11 8 12
REMARK SMILES IDX 7 13 6 14 5 15 4 16 3 17 2 18 1 19
REMARK H PARENT
REMARK Flexibility Score: inf
ROOT
ATOM      1  C   UNL     1      44.113  58.137  46.550  1.00  0.00     0.000 C 
ENDROOT
BRANCH   1   2
ATOM      2  C   UNL     1      44.179  56.842  47.375  1.00  0.00     0.000 C 
BRANCH   2   3
ATOM      3  C   UNL     1      45.544  56.701  48.065  1.00  0.00     0.000 C 
BRANCH   3   4
ATOM      4  C   UNL     1      46.013  58.000  48.744  1.00  0.00     0.000 C 
BRANCH   4   5
ATOM      5  C   UNL     1      45.351  58.307  50.100  1.00  0.00     0.001 C 
BRANCH   5   6
ATOM      6  C   UNL     1      45.186  59.818  50.357  1.00  0.00     0.009 C 
BRANCH   6   7
ATOM      7  C   UNL     1      44.778  60.635  49.110  1.00  0.00     0.032 C 
ATOM      8  C   UNL     1      45.645  61.887  48.906  1.00  0.00     0.014 C 
BRANCH   7   9
ATOM      9  C   UNL     1      43.307  60.963  49.117  1.00  0.00     0.044 C 
ATOM     10  O   UNL     1      42.564  60.621  48.159  1.00  0.00    -0.550 OA
ATOM     11  O   UNL     1      42.773  61.701  50.165  1.00  0.00    -0.550 OA
ENDBRANCH   7   9
ENDBRANCH   6   7
ENDBRANCH   5   6
ENDBRANCH   4   5
ENDBRANCH   3   4
ENDBRANCH   2   3
ENDBRANCH   1   2
BRANCH   1  12
ATOM     12  C   UNL     1      43.913  57.874  45.049  1.00  0.00     0.000 C 
BRANCH  12  13
ATOM     13  C   UNL     1      42.562  57.210  44.739  1.00  0.00    -0.000 C 
BRANCH  13  14
ATOM     14  C   UNL     1      41.412  57.967  45.415  1.00  0.00    -0.000 C 
BRANCH  14  15
ATOM     15  C   UNL     1      40.347  56.993  45.941  1.00  0.00    -0.000 C 
BRANCH  15  16
ATOM     16  C   UNL     1      40.470  56.728  47.453  1.00  0.00    -0.000 C 
BRANCH  16  17
ATOM     17  C   UNL     1      39.607  57.642  48.343  1.00  0.00    -0.000 C 
BRANCH  17  18
ATOM     18  C   UNL     1      40.398  58.269  49.501  1.00  0.00    -0.003 C 
ATOM     19  C   UNL     1      41.819  57.718  49.558  1.00  0.00     0.004 C 
ENDBRANCH  17  18
ENDBRANCH  16  17
ENDBRANCH  15  16
ENDBRANCH  14  15
ENDBRANCH  13  14
ENDBRANCH  12  13
ENDBRANCH   1  12
TORSDOF 14
ENDMDL
MODEL 3
REMARK VINA RESULT:    -4.626      1.628      5.825
REMARK INTER + INTRA:          -9.928
REMARK INTER:                  -8.153
REMARK INTRA:                  -1.775
REMARK UNBOUND:                -1.515
REMARK SMILES CCCCCCCCCCCCCC[C@H](C)C(=O)[O-]
REMARK SMILES IDX 9 1 10 2 11 3 12 4 13 5 14 6 15 7 16 8 17 9 18 10 19 11 8 12
REMARK SMILES IDX 7 13 6 14 5 15 4 16 3 17 2 18 1 19
REMARK H PARENT
REMARK Flexibility Score: inf
ROOT
ATOM      1  C   UNL     1      41.701  58.749  49.202  1.00  0.00     0.000 C 
ENDROOT
BRANCH   1   2
ATOM      2  C   UNL     1      41.479  60.021  48.368  1.00  0.00     0.000 C 
BRANCH   2   3
ATOM      3  C   UNL     1      41.916  61.271  49.147  1.00  0.00     0.000 C 
BRANCH   3   4
ATOM      4  C   UNL     1      43.268  61.093  49.861  1.00  0.00     0.000 C 
BRANCH   4   5
ATOM      5  C   UNL     1      44.497  61.043  48.933  1.00  0.00     0.001 C 
BRANCH   5   6
ATOM      6  C   UNL     1      45.632  60.163  49.491  1.00  0.00     0.009 C 
BRANCH   6   7
ATOM      7  C   UNL     1      45.172  58.776  49.997  1.00  0.00     0.032 C 
ATOM      8  C   UNL     1      45.779  58.406  51.358  1.00  0.00     0.014 C 
BRANCH   7   9
ATOM      9  C   UNL     1      45.404  57.702  48.965  1.00  0.00     0.044 C 
ATOM     10  O   UNL     1      46.548  57.518  48.470  1.00  0.00    -0.550 OA
ATOM     11  O   UNL     1      44.334  56.942  48.514  1.00  0.00    -0.550 OA
ENDBRANCH   7   9
ENDBRANCH   6   7
ENDBRANCH   5   6
ENDBRANCH   4   5
ENDBRANCH   3   4
ENDBRANCH   2   3
ENDBRANCH   1   2
BRANCH   1  12
ATOM     12  C   UNL     1      40.389  58.017  49.526  1.00  0.00     0.000 C 
BRANCH  12  13
ATOM     13  C   UNL     1      39.596  57.638  48.265  1.00  0.00    -0.000 C 
BRANCH  13  14
ATOM     14  C   UNL     1      40.409  56.697  47.368  1.00  0.00    -0.000 C 
BRANCH  14  15
ATOM     15  C   UNL     1      40.272  57.092  45.890  1.00  0.00    -0.000 C 
BRANCH  15  16
ATOM     16  C   UNL     1      41.469  57.912  45.375  1.00  0.00    -0.000 C 
BRANCH  16  17
ATOM     17  C   UNL     1      42.703  57.080  44.978  1.00  0.00    -0.000 C 
BRANCH  17  18
ATOM     18  C   UNL     1      44.021  57.852  45.135  1.00  0.00    -0.003 C 
ATOM     19  C   UNL     1      43.848  59.054  46.059  1.00  0.00     0.004 C 
ENDBRANCH  17  18
ENDBRANCH  16  17
ENDBRANCH  15  16
ENDBRANCH  14  15
ENDBRANCH  13  14
ENDBRANCH  12  13
ENDBRANCH   1  12
TORSDOF 14
ENDMDL
MODEL 4
REMARK VINA RESULT:    -4.538      2.007      5.635
REMARK INTER + INTRA:          -9.767
REMARK INTER:                  -7.647
REMARK INTRA:                  -2.120
REMARK UNBOUND:                -1.515
REMARK SMILES CCCCCCCCCCCCCC[C@H](C)C(=O)[O-]
REMARK SMILES IDX 9 1 10 2 11 3 12 4 13 5 14 6 15 7 16 8 17 9 18 10 19 11 8 12
REMARK SMILES IDX 7 13 6 14 5 15 4 16 3 17 2 18 1 19
REMARK H PARENT
REMARK Flexibility Score: inf
ROOT
ATOM      1  C   UNL     1      39.639  56.265  47.911  1.00  0.00     0.000 C 
ENDROOT
BRANCH   1   2
ATOM      2  C   UNL     1      39.413  57.694  48.427  1.00  0.00     0.000 C 
BRANCH   2   3
ATOM      3  C   UNL     1      40.237  57.957  49.696  1.00  0.00     0.000 C 
BRANCH   3   4
ATOM      4  C   UNL     1      41.557  58.699  49.414  1.00  0.00     0.000 C 
BRANCH   4   5
ATOM      5  C   UNL     1      41.574  59.535  48.122  1.00  0.00     0.001 C 
BRANCH   5   6
ATOM      6  C   UNL     1      42.735  60.548  48.080  1.00  0.00     0.009 C 
BRANCH   6   7
ATOM      7  C   UNL     1      43.410  60.799  49.448  1.00  0.00     0.032 C 
ATOM      8  C   UNL     1      43.082  62.182  50.031  1.00  0.00     0.014 C 
BRANCH   7   9
ATOM      9  C   UNL     1      44.895  60.550  49.390  1.00  0.00     0.044 C 
ATOM     10  O   UNL     1      45.373  59.421  49.677  1.00  0.00    -0.550 OA
ATOM     11  O   UNL     1      45.754  61.593  49.070  1.00  0.00    -0.550 OA
ENDBRANCH   7   9
ENDBRANCH   6   7
ENDBRANCH   5   6
ENDBRANCH   4   5
ENDBRANCH   3   4
ENDBRANCH   2   3
ENDBRANCH   1   2
BRANCH   1  12
ATOM     12  C   UNL     1      40.500  56.223  46.638  1.00  0.00     0.000 C 
BRANCH  12  13
ATOM     13  C   UNL     1      40.083  57.282  45.607  1.00  0.00    -0.000 C 
BRANCH  13  14
ATOM     14  C   UNL     1      41.306  58.035  45.068  1.00  0.00    -0.000 C 
BRANCH  14  15
ATOM     15  C   UNL     1      42.496  57.083  44.875  1.00  0.00    -0.000 C 
BRANCH  15  16
ATOM     16  C   UNL     1      43.857  57.792  44.995  1.00  0.00    -0.000 C 
BRANCH  16  17
ATOM     17  C   UNL     1      44.280  58.147  46.433  1.00  0.00    -0.000 C 
BRANCH  17  18
ATOM     18  C   UNL     1      44.083  56.987  47.419  1.00  0.00    -0.003 C 
ATOM     19  C   UNL     1      45.417  56.523  47.996  1.00  0.00     0.004 C 
ENDBRANCH  17  18
ENDBRANCH  16  17
ENDBRANCH  15  16
ENDBRANCH  14  15
ENDBRANCH  13  14
ENDBRANCH  12  13
ENDBRANCH   1  12
TORSDOF 14
ENDMDL
MODEL 5
REMARK VINA RESULT:    -4.505      2.142      4.718
REMARK INTER + INTRA:          -9.707
REMARK INTER:                  -7.960
REMARK INTRA:                  -1.747
REMARK UNBOUND:                -1.515
REMARK SMILES CCCCCCCCCCCCCC[C@H](C)C(=O)[O-]
REMARK SMILES IDX 9 1 10 2 11 3 12 4 13 5 14 6 15 7 16 8 17 9 18 10 19 11 8 12
REMARK SMILES IDX 7 13 6 14 5 15 4 16 3 17 2 18 1 19
REMARK H PARENT
REMARK Flexibility Score: inf
ROOT
ATOM      1  C   UNL     1      41.264  57.844  45.233  1.00  0.00     0.000 C 
ENDROOT
BRANCH   1   2
ATOM      2  C   UNL     1      42.396  57.016  44.604  1.00  0.00     0.000 C 
BRANCH   2   3
ATOM      3  C   UNL     1      43.761  57.675  44.852  1.00  0.00     0.000 C 
BRANCH   3   4
ATOM      4  C   UNL     1      43.967  58.101  46.317  1.00  0.00     0.000 C 
BRANCH   4   5
ATOM      5  C   UNL     1      43.964  56.951  47.340  1.00  0.00     0.001 C 
BRANCH   5   6
ATOM      6  C   UNL     1      44.279  57.424  48.773  1.00  0.00     0.009 C 
BRANCH   6   7
ATOM      7  C   UNL     1      45.611  58.196  48.910  1.00  0.00     0.032 C 
ATOM      8  C   UNL     1      46.838  57.273  48.922  1.00  0.00     0.014 C 
BRANCH   7   9
ATOM      9  C   UNL     1      45.594  59.127  50.096  1.00  0.00     0.044 C 
ATOM     10  O   UNL     1      45.615  60.376  49.938  1.00  0.00    -0.550 OA
ATOM     11  O   UNL     1      45.612  58.602  51.381  1.00  0.00    -0.550 OA
ENDBRANCH   7   9
ENDBRANCH   6   7
ENDBRANCH   5   6
ENDBRANCH   4   5
ENDBRANCH   3   4
ENDBRANCH   2   3
ENDBRANCH   1   2
BRANCH   1  12
ATOM     12  C   UNL     1      40.156  56.969  45.840  1.00  0.00     0.000 C 
BRANCH  12  13
ATOM     13  C   UNL     1      40.379  56.685  47.334  1.00  0.00    -0.000 C 
BRANCH  13  14
ATOM     14  C   UNL     1      39.467  57.562  48.201  1.00  0.00    -0.000 C 
BRANCH  14  15
ATOM     15  C   UNL     1      40.150  57.920  49.529  1.00  0.00    -0.000 C 
BRANCH  15  16
ATOM     16  C   UNL     1      41.493  58.648  49.337  1.00  0.00    -0.000 C 
BRANCH  16  17
ATOM     17  C   UNL     1      41.439  59.877  48.411  1.00  0.00    -0.000 C 
BRANCH  17  18
ATOM     18  C   UNL     1      42.664  60.792  48.557  1.00  0.00    -0.003 C 
ATOM     19  C   UNL     1      42.551  61.666  49.802  1.00  0.00     0.004 C 
ENDBRANCH  17  18
ENDBRANCH  16  17
ENDBRANCH  15  16
ENDBRANCH  14  15
ENDBRANCH  13  14
ENDBRANCH  12  13
ENDBRANCH   1  12
TORSDOF 14
ENDMDL
MODEL 6
REMARK VINA RESULT:    -4.502      1.418      3.483
REMARK INTER + INTRA:          -9.702
REMARK INTER:                  -8.225
REMARK INTRA:                  -1.477
REMARK UNBOUND:                -1.515
REMARK SMILES CCCCCCCCCCCCCC[C@H](C)C(=O)[O-]
REMARK SMILES IDX 9 1 10 2 11 3 12 4 13 5 14 6 15 7 16 8 17 9 18 10 19 11 8 12
REMARK SMILES IDX 7 13 6 14 5 15 4 16 3 17 2 18 1 19
REMARK H PARENT
REMARK Flexibility Score: inf
ROOT
ATOM      1  C   UNL     1      45.186  58.465  49.783  1.00  0.00     0.000 C 
ENDROOT
BRANCH   1   2
ATOM      2  C   UNL     1      46.278  57.728  48.993  1.00  0.00     0.000 C 
BRANCH   2   3
ATOM      3  C   UNL     1      45.660  56.719  48.014  1.00  0.00     0.000 C 
BRANCH   3   4
ATOM      4  C   UNL     1      44.279  57.155  47.492  1.00  0.00     0.000 C 
BRANCH   4   5
ATOM      5  C   UNL     1      44.294  58.347  46.518  1.00  0.00     0.001 C 
BRANCH   5   6
ATOM      6  C   UNL     1      42.948  58.544  45.794  1.00  0.00     0.009 C 
BRANCH   6   7
ATOM      7  C   UNL     1      42.302  57.237  45.281  1.00  0.00     0.032 C 
ATOM      8  C   UNL     1      42.772  56.853  43.870  1.00  0.00     0.014 C 
BRANCH   7   9
ATOM      9  C   UNL     1      40.799  57.281  45.382  1.00  0.00     0.044 C 
ATOM     10  O   UNL     1      40.184  56.546  46.198  1.00  0.00    -0.550 OA
ATOM     11  O   UNL     1      40.078  58.103  44.526  1.00  0.00    -0.550 OA
ENDBRANCH   7   9
ENDBRANCH   6   7
ENDBRANCH   5   6
ENDBRANCH   4   5
ENDBRANCH   3   4
ENDBRANCH   2   3
ENDBRANCH   1   2
BRANCH   1  12
ATOM     12  C   UNL     1      45.436  59.980  49.869  1.00  0.00     0.000 C 
BRANCH  12  13
ATOM     13  C   UNL     1      44.470  60.789  48.990  1.00  0.00    -0.000 C 
BRANCH  13  14
ATOM     14  C   UNL     1      43.376  61.447  49.841  1.00  0.00    -0.000 C 
BRANCH  14  15
ATOM     15  C   UNL     1      42.021  61.408  49.120  1.00  0.00    -0.000 C 
BRANCH  15  16
ATOM     16  C   UNL     1      41.696  60.025  48.526  1.00  0.00    -0.000 C 
BRANCH  16  17
ATOM     17  C   UNL     1      41.866  58.844  49.501  1.00  0.00    -0.000 C 
BRANCH  17  18
ATOM     18  C   UNL     1      40.994  57.635  49.133  1.00  0.00    -0.003 C 
ATOM     19  C   UNL     1      39.530  58.037  48.982  1.00  0.00     0.004 C 
ENDBRANCH  17  18
ENDBRANCH  16  17
ENDBRANCH  15  16
ENDBRANCH  14  15
ENDBRANCH  13  14
ENDBRANCH  12  13
ENDBRANCH   1  12
TORSDOF 14
ENDMDL
MODEL 7
REMARK VINA RESULT:    -4.475      1.668      3.640
REMARK INTER + INTRA:          -9.652
REMARK INTER:                  -7.579
REMARK INTRA:                  -2.074
REMARK UNBOUND:                -1.515
REMARK SMILES CCCCCCCCCCCCCC[C@H](C)C(=O)[O-]
REMARK SMILES IDX 9 1 10 2 11 3 12 4 13 5 14 6 15 7 16 8 17 9 18 10 19 11 8 12
REMARK SMILES IDX 7 13 6 14 5 15 4 16 3 17 2 18 1 19
REMARK H PARENT
REMARK Flexibility Score: inf
ROOT
ATOM      1  C   UNL     1      42.624  57.332  49.124  1.00  0.00     0.000 C 
ENDROOT
BRANCH   1   2
ATOM      2  C   UNL     1      43.976  57.823  49.664  1.00  0.00     0.000 C 
BRANCH   2   3
ATOM      3  C   UNL     1      45.095  57.584  48.639  1.00  0.00     0.000 C 
BRANCH   3   4
ATOM      4  C   UNL     1      44.563  57.255  47.232  1.00  0.00     0.000 C 
BRANCH   4   5
ATOM      5  C   UNL     1      44.384  58.466  46.299  1.00  0.00     0.001 C 
BRANCH   5   6
ATOM      6  C   UNL     1      42.958  58.574  45.726  1.00  0.00     0.009 C 
BRANCH   6   7
ATOM      7  C   UNL     1      42.326  57.220  45.331  1.00  0.00     0.032 C 
ATOM      8  C   UNL     1      42.672  56.795  43.896  1.00  0.00     0.014 C 
BRANCH   7   9
ATOM      9  C   UNL     1      40.839  57.206  45.579  1.00  0.00     0.044 C 
ATOM     10  O   UNL     1      40.343  56.499  46.495  1.00  0.00    -0.550 OA
ATOM     11  O   UNL     1      39.999  57.940  44.752  1.00  0.00    -0.550 OA
ENDBRANCH   7   9
ENDBRANCH   6   7
ENDBRANCH   5   6
ENDBRANCH   4   5
ENDBRANCH   3   4
ENDBRANCH   2   3
ENDBRANCH   1   2
BRANCH   1  12
ATOM     12  C   UNL     1      41.440  58.156  49.655  1.00  0.00     0.000 C 
BRANCH  12  13
ATOM     13  C   UNL     1      40.833  59.077  48.584  1.00  0.00    -0.000 C 
BRANCH  13  14
ATOM     14  C   UNL     1      41.791  60.225  48.242  1.00  0.00    -0.000 C 
BRANCH  14  15
ATOM     15  C   UNL     1      41.857  61.246  49.387  1.00  0.00    -0.000 C 
BRANCH  15  16
ATOM     16  C   UNL     1      43.299  61.584  49.808  1.00  0.00    -0.000 C 
BRANCH  16  17
ATOM     17  C   UNL     1      44.387  61.138  48.814  1.00  0.00    -0.000 C 
BRANCH  17  18
ATOM     18  C   UNL     1      45.794  61.602  49.218  1.00  0.00    -0.003 C 
ATOM     19  C   UNL     1      46.231  62.812  48.398  1.00  0.00     0.004 C 
ENDBRANCH  17  18
ENDBRANCH  16  17
ENDBRANCH  15  16
ENDBRANCH  14  15
ENDBRANCH  13  14
ENDBRANCH  12  13
ENDBRANCH   1  12
TORSDOF 14
ENDMDL
MODEL 8
REMARK VINA RESULT:    -4.464      1.729      4.226
REMARK INTER + INTRA:          -9.634
REMARK INTER:                  -8.039
REMARK INTRA:                  -1.595
REMARK UNBOUND:                -1.515
REMARK SMILES CCCCCCCCCCCCCC[C@H](C)C(=O)[O-]
REMARK SMILES IDX 9 1 10 2 11 3 12 4 13 5 14 6 15 7 16 8 17 9 18 10 19 11 8 12
REMARK SMILES IDX 7 13 6 14 5 15 4 16 3 17 2 18 1 19
REMARK H PARENT
REMARK Flexibility Score: inf
ROOT
ATOM      1  C   UNL     1      41.746  59.972  48.214  1.00  0.00     0.000 C 
ENDROOT
BRANCH   1   2
ATOM      2  C   UNL     1      41.668  58.744  49.134  1.00  0.00     0.000 C 
BRANCH   2   3
ATOM      3  C   UNL     1      40.208  58.331  49.375  1.00  0.00     0.000 C 
BRANCH   3   4
ATOM      4  C   UNL     1      39.601  57.547  48.197  1.00  0.00     0.000 C 
BRANCH   4   5
ATOM      5  C   UNL     1      40.550  56.537  47.526  1.00  0.00     0.001 C 
BRANCH   5   6
ATOM      6  C   UNL     1      40.469  56.573  45.987  1.00  0.00     0.009 C 
BRANCH   6   7
ATOM      7  C   UNL     1      41.065  57.848  45.348  1.00  0.00     0.032 C 
ATOM      8  C   UNL     1      40.238  58.363  44.160  1.00  0.00     0.014 C 
BRANCH   7   9
ATOM      9  C   UNL     1      42.517  57.664  44.987  1.00  0.00     0.044 C 
ATOM     10  O   UNL     1      42.866  56.816  44.124  1.00  0.00    -0.550 OA
ATOM     11  O   UNL     1      43.488  58.400  45.652  1.00  0.00    -0.550 OA
ENDBRANCH   7   9
ENDBRANCH   6   7
ENDBRANCH   5   6
ENDBRANCH   4   5
ENDBRANCH   3   4
ENDBRANCH   2   3
ENDBRANCH   1   2
BRANCH   1  12
ATOM     12  C   UNL     1      41.874  61.290  48.994  1.00  0.00     0.000 C 
BRANCH  12  13
ATOM     13  C   UNL     1      43.163  61.361  49.829  1.00  0.00    -0.000 C 
BRANCH  13  14
ATOM     14  C   UNL     1      44.368  60.868  49.019  1.00  0.00    -0.000 C 
BRANCH  14  15
ATOM     15  C   UNL     1      45.270  59.963  49.871  1.00  0.00    -0.000 C 
BRANCH  15  16
ATOM     16  C   UNL     1      45.063  58.465  49.583  1.00  0.00    -0.000 C 
BRANCH  16  17
ATOM     17  C   UNL     1      46.209  57.789  48.809  1.00  0.00    -0.000 C 
BRANCH  17  18
ATOM     18  C   UNL     1      45.733  56.620  47.933  1.00  0.00    -0.003 C 
ATOM     19  C   UNL     1      44.220  56.442  48.029  1.00  0.00     0.004 C 
ENDBRANCH  17  18
ENDBRANCH  16  17
ENDBRANCH  15  16
ENDBRANCH  14  15
ENDBRANCH  13  14
ENDBRANCH  12  13
ENDBRANCH   1  12
TORSDOF 14
ENDMDL
MODEL 9
REMARK VINA RESULT:    -4.445      1.837      4.541
REMARK INTER + INTRA:          -9.598
REMARK INTER:                  -7.890
REMARK INTRA:                  -1.708
REMARK UNBOUND:                -1.515
REMARK SMILES CCCCCCCCCCCCCC[C@H](C)C(=O)[O-]
REMARK SMILES IDX 9 1 10 2 11 3 12 4 13 5 14 6 15 7 16 8 17 9 18 10 19 11 8 12
REMARK SMILES IDX 7 13 6 14 5 15 4 16 3 17 2 18 1 19
REMARK H PARENT
REMARK Flexibility Score: inf
ROOT
ATOM      1  C   UNL     1      41.213  57.812  45.005  1.00  0.00     0.000 C 
ENDROOT
BRANCH   1   2
ATOM      2  C   UNL     1      40.039  57.273  45.838  1.00  0.00     0.000 C 
BRANCH   2   3
ATOM      3  C   UNL     1      40.489  56.935  47.267  1.00  0.00     0.000 C 
BRANCH   3   4
ATOM      4  C   UNL     1      39.767  57.771  48.339  1.00  0.00     0.000 C 
BRANCH   4   5
ATOM      5  C   UNL     1      40.620  58.137  49.568  1.00  0.00     0.001 C 
BRANCH   5   6
ATOM      6  C   UNL     1      41.990  58.732  49.189  1.00  0.00     0.009 C 
BRANCH   6   7
ATOM      7  C   UNL     1      41.935  60.199  48.707  1.00  0.00     0.032 C 
ATOM      8  C   UNL     1      41.999  60.328  47.178  1.00  0.00     0.014 C 
BRANCH   7   9
ATOM      9  C   UNL     1      42.978  61.048  49.388  1.00  0.00     0.044 C 
ATOM     10  O   UNL     1      42.679  61.776  50.371  1.00  0.00    -0.550 OA
ATOM     11  O   UNL     1      44.275  61.072  48.892  1.00  0.00    -0.550 OA
ENDBRANCH   7   9
ENDBRANCH   6   7
ENDBRANCH   5   6
ENDBRANCH   4   5
ENDBRANCH   3   4
ENDBRANCH   2   3
ENDBRANCH   1   2
BRANCH   1  12
ATOM     12  C   UNL     1      42.454  56.908  45.075  1.00  0.00     0.000 C 
BRANCH  12  13
ATOM     13  C   UNL     1      43.768  57.698  44.978  1.00  0.00    -0.000 C 
BRANCH  13  14
ATOM     14  C   UNL     1      44.289  58.069  46.372  1.00  0.00    -0.000 C 
BRANCH  14  15
ATOM     15  C   UNL     1      44.214  56.866  47.325  1.00  0.00    -0.000 C 
BRANCH  15  16
ATOM     16  C   UNL     1      45.483  56.699  48.181  1.00  0.00    -0.000 C 
BRANCH  16  17
ATOM     17  C   UNL     1      45.985  57.989  48.856  1.00  0.00    -0.000 C 
BRANCH  17  18
ATOM     18  C   UNL     1      45.205  58.340  50.132  1.00  0.00    -0.003 C 
ATOM     19  C   UNL     1      46.131  58.403  51.343  1.00  0.00     0.004 C 
ENDBRANCH  17  18
ENDBRANCH  16  17
ENDBRANCH  15  16
ENDBRANCH  14  15
ENDBRANCH  13  14
ENDBRANCH  12  13
ENDBRANCH   1  12
TORSDOF 14
ENDMDL
