MODEL 1
REMARK VINA RESULT:    -7.227      0.000      0.000
REMARK INTER + INTRA:          -7.860
REMARK INTER:                  -7.860
REMARK INTRA:                   0.000
REMARK UNBOUND:                 0.000
REMARK SMILES Cc1cc(O)c2c(c1)C(=O)c1cc(O)cc(O)c1C2=O
REMARK SMILES IDX 1 1 2 2 8 3 7 4 6 5 4 6 3 7 19 8 20 9 18 10 11 11 9 12 10 13
REMARK SMILES IDX 12 14 13 15 15 16 16 17 5 18 17 20 14 22
REMARK H PARENT 5 19 17 21 14 23
REMARK Flexibility Score: inf
ROOT
ATOM      1  C   UNL     1      17.194  13.773  19.904  1.00  0.00     0.044 C 
ATOM      2  C   UNL     1      18.056  13.085  18.886  1.00  0.00    -0.047 A 
ATOM      3  C   UNL     1      19.010  12.145  19.292  1.00  0.00     0.016 A 
ATOM      4  C   UNL     1      19.798  11.467  18.344  1.00  0.00     0.038 A 
ATOM      5  C   UNL     1      19.619  11.724  16.967  1.00  0.00     0.076 A 
ATOM      6  C   UNL     1      18.637  12.661  16.563  1.00  0.00     0.127 A 
ATOM      7  C   UNL     1      17.862  13.326  17.523  1.00  0.00     0.050 A 
ATOM      8  C   UNL     1      20.463  11.001  15.973  1.00  0.00     0.201 C 
ATOM      9  O   UNL     1      20.314  11.231  14.743  1.00  0.00    -0.288 OA
ATOM     10  C   UNL     1      21.482  10.011  16.422  1.00  0.00     0.076 A 
ATOM     11  C   UNL     1      21.645   9.764  17.804  1.00  0.00     0.041 A 
ATOM     12  C   UNL     1      20.811  10.484  18.792  1.00  0.00     0.194 C 
ATOM     13  O   UNL     1      20.965  10.259  20.025  1.00  0.00    -0.289 OA
ATOM     14  C   UNL     1      22.604   8.831  18.239  1.00  0.00     0.059 A 
ATOM     15  C   UNL     1      23.398   8.145  17.316  1.00  0.00     0.120 A 
ATOM     16  C   UNL     1      23.241   8.384  15.953  1.00  0.00     0.093 A 
ATOM     17  C   UNL     1      22.292   9.309  15.496  1.00  0.00     0.131 A 
ENDROOT
BRANCH   6  18
ATOM     18  O   UNL     1      18.423  12.935  15.212  1.00  0.00    -0.507 OA
ATOM     19  H   UNL     1      18.169  12.207  14.553  1.00  0.00     0.293 HD
ENDBRANCH   6  18
BRANCH  17  20
ATOM     20  O   UNL     1      22.161   9.524  14.124  1.00  0.00    -0.507 OA
ATOM     21  H   UNL     1      21.475   9.024  13.568  1.00  0.00     0.293 HD
ENDBRANCH  17  20
BRANCH  15  22
ATOM     22  O   UNL     1      24.348   7.220  17.746  1.00  0.00    -0.508 OA
ATOM     23  H   UNL     1      24.393   6.916  18.711  1.00  0.00     0.293 HD
ENDBRANCH  15  22
TORSDOF 3
ENDMDL
MODEL 2
REMARK VINA RESULT:    -7.216      1.241      5.493
REMARK INTER + INTRA:          -7.849
REMARK INTER:                  -7.849
REMARK INTRA:                   0.000
REMARK UNBOUND:                 0.000
REMARK SMILES Cc1cc(O)c2c(c1)C(=O)c1cc(O)cc(O)c1C2=O
REMARK SMILES IDX 1 1 2 2 8 3 7 4 6 5 4 6 3 7 19 8 20 9 18 10 11 11 9 12 10 13
REMARK SMILES IDX 12 14 13 15 15 16 16 17 5 18 17 20 14 22
REMARK H PARENT 5 19 17 21 14 23
REMARK Flexibility Score: inf
ROOT
ATOM      1  C   UNL     1      23.996   7.148  17.691  1.00  0.00     0.044 C 
ATOM      2  C   UNL     1      23.058   8.226  17.231  1.00  0.00    -0.047 A 
ATOM      3  C   UNL     1      22.298   8.941  18.162  1.00  0.00     0.016 A 
ATOM      4  C   UNL     1      21.444   9.979  17.747  1.00  0.00     0.038 A 
ATOM      5  C   UNL     1      21.359  10.314  16.378  1.00  0.00     0.076 A 
ATOM      6  C   UNL     1      22.147   9.600  15.443  1.00  0.00     0.127 A 
ATOM      7  C   UNL     1      22.992   8.570  15.878  1.00  0.00     0.050 A 
ATOM      8  C   UNL     1      20.447  11.414  15.950  1.00  0.00     0.201 C 
ATOM      9  O   UNL     1      20.361  11.715  14.729  1.00  0.00    -0.288 OA
ATOM     10  C   UNL     1      19.637  12.159  16.953  1.00  0.00     0.076 A 
ATOM     11  C   UNL     1      19.736  11.812  18.320  1.00  0.00     0.041 A 
ATOM     12  C   UNL     1      20.637  10.718  18.746  1.00  0.00     0.194 C 
ATOM     13  O   UNL     1      20.719  10.412  19.968  1.00  0.00    -0.289 OA
ATOM     14  C   UNL     1      18.975  12.509  19.275  1.00  0.00     0.059 A 
ATOM     15  C   UNL     1      18.120  13.544  18.886  1.00  0.00     0.120 A 
ATOM     16  C   UNL     1      18.019  13.891  17.541  1.00  0.00     0.093 A 
ATOM     17  C   UNL     1      18.767  13.210  16.571  1.00  0.00     0.131 A 
ENDROOT
BRANCH   6  18
ATOM     18  O   UNL     1      22.100   9.908  14.084  1.00  0.00    -0.507 OA
ATOM     19  H   UNL     1      22.893   9.749  13.471  1.00  0.00     0.293 HD
ENDBRANCH   6  18
BRANCH  17  20
ATOM     20  O   UNL     1      18.641  13.584  15.233  1.00  0.00    -0.507 OA
ATOM     21  H   UNL     1      18.169  12.996  14.555  1.00  0.00     0.293 HD
ENDBRANCH  17  20
BRANCH  15  22
ATOM     22  O   UNL     1      17.366  14.236  19.832  1.00  0.00    -0.508 OA
ATOM     23  H   UNL     1      17.689  14.352  20.786  1.00  0.00     0.293 HD
ENDBRANCH  15  22
TORSDOF 3
ENDMDL
MODEL 3
REMARK VINA RESULT:    -7.193      1.744      3.228
REMARK INTER + INTRA:          -7.824
REMARK INTER:                  -7.824
REMARK INTRA:                   0.000
REMARK UNBOUND:                 0.000
REMARK SMILES Cc1cc(O)c2c(c1)C(=O)c1cc(O)cc(O)c1C2=O
REMARK SMILES IDX 1 1 2 2 8 3 7 4 6 5 4 6 3 7 19 8 20 9 18 10 11 11 9 12 10 13
REMARK SMILES IDX 12 14 13 15 15 16 16 17 5 18 17 20 14 22
REMARK H PARENT 5 19 17 21 14 23
REMARK Flexibility Score: inf
ROOT
ATOM      1  C   UNL     1      14.933  12.722  16.485  1.00  0.00     0.044 C 
ATOM      2  C   UNL     1      16.273  12.348  17.046  1.00  0.00    -0.047 A 
ATOM      3  C   UNL     1      17.134  11.520  16.318  1.00  0.00     0.016 A 
ATOM      4  C   UNL     1      18.408  11.192  16.817  1.00  0.00     0.038 A 
ATOM      5  C   UNL     1      18.832  11.711  18.060  1.00  0.00     0.076 A 
ATOM      6  C   UNL     1      17.963  12.564  18.782  1.00  0.00     0.127 A 
ATOM      7  C   UNL     1      16.699  12.880  18.267  1.00  0.00     0.050 A 
ATOM      8  C   UNL     1      20.183  11.353  18.580  1.00  0.00     0.201 C 
ATOM      9  O   UNL     1      20.565  11.807  19.692  1.00  0.00    -0.288 OA
ATOM     10  C   UNL     1      21.084  10.462  17.796  1.00  0.00     0.076 A 
ATOM     11  C   UNL     1      20.644   9.954  16.552  1.00  0.00     0.041 A 
ATOM     12  C   UNL     1      19.302  10.305  16.037  1.00  0.00     0.194 C 
ATOM     13  O   UNL     1      18.916   9.844  14.926  1.00  0.00    -0.289 OA
ATOM     14  C   UNL     1      21.487   9.111  15.805  1.00  0.00     0.059 A 
ATOM     15  C   UNL     1      22.757   8.772  16.280  1.00  0.00     0.120 A 
ATOM     16  C   UNL     1      23.195   9.271  17.504  1.00  0.00     0.093 A 
ATOM     17  C   UNL     1      22.373  10.111  18.267  1.00  0.00     0.131 A 
ENDROOT
BRANCH   6  18
ATOM     18  O   UNL     1      18.349  13.107  20.008  1.00  0.00    -0.507 OA
ATOM     19  H   UNL     1      18.960  13.914  20.067  1.00  0.00     0.293 HD
ENDBRANCH   6  18
BRANCH  17  20
ATOM     20  O   UNL     1      22.844  10.593  19.488  1.00  0.00    -0.507 OA
ATOM     21  H   UNL     1      22.215  10.944  20.203  1.00  0.00     0.293 HD
ENDBRANCH  17  20
BRANCH  15  22
ATOM     22  O   UNL     1      23.593   7.938  15.539  1.00  0.00    -0.508 OA
ATOM     23  H   UNL     1      23.575   6.931  15.655  1.00  0.00     0.293 HD
ENDBRANCH  15  22
TORSDOF 3
ENDMDL
MODEL 4
REMARK VINA RESULT:    -7.147      1.660      6.096
REMARK INTER + INTRA:          -7.774
REMARK INTER:                  -7.774
REMARK INTRA:                   0.000
REMARK UNBOUND:                 0.000
REMARK SMILES Cc1cc(O)c2c(c1)C(=O)c1cc(O)cc(O)c1C2=O
REMARK SMILES IDX 1 1 2 2 8 3 7 4 6 5 4 6 3 7 19 8 20 9 18 10 11 11 9 12 10 13
REMARK SMILES IDX 12 14 13 15 15 16 16 17 5 18 17 20 14 22
REMARK H PARENT 5 19 17 21 14 23
REMARK Flexibility Score: inf
ROOT
ATOM      1  C   UNL     1      23.618   6.875  17.231  1.00  0.00     0.044 C 
ATOM      2  C   UNL     1      22.792   8.084  17.563  1.00  0.00    -0.047 A 
ATOM      3  C   UNL     1      22.295   8.900  16.542  1.00  0.00     0.016 A 
ATOM      4  C   UNL     1      21.490  10.014  16.839  1.00  0.00     0.038 A 
ATOM      5  C   UNL     1      21.167  10.309  18.182  1.00  0.00     0.076 A 
ATOM      6  C   UNL     1      21.656   9.467  19.210  1.00  0.00     0.127 A 
ATOM      7  C   UNL     1      22.456   8.362  18.892  1.00  0.00     0.050 A 
ATOM      8  C   UNL     1      20.315  11.495  18.485  1.00  0.00     0.201 C 
ATOM      9  O   UNL     1      20.028  11.769  19.681  1.00  0.00    -0.288 OA
ATOM     10  C   UNL     1      19.802  12.360  17.385  1.00  0.00     0.076 A 
ATOM     11  C   UNL     1      20.134  12.048  16.047  1.00  0.00     0.041 A 
ATOM     12  C   UNL     1      20.982  10.873  15.745  1.00  0.00     0.194 C 
ATOM     13  O   UNL     1      21.276  10.603  14.547  1.00  0.00    -0.289 OA
ATOM     14  C   UNL     1      19.655  12.858  15.001  1.00  0.00     0.059 A 
ATOM     15  C   UNL     1      18.853  13.969  15.273  1.00  0.00     0.120 A 
ATOM     16  C   UNL     1      18.522  14.281  16.589  1.00  0.00     0.093 A 
ATOM     17  C   UNL     1      18.988  13.489  17.648  1.00  0.00     0.131 A 
ENDROOT
BRANCH   6  18
ATOM     18  O   UNL     1      21.350   9.719  20.547  1.00  0.00    -0.507 OA
ATOM     19  H   UNL     1      21.039  10.632  20.862  1.00  0.00     0.293 HD
ENDBRANCH   6  18
BRANCH  17  20
ATOM     20  O   UNL     1      18.637  13.830  18.954  1.00  0.00    -0.507 OA
ATOM     21  H   UNL     1      19.226  14.423  19.528  1.00  0.00     0.293 HD
ENDBRANCH  17  20
BRANCH  15  22
ATOM     22  O   UNL     1      18.377  14.772  14.237  1.00  0.00    -0.508 OA
ATOM     23  H   UNL     1      18.991  15.393  13.723  1.00  0.00     0.293 HD
ENDBRANCH  15  22
TORSDOF 3
ENDMDL
MODEL 5
REMARK VINA RESULT:    -7.069      2.413      6.368
REMARK INTER + INTRA:          -7.689
REMARK INTER:                  -7.689
REMARK INTRA:                   0.000
REMARK UNBOUND:                 0.000
REMARK SMILES Cc1cc(O)c2c(c1)C(=O)c1cc(O)cc(O)c1C2=O
REMARK SMILES IDX 1 1 2 2 8 3 7 4 6 5 4 6 3 7 19 8 20 9 18 10 11 11 9 12 10 13
REMARK SMILES IDX 12 14 13 15 15 16 16 17 5 18 17 20 14 22
REMARK H PARENT 5 19 17 21 14 23
REMARK Flexibility Score: inf
ROOT
ATOM      1  C   UNL     1      23.247   8.732  16.647  1.00  0.00     0.044 C 
ATOM      2  C   UNL     1      22.050   9.548  17.040  1.00  0.00    -0.047 A 
ATOM      3  C   UNL     1      20.891   9.518  16.257  1.00  0.00     0.016 A 
ATOM      4  C   UNL     1      19.750  10.249  16.635  1.00  0.00     0.038 A 
ATOM      5  C   UNL     1      19.766  11.013  17.823  1.00  0.00     0.076 A 
ATOM      6  C   UNL     1      20.935  11.021  18.621  1.00  0.00     0.127 A 
ATOM      7  C   UNL     1      22.061  10.286  18.227  1.00  0.00     0.050 A 
ATOM      8  C   UNL     1      18.551  11.786  18.211  1.00  0.00     0.201 C 
ATOM      9  O   UNL     1      18.560  12.475  19.267  1.00  0.00    -0.288 OA
ATOM     10  C   UNL     1      17.328  11.751  17.361  1.00  0.00     0.076 A 
ATOM     11  C   UNL     1      17.329  10.980  16.177  1.00  0.00     0.041 A 
ATOM     12  C   UNL     1      18.535  10.215  15.788  1.00  0.00     0.194 C 
ATOM     13  O   UNL     1      18.529   9.530  14.727  1.00  0.00    -0.289 OA
ATOM     14  C   UNL     1      16.180  10.941  15.367  1.00  0.00     0.059 A 
ATOM     15  C   UNL     1      15.034  11.658  15.723  1.00  0.00     0.120 A 
ATOM     16  C   UNL     1      15.028  12.419  16.889  1.00  0.00     0.093 A 
ATOM     17  C   UNL     1      16.161  12.474  17.711  1.00  0.00     0.131 A 
ENDROOT
BRANCH   6  18
ATOM     18  O   UNL     1      20.987  11.753  19.808  1.00  0.00    -0.507 OA
ATOM     19  H   UNL     1      21.402  12.678  19.848  1.00  0.00     0.293 HD
ENDBRANCH   6  18
BRANCH  17  20
ATOM     20  O   UNL     1      16.119  13.246  18.873  1.00  0.00    -0.507 OA
ATOM     21  H   UNL     1      16.340  14.235  18.865  1.00  0.00     0.293 HD
ENDBRANCH  17  20
BRANCH  15  22
ATOM     22  O   UNL     1      13.895  11.620  14.921  1.00  0.00    -0.508 OA
ATOM     23  H   UNL     1      13.048  11.154  15.226  1.00  0.00     0.293 HD
ENDBRANCH  15  22
TORSDOF 3
ENDMDL
MODEL 6
REMARK VINA RESULT:    -7.035      2.418      3.913
REMARK INTER + INTRA:          -7.652
REMARK INTER:                  -7.652
REMARK INTRA:                   0.000
REMARK UNBOUND:                 0.000
REMARK SMILES Cc1cc(O)c2c(c1)C(=O)c1cc(O)cc(O)c1C2=O
REMARK SMILES IDX 1 1 2 2 8 3 7 4 6 5 4 6 3 7 19 8 20 9 18 10 11 11 9 12 10 13
REMARK SMILES IDX 12 14 13 15 15 16 16 17 5 18 17 20 14 22
REMARK H PARENT 5 19 17 21 14 23
REMARK Flexibility Score: inf
ROOT
ATOM      1  C   UNL     1      14.361  11.143  14.452  1.00  0.00     0.044 C 
ATOM      2  C   UNL     1      15.462  11.268  15.464  1.00  0.00    -0.047 A 
ATOM      3  C   UNL     1      16.683  10.617  15.260  1.00  0.00     0.016 A 
ATOM      4  C   UNL     1      17.734  10.757  16.184  1.00  0.00     0.038 A 
ATOM      5  C   UNL     1      17.565  11.572  17.325  1.00  0.00     0.076 A 
ATOM      6  C   UNL     1      16.334  12.245  17.514  1.00  0.00     0.127 A 
ATOM      7  C   UNL     1      15.299  12.093  16.582  1.00  0.00     0.050 A 
ATOM      8  C   UNL     1      18.687  11.710  18.298  1.00  0.00     0.201 C 
ATOM      9  O   UNL     1      18.541  12.430  19.322  1.00  0.00    -0.288 OA
ATOM     10  C   UNL     1      19.978  11.001  18.070  1.00  0.00     0.076 A 
ATOM     11  C   UNL     1      20.130  10.192  16.922  1.00  0.00     0.041 A 
ATOM     12  C   UNL     1      19.017  10.051  15.957  1.00  0.00     0.194 C 
ATOM     13  O   UNL     1      19.161   9.324  14.935  1.00  0.00    -0.289 OA
ATOM     14  C   UNL     1      21.345   9.518  16.698  1.00  0.00     0.059 A 
ATOM     15  C   UNL     1      22.404   9.643  17.602  1.00  0.00     0.120 A 
ATOM     16  C   UNL     1      22.259  10.440  18.734  1.00  0.00     0.093 A 
ATOM     17  C   UNL     1      21.058  11.120  18.979  1.00  0.00     0.131 A 
ENDROOT
BRANCH   6  18
ATOM     18  O   UNL     1      16.131  13.068  18.622  1.00  0.00    -0.507 OA
ATOM     19  H   UNL     1      15.663  13.965  18.544  1.00  0.00     0.293 HD
ENDBRANCH   6  18
BRANCH  17  20
ATOM     20  O   UNL     1      20.948  11.910  20.123  1.00  0.00    -0.507 OA
ATOM     21  H   UNL     1      21.241  12.881  20.132  1.00  0.00     0.293 HD
ENDBRANCH  17  20
BRANCH  15  22
ATOM     22  O   UNL     1      23.608   8.976  17.380  1.00  0.00    -0.508 OA
ATOM     23  H   UNL     1      24.492   9.364  17.688  1.00  0.00     0.293 HD
ENDBRANCH  15  22
TORSDOF 3
ENDMDL
MODEL 7
REMARK VINA RESULT:    -6.722      2.151      5.930
REMARK INTER + INTRA:          -7.312
REMARK INTER:                  -7.312
REMARK INTRA:                   0.000
REMARK UNBOUND:                 0.000
REMARK SMILES Cc1cc(O)c2c(c1)C(=O)c1cc(O)cc(O)c1C2=O
REMARK SMILES IDX 1 1 2 2 8 3 7 4 6 5 4 6 3 7 19 8 20 9 18 10 11 11 9 12 10 13
REMARK SMILES IDX 12 14 13 15 15 16 16 17 5 18 17 20 14 22
REMARK H PARENT 5 19 17 21 14 23
REMARK Flexibility Score: inf
ROOT
ATOM      1  C   UNL     1      22.783   8.956  15.909  1.00  0.00     0.044 C 
ATOM      2  C   UNL     1      21.474   9.626  16.211  1.00  0.00    -0.047 A 
ATOM      3  C   UNL     1      21.348  10.452  17.332  1.00  0.00     0.016 A 
ATOM      4  C   UNL     1      20.138  11.114  17.605  1.00  0.00     0.038 A 
ATOM      5  C   UNL     1      19.037  10.955  16.734  1.00  0.00     0.076 A 
ATOM      6  C   UNL     1      19.178  10.133  15.590  1.00  0.00     0.127 A 
ATOM      7  C   UNL     1      20.392   9.483  15.336  1.00  0.00     0.050 A 
ATOM      8  C   UNL     1      17.758  11.660  17.037  1.00  0.00     0.201 C 
ATOM      9  O   UNL     1      16.770  11.518  16.267  1.00  0.00    -0.288 OA
ATOM     10  C   UNL     1      17.639  12.529  18.241  1.00  0.00     0.076 A 
ATOM     11  C   UNL     1      18.751  12.679  19.100  1.00  0.00     0.041 A 
ATOM     12  C   UNL     1      20.020  11.977  18.804  1.00  0.00     0.194 C 
ATOM     13  O   UNL     1      21.008  12.114  19.578  1.00  0.00    -0.289 OA
ATOM     14  C   UNL     1      18.649  13.497  20.240  1.00  0.00     0.059 A 
ATOM     15  C   UNL     1      17.456  14.165  20.531  1.00  0.00     0.120 A 
ATOM     16  C   UNL     1      16.357  14.021  19.687  1.00  0.00     0.093 A 
ATOM     17  C   UNL     1      16.435  13.211  18.546  1.00  0.00     0.131 A 
ENDROOT
BRANCH   6  18
ATOM     18  O   UNL     1      18.118   9.960  14.699  1.00  0.00    -0.507 OA
ATOM     19  H   UNL     1      18.262   9.928  13.696  1.00  0.00     0.293 HD
ENDBRANCH   6  18
BRANCH  17  20
ATOM     20  O   UNL     1      15.316  13.091  17.723  1.00  0.00    -0.507 OA
ATOM     21  H   UNL     1      15.115  13.765  16.993  1.00  0.00     0.293 HD
ENDBRANCH  17  20
BRANCH  15  22
ATOM     22  O   UNL     1      17.354  14.976  21.660  1.00  0.00    -0.508 OA
ATOM     23  H   UNL     1      17.857  14.763  22.513  1.00  0.00     0.293 HD
ENDBRANCH  15  22
TORSDOF 3
ENDMDL
MODEL 8
REMARK VINA RESULT:    -6.159      2.855      5.696
REMARK INTER + INTRA:          -6.700
REMARK INTER:                  -6.700
REMARK INTRA:                   0.000
REMARK UNBOUND:                 0.000
REMARK SMILES Cc1cc(O)c2c(c1)C(=O)c1cc(O)cc(O)c1C2=O
REMARK SMILES IDX 1 1 2 2 8 3 7 4 6 5 4 6 3 7 19 8 20 9 18 10 11 11 9 12 10 13
REMARK SMILES IDX 12 14 13 15 15 16 16 17 5 18 17 20 14 22
REMARK H PARENT 5 19 17 21 14 23
REMARK Flexibility Score: inf
ROOT
ATOM      1  C   UNL     1      23.260  11.837  19.250  1.00  0.00     0.044 C 
ATOM      2  C   UNL     1      21.791  11.969  18.973  1.00  0.00    -0.047 A 
ATOM      3  C   UNL     1      21.217  11.298  17.889  1.00  0.00     0.016 A 
ATOM      4  C   UNL     1      19.835  11.384  17.640  1.00  0.00     0.038 A 
ATOM      5  C   UNL     1      19.012  12.145  18.500  1.00  0.00     0.076 A 
ATOM      6  C   UNL     1      19.597  12.805  19.607  1.00  0.00     0.127 A 
ATOM      7  C   UNL     1      20.976  12.706  19.837  1.00  0.00     0.050 A 
ATOM      8  C   UNL     1      17.549  12.231  18.224  1.00  0.00     0.201 C 
ATOM      9  O   UNL     1      16.810  12.914  18.983  1.00  0.00    -0.288 OA
ATOM     10  C   UNL     1      16.955  11.518  17.059  1.00  0.00     0.076 A 
ATOM     11  C   UNL     1      17.793  10.759  16.211  1.00  0.00     0.041 A 
ATOM     12  C   UNL     1      19.245  10.676  16.481  1.00  0.00     0.194 C 
ATOM     13  O   UNL     1      19.987   9.997  15.717  1.00  0.00    -0.289 OA
ATOM     14  C   UNL     1      17.241  10.082  15.108  1.00  0.00     0.059 A 
ATOM     15  C   UNL     1      15.871  10.153  14.842  1.00  0.00     0.120 A 
ATOM     16  C   UNL     1      15.041  10.899  15.675  1.00  0.00     0.093 A 
ATOM     17  C   UNL     1      15.567  11.582  16.779  1.00  0.00     0.131 A 
ENDROOT
BRANCH   6  18
ATOM     18  O   UNL     1      18.817  13.557  20.486  1.00  0.00    -0.507 OA
ATOM     19  H   UNL     1      18.728  13.312  21.466  1.00  0.00     0.293 HD
ENDBRANCH   6  18
BRANCH  17  20
ATOM     20  O   UNL     1      14.707  12.319  17.593  1.00  0.00    -0.507 OA
ATOM     21  H   UNL     1      14.998  12.671  18.499  1.00  0.00     0.293 HD
ENDBRANCH  17  20
BRANCH  15  22
ATOM     22  O   UNL     1      15.324   9.481  13.750  1.00  0.00    -0.508 OA
ATOM     23  H   UNL     1      14.503   9.831  13.270  1.00  0.00     0.293 HD
ENDBRANCH  15  22
TORSDOF 3
ENDMDL
MODEL 9
REMARK VINA RESULT:    -5.936      2.484      6.045
REMARK INTER + INTRA:          -6.456
REMARK INTER:                  -6.456
REMARK INTRA:                   0.000
REMARK UNBOUND:                 0.000
REMARK SMILES Cc1cc(O)c2c(c1)C(=O)c1cc(O)cc(O)c1C2=O
REMARK SMILES IDX 1 1 2 2 8 3 7 4 6 5 4 6 3 7 19 8 20 9 18 10 11 11 9 12 10 13
REMARK SMILES IDX 12 14 13 15 15 16 16 17 5 18 17 20 14 22
REMARK H PARENT 5 19 17 21 14 23
REMARK Flexibility Score: inf
ROOT
ATOM      1  C   UNL     1      22.822  10.609  19.087  1.00  0.00     0.044 C 
ATOM      2  C   UNL     1      21.574  10.624  18.253  1.00  0.00    -0.047 A 
ATOM      3  C   UNL     1      20.544  11.525  18.545  1.00  0.00     0.016 A 
ATOM      4  C   UNL     1      19.385  11.573  17.749  1.00  0.00     0.038 A 
ATOM      5  C   UNL     1      19.261  10.715  16.635  1.00  0.00     0.076 A 
ATOM      6  C   UNL     1      20.316   9.820  16.333  1.00  0.00     0.127 A 
ATOM      7  C   UNL     1      21.462   9.788  17.138  1.00  0.00     0.050 A 
ATOM      8  C   UNL     1      18.026  10.774  15.801  1.00  0.00     0.201 C 
ATOM      9  O   UNL     1      17.905  10.006  14.809  1.00  0.00    -0.288 OA
ATOM     10  C   UNL     1      16.934  11.732  16.131  1.00  0.00     0.076 A 
ATOM     11  C   UNL     1      17.077  12.586  17.249  1.00  0.00     0.041 A 
ATOM     12  C   UNL     1      18.300  12.525  18.080  1.00  0.00     0.194 C 
ATOM     13  O   UNL     1      18.418  13.290  19.078  1.00  0.00    -0.289 OA
ATOM     14  C   UNL     1      16.051  13.494  17.570  1.00  0.00     0.059 A 
ATOM     15  C   UNL     1      14.891  13.560  16.793  1.00  0.00     0.120 A 
ATOM     16  C   UNL     1      14.746  12.722  15.690  1.00  0.00     0.093 A 
ATOM     17  C   UNL     1      15.754  11.809  15.351  1.00  0.00     0.131 A 
ENDROOT
BRANCH   6  18
ATOM     18  O   UNL     1      20.237   8.964  15.235  1.00  0.00    -0.507 OA
ATOM     19  H   UNL     1      21.005   8.861  14.580  1.00  0.00     0.293 HD
ENDBRANCH   6  18
BRANCH  17  20
ATOM     20  O   UNL     1      15.576  10.985  14.240  1.00  0.00    -0.507 OA
ATOM     21  H   UNL     1      14.677  10.894  13.780  1.00  0.00     0.293 HD
ENDBRANCH  17  20
BRANCH  15  22
ATOM     22  O   UNL     1      13.875  14.460  17.110  1.00  0.00    -0.508 OA
ATOM     23  H   UNL     1      13.293  14.876  16.392  1.00  0.00     0.293 HD
ENDBRANCH  15  22
TORSDOF 3
ENDMDL
