MODEL 1
REMARK VINA RESULT:    13.156      0.000      0.000
REMARK INTER + INTRA:          17.518
REMARK INTER:                  17.386
REMARK INTRA:                   0.132
REMARK UNBOUND:                 0.132
REMARK SMILES CC[C@@H](C=C[C@@H](C)[C@H]1CC[C@@H]2[C@@H]3CC[C@@H]4C[C@H](O)CC[C@@]4(C)[C@H]3CC[C@@]21C)C(C)C
REMARK SMILES IDX 6 1 7 2 5 3 4 4 3 5 2 6 1 7 28 8 29 9 30 10 8 11 9 12 26 13
REMARK SMILES IDX 10 14 11 15 25 16 27 17 12 18 24 19 23 20 13 21 21 22 14 23
REMARK SMILES IDX 15 24 20 25 22 26 16 27 19 28 17 29 18 30
REMARK H PARENT 18 31
REMARK Flexibility Score: inf
ROOT
ATOM      1  C   UNL     1     136.671 135.004 138.921  1.00  0.00     0.012 C 
ATOM      2  C   UNL     1     137.381 134.340 137.714  1.00  0.00     0.012 C 
ENDROOT
BRANCH   1   3
ATOM      3  C   UNL     1     137.359 134.505 140.182  1.00  0.00    -0.028 C 
ATOM      4  C   UNL     1     138.683 134.262 140.235  1.00  0.00    -0.027 C 
BRANCH   4   5
ATOM      5  C   UNL     1     139.375 133.783 141.499  1.00  0.00     0.014 C 
BRANCH   5   6
ATOM      6  C   UNL     1     140.387 134.862 141.985  1.00  0.00     0.004 C 
ATOM      7  C   UNL     1     140.089 135.359 143.402  1.00  0.00     0.004 C 
ENDBRANCH   5   6
BRANCH   5   8
ATOM      8  C   UNL     1     140.024 132.374 141.288  1.00  0.00    -0.011 C 
ATOM      9  C   UNL     1     139.042 131.402 140.610  1.00  0.00     0.008 C 
ATOM     10  C   UNL     1     140.509 131.749 142.605  1.00  0.00     0.008 C 
ENDBRANCH   5   8
ENDBRANCH   4   5
ENDBRANCH   1   3
BRANCH   1  11
ATOM     11  C   UNL     1     135.112 134.752 138.943  1.00  0.00     0.002 C 
ATOM     12  C   UNL     1     134.435 135.148 137.604  1.00  0.00     0.005 C 
ATOM     13  C   UNL     1     134.628 133.270 139.155  1.00  0.00    -0.026 C 
ATOM     14  C   UNL     1     134.201 133.871 136.803  1.00  0.00     0.005 C 
ATOM     15  C   UNL     1     134.584 132.701 137.716  1.00  0.00    -0.001 C 
ATOM     16  C   UNL     1     133.200 133.296 139.802  1.00  0.00     0.007 C 
ATOM     17  C   UNL     1     135.551 132.409 140.049  1.00  0.00     0.012 C 
ATOM     18  C   UNL     1     133.706 131.426 137.574  1.00  0.00    -0.004 C 
ATOM     19  C   UNL     1     132.402 131.991 139.635  1.00  0.00     0.005 C 
ATOM     20  C   UNL     1     132.269 131.613 138.143  1.00  0.00    -0.001 C 
ATOM     21  C   UNL     1     133.668 130.897 136.131  1.00  0.00     0.004 C 
ATOM     22  C   UNL     1     131.293 130.389 137.798  1.00  0.00    -0.026 C 
ATOM     23  C   UNL     1     132.995 129.510 136.045  1.00  0.00     0.004 C 
ATOM     24  C   UNL     1     132.127 129.163 137.280  1.00  0.00    -0.002 C 
ATOM     25  C   UNL     1     130.457 129.916 139.035  1.00  0.00     0.010 C 
ATOM     26  C   UNL     1     130.297 130.876 136.700  1.00  0.00     0.012 C 
ATOM     27  C   UNL     1     131.275 127.904 137.010  1.00  0.00     0.036 C 
ATOM     28  C   UNL     1     129.605 128.664 138.766  1.00  0.00     0.032 C 
ATOM     29  C   UNL     1     130.469 127.501 138.255  1.00  0.00     0.114 C 
BRANCH  29  30
ATOM     30  O   UNL     1     129.674 126.372 137.987  1.00  0.00    -0.393 OA
ATOM     31  H   UNL     1     129.802 126.134 137.031  1.00  0.00     0.210 HD
ENDBRANCH  29  30
ENDBRANCH   1  11
TORSDOF 6
ENDMDL
MODEL 2
REMARK VINA RESULT:    13.617      2.972      8.470
REMARK INTER + INTRA:          18.128
REMARK INTER:                  17.744
REMARK INTRA:                   0.384
REMARK UNBOUND:                 0.132
REMARK SMILES CC[C@@H](C=C[C@@H](C)[C@H]1CC[C@@H]2[C@@H]3CC[C@@H]4C[C@H](O)CC[C@@]4(C)[C@H]3CC[C@@]21C)C(C)C
REMARK SMILES IDX 6 1 7 2 5 3 4 4 3 5 2 6 1 7 28 8 29 9 30 10 8 11 9 12 26 13
REMARK SMILES IDX 10 14 11 15 25 16 27 17 12 18 24 19 23 20 13 21 21 22 14 23
REMARK SMILES IDX 15 24 20 25 22 26 16 27 19 28 17 29 18 30
REMARK H PARENT 18 31
REMARK Flexibility Score: inf
ROOT
ATOM      1  C   UNL     1     132.470 132.497 136.520  1.00  0.00     0.012 C 
ATOM      2  C   UNL     1     130.960 132.810 136.370  1.00  0.00     0.012 C 
ENDROOT
BRANCH   1   3
ATOM      3  C   UNL     1     132.589 131.073 137.039  1.00  0.00    -0.028 C 
ATOM      4  C   UNL     1     131.541 130.402 137.555  1.00  0.00    -0.027 C 
BRANCH   4   5
ATOM      5  C   UNL     1     131.653 128.973 138.056  1.00  0.00     0.014 C 
BRANCH   5   6
ATOM      6  C   UNL     1     131.878 128.011 136.853  1.00  0.00     0.004 C 
ATOM      7  C   UNL     1     131.918 126.538 137.272  1.00  0.00     0.004 C 
ENDBRANCH   5   6
BRANCH   5   8
ATOM      8  C   UNL     1     130.418 128.585 138.937  1.00  0.00    -0.011 C 
ATOM      9  C   UNL     1     130.850 128.171 140.355  1.00  0.00     0.008 C 
ATOM     10  C   UNL     1     129.593 127.444 138.319  1.00  0.00     0.008 C 
ENDBRANCH   5   8
ENDBRANCH   4   5
ENDBRANCH   1   3
BRANCH   1  11
ATOM     11  C   UNL     1     133.236 133.538 137.429  1.00  0.00     0.002 C 
ATOM     12  C   UNL     1     132.742 133.505 138.900  1.00  0.00     0.005 C 
ATOM     13  C   UNL     1     134.791 133.350 137.578  1.00  0.00    -0.026 C 
ATOM     14  C   UNL     1     133.748 132.696 139.714  1.00  0.00     0.005 C 
ATOM     15  C   UNL     1     134.919 132.380 138.778  1.00  0.00    -0.001 C 
ATOM     16  C   UNL     1     135.436 134.742 137.901  1.00  0.00     0.007 C 
ATOM     17  C   UNL     1     135.495 132.765 136.332  1.00  0.00     0.012 C 
ATOM     18  C   UNL     1     136.325 132.386 139.440  1.00  0.00    -0.004 C 
ATOM     19  C   UNL     1     136.835 134.665 138.537  1.00  0.00     0.005 C 
ATOM     20  C   UNL     1     136.807 133.815 139.826  1.00  0.00    -0.001 C 
ATOM     21  C   UNL     1     136.415 131.427 140.637  1.00  0.00     0.004 C 
ATOM     22  C   UNL     1     138.145 133.809 140.710  1.00  0.00    -0.026 C 
ATOM     23  C   UNL     1     137.867 131.263 141.136  1.00  0.00     0.004 C 
ATOM     24  C   UNL     1     138.817 132.391 140.661  1.00  0.00    -0.002 C 
ATOM     25  C   UNL     1     139.197 134.859 140.217  1.00  0.00     0.010 C 
ATOM     26  C   UNL     1     137.745 134.177 142.172  1.00  0.00     0.012 C 
ATOM     27  C   UNL     1     140.165 132.319 141.412  1.00  0.00     0.036 C 
ATOM     28  C   UNL     1     140.539 134.791 140.967  1.00  0.00     0.032 C 
ATOM     29  C   UNL     1     141.147 133.382 140.894  1.00  0.00     0.114 C 
BRANCH  29  30
ATOM     30  O   UNL     1     142.358 133.326 141.606  1.00  0.00    -0.393 OA
ATOM     31  H   UNL     1     143.098 133.316 140.943  1.00  0.00     0.210 HD
ENDBRANCH  29  30
ENDBRANCH   1  11
TORSDOF 6
ENDMDL
