MODEL 1
REMARK VINA RESULT:    -4.859      0.000      0.000
REMARK INTER + INTRA:         -12.183
REMARK INTER:                  -9.404
REMARK INTRA:                  -2.779
REMARK UNBOUND:                -2.779
REMARK SMILES CCCCCCCCCCCCCCCCCC(=O)[O-]
REMARK SMILES IDX 10 1 11 2 12 3 13 4 14 5 15 6 16 7 17 8 18 9 19 10 20 11
REMARK SMILES IDX 9 12 8 13 7 14 6 15 5 16 4 17 3 18 2 19 1 20
REMARK H PARENT
REMARK Flexibility Score: inf
ROOT
ATOM      1  C   UNL     1      20.669  23.324   7.951  1.00  0.00     0.000 C 
ENDROOT
BRANCH   1   2
ATOM      2  C   UNL     1      21.235  22.378   6.882  1.00  0.00     0.000 C 
BRANCH   2   3
ATOM      3  C   UNL     1      20.214  22.145   5.758  1.00  0.00     0.000 C 
BRANCH   3   4
ATOM      4  C   UNL     1      18.804  22.631   6.128  1.00  0.00     0.000 C 
BRANCH   4   5
ATOM      5  C   UNL     1      17.792  21.481   6.240  1.00  0.00     0.000 C 
BRANCH   5   6
ATOM      6  C   UNL     1      18.035  20.661   7.516  1.00  0.00     0.000 C 
BRANCH   6   7
ATOM      7  C   UNL     1      18.058  19.146   7.252  1.00  0.00     0.006 C 
BRANCH   7   8
ATOM      8  C   UNL     1      18.646  18.796   5.878  1.00  0.00     0.053 C 
BRANCH   8   9
ATOM      9  C   UNL     1      19.951  18.084   6.037  1.00  0.00     0.041 C 
ATOM     10  O   UNL     1      19.989  16.825   6.060  1.00  0.00    -0.550 OA
ATOM     11  O   UNL     1      21.134  18.809   6.120  1.00  0.00    -0.550 OA
ENDBRANCH   8   9
ENDBRANCH   7   8
ENDBRANCH   6   7
ENDBRANCH   5   6
ENDBRANCH   4   5
ENDBRANCH   3   4
ENDBRANCH   2   3
ENDBRANCH   1   2
BRANCH   1  12
ATOM     12  C   UNL     1      21.344  23.150   9.323  1.00  0.00     0.000 C 
BRANCH  12  13
ATOM     13  C   UNL     1      20.376  23.106  10.523  1.00  0.00    -0.000 C 
BRANCH  13  14
ATOM     14  C   UNL     1      19.215  22.102  10.388  1.00  0.00    -0.000 C 
BRANCH  14  15
ATOM     15  C   UNL     1      17.930  22.483  11.151  1.00  0.00    -0.000 C 
BRANCH  15  16
ATOM     16  C   UNL     1      17.280  23.808  10.712  1.00  0.00    -0.000 C 
BRANCH  16  17
ATOM     17  C   UNL     1      16.997  23.864   9.200  1.00  0.00    -0.000 C 
BRANCH  17  18
ATOM     18  C   UNL     1      17.521  25.163   8.552  1.00  0.00    -0.000 C 
BRANCH  18  19
ATOM     19  C   UNL     1      18.366  26.031   9.500  1.00  0.00    -0.003 C 
ATOM     20  C   UNL     1      19.029  27.215   8.800  1.00  0.00     0.004 C 
ENDBRANCH  18  19
ENDBRANCH  17  18
ENDBRANCH  16  17
ENDBRANCH  15  16
ENDBRANCH  14  15
ENDBRANCH  13  14
ENDBRANCH  12  13
ENDBRANCH   1  12
TORSDOF 16
ENDMDL
MODEL 2
REMARK VINA RESULT:    -4.852      3.210      6.139
REMARK INTER + INTRA:         -12.170
REMARK INTER:                  -9.432
REMARK INTRA:                  -2.739
REMARK UNBOUND:                -2.779
REMARK SMILES CCCCCCCCCCCCCCCCCC(=O)[O-]
REMARK SMILES IDX 10 1 11 2 12 3 13 4 14 5 15 6 16 7 17 8 18 9 19 10 20 11
REMARK SMILES IDX 9 12 8 13 7 14 6 15 5 16 4 17 3 18 2 19 1 20
REMARK H PARENT
REMARK Flexibility Score: inf
ROOT
ATOM      1  C   UNL     1      20.092  22.982  10.363  1.00  0.00     0.000 C 
ENDROOT
BRANCH   1   2
ATOM      2  C   UNL     1      18.906  22.084  10.743  1.00  0.00     0.000 C 
BRANCH   2   3
ATOM      3  C   UNL     1      18.317  21.396   9.502  1.00  0.00     0.000 C 
BRANCH   3   4
ATOM      4  C   UNL     1      17.051  22.094   8.982  1.00  0.00     0.000 C 
BRANCH   4   5
ATOM      5  C   UNL     1      16.989  22.146   7.449  1.00  0.00     0.000 C 
BRANCH   5   6
ATOM      6  C   UNL     1      16.912  23.598   6.953  1.00  0.00     0.000 C 
BRANCH   6   7
ATOM      7  C   UNL     1      16.973  24.620   8.099  1.00  0.00     0.006 C 
BRANCH   7   8
ATOM      8  C   UNL     1      18.290  25.408   8.117  1.00  0.00     0.053 C 
BRANCH   8   9
ATOM      9  C   UNL     1      18.391  26.226   9.366  1.00  0.00     0.041 C 
ATOM     10  O   UNL     1      18.101  25.718  10.481  1.00  0.00    -0.550 OA
ATOM     11  O   UNL     1      18.843  27.539   9.303  1.00  0.00    -0.550 OA
ENDBRANCH   8   9
ENDBRANCH   7   8
ENDBRANCH   6   7
ENDBRANCH   5   6
ENDBRANCH   4   5
ENDBRANCH   3   4
ENDBRANCH   2   3
ENDBRANCH   1   2
BRANCH   1  12
ATOM     12  C   UNL     1      20.978  22.371   9.263  1.00  0.00     0.000 C 
BRANCH  12  13
ATOM     13  C   UNL     1      21.169  23.256   8.015  1.00  0.00    -0.000 C 
BRANCH  13  14
ATOM     14  C   UNL     1      20.581  22.681   6.711  1.00  0.00    -0.000 C 
BRANCH  14  15
ATOM     15  C   UNL     1      21.445  21.605   6.024  1.00  0.00    -0.000 C 
BRANCH  15  16
ATOM     16  C   UNL     1      20.890  21.082   4.686  1.00  0.00    -0.000 C 
BRANCH  16  17
ATOM     17  C   UNL     1      19.477  21.609   4.376  1.00  0.00    -0.000 C 
BRANCH  17  18
ATOM     18  C   UNL     1      18.379  20.577   4.712  1.00  0.00    -0.000 C 
BRANCH  18  19
ATOM     19  C   UNL     1      18.927  19.209   5.149  1.00  0.00    -0.003 C 
ATOM     20  C   UNL     1      18.685  18.910   6.627  1.00  0.00     0.004 C 
ENDBRANCH  18  19
ENDBRANCH  17  18
ENDBRANCH  16  17
ENDBRANCH  15  16
ENDBRANCH  14  15
ENDBRANCH  13  14
ENDBRANCH  12  13
ENDBRANCH   1  12
TORSDOF 16
ENDMDL
MODEL 3
REMARK VINA RESULT:    -4.780      1.520      3.878
REMARK INTER + INTRA:         -12.031
REMARK INTER:                  -9.000
REMARK INTRA:                  -3.031
REMARK UNBOUND:                -2.779
REMARK SMILES CCCCCCCCCCCCCCCCCC(=O)[O-]
REMARK SMILES IDX 10 1 11 2 12 3 13 4 14 5 15 6 16 7 17 8 18 9 19 10 20 11
REMARK SMILES IDX 9 12 8 13 7 14 6 15 5 16 4 17 3 18 2 19 1 20
REMARK H PARENT
REMARK Flexibility Score: inf
ROOT
ATOM      1  C   UNL     1      18.609  25.875   8.370  1.00  0.00     0.000 C 
ENDROOT
BRANCH   1   2
ATOM      2  C   UNL     1      17.232  25.198   8.324  1.00  0.00     0.000 C 
BRANCH   2   3
ATOM      3  C   UNL     1      17.349  23.747   7.833  1.00  0.00     0.000 C 
BRANCH   3   4
ATOM      4  C   UNL     1      17.324  23.636   6.300  1.00  0.00     0.000 C 
BRANCH   4   5
ATOM      5  C   UNL     1      18.488  22.800   5.747  1.00  0.00     0.000 C 
BRANCH   5   6
ATOM      6  C   UNL     1      19.689  22.834   6.704  1.00  0.00     0.000 C 
BRANCH   6   7
ATOM      7  C   UNL     1      20.895  22.043   6.170  1.00  0.00     0.006 C 
BRANCH   7   8
ATOM      8  C   UNL     1      21.497  21.104   7.224  1.00  0.00     0.053 C 
BRANCH   8   9
ATOM      9  C   UNL     1      22.347  20.062   6.569  1.00  0.00     0.041 C 
ATOM     10  O   UNL     1      23.259  19.486   7.219  1.00  0.00    -0.550 OA
ATOM     11  O   UNL     1      22.107  19.697   5.249  1.00  0.00    -0.550 OA
ENDBRANCH   8   9
ENDBRANCH   7   8
ENDBRANCH   6   7
ENDBRANCH   5   6
ENDBRANCH   4   5
ENDBRANCH   3   4
ENDBRANCH   2   3
ENDBRANCH   1   2
BRANCH   1  12
ATOM     12  C   UNL     1      19.055  26.229   9.799  1.00  0.00     0.000 C 
BRANCH  12  13
ATOM     13  C   UNL     1      19.363  25.018  10.703  1.00  0.00    -0.000 C 
BRANCH  13  14
ATOM     14  C   UNL     1      20.314  23.971  10.090  1.00  0.00    -0.000 C 
BRANCH  14  15
ATOM     15  C   UNL     1      19.878  22.504  10.277  1.00  0.00    -0.000 C 
BRANCH  15  16
ATOM     16  C   UNL     1      18.528  22.311  10.992  1.00  0.00    -0.000 C 
BRANCH  16  17
ATOM     17  C   UNL     1      17.768  21.061  10.513  1.00  0.00    -0.000 C 
BRANCH  17  18
ATOM     18  C   UNL     1      18.342  20.494   9.197  1.00  0.00    -0.000 C 
BRANCH  18  19
ATOM     19  C   UNL     1      17.266  20.025   8.203  1.00  0.00    -0.003 C 
ATOM     20  C   UNL     1      17.849  19.426   6.926  1.00  0.00     0.004 C 
ENDBRANCH  18  19
ENDBRANCH  17  18
ENDBRANCH  16  17
ENDBRANCH  15  16
ENDBRANCH  14  15
ENDBRANCH  13  14
ENDBRANCH  12  13
ENDBRANCH   1  12
TORSDOF 16
ENDMDL
MODEL 4
REMARK VINA RESULT:    -4.718      1.715      3.366
REMARK INTER + INTRA:         -11.910
REMARK INTER:                  -9.765
REMARK INTRA:                  -2.144
REMARK UNBOUND:                -2.779
REMARK SMILES CCCCCCCCCCCCCCCCCC(=O)[O-]
REMARK SMILES IDX 10 1 11 2 12 3 13 4 14 5 15 6 16 7 17 8 18 9 19 10 20 11
REMARK SMILES IDX 9 12 8 13 7 14 6 15 5 16 4 17 3 18 2 19 1 20
REMARK H PARENT
REMARK Flexibility Score: inf
ROOT
ATOM      1  C   UNL     1      17.644  25.373   7.918  1.00  0.00     0.000 C 
ENDROOT
BRANCH   1   2
ATOM      2  C   UNL     1      18.191  23.994   7.519  1.00  0.00     0.000 C 
BRANCH   2   3
ATOM      3  C   UNL     1      17.201  23.252   6.609  1.00  0.00     0.000 C 
BRANCH   3   4
ATOM      4  C   UNL     1      17.884  22.198   5.724  1.00  0.00     0.000 C 
BRANCH   4   5
ATOM      5  C   UNL     1      19.417  22.264   5.799  1.00  0.00     0.000 C 
BRANCH   5   6
ATOM      6  C   UNL     1      20.056  21.503   4.628  1.00  0.00     0.000 C 
BRANCH   6   7
ATOM      7  C   UNL     1      21.507  21.085   4.913  1.00  0.00     0.006 C 
BRANCH   7   8
ATOM      8  C   UNL     1      21.659  20.360   6.257  1.00  0.00     0.053 C 
BRANCH   8   9
ATOM      9  C   UNL     1      22.539  19.160   6.105  1.00  0.00     0.041 C 
ATOM     10  O   UNL     1      23.710  19.169   6.569  1.00  0.00    -0.550 OA
ATOM     11  O   UNL     1      22.054  18.015   5.485  1.00  0.00    -0.550 OA
ENDBRANCH   8   9
ENDBRANCH   7   8
ENDBRANCH   6   7
ENDBRANCH   5   6
ENDBRANCH   4   5
ENDBRANCH   3   4
ENDBRANCH   2   3
ENDBRANCH   1   2
BRANCH   1  12
ATOM     12  C   UNL     1      18.461  26.040   9.038  1.00  0.00     0.000 C 
BRANCH  12  13
ATOM     13  C   UNL     1      18.257  25.435  10.441  1.00  0.00    -0.000 C 
BRANCH  13  14
ATOM     14  C   UNL     1      16.876  24.793  10.681  1.00  0.00    -0.000 C 
BRANCH  14  15
ATOM     15  C   UNL     1      16.896  23.489  11.504  1.00  0.00    -0.000 C 
BRANCH  15  16
ATOM     16  C   UNL     1      17.446  22.258  10.762  1.00  0.00    -0.000 C 
BRANCH  16  17
ATOM     17  C   UNL     1      18.937  22.003  11.046  1.00  0.00    -0.000 C 
BRANCH  17  18
ATOM     18  C   UNL     1      19.787  21.990   9.758  1.00  0.00    -0.000 C 
BRANCH  18  19
ATOM     19  C   UNL     1      20.981  22.960   9.793  1.00  0.00    -0.003 C 
ATOM     20  C   UNL     1      21.555  23.255   8.410  1.00  0.00     0.004 C 
ENDBRANCH  18  19
ENDBRANCH  17  18
ENDBRANCH  16  17
ENDBRANCH  15  16
ENDBRANCH  14  15
ENDBRANCH  13  14
ENDBRANCH  12  13
ENDBRANCH   1  12
TORSDOF 16
ENDMDL
MODEL 5
REMARK VINA RESULT:    -4.706      1.792      3.031
REMARK INTER + INTRA:         -11.887
REMARK INTER:                  -9.293
REMARK INTRA:                  -2.594
REMARK UNBOUND:                -2.779
REMARK SMILES CCCCCCCCCCCCCCCCCC(=O)[O-]
REMARK SMILES IDX 10 1 11 2 12 3 13 4 14 5 15 6 16 7 17 8 18 9 19 10 20 11
REMARK SMILES IDX 9 12 8 13 7 14 6 15 5 16 4 17 3 18 2 19 1 20
REMARK H PARENT
REMARK Flexibility Score: inf
ROOT
ATOM      1  C   UNL     1      17.126  22.323   6.879  1.00  0.00     0.000 C 
ENDROOT
BRANCH   1   2
ATOM      2  C   UNL     1      18.301  23.030   6.188  1.00  0.00     0.000 C 
BRANCH   2   3
ATOM      3  C   UNL     1      18.984  22.099   5.175  1.00  0.00     0.000 C 
BRANCH   3   4
ATOM      4  C   UNL     1      20.495  21.962   5.419  1.00  0.00     0.000 C 
BRANCH   4   5
ATOM      5  C   UNL     1      20.917  22.456   6.811  1.00  0.00     0.000 C 
BRANCH   5   6
ATOM      6  C   UNL     1      21.711  21.374   7.558  1.00  0.00     0.000 C 
BRANCH   6   7
ATOM      7  C   UNL     1      21.834  20.068   6.756  1.00  0.00     0.006 C 
BRANCH   7   8
ATOM      8  C   UNL     1      23.200  19.392   6.937  1.00  0.00     0.053 C 
BRANCH   8   9
ATOM      9  C   UNL     1      23.545  18.582   5.727  1.00  0.00     0.041 C 
ATOM     10  O   UNL     1      23.117  17.403   5.611  1.00  0.00    -0.550 OA
ATOM     11  O   UNL     1      24.307  19.142   4.709  1.00  0.00    -0.550 OA
ENDBRANCH   8   9
ENDBRANCH   7   8
ENDBRANCH   6   7
ENDBRANCH   5   6
ENDBRANCH   4   5
ENDBRANCH   3   4
ENDBRANCH   2   3
ENDBRANCH   1   2
BRANCH   1  12
ATOM     12  C   UNL     1      17.332  20.803   7.006  1.00  0.00     0.000 C 
BRANCH  12  13
ATOM     13  C   UNL     1      18.111  20.355   8.260  1.00  0.00    -0.000 C 
BRANCH  13  14
ATOM     14  C   UNL     1      17.854  21.200   9.523  1.00  0.00    -0.000 C 
BRANCH  14  15
ATOM     15  C   UNL     1      19.058  22.033  10.008  1.00  0.00    -0.000 C 
BRANCH  15  16
ATOM     16  C   UNL     1      18.715  23.455  10.489  1.00  0.00    -0.000 C 
BRANCH  16  17
ATOM     17  C   UNL     1      17.332  23.932  10.010  1.00  0.00    -0.000 C 
BRANCH  17  18
ATOM     18  C   UNL     1      17.392  25.314   9.327  1.00  0.00    -0.000 C 
BRANCH  18  19
ATOM     19  C   UNL     1      18.789  25.686   8.803  1.00  0.00    -0.003 C 
ATOM     20  C   UNL     1      19.053  27.190   8.814  1.00  0.00     0.004 C 
ENDBRANCH  18  19
ENDBRANCH  17  18
ENDBRANCH  16  17
ENDBRANCH  15  16
ENDBRANCH  14  15
ENDBRANCH  13  14
ENDBRANCH  12  13
ENDBRANCH   1  12
TORSDOF 16
ENDMDL
MODEL 6
REMARK VINA RESULT:    -4.704      1.892      2.631
REMARK INTER + INTRA:         -11.883
REMARK INTER:                  -9.750
REMARK INTRA:                  -2.133
REMARK UNBOUND:                -2.779
REMARK SMILES CCCCCCCCCCCCCCCCCC(=O)[O-]
REMARK SMILES IDX 10 1 11 2 12 3 13 4 14 5 15 6 16 7 17 8 18 9 19 10 20 11
REMARK SMILES IDX 9 12 8 13 7 14 6 15 5 16 4 17 3 18 2 19 1 20
REMARK H PARENT
REMARK Flexibility Score: inf
ROOT
ATOM      1  C   UNL     1      21.297  23.091   9.337  1.00  0.00     0.000 C 
ENDROOT
BRANCH   1   2
ATOM      2  C   UNL     1      20.849  23.471   7.918  1.00  0.00     0.000 C 
BRANCH   2   3
ATOM      3  C   UNL     1      21.220  22.372   6.911  1.00  0.00     0.000 C 
BRANCH   3   4
ATOM      4  C   UNL     1      19.989  21.731   6.252  1.00  0.00     0.000 C 
BRANCH   4   5
ATOM      5  C   UNL     1      20.107  21.656   4.723  1.00  0.00     0.000 C 
BRANCH   5   6
ATOM      6  C   UNL     1      20.345  20.210   4.263  1.00  0.00     0.000 C 
BRANCH   6   7
ATOM      7  C   UNL     1      21.837  19.844   4.199  1.00  0.00     0.006 C 
BRANCH   7   8
ATOM      8  C   UNL     1      22.201  18.686   5.138  1.00  0.00     0.053 C 
BRANCH   8   9
ATOM      9  C   UNL     1      23.427  19.021   5.927  1.00  0.00     0.041 C 
ATOM     10  O   UNL     1      24.570  18.850   5.425  1.00  0.00    -0.550 OA
ATOM     11  O   UNL     1      23.309  19.558   7.203  1.00  0.00    -0.550 OA
ENDBRANCH   8   9
ENDBRANCH   7   8
ENDBRANCH   6   7
ENDBRANCH   5   6
ENDBRANCH   4   5
ENDBRANCH   3   4
ENDBRANCH   2   3
ENDBRANCH   1   2
BRANCH   1  12
ATOM     12  C   UNL     1      20.117  22.799  10.281  1.00  0.00     0.000 C 
BRANCH  12  13
ATOM     13  C   UNL     1      19.206  21.635   9.842  1.00  0.00    -0.000 C 
BRANCH  13  14
ATOM     14  C   UNL     1      17.750  21.723  10.342  1.00  0.00    -0.000 C 
BRANCH  14  15
ATOM     15  C   UNL     1      16.907  22.847   9.705  1.00  0.00    -0.000 C 
BRANCH  15  16
ATOM     16  C   UNL     1      16.923  22.880   8.165  1.00  0.00    -0.000 C 
BRANCH  16  17
ATOM     17  C   UNL     1      17.356  24.245   7.600  1.00  0.00    -0.000 C 
BRANCH  17  18
ATOM     18  C   UNL     1      17.337  25.357   8.670  1.00  0.00    -0.000 C 
BRANCH  18  19
ATOM     19  C   UNL     1      18.723  25.952   8.971  1.00  0.00    -0.003 C 
ATOM     20  C   UNL     1      18.798  27.455   8.718  1.00  0.00     0.004 C 
ENDBRANCH  18  19
ENDBRANCH  17  18
ENDBRANCH  16  17
ENDBRANCH  15  16
ENDBRANCH  14  15
ENDBRANCH  13  14
ENDBRANCH  12  13
ENDBRANCH   1  12
TORSDOF 16
ENDMDL
MODEL 7
REMARK VINA RESULT:    -4.702      2.003      3.965
REMARK INTER + INTRA:         -11.879
REMARK INTER:                  -9.940
REMARK INTRA:                  -1.939
REMARK UNBOUND:                -2.779
REMARK SMILES CCCCCCCCCCCCCCCCCC(=O)[O-]
REMARK SMILES IDX 10 1 11 2 12 3 13 4 14 5 15 6 16 7 17 8 18 9 19 10 20 11
REMARK SMILES IDX 9 12 8 13 7 14 6 15 5 16 4 17 3 18 2 19 1 20
REMARK H PARENT
REMARK Flexibility Score: inf
ROOT
ATOM      1  C   UNL     1      17.108  23.286   7.068  1.00  0.00     0.000 C 
ENDROOT
BRANCH   1   2
ATOM      2  C   UNL     1      17.889  23.012   5.774  1.00  0.00     0.000 C 
BRANCH   2   3
ATOM      3  C   UNL     1      19.334  22.591   6.084  1.00  0.00     0.000 C 
BRANCH   3   4
ATOM      4  C   UNL     1      19.876  21.555   5.087  1.00  0.00     0.000 C 
BRANCH   4   5
ATOM      5  C   UNL     1      21.372  21.270   5.282  1.00  0.00     0.000 C 
BRANCH   5   6
ATOM      6  C   UNL     1      22.051  20.966   3.938  1.00  0.00     0.000 C 
BRANCH   6   7
ATOM      7  C   UNL     1      22.986  19.748   4.007  1.00  0.00     0.006 C 
BRANCH   7   8
ATOM      8  C   UNL     1      23.219  19.265   5.445  1.00  0.00     0.053 C 
BRANCH   8   9
ATOM      9  C   UNL     1      23.050  17.781   5.530  1.00  0.00     0.041 C 
ATOM     10  O   UNL     1      23.855  17.016   4.936  1.00  0.00    -0.550 OA
ATOM     11  O   UNL     1      22.025  17.240   6.298  1.00  0.00    -0.550 OA
ENDBRANCH   8   9
ENDBRANCH   7   8
ENDBRANCH   6   7
ENDBRANCH   5   6
ENDBRANCH   4   5
ENDBRANCH   3   4
ENDBRANCH   2   3
ENDBRANCH   1   2
BRANCH   1  12
ATOM     12  C   UNL     1      17.245  24.739   7.555  1.00  0.00     0.000 C 
BRANCH  12  13
ATOM     13  C   UNL     1      17.635  24.893   9.039  1.00  0.00    -0.000 C 
BRANCH  13  14
ATOM     14  C   UNL     1      19.096  25.318   9.288  1.00  0.00    -0.000 C 
BRANCH  14  15
ATOM     15  C   UNL     1      20.153  24.243   8.965  1.00  0.00    -0.000 C 
BRANCH  15  16
ATOM     16  C   UNL     1      20.304  23.138  10.027  1.00  0.00    -0.000 C 
BRANCH  16  17
ATOM     17  C   UNL     1      19.773  21.774   9.552  1.00  0.00    -0.000 C 
BRANCH  17  18
ATOM     18  C   UNL     1      18.371  21.460  10.115  1.00  0.00    -0.000 C 
BRANCH  18  19
ATOM     19  C   UNL     1      18.199  21.840  11.595  1.00  0.00    -0.003 C 
ATOM     20  C   UNL     1      16.960  22.695  11.856  1.00  0.00     0.004 C 
ENDBRANCH  18  19
ENDBRANCH  17  18
ENDBRANCH  16  17
ENDBRANCH  15  16
ENDBRANCH  14  15
ENDBRANCH  13  14
ENDBRANCH  12  13
ENDBRANCH   1  12
TORSDOF 16
ENDMDL
MODEL 8
REMARK VINA RESULT:    -4.674      1.242      2.986
REMARK INTER + INTRA:         -11.825
REMARK INTER:                  -8.962
REMARK INTRA:                  -2.863
REMARK UNBOUND:                -2.779
REMARK SMILES CCCCCCCCCCCCCCCCCC(=O)[O-]
REMARK SMILES IDX 10 1 11 2 12 3 13 4 14 5 15 6 16 7 17 8 18 9 19 10 20 11
REMARK SMILES IDX 9 12 8 13 7 14 6 15 5 16 4 17 3 18 2 19 1 20
REMARK H PARENT
REMARK Flexibility Score: inf
ROOT
ATOM      1  C   UNL     1      21.042  23.128  10.221  1.00  0.00     0.000 C 
ENDROOT
BRANCH   1   2
ATOM      2  C   UNL     1      19.545  23.022  10.545  1.00  0.00     0.000 C 
BRANCH   2   3
ATOM      3  C   UNL     1      18.994  21.643  10.152  1.00  0.00     0.000 C 
BRANCH   3   4
ATOM      4  C   UNL     1      17.581  21.390  10.699  1.00  0.00     0.000 C 
BRANCH   4   5
ATOM      5  C   UNL     1      16.935  20.125  10.116  1.00  0.00     0.000 C 
BRANCH   5   6
ATOM      6  C   UNL     1      16.879  20.197   8.582  1.00  0.00     0.000 C 
BRANCH   6   7
ATOM      7  C   UNL     1      17.551  18.991   7.906  1.00  0.00     0.006 C 
BRANCH   7   8
ATOM      8  C   UNL     1      17.452  19.042   6.376  1.00  0.00     0.053 C 
BRANCH   8   9
ATOM      9  C   UNL     1      18.710  18.524   5.755  1.00  0.00     0.041 C 
ATOM     10  O   UNL     1      19.156  19.042   4.697  1.00  0.00    -0.550 OA
ATOM     11  O   UNL     1      19.413  17.492   6.365  1.00  0.00    -0.550 OA
ENDBRANCH   8   9
ENDBRANCH   7   8
ENDBRANCH   6   7
ENDBRANCH   5   6
ENDBRANCH   4   5
ENDBRANCH   3   4
ENDBRANCH   2   3
ENDBRANCH   1   2
BRANCH   1  12
ATOM     12  C   UNL     1      21.436  22.355   8.950  1.00  0.00     0.000 C 
BRANCH  12  13
ATOM     13  C   UNL     1      21.299  23.151   7.636  1.00  0.00    -0.000 C 
BRANCH  13  14
ATOM     14  C   UNL     1      20.613  22.392   6.483  1.00  0.00    -0.000 C 
BRANCH  14  15
ATOM     15  C   UNL     1      19.083  22.249   6.615  1.00  0.00    -0.000 C 
BRANCH  15  16
ATOM     16  C   UNL     1      18.291  23.561   6.468  1.00  0.00    -0.000 C 
BRANCH  16  17
ATOM     17  C   UNL     1      17.081  23.640   7.416  1.00  0.00    -0.000 C 
BRANCH  17  18
ATOM     18  C   UNL     1      17.179  24.828   8.396  1.00  0.00    -0.000 C 
BRANCH  18  19
ATOM     19  C   UNL     1      18.478  25.640   8.257  1.00  0.00    -0.003 C 
ATOM     20  C   UNL     1      18.786  26.494   9.485  1.00  0.00     0.004 C 
ENDBRANCH  18  19
ENDBRANCH  17  18
ENDBRANCH  16  17
ENDBRANCH  15  16
ENDBRANCH  14  15
ENDBRANCH  13  14
ENDBRANCH  12  13
ENDBRANCH   1  12
TORSDOF 16
ENDMDL
MODEL 9
REMARK VINA RESULT:    -4.627      3.422      6.681
REMARK INTER + INTRA:         -11.734
REMARK INTER:                  -9.497
REMARK INTRA:                  -2.237
REMARK UNBOUND:                -2.779
REMARK SMILES CCCCCCCCCCCCCCCCCC(=O)[O-]
REMARK SMILES IDX 10 1 11 2 12 3 13 4 14 5 15 6 16 7 17 8 18 9 19 10 20 11
REMARK SMILES IDX 9 12 8 13 7 14 6 15 5 16 4 17 3 18 2 19 1 20
REMARK H PARENT
REMARK Flexibility Score: inf
ROOT
ATOM      1  C   UNL     1      21.214  22.287   9.061  1.00  0.00     0.000 C 
ENDROOT
BRANCH   1   2
ATOM      2  C   UNL     1      20.513  23.170  10.104  1.00  0.00     0.000 C 
BRANCH   2   3
ATOM      3  C   UNL     1      19.494  22.358  10.916  1.00  0.00     0.000 C 
BRANCH   3   4
ATOM      4  C   UNL     1      18.418  21.705  10.035  1.00  0.00     0.000 C 
BRANCH   4   5
ATOM      5  C   UNL     1      17.230  22.639   9.759  1.00  0.00     0.000 C 
BRANCH   5   6
ATOM      6  C   UNL     1      16.877  23.459  11.009  1.00  0.00     0.000 C 
BRANCH   6   7
ATOM      7  C   UNL     1      16.878  24.974  10.745  1.00  0.00     0.006 C 
BRANCH   7   8
ATOM      8  C   UNL     1      17.184  25.317   9.281  1.00  0.00     0.053 C 
BRANCH   8   9
ATOM      9  C   UNL     1      17.734  26.704   9.175  1.00  0.00     0.041 C 
ATOM     10  O   UNL     1      16.960  27.682   8.999  1.00  0.00    -0.550 OA
ATOM     11  O   UNL     1      19.100  26.923   9.309  1.00  0.00    -0.550 OA
ENDBRANCH   8   9
ENDBRANCH   7   8
ENDBRANCH   6   7
ENDBRANCH   5   6
ENDBRANCH   4   5
ENDBRANCH   3   4
ENDBRANCH   2   3
ENDBRANCH   1   2
BRANCH   1  12
ATOM     12  C   UNL     1      21.121  22.856   7.634  1.00  0.00     0.000 C 
BRANCH  12  13
ATOM     13  C   UNL     1      19.762  23.491   7.274  1.00  0.00    -0.000 C 
BRANCH  13  14
ATOM     14  C   UNL     1      18.975  22.763   6.167  1.00  0.00    -0.000 C 
BRANCH  14  15
ATOM     15  C   UNL     1      19.221  21.243   6.082  1.00  0.00    -0.000 C 
BRANCH  15  16
ATOM     16  C   UNL     1      19.676  20.733   4.703  1.00  0.00    -0.000 C 
BRANCH  16  17
ATOM     17  C   UNL     1      21.066  21.257   4.299  1.00  0.00    -0.000 C 
BRANCH  17  18
ATOM     18  C   UNL     1      22.170  20.195   4.481  1.00  0.00    -0.000 C 
BRANCH  18  19
ATOM     19  C   UNL     1      22.421  19.807   5.948  1.00  0.00    -0.003 C 
ATOM     20  C   UNL     1      22.895  18.365   6.114  1.00  0.00     0.004 C 
ENDBRANCH  18  19
ENDBRANCH  17  18
ENDBRANCH  16  17
ENDBRANCH  15  16
ENDBRANCH  14  15
ENDBRANCH  13  14
ENDBRANCH  12  13
ENDBRANCH   1  12
TORSDOF 16
ENDMDL
