MODEL 1
REMARK VINA RESULT:    -6.258      0.000      0.000
REMARK INTER + INTRA:          -6.258
REMARK INTER:                  -6.258
REMARK INTRA:                   0.000
REMARK UNBOUND:                 0.000
REMARK SMILES O=c1ccc2ccccc2o1
REMARK SMILES IDX 7 1 8 2 9 3 10 4 5 5 6 6 4 7 3 8 2 9 1 10 11 11
REMARK H PARENT
REMARK Flexibility Score: inf
ROOT
ATOM      1  C   UNL     1      12.486  -3.249 -11.863  1.00  0.00     0.001 A 
ATOM      2  C   UNL     1      13.200  -3.773 -12.946  1.00  0.00     0.004 A 
ATOM      3  C   UNL     1      13.040  -5.114 -13.311  1.00  0.00     0.048 A 
ATOM      4  C   UNL     1      12.165  -5.936 -12.593  1.00  0.00     0.138 A 
ATOM      5  C   UNL     1      11.444  -5.407 -11.499  1.00  0.00     0.018 A 
ATOM      6  C   UNL     1      11.608  -4.061 -11.138  1.00  0.00     0.012 A 
ATOM      7  C   UNL     1      10.577  -6.252 -10.801  1.00  0.00     0.019 A 
ATOM      8  C   UNL     1      10.448  -7.582 -11.200  1.00  0.00     0.094 A 
ATOM      9  C   UNL     1      11.195  -8.038 -12.293  1.00  0.00     0.336 A 
ATOM     10  O   UNL     1      11.093  -9.235 -12.668  1.00  0.00    -0.246 OA
ATOM     11  O   UNL     1      12.013  -7.212 -12.940  1.00  0.00    -0.423 OA
ENDROOT
TORSDOF 0
ENDMDL
MODEL 2
REMARK VINA RESULT:    -6.220      1.332      2.395
REMARK INTER + INTRA:          -6.220
REMARK INTER:                  -6.220
REMARK INTRA:                   0.000
REMARK UNBOUND:                 0.000
REMARK SMILES O=c1ccc2ccccc2o1
REMARK SMILES IDX 7 1 8 2 9 3 10 4 5 5 6 6 4 7 3 8 2 9 1 10 11 11
REMARK H PARENT
REMARK Flexibility Score: inf
ROOT
ATOM      1  C   UNL     1      12.067  -4.337 -12.191  1.00  0.00     0.001 A 
ATOM      2  C   UNL     1      11.322  -4.423 -11.010  1.00  0.00     0.004 A 
ATOM      3  C   UNL     1      10.766  -5.645 -10.616  1.00  0.00     0.048 A 
ATOM      4  C   UNL     1      10.955  -6.786 -11.403  1.00  0.00     0.138 A 
ATOM      5  C   UNL     1      11.707  -6.700 -12.596  1.00  0.00     0.018 A 
ATOM      6  C   UNL     1      12.262  -5.471 -12.985  1.00  0.00     0.012 A 
ATOM      7  C   UNL     1      11.879  -7.856 -13.362  1.00  0.00     0.019 A 
ATOM      8  C   UNL     1      11.307  -9.053 -12.931  1.00  0.00     0.094 A 
ATOM      9  C   UNL     1      10.574  -9.065 -11.739  1.00  0.00     0.336 A 
ATOM     10  O   UNL     1      10.050 -10.135 -11.334  1.00  0.00    -0.246 OA
ATOM     11  O   UNL     1      10.425  -7.949 -11.029  1.00  0.00    -0.423 OA
ENDROOT
TORSDOF 0
ENDMDL
MODEL 3
REMARK VINA RESULT:    -6.212     17.437     18.440
REMARK INTER + INTRA:          -6.212
REMARK INTER:                  -6.212
REMARK INTRA:                   0.000
REMARK UNBOUND:                 0.000
REMARK SMILES O=c1ccc2ccccc2o1
REMARK SMILES IDX 7 1 8 2 9 3 10 4 5 5 6 6 4 7 3 8 2 9 1 10 11 11
REMARK H PARENT
REMARK Flexibility Score: inf
ROOT
ATOM      1  C   UNL     1      -0.657   6.503  -7.717  1.00  0.00     0.001 A 
ATOM      2  C   UNL     1      -1.853   7.228  -7.739  1.00  0.00     0.004 A 
ATOM      3  C   UNL     1      -2.770   7.042  -8.779  1.00  0.00     0.048 A 
ATOM      4  C   UNL     1      -2.493   6.128  -9.802  1.00  0.00     0.138 A 
ATOM      5  C   UNL     1      -1.285   5.396  -9.780  1.00  0.00     0.018 A 
ATOM      6  C   UNL     1      -0.369   5.588  -8.734  1.00  0.00     0.012 A 
ATOM      7  C   UNL     1      -1.035   4.491 -10.816  1.00  0.00     0.019 A 
ATOM      8  C   UNL     1      -1.977   4.337 -11.832  1.00  0.00     0.094 A 
ATOM      9  C   UNL     1      -3.152   5.096 -11.789  1.00  0.00     0.336 A 
ATOM     10  O   UNL     1      -4.015   4.971 -12.697  1.00  0.00    -0.246 OA
ATOM     11  O   UNL     1      -3.365   5.951 -10.791  1.00  0.00    -0.423 OA
ENDROOT
TORSDOF 0
ENDMDL
MODEL 4
REMARK VINA RESULT:    -6.209      1.648      3.745
REMARK INTER + INTRA:          -6.209
REMARK INTER:                  -6.209
REMARK INTRA:                   0.000
REMARK UNBOUND:                 0.000
REMARK SMILES O=c1ccc2ccccc2o1
REMARK SMILES IDX 7 1 8 2 9 3 10 4 5 5 6 6 4 7 3 8 2 9 1 10 11 11
REMARK H PARENT
REMARK Flexibility Score: inf
ROOT
ATOM      1  C   UNL     1      10.373  -5.687 -10.733  1.00  0.00     0.001 A 
ATOM      2  C   UNL     1      10.647  -6.843 -11.471  1.00  0.00     0.004 A 
ATOM      3  C   UNL     1      11.637  -6.829 -12.460  1.00  0.00     0.048 A 
ATOM      4  C   UNL     1      12.358  -5.656 -12.712  1.00  0.00     0.138 A 
ATOM      5  C   UNL     1      12.081  -4.488 -11.967  1.00  0.00     0.018 A 
ATOM      6  C   UNL     1      11.087  -4.509 -10.977  1.00  0.00     0.012 A 
ATOM      7  C   UNL     1      12.817  -3.333 -12.242  1.00  0.00     0.019 A 
ATOM      8  C   UNL     1      13.795  -3.364 -13.236  1.00  0.00     0.094 A 
ATOM      9  C   UNL     1      14.014  -4.556 -13.935  1.00  0.00     0.336 A 
ATOM     10  O   UNL     1      14.893  -4.605 -14.835  1.00  0.00    -0.246 OA
ATOM     11  O   UNL     1      13.299  -5.643 -13.653  1.00  0.00    -0.423 OA
ENDROOT
TORSDOF 0
ENDMDL
MODEL 5
REMARK VINA RESULT:    -6.095      1.586      2.796
REMARK INTER + INTRA:          -6.095
REMARK INTER:                  -6.095
REMARK INTRA:                   0.000
REMARK UNBOUND:                 0.000
REMARK SMILES O=c1ccc2ccccc2o1
REMARK SMILES IDX 7 1 8 2 9 3 10 4 5 5 6 6 4 7 3 8 2 9 1 10 11 11
REMARK H PARENT
REMARK Flexibility Score: inf
ROOT
ATOM      1  C   UNL     1      14.933  -3.861 -14.449  1.00  0.00     0.001 A 
ATOM      2  C   UNL     1      14.601  -5.120 -14.960  1.00  0.00     0.004 A 
ATOM      3  C   UNL     1      13.538  -5.845 -14.409  1.00  0.00     0.048 A 
ATOM      4  C   UNL     1      12.804  -5.311 -13.344  1.00  0.00     0.138 A 
ATOM      5  C   UNL     1      13.140  -4.040 -12.827  1.00  0.00     0.018 A 
ATOM      6  C   UNL     1      14.207  -3.318 -13.384  1.00  0.00     0.012 A 
ATOM      7  C   UNL     1      12.389  -3.533 -11.763  1.00  0.00     0.019 A 
ATOM      8  C   UNL     1      11.339  -4.289 -11.245  1.00  0.00     0.094 A 
ATOM      9  C   UNL     1      11.063  -5.542 -11.806  1.00  0.00     0.336 A 
ATOM     10  O   UNL     1      10.119  -6.240 -11.353  1.00  0.00    -0.246 OA
ATOM     11  O   UNL     1      11.794  -6.001 -12.820  1.00  0.00    -0.423 OA
ENDROOT
TORSDOF 0
ENDMDL
MODEL 6
REMARK VINA RESULT:    -6.036      1.603      3.819
REMARK INTER + INTRA:          -6.036
REMARK INTER:                  -6.036
REMARK INTRA:                   0.000
REMARK UNBOUND:                 0.000
REMARK SMILES O=c1ccc2ccccc2o1
REMARK SMILES IDX 7 1 8 2 9 3 10 4 5 5 6 6 4 7 3 8 2 9 1 10 11 11
REMARK H PARENT
REMARK Flexibility Score: inf
ROOT
ATOM      1  C   UNL     1      10.516  -8.541 -11.662  1.00  0.00     0.001 A 
ATOM      2  C   UNL     1      11.296  -8.677 -12.815  1.00  0.00     0.004 A 
ATOM      3  C   UNL     1      12.014  -7.583 -13.312  1.00  0.00     0.048 A 
ATOM      4  C   UNL     1      11.953  -6.349 -12.655  1.00  0.00     0.138 A 
ATOM      5  C   UNL     1      11.165  -6.212 -11.490  1.00  0.00     0.018 A 
ATOM      6  C   UNL     1      10.448  -7.313 -10.997  1.00  0.00     0.012 A 
ATOM      7  C   UNL     1      11.125  -4.968 -10.856  1.00  0.00     0.019 A 
ATOM      8  C   UNL     1      11.856  -3.905 -11.385  1.00  0.00     0.094 A 
ATOM      9  C   UNL     1      12.614  -4.113 -12.543  1.00  0.00     0.336 A 
ATOM     10  O   UNL     1      13.281  -3.166 -13.036  1.00  0.00    -0.246 OA
ATOM     11  O   UNL     1      12.636  -5.309 -13.128  1.00  0.00    -0.423 OA
ENDROOT
TORSDOF 0
ENDMDL
MODEL 7
REMARK VINA RESULT:    -5.996     17.714     18.741
REMARK INTER + INTRA:          -5.996
REMARK INTER:                  -5.996
REMARK INTRA:                   0.000
REMARK UNBOUND:                 0.000
REMARK SMILES O=c1ccc2ccccc2o1
REMARK SMILES IDX 7 1 8 2 9 3 10 4 5 5 6 6 4 7 3 8 2 9 1 10 11 11
REMARK H PARENT
REMARK Flexibility Score: inf
ROOT
ATOM      1  C   UNL     1      -3.801   4.857 -12.199  1.00  0.00     0.001 A 
ATOM      2  C   UNL     1      -2.557   4.220 -12.239  1.00  0.00     0.004 A 
ATOM      3  C   UNL     1      -1.626   4.430 -11.215  1.00  0.00     0.048 A 
ATOM      4  C   UNL     1      -1.938   5.279 -10.148  1.00  0.00     0.138 A 
ATOM      5  C   UNL     1      -3.195   5.923 -10.108  1.00  0.00     0.018 A 
ATOM      6  C   UNL     1      -4.124   5.707 -11.137  1.00  0.00     0.012 A 
ATOM      7  C   UNL     1      -3.479   6.765  -9.029  1.00  0.00     0.019 A 
ATOM      8  C   UNL     1      -2.522   6.946  -8.032  1.00  0.00     0.094 A 
ATOM      9  C   UNL     1      -1.297   6.277  -8.137  1.00  0.00     0.336 A 
ATOM     10  O   UNL     1      -0.420   6.426  -7.247  1.00  0.00    -0.246 OA
ATOM     11  O   UNL     1      -1.052   5.480  -9.175  1.00  0.00    -0.423 OA
ENDROOT
TORSDOF 0
ENDMDL
MODEL 8
REMARK VINA RESULT:    -5.924      1.984      2.850
REMARK INTER + INTRA:          -5.924
REMARK INTER:                  -5.924
REMARK INTRA:                   0.000
REMARK UNBOUND:                 0.000
REMARK SMILES O=c1ccc2ccccc2o1
REMARK SMILES IDX 7 1 8 2 9 3 10 4 5 5 6 6 4 7 3 8 2 9 1 10 11 11
REMARK H PARENT
REMARK Flexibility Score: inf
ROOT
ATOM      1  C   UNL     1      14.589  -4.326 -14.239  1.00  0.00     0.001 A 
ATOM      2  C   UNL     1      14.267  -3.167 -13.525  1.00  0.00     0.004 A 
ATOM      3  C   UNL     1      13.177  -3.162 -12.647  1.00  0.00     0.048 A 
ATOM      4  C   UNL     1      12.405  -4.317 -12.481  1.00  0.00     0.138 A 
ATOM      5  C   UNL     1      12.730  -5.487 -13.203  1.00  0.00     0.018 A 
ATOM      6  C   UNL     1      13.824  -5.486 -14.082  1.00  0.00     0.012 A 
ATOM      7  C   UNL     1      11.941  -6.626 -13.017  1.00  0.00     0.019 A 
ATOM      8  C   UNL     1      10.865  -6.575 -12.132  1.00  0.00     0.094 A 
ATOM      9  C   UNL     1      10.601  -5.381 -11.452  1.00  0.00     0.336 A 
ATOM     10  O   UNL     1       9.634  -5.316 -10.648  1.00  0.00    -0.246 OA
ATOM     11  O   UNL     1      11.368  -4.311 -11.647  1.00  0.00    -0.423 OA
ENDROOT
TORSDOF 0
ENDMDL
MODEL 9
REMARK VINA RESULT:    -5.871     17.179     18.250
REMARK INTER + INTRA:          -5.871
REMARK INTER:                  -5.871
REMARK INTRA:                   0.000
REMARK UNBOUND:                 0.000
REMARK SMILES O=c1ccc2ccccc2o1
REMARK SMILES IDX 7 1 8 2 9 3 10 4 5 5 6 6 4 7 3 8 2 9 1 10 11 11
REMARK H PARENT
REMARK Flexibility Score: inf
ROOT
ATOM      1  C   UNL     1      -3.338   4.617 -12.289  1.00  0.00     0.001 A 
ATOM      2  C   UNL     1      -4.123   5.534 -11.583  1.00  0.00     0.004 A 
ATOM      3  C   UNL     1      -3.655   6.083 -10.383  1.00  0.00     0.048 A 
ATOM      4  C   UNL     1      -2.400   5.716  -9.887  1.00  0.00     0.138 A 
ATOM      5  C   UNL     1      -1.607   4.789 -10.601  1.00  0.00     0.018 A 
ATOM      6  C   UNL     1      -2.081   4.243 -11.803  1.00  0.00     0.012 A 
ATOM      7  C   UNL     1      -0.357   4.442 -10.080  1.00  0.00     0.019 A 
ATOM      8  C   UNL     1       0.069   5.013  -8.882  1.00  0.00     0.094 A 
ATOM      9  C   UNL     1      -0.770   5.923  -8.229  1.00  0.00     0.336 A 
ATOM     10  O   UNL     1      -0.404   6.451  -7.146  1.00  0.00    -0.246 OA
ATOM     11  O   UNL     1      -1.956   6.237  -8.746  1.00  0.00    -0.423 OA
ENDROOT
TORSDOF 0
ENDMDL
