MODEL 1
REMARK VINA RESULT:    -5.467      0.000      0.000
REMARK INTER + INTRA:          -7.632
REMARK INTER:                  -7.864
REMARK INTRA:                   0.231
REMARK UNBOUND:                 0.231
REMARK SMILES O=c1c(O[C@@H]2O[C@@H](CO)[C@@H](O)[C@H](O)[C@H]2O)c(-c2ccc(O)cc2)oc2cc(O)cc(O)c12
REMARK SMILES IDX 4 1 3 2 16 3 24 4 2 5 25 6 1 7 32 8 26 9 30 10 27 11 29 12
REMARK SMILES IDX 17 13 18 14 19 15 20 16 23 17 22 18 21 19 31 21 28 23 5 25
REMARK SMILES IDX 14 26 6 27 12 28 7 29 10 30 15 31 13 33 8 35 9 36 11 38
REMARK H PARENT 21 20 31 22 28 24 15 32 13 34 9 37 11 39
REMARK Flexibility Score: inf
ROOT
ATOM      1  O   UNL     1      -0.692  -5.302  -7.901  1.00  0.00    -0.454 OA
ENDROOT
BRANCH   1   2
ATOM      2  C   UNL     1       0.635  -5.747  -7.898  1.00  0.00     0.214 A 
ATOM      3  C   UNL     1       0.984  -7.040  -7.456  1.00  0.00     0.180 A 
ATOM      4  O   UNL     1       2.266  -7.390  -7.390  1.00  0.00    -0.452 OA
ATOM      5  C   UNL     1       1.645  -4.884  -8.333  1.00  0.00     0.239 A 
ATOM      6  C   UNL     1       3.259  -6.590  -7.762  1.00  0.00     0.146 A 
ATOM      7  O   UNL     1       1.332  -3.739  -8.760  1.00  0.00    -0.285 OA
ATOM      8  C   UNL     1       2.991  -5.296  -8.267  1.00  0.00     0.111 A 
ATOM      9  C   UNL     1       4.577  -7.046  -7.658  1.00  0.00     0.094 A 
ATOM     10  C   UNL     1       4.072  -4.475  -8.670  1.00  0.00     0.134 A 
ATOM     11  C   UNL     1       5.641  -6.230  -8.056  1.00  0.00     0.123 A 
ATOM     12  C   UNL     1       5.387  -4.953  -8.560  1.00  0.00     0.093 A 
BRANCH   3  13
ATOM     13  C   UNL     1      -0.033  -8.041  -7.070  1.00  0.00     0.021 A 
ATOM     14  C   UNL     1      -1.184  -7.633  -6.376  1.00  0.00     0.016 A 
ATOM     15  C   UNL     1      -2.151  -8.571  -6.002  1.00  0.00     0.047 A 
ATOM     16  C   UNL     1      -1.971  -9.927  -6.303  1.00  0.00     0.115 A 
ATOM     17  C   UNL     1       0.154  -9.408  -7.345  1.00  0.00     0.016 A 
ATOM     18  C   UNL     1      -0.816 -10.342  -6.971  1.00  0.00     0.047 A 
BRANCH  16  19
ATOM     19  O   UNL     1      -2.931 -10.869  -5.939  1.00  0.00    -0.508 OA
ATOM     20  H   UNL     1      -2.715 -11.626  -5.301  1.00  0.00     0.293 HD
ENDBRANCH  16  19
ENDBRANCH   3  13
BRANCH  10  21
ATOM     21  O   UNL     1       3.850  -3.193  -9.175  1.00  0.00    -0.507 OA
ATOM     22  H   UNL     1       3.298  -2.510  -8.670  1.00  0.00     0.293 HD
ENDBRANCH  10  21
BRANCH  11  23
ATOM     23  O   UNL     1       6.955  -6.679  -7.955  1.00  0.00    -0.508 OA
ATOM     24  H   UNL     1       7.519  -6.488  -7.134  1.00  0.00     0.293 HD
ENDBRANCH  11  23
ENDBRANCH   1   2
BRANCH   1  25
ATOM     25  C   UNL     1      -1.075  -4.003  -8.369  1.00  0.00     0.339 C 
ATOM     26  C   UNL     1      -2.255  -4.109  -9.354  1.00  0.00     0.214 C 
ATOM     27  O   UNL     1      -1.377  -3.141  -7.283  1.00  0.00    -0.332 OA
ATOM     28  C   UNL     1      -3.553  -4.517  -8.620  1.00  0.00     0.180 C 
ATOM     29  C   UNL     1      -2.471  -3.627  -6.522  1.00  0.00     0.179 C 
ATOM     30  C   UNL     1      -3.767  -3.647  -7.369  1.00  0.00     0.177 C 
BRANCH  26  31
ATOM     31  O   UNL     1      -2.429  -2.872  -9.995  1.00  0.00    -0.384 OA
ATOM     32  H   UNL     1      -1.602  -2.699 -10.517  1.00  0.00     0.211 HD
ENDBRANCH  26  31
BRANCH  28  33
ATOM     33  O   UNL     1      -3.493  -5.870  -8.243  1.00  0.00    -0.387 OA
ATOM     34  H   UNL     1      -3.071  -5.899  -7.345  1.00  0.00     0.211 HD
ENDBRANCH  28  33
BRANCH  29  35
ATOM     35  C   UNL     1      -2.620  -2.775  -5.255  1.00  0.00     0.191 C 
BRANCH  35  36
ATOM     36  O   UNL     1      -3.969  -2.497  -5.000  1.00  0.00    -0.394 OA
ATOM     37  H   UNL     1      -4.475  -2.853  -5.775  1.00  0.00     0.210 HD
ENDBRANCH  35  36
ENDBRANCH  29  35
BRANCH  30  38
ATOM     38  O   UNL     1      -4.120  -2.345  -7.766  1.00  0.00    -0.387 OA
ATOM     39  H   UNL     1      -3.503  -2.083  -8.498  1.00  0.00     0.211 HD
ENDBRANCH  30  38
ENDBRANCH   1  25
TORSDOF 11
ENDMDL
MODEL 2
REMARK VINA RESULT:    -5.463      1.818      5.395
REMARK INTER + INTRA:          -7.626
REMARK INTER:                  -7.615
REMARK INTRA:                  -0.012
REMARK UNBOUND:                 0.231
REMARK SMILES O=c1c(O[C@@H]2O[C@@H](CO)[C@@H](O)[C@H](O)[C@H]2O)c(-c2ccc(O)cc2)oc2cc(O)cc(O)c12
REMARK SMILES IDX 4 1 3 2 16 3 24 4 2 5 25 6 1 7 32 8 26 9 30 10 27 11 29 12
REMARK SMILES IDX 17 13 18 14 19 15 20 16 23 17 22 18 21 19 31 21 28 23 5 25
REMARK SMILES IDX 14 26 6 27 12 28 7 29 10 30 15 31 13 33 8 35 9 36 11 38
REMARK H PARENT 21 20 31 22 28 24 15 32 13 34 9 37 11 39
REMARK Flexibility Score: inf
ROOT
ATOM      1  O   UNL     1      -0.186  -5.769  -8.874  1.00  0.00    -0.454 OA
ENDROOT
BRANCH   1   2
ATOM      2  C   UNL     1      -0.079  -6.722  -7.856  1.00  0.00     0.214 A 
ATOM      3  C   UNL     1       1.139  -7.376  -7.574  1.00  0.00     0.180 A 
ATOM      4  O   UNL     1       1.175  -8.336  -6.654  1.00  0.00    -0.452 OA
ATOM      5  C   UNL     1      -1.211  -7.047  -7.103  1.00  0.00     0.239 A 
ATOM      6  C   UNL     1       0.115  -8.698  -5.938  1.00  0.00     0.146 A 
ATOM      7  O   UNL     1      -2.294  -6.441  -7.330  1.00  0.00    -0.285 OA
ATOM      8  C   UNL     1      -1.132  -8.056  -6.122  1.00  0.00     0.111 A 
ATOM      9  C   UNL     1       0.249  -9.718  -4.992  1.00  0.00     0.094 A 
ATOM     10  C   UNL     1      -2.236  -8.456  -5.331  1.00  0.00     0.134 A 
ATOM     11  C   UNL     1      -0.846 -10.111  -4.215  1.00  0.00     0.123 A 
ATOM     12  C   UNL     1      -2.081  -9.480  -4.385  1.00  0.00     0.093 A 
BRANCH   3  13
ATOM     13  C   UNL     1       2.399  -7.021  -8.261  1.00  0.00     0.021 A 
ATOM     14  C   UNL     1       3.371  -6.265  -7.586  1.00  0.00     0.016 A 
ATOM     15  C   UNL     1       4.565  -5.919  -8.226  1.00  0.00     0.047 A 
ATOM     16  C   UNL     1       4.793  -6.311  -9.552  1.00  0.00     0.115 A 
ATOM     17  C   UNL     1       2.623  -7.388  -9.600  1.00  0.00     0.016 A 
ATOM     18  C   UNL     1       3.818  -7.042 -10.236  1.00  0.00     0.047 A 
BRANCH  16  19
ATOM     19  O   UNL     1       5.982  -5.976 -10.197  1.00  0.00    -0.508 OA
ATOM     20  H   UNL     1       6.877  -6.318  -9.869  1.00  0.00     0.293 HD
ENDBRANCH  16  19
ENDBRANCH   3  13
BRANCH  10  21
ATOM     21  O   UNL     1      -3.483  -7.846  -5.480  1.00  0.00    -0.507 OA
ATOM     22  H   UNL     1      -4.179  -7.871  -4.744  1.00  0.00     0.293 HD
ENDBRANCH  10  21
BRANCH  11  23
ATOM     23  O   UNL     1      -0.719 -11.125  -3.270  1.00  0.00    -0.508 OA
ATOM     24  H   UNL     1      -1.213 -12.005  -3.368  1.00  0.00     0.293 HD
ENDBRANCH  11  23
ENDBRANCH   1   2
BRANCH   1  25
ATOM     25  C   UNL     1       0.242  -4.411  -8.717  1.00  0.00     0.339 C 
ATOM     26  C   UNL     1      -0.604  -3.471  -9.597  1.00  0.00     0.214 C 
ATOM     27  O   UNL     1       0.205  -4.022  -7.353  1.00  0.00    -0.332 OA
ATOM     28  C   UNL     1      -2.047  -3.356  -9.055  1.00  0.00     0.180 C 
ATOM     29  C   UNL     1      -1.111  -4.087  -6.829  1.00  0.00     0.179 C 
ATOM     30  C   UNL     1      -2.039  -3.073  -7.542  1.00  0.00     0.177 C 
BRANCH  26  31
ATOM     31  O   UNL     1       0.004  -2.205  -9.631  1.00  0.00    -0.384 OA
ATOM     32  H   UNL     1      -0.212  -1.806 -10.514  1.00  0.00     0.211 HD
ENDBRANCH  26  31
BRANCH  28  33
ATOM     33  O   UNL     1      -2.756  -4.544  -9.303  1.00  0.00    -0.387 OA
ATOM     34  H   UNL     1      -3.505  -4.573  -8.653  1.00  0.00     0.211 HD
ENDBRANCH  28  33
BRANCH  29  35
ATOM     35  C   UNL     1      -1.061  -3.858  -5.313  1.00  0.00     0.191 C 
BRANCH  35  36
ATOM     36  O   UNL     1      -1.847  -4.804  -4.642  1.00  0.00    -0.394 OA
ATOM     37  H   UNL     1      -2.193  -5.419  -5.339  1.00  0.00     0.210 HD
ENDBRANCH  35  36
ENDBRANCH  29  35
BRANCH  30  38
ATOM     38  O   UNL     1      -1.599  -1.756  -7.321  1.00  0.00    -0.387 OA
ATOM     39  H   UNL     1      -2.049  -1.428  -6.500  1.00  0.00     0.211 HD
ENDBRANCH  30  38
ENDBRANCH   1  25
TORSDOF 11
ENDMDL
MODEL 3
REMARK VINA RESULT:    -5.125      1.222      2.307
REMARK INTER + INTRA:          -7.140
REMARK INTER:                  -7.723
REMARK INTRA:                   0.583
REMARK UNBOUND:                 0.231
REMARK SMILES O=c1c(O[C@@H]2O[C@@H](CO)[C@@H](O)[C@H](O)[C@H]2O)c(-c2ccc(O)cc2)oc2cc(O)cc(O)c12
REMARK SMILES IDX 4 1 3 2 16 3 24 4 2 5 25 6 1 7 32 8 26 9 30 10 27 11 29 12
REMARK SMILES IDX 17 13 18 14 19 15 20 16 23 17 22 18 21 19 31 21 28 23 5 25
REMARK SMILES IDX 14 26 6 27 12 28 7 29 10 30 15 31 13 33 8 35 9 36 11 38
REMARK H PARENT 21 20 31 22 28 24 15 32 13 34 9 37 11 39
REMARK Flexibility Score: inf
ROOT
ATOM      1  O   UNL     1      -0.480  -5.484  -6.850  1.00  0.00    -0.454 OA
ENDROOT
BRANCH   1   2
ATOM      2  C   UNL     1       0.645  -6.043  -7.467  1.00  0.00     0.214 A 
ATOM      3  C   UNL     1       0.851  -7.437  -7.515  1.00  0.00     0.180 A 
ATOM      4  O   UNL     1       1.976  -7.921  -8.036  1.00  0.00    -0.452 OA
ATOM      5  C   UNL     1       1.600  -5.197  -8.040  1.00  0.00     0.239 A 
ATOM      6  C   UNL     1       2.923  -7.152  -8.562  1.00  0.00     0.146 A 
ATOM      7  O   UNL     1       1.403  -3.951  -8.028  1.00  0.00    -0.285 OA
ATOM      8  C   UNL     1       2.771  -5.745  -8.600  1.00  0.00     0.111 A 
ATOM      9  C   UNL     1       4.072  -7.751  -9.087  1.00  0.00     0.094 A 
ATOM     10  C   UNL     1       3.793  -4.958  -9.183  1.00  0.00     0.134 A 
ATOM     11  C   UNL     1       5.079  -6.967  -9.659  1.00  0.00     0.123 A 
ATOM     12  C   UNL     1       4.937  -5.578  -9.707  1.00  0.00     0.093 A 
BRANCH   3  13
ATOM     13  C   UNL     1      -0.156  -8.398  -7.016  1.00  0.00     0.021 A 
ATOM     14  C   UNL     1      -1.033  -8.017  -5.988  1.00  0.00     0.016 A 
ATOM     15  C   UNL     1      -1.987  -8.918  -5.504  1.00  0.00     0.047 A 
ATOM     16  C   UNL     1      -2.062 -10.214  -6.030  1.00  0.00     0.115 A 
ATOM     17  C   UNL     1      -0.219  -9.710  -7.520  1.00  0.00     0.016 A 
ATOM     18  C   UNL     1      -1.174 -10.607  -7.035  1.00  0.00     0.047 A 
BRANCH  16  19
ATOM     19  O   UNL     1      -3.012 -11.118  -5.558  1.00  0.00    -0.508 OA
ATOM     20  H   UNL     1      -2.943 -12.110  -5.756  1.00  0.00     0.293 HD
ENDBRANCH  16  19
ENDBRANCH   3  13
BRANCH  10  21
ATOM     21  O   UNL     1       3.681  -3.568  -9.242  1.00  0.00    -0.507 OA
ATOM     22  H   UNL     1       2.837  -3.115  -9.575  1.00  0.00     0.293 HD
ENDBRANCH  10  21
BRANCH  11  23
ATOM     23  O   UNL     1       6.226  -7.557 -10.185  1.00  0.00    -0.508 OA
ATOM     24  H   UNL     1       6.982  -6.998 -10.565  1.00  0.00     0.293 HD
ENDBRANCH  11  23
ENDBRANCH   1   2
BRANCH   1  25
ATOM     25  C   UNL     1      -1.818  -5.749  -7.288  1.00  0.00     0.339 C 
ATOM     26  C   UNL     1      -2.829  -4.929  -6.463  1.00  0.00     0.214 C 
ATOM     27  O   UNL     1      -1.956  -5.503  -8.678  1.00  0.00    -0.332 OA
ATOM     28  C   UNL     1      -2.734  -3.425  -6.809  1.00  0.00     0.180 C 
ATOM     29  C   UNL     1      -1.697  -4.145  -8.994  1.00  0.00     0.179 C 
ATOM     30  C   UNL     1      -2.745  -3.215  -8.333  1.00  0.00     0.177 C 
BRANCH  26  31
ATOM     31  O   UNL     1      -4.125  -5.405  -6.724  1.00  0.00    -0.384 OA
ATOM     32  H   UNL     1      -4.184  -5.556  -7.703  1.00  0.00     0.211 HD
ENDBRANCH  26  31
BRANCH  28  33
ATOM     33  O   UNL     1      -1.555  -2.877  -6.272  1.00  0.00    -0.387 OA
ATOM     34  H   UNL     1      -1.555  -1.913  -6.505  1.00  0.00     0.211 HD
ENDBRANCH  28  33
BRANCH  29  35
ATOM     35  C   UNL     1      -1.658  -3.981 -10.519  1.00  0.00     0.191 C 
BRANCH  35  36
ATOM     36  O   UNL     1      -2.751  -4.624 -11.115  1.00  0.00    -0.394 OA
ATOM     37  H   UNL     1      -3.037  -4.042 -11.865  1.00  0.00     0.210 HD
ENDBRANCH  35  36
ENDBRANCH  29  35
BRANCH  30  38
ATOM     38  O   UNL     1      -4.033  -3.489  -8.828  1.00  0.00    -0.387 OA
ATOM     39  H   UNL     1      -4.546  -3.915  -8.092  1.00  0.00     0.211 HD
ENDBRANCH  30  38
ENDBRANCH   1  25
TORSDOF 11
ENDMDL
MODEL 4
REMARK VINA RESULT:    -4.799      2.181      7.101
REMARK INTER + INTRA:          -6.672
REMARK INTER:                  -6.630
REMARK INTRA:                  -0.042
REMARK UNBOUND:                 0.231
REMARK SMILES O=c1c(O[C@@H]2O[C@@H](CO)[C@@H](O)[C@H](O)[C@H]2O)c(-c2ccc(O)cc2)oc2cc(O)cc(O)c12
REMARK SMILES IDX 4 1 3 2 16 3 24 4 2 5 25 6 1 7 32 8 26 9 30 10 27 11 29 12
REMARK SMILES IDX 17 13 18 14 19 15 20 16 23 17 22 18 21 19 31 21 28 23 5 25
REMARK SMILES IDX 14 26 6 27 12 28 7 29 10 30 15 31 13 33 8 35 9 36 11 38
REMARK H PARENT 21 20 31 22 28 24 15 32 13 34 9 37 11 39
REMARK Flexibility Score: inf
ROOT
ATOM      1  O   UNL     1       1.228  -6.782  -7.788  1.00  0.00    -0.454 OA
ENDROOT
BRANCH   1   2
ATOM      2  C   UNL     1       0.152  -7.474  -7.220  1.00  0.00     0.214 A 
ATOM      3  C   UNL     1      -1.178  -7.026  -7.363  1.00  0.00     0.180 A 
ATOM      4  O   UNL     1      -2.160  -7.667  -6.735  1.00  0.00    -0.452 OA
ATOM      5  C   UNL     1       0.401  -8.634  -6.481  1.00  0.00     0.239 A 
ATOM      6  C   UNL     1      -1.965  -8.754  -5.997  1.00  0.00     0.146 A 
ATOM      7  O   UNL     1       1.585  -9.056  -6.379  1.00  0.00    -0.285 OA
ATOM      8  C   UNL     1      -0.668  -9.299  -5.846  1.00  0.00     0.111 A 
ATOM      9  C   UNL     1      -3.060  -9.361  -5.376  1.00  0.00     0.094 A 
ATOM     10  C   UNL     1      -0.498 -10.467  -5.065  1.00  0.00     0.134 A 
ATOM     11  C   UNL     1      -2.886 -10.514  -4.603  1.00  0.00     0.123 A 
ATOM     12  C   UNL     1      -1.610 -11.063  -4.452  1.00  0.00     0.093 A 
BRANCH   3  13
ATOM     13  C   UNL     1      -1.530  -5.864  -8.206  1.00  0.00     0.021 A 
ATOM     14  C   UNL     1      -2.324  -6.048  -9.349  1.00  0.00     0.016 A 
ATOM     15  C   UNL     1      -2.661  -4.957 -10.157  1.00  0.00     0.047 A 
ATOM     16  C   UNL     1      -2.194  -3.675  -9.840  1.00  0.00     0.115 A 
ATOM     17  C   UNL     1      -1.043  -4.578  -7.909  1.00  0.00     0.016 A 
ATOM     18  C   UNL     1      -1.382  -3.490  -8.717  1.00  0.00     0.047 A 
BRANCH  16  19
ATOM     19  O   UNL     1      -2.528  -2.581 -10.636  1.00  0.00    -0.508 OA
ATOM     20  H   UNL     1      -2.556  -1.641 -10.258  1.00  0.00     0.293 HD
ENDBRANCH  16  19
ENDBRANCH   3  13
BRANCH  10  21
ATOM     21  O   UNL     1       0.765 -11.037  -4.892  1.00  0.00    -0.507 OA
ATOM     22  H   UNL     1       1.272 -10.954  -4.019  1.00  0.00     0.293 HD
ENDBRANCH  10  21
BRANCH  11  23
ATOM     23  O   UNL     1      -3.973 -11.124  -3.983  1.00  0.00    -0.508 OA
ATOM     24  H   UNL     1      -4.170 -10.981  -2.998  1.00  0.00     0.293 HD
ENDBRANCH  11  23
ENDBRANCH   1   2
BRANCH   1  25
ATOM     25  C   UNL     1       2.521  -7.372  -7.970  1.00  0.00     0.339 C 
ATOM     26  C   UNL     1       2.822  -7.562  -9.469  1.00  0.00     0.214 C 
ATOM     27  O   UNL     1       3.526  -6.601  -7.329  1.00  0.00    -0.332 OA
ATOM     28  C   UNL     1       3.055  -6.200 -10.163  1.00  0.00     0.180 C 
ATOM     29  C   UNL     1       3.605  -5.294  -7.874  1.00  0.00     0.179 C 
ATOM     30  C   UNL     1       4.044  -5.340  -9.358  1.00  0.00     0.177 C 
BRANCH  26  31
ATOM     31  O   UNL     1       3.958  -8.376  -9.609  1.00  0.00    -0.384 OA
ATOM     32  H   UNL     1       3.812  -8.938 -10.414  1.00  0.00     0.211 HD
ENDBRANCH  26  31
BRANCH  28  33
ATOM     33  O   UNL     1       1.838  -5.508 -10.296  1.00  0.00    -0.387 OA
ATOM     34  H   UNL     1       1.890  -4.994 -11.143  1.00  0.00     0.211 HD
ENDBRANCH  28  33
BRANCH  29  35
ATOM     35  C   UNL     1       4.553  -4.448  -7.015  1.00  0.00     0.191 C 
BRANCH  35  36
ATOM     36  O   UNL     1       4.346  -3.081  -7.246  1.00  0.00    -0.394 OA
ATOM     37  H   UNL     1       4.310  -2.653  -6.352  1.00  0.00     0.210 HD
ENDBRANCH  35  36
ENDBRANCH  29  35
BRANCH  30  38
ATOM     38  O   UNL     1       5.334  -5.887  -9.477  1.00  0.00    -0.387 OA
ATOM     39  H   UNL     1       5.446  -6.540  -8.737  1.00  0.00     0.211 HD
ENDBRANCH  30  38
ENDBRANCH   1  25
TORSDOF 11
ENDMDL
MODEL 5
REMARK VINA RESULT:    -4.109      1.744      5.144
REMARK INTER + INTRA:          -5.679
REMARK INTER:                  -4.432
REMARK INTRA:                  -1.247
REMARK UNBOUND:                 0.231
REMARK SMILES O=c1c(O[C@@H]2O[C@@H](CO)[C@@H](O)[C@H](O)[C@H]2O)c(-c2ccc(O)cc2)oc2cc(O)cc(O)c12
REMARK SMILES IDX 4 1 3 2 16 3 24 4 2 5 25 6 1 7 32 8 26 9 30 10 27 11 29 12
REMARK SMILES IDX 17 13 18 14 19 15 20 16 23 17 22 18 21 19 31 21 28 23 5 25
REMARK SMILES IDX 14 26 6 27 12 28 7 29 10 30 15 31 13 33 8 35 9 36 11 38
REMARK H PARENT 21 20 31 22 28 24 15 32 13 34 9 37 11 39
REMARK Flexibility Score: inf
ROOT
ATOM      1  O   UNL     1      -0.291  -6.808  -7.417  1.00  0.00    -0.454 OA
ENDROOT
BRANCH   1   2
ATOM      2  C   UNL     1       0.822  -6.100  -7.884  1.00  0.00     0.214 A 
ATOM      3  C   UNL     1       0.799  -4.699  -8.044  1.00  0.00     0.180 A 
ATOM      4  O   UNL     1       1.851  -4.078  -8.571  1.00  0.00    -0.452 OA
ATOM      5  C   UNL     1       1.986  -6.800  -8.213  1.00  0.00     0.239 A 
ATOM      6  C   UNL     1       2.965  -4.708  -8.927  1.00  0.00     0.146 A 
ATOM      7  O   UNL     1       2.022  -8.049  -8.039  1.00  0.00    -0.285 OA
ATOM      8  C   UNL     1       3.089  -6.107  -8.750  1.00  0.00     0.111 A 
ATOM      9  C   UNL     1       4.020  -3.971  -9.472  1.00  0.00     0.094 A 
ATOM     10  C   UNL     1       4.296  -6.744  -9.126  1.00  0.00     0.134 A 
ATOM     11  C   UNL     1       5.209  -4.606  -9.843  1.00  0.00     0.123 A 
ATOM     12  C   UNL     1       5.344  -5.986  -9.669  1.00  0.00     0.093 A 
BRANCH   3  13
ATOM     13  C   UNL     1      -0.360  -3.879  -7.631  1.00  0.00     0.021 A 
ATOM     14  C   UNL     1      -1.427  -3.681  -8.522  1.00  0.00     0.016 A 
ATOM     15  C   UNL     1      -2.527  -2.904  -8.145  1.00  0.00     0.047 A 
ATOM     16  C   UNL     1      -2.564  -2.304  -6.880  1.00  0.00     0.115 A 
ATOM     17  C   UNL     1      -0.392  -3.251  -6.373  1.00  0.00     0.016 A 
ATOM     18  C   UNL     1      -1.493  -2.477  -5.998  1.00  0.00     0.047 A 
BRANCH  16  19
ATOM     19  O   UNL     1      -3.657  -1.532  -6.492  1.00  0.00    -0.508 OA
ATOM     20  H   UNL     1      -4.335  -1.874  -5.821  1.00  0.00     0.293 HD
ENDBRANCH  16  19
ENDBRANCH   3  13
BRANCH  10  21
ATOM     21  O   UNL     1       4.460  -8.121  -8.966  1.00  0.00    -0.507 OA
ATOM     22  H   UNL     1       3.991  -8.631  -8.227  1.00  0.00     0.293 HD
ENDBRANCH  10  21
BRANCH  11  23
ATOM     23  O   UNL     1       6.264  -3.877 -10.386  1.00  0.00    -0.508 OA
ATOM     24  H   UNL     1       6.957  -4.313 -10.984  1.00  0.00     0.293 HD
ENDBRANCH  11  23
ENDBRANCH   1   2
BRANCH   1  25
ATOM     25  C   UNL     1      -0.436  -7.217  -6.052  1.00  0.00     0.339 C 
ATOM     26  C   UNL     1      -1.642  -6.513  -5.400  1.00  0.00     0.214 C 
ATOM     27  O   UNL     1      -0.539  -8.629  -5.953  1.00  0.00    -0.332 OA
ATOM     28  C   UNL     1      -2.972  -7.049  -5.977  1.00  0.00     0.180 C 
ATOM     29  C   UNL     1      -1.683  -9.115  -6.637  1.00  0.00     0.179 C 
ATOM     30  C   UNL     1      -2.983  -8.588  -5.981  1.00  0.00     0.177 C 
BRANCH  26  31
ATOM     31  O   UNL     1      -1.597  -6.720  -4.012  1.00  0.00    -0.384 OA
ATOM     32  H   UNL     1      -0.833  -6.189  -3.666  1.00  0.00     0.211 HD
ENDBRANCH  26  31
BRANCH  28  33
ATOM     33  O   UNL     1      -3.158  -6.578  -7.289  1.00  0.00    -0.387 OA
ATOM     34  H   UNL     1      -2.888  -5.624  -7.292  1.00  0.00     0.211 HD
ENDBRANCH  28  33
BRANCH  29  35
ATOM     35  C   UNL     1      -1.633 -10.648  -6.673  1.00  0.00     0.191 C 
BRANCH  35  36
ATOM     36  O   UNL     1      -0.882 -11.094  -7.769  1.00  0.00    -0.394 OA
ATOM     37  H   UNL     1      -1.371 -11.874  -8.139  1.00  0.00     0.210 HD
ENDBRANCH  35  36
ENDBRANCH  29  35
BRANCH  30  38
ATOM     38  O   UNL     1      -3.096  -9.053  -4.659  1.00  0.00    -0.387 OA
ATOM     39  H   UNL     1      -3.081 -10.045  -4.693  1.00  0.00     0.211 HD
ENDBRANCH  30  38
ENDBRANCH   1  25
TORSDOF 11
ENDMDL
MODEL 6
REMARK VINA RESULT:    -4.059      1.827      7.008
REMARK INTER + INTRA:          -5.607
REMARK INTER:                  -5.292
REMARK INTRA:                  -0.314
REMARK UNBOUND:                 0.231
REMARK SMILES O=c1c(O[C@@H]2O[C@@H](CO)[C@@H](O)[C@H](O)[C@H]2O)c(-c2ccc(O)cc2)oc2cc(O)cc(O)c12
REMARK SMILES IDX 4 1 3 2 16 3 24 4 2 5 25 6 1 7 32 8 26 9 30 10 27 11 29 12
REMARK SMILES IDX 17 13 18 14 19 15 20 16 23 17 22 18 21 19 31 21 28 23 5 25
REMARK SMILES IDX 14 26 6 27 12 28 7 29 10 30 15 31 13 33 8 35 9 36 11 38
REMARK H PARENT 21 20 31 22 28 24 15 32 13 34 9 37 11 39
REMARK Flexibility Score: inf
ROOT
ATOM      1  O   UNL     1       0.101  -5.471  -7.233  1.00  0.00    -0.454 OA
ENDROOT
BRANCH   1   2
ATOM      2  C   UNL     1      -0.819  -6.364  -6.674  1.00  0.00     0.214 A 
ATOM      3  C   UNL     1      -2.087  -5.942  -6.225  1.00  0.00     0.180 A 
ATOM      4  O   UNL     1      -2.896  -6.809  -5.623  1.00  0.00    -0.452 OA
ATOM      5  C   UNL     1      -0.470  -7.712  -6.546  1.00  0.00     0.239 A 
ATOM      6  C   UNL     1      -2.591  -8.091  -5.451  1.00  0.00     0.146 A 
ATOM      7  O   UNL     1       0.651  -8.100  -6.977  1.00  0.00    -0.285 OA
ATOM      8  C   UNL     1      -1.360  -8.608  -5.920  1.00  0.00     0.111 A 
ATOM      9  C   UNL     1      -3.506  -8.929  -4.807  1.00  0.00     0.094 A 
ATOM     10  C   UNL     1      -1.074  -9.981  -5.735  1.00  0.00     0.134 A 
ATOM     11  C   UNL     1      -3.217 -10.285  -4.624  1.00  0.00     0.123 A 
ATOM     12  C   UNL     1      -2.006 -10.806  -5.088  1.00  0.00     0.093 A 
BRANCH   3  13
ATOM     13  C   UNL     1      -2.566  -4.556  -6.411  1.00  0.00     0.021 A 
ATOM     14  C   UNL     1      -3.501  -4.271  -7.420  1.00  0.00     0.016 A 
ATOM     15  C   UNL     1      -3.958  -2.963  -7.610  1.00  0.00     0.047 A 
ATOM     16  C   UNL     1      -3.474  -1.924  -6.804  1.00  0.00     0.115 A 
ATOM     17  C   UNL     1      -2.064  -3.503  -5.625  1.00  0.00     0.016 A 
ATOM     18  C   UNL     1      -2.525  -2.197  -5.815  1.00  0.00     0.047 A 
BRANCH  16  19
ATOM     19  O   UNL     1      -3.927  -0.619  -6.982  1.00  0.00    -0.508 OA
ATOM     20  H   UNL     1      -3.567   0.147  -6.424  1.00  0.00     0.293 HD
ENDBRANCH  16  19
ENDBRANCH   3  13
BRANCH  10  21
ATOM     21  O   UNL     1       0.128 -10.531  -6.184  1.00  0.00    -0.507 OA
ATOM     22  H   UNL     1       1.008 -10.341  -5.718  1.00  0.00     0.293 HD
ENDBRANCH  10  21
BRANCH  11  23
ATOM     23  O   UNL     1      -4.125 -11.125  -3.985  1.00  0.00    -0.508 OA
ATOM     24  H   UNL     1      -4.833 -11.633  -4.504  1.00  0.00     0.293 HD
ENDBRANCH  11  23
ENDBRANCH   1   2
BRANCH   1  25
ATOM     25  C   UNL     1       0.353  -5.394  -8.642  1.00  0.00     0.339 C 
ATOM     26  C   UNL     1       0.883  -3.997  -9.020  1.00  0.00     0.214 C 
ATOM     27  O   UNL     1       1.242  -6.420  -9.055  1.00  0.00    -0.332 OA
ATOM     28  C   UNL     1       2.318  -3.787  -8.486  1.00  0.00     0.180 C 
ATOM     29  C   UNL     1       2.504  -6.302  -8.419  1.00  0.00     0.179 C 
ATOM     30  C   UNL     1       3.212  -4.990  -8.836  1.00  0.00     0.177 C 
BRANCH  26  31
ATOM     31  O   UNL     1       0.863  -3.864 -10.419  1.00  0.00    -0.384 OA
ATOM     32  H   UNL     1       1.393  -3.054 -10.638  1.00  0.00     0.211 HD
ENDBRANCH  26  31
BRANCH  28  33
ATOM     33  O   UNL     1       2.296  -3.614  -7.090  1.00  0.00    -0.387 OA
ATOM     34  H   UNL     1       2.453  -2.649  -6.918  1.00  0.00     0.211 HD
ENDBRANCH  28  33
BRANCH  29  35
ATOM     35  C   UNL     1       3.347  -7.543  -8.741  1.00  0.00     0.191 C 
BRANCH  35  36
ATOM     36  O   UNL     1       4.714  -7.234  -8.715  1.00  0.00    -0.394 OA
ATOM     37  H   UNL     1       4.965  -7.017  -9.649  1.00  0.00     0.210 HD
ENDBRANCH  35  36
ENDBRANCH  29  35
BRANCH  30  38
ATOM     38  O   UNL     1       3.473  -4.984 -10.218  1.00  0.00    -0.387 OA
ATOM     39  H   UNL     1       4.057  -4.203 -10.404  1.00  0.00     0.211 HD
ENDBRANCH  30  38
ENDBRANCH   1  25
TORSDOF 11
ENDMDL
MODEL 7
REMARK VINA RESULT:    -3.328      4.990     11.567
REMARK INTER + INTRA:          -4.556
REMARK INTER:                  -3.250
REMARK INTRA:                  -1.306
REMARK UNBOUND:                 0.231
REMARK SMILES O=c1c(O[C@@H]2O[C@@H](CO)[C@@H](O)[C@H](O)[C@H]2O)c(-c2ccc(O)cc2)oc2cc(O)cc(O)c12
REMARK SMILES IDX 4 1 3 2 16 3 24 4 2 5 25 6 1 7 32 8 26 9 30 10 27 11 29 12
REMARK SMILES IDX 17 13 18 14 19 15 20 16 23 17 22 18 21 19 31 21 28 23 5 25
REMARK SMILES IDX 14 26 6 27 12 28 7 29 10 30 15 31 13 33 8 35 9 36 11 38
REMARK H PARENT 21 20 31 22 28 24 15 32 13 34 9 37 11 39
REMARK Flexibility Score: inf
ROOT
ATOM      1  O   UNL     1       7.904  -8.191 -11.002  1.00  0.00    -0.454 OA
ENDROOT
BRANCH   1   2
ATOM      2  C   UNL     1       7.166  -7.169 -10.394  1.00  0.00     0.214 A 
ATOM      3  C   UNL     1       7.704  -5.880 -10.196  1.00  0.00     0.180 A 
ATOM      4  O   UNL     1       6.998  -4.965  -9.538  1.00  0.00    -0.452 OA
ATOM      5  C   UNL     1       5.864  -7.434  -9.958  1.00  0.00     0.239 A 
ATOM      6  C   UNL     1       5.770  -5.184  -9.079  1.00  0.00     0.146 A 
ATOM      7  O   UNL     1       5.368  -8.576 -10.163  1.00  0.00    -0.285 OA
ATOM      8  C   UNL     1       5.138  -6.434  -9.281  1.00  0.00     0.111 A 
ATOM      9  C   UNL     1       5.104  -4.160  -8.399  1.00  0.00     0.094 A 
ATOM     10  C   UNL     1       3.823  -6.628  -8.793  1.00  0.00     0.134 A 
ATOM     11  C   UNL     1       3.807  -4.359  -7.916  1.00  0.00     0.123 A 
ATOM     12  C   UNL     1       3.172  -5.587  -8.115  1.00  0.00     0.093 A 
BRANCH   3  13
ATOM     13  C   UNL     1       9.035  -5.496 -10.712  1.00  0.00     0.021 A 
ATOM     14  C   UNL     1      10.141  -5.489  -9.847  1.00  0.00     0.016 A 
ATOM     15  C   UNL     1      11.405  -5.123 -10.321  1.00  0.00     0.047 A 
ATOM     16  C   UNL     1      11.573  -4.745 -11.660  1.00  0.00     0.115 A 
ATOM     17  C   UNL     1       9.205  -5.088 -12.047  1.00  0.00     0.016 A 
ATOM     18  C   UNL     1      10.470  -4.725 -12.519  1.00  0.00     0.047 A 
BRANCH  16  19
ATOM     19  O   UNL     1      12.828  -4.383 -12.144  1.00  0.00    -0.508 OA
ATOM     20  H   UNL     1      13.258  -3.500 -11.894  1.00  0.00     0.293 HD
ENDBRANCH  16  19
ENDBRANCH   3  13
BRANCH  10  21
ATOM     21  O   UNL     1       3.164  -7.845  -8.973  1.00  0.00    -0.507 OA
ATOM     22  H   UNL     1       2.822  -8.136  -9.882  1.00  0.00     0.293 HD
ENDBRANCH  10  21
BRANCH  11  23
ATOM     23  O   UNL     1       3.138  -3.343  -7.239  1.00  0.00    -0.508 OA
ATOM     24  H   UNL     1       2.822  -3.462  -6.283  1.00  0.00     0.293 HD
ENDBRANCH  11  23
ENDBRANCH   1   2
BRANCH   1  25
ATOM     25  C   UNL     1       8.934  -8.917 -10.320  1.00  0.00     0.339 C 
ATOM     26  C   UNL     1       8.668 -10.433 -10.398  1.00  0.00     0.214 C 
ATOM     27  O   UNL     1      10.214  -8.584 -10.833  1.00  0.00    -0.332 OA
ATOM     28  C   UNL     1       8.884 -10.959 -11.836  1.00  0.00     0.180 C 
ATOM     29  C   UNL     1      10.330  -8.925 -12.205  1.00  0.00     0.179 C 
ATOM     30  C   UNL     1      10.223 -10.456 -12.405  1.00  0.00     0.177 C 
BRANCH  26  31
ATOM     31  O   UNL     1       9.529 -11.095  -9.506  1.00  0.00    -0.384 OA
ATOM     32  H   UNL     1      10.271 -10.468  -9.304  1.00  0.00     0.211 HD
ENDBRANCH  26  31
BRANCH  28  33
ATOM     33  O   UNL     1       7.835 -10.536 -12.671  1.00  0.00    -0.387 OA
ATOM     34  H   UNL     1       7.031 -10.442 -12.097  1.00  0.00     0.211 HD
ENDBRANCH  28  33
BRANCH  29  35
ATOM     35  C   UNL     1      11.646  -8.359 -12.754  1.00  0.00     0.191 C 
BRANCH  35  36
ATOM     36  O   UNL     1      12.441  -9.382 -13.288  1.00  0.00    -0.394 OA
ATOM     37  H   UNL     1      12.209  -9.438 -14.251  1.00  0.00     0.210 HD
ENDBRANCH  35  36
ENDBRANCH  29  35
BRANCH  30  38
ATOM     38  O   UNL     1      11.279 -11.117 -11.752  1.00  0.00    -0.387 OA
ATOM     39  H   UNL     1      12.125 -10.794 -12.159  1.00  0.00     0.211 HD
ENDBRANCH  30  38
ENDBRANCH   1  25
TORSDOF 11
ENDMDL
MODEL 8
REMARK VINA RESULT:    -2.539      1.814      6.794
REMARK INTER + INTRA:          -3.421
REMARK INTER:                  -7.196
REMARK INTRA:                   3.775
REMARK UNBOUND:                 0.231
REMARK SMILES O=c1c(O[C@@H]2O[C@@H](CO)[C@@H](O)[C@H](O)[C@H]2O)c(-c2ccc(O)cc2)oc2cc(O)cc(O)c12
REMARK SMILES IDX 4 1 3 2 16 3 24 4 2 5 25 6 1 7 32 8 26 9 30 10 27 11 29 12
REMARK SMILES IDX 17 13 18 14 19 15 20 16 23 17 22 18 21 19 31 21 28 23 5 25
REMARK SMILES IDX 14 26 6 27 12 28 7 29 10 30 15 31 13 33 8 35 9 36 11 38
REMARK H PARENT 21 20 31 22 28 24 15 32 13 34 9 37 11 39
REMARK Flexibility Score: inf
ROOT
ATOM      1  O   UNL     1       0.295  -7.675  -7.735  1.00  0.00    -0.454 OA
ENDROOT
BRANCH   1   2
ATOM      2  C   UNL     1      -0.081  -6.335  -7.592  1.00  0.00     0.214 A 
ATOM      3  C   UNL     1       0.846  -5.282  -7.736  1.00  0.00     0.180 A 
ATOM      4  O   UNL     1       0.463  -4.029  -7.508  1.00  0.00    -0.452 OA
ATOM      5  C   UNL     1      -1.411  -6.028  -7.285  1.00  0.00     0.239 A 
ATOM      6  C   UNL     1      -0.782  -3.697  -7.183  1.00  0.00     0.146 A 
ATOM      7  O   UNL     1      -2.250  -6.965  -7.188  1.00  0.00    -0.285 OA
ATOM      8  C   UNL     1      -1.786  -4.687  -7.069  1.00  0.00     0.111 A 
ATOM      9  C   UNL     1      -1.092  -2.351  -6.963  1.00  0.00     0.094 A 
ATOM     10  C   UNL     1      -3.105  -4.296  -6.737  1.00  0.00     0.134 A 
ATOM     11  C   UNL     1      -2.397  -1.971  -6.633  1.00  0.00     0.123 A 
ATOM     12  C   UNL     1      -3.397  -2.941  -6.523  1.00  0.00     0.093 A 
BRANCH   3  13
ATOM     13  C   UNL     1       2.245  -5.518  -8.151  1.00  0.00     0.021 A 
ATOM     14  C   UNL     1       2.568  -6.666  -8.893  1.00  0.00     0.016 A 
ATOM     15  C   UNL     1       3.888  -6.904  -9.288  1.00  0.00     0.047 A 
ATOM     16  C   UNL     1       4.902  -6.005  -8.932  1.00  0.00     0.115 A 
ATOM     17  C   UNL     1       3.273  -4.635  -7.774  1.00  0.00     0.016 A 
ATOM     18  C   UNL     1       4.591  -4.874  -8.172  1.00  0.00     0.047 A 
BRANCH  16  19
ATOM     19  O   UNL     1       6.220  -6.230  -9.324  1.00  0.00    -0.508 OA
ATOM     20  H   UNL     1       7.000  -5.847  -8.804  1.00  0.00     0.293 HD
ENDBRANCH  16  19
ENDBRANCH   3  13
BRANCH  10  21
ATOM     21  O   UNL     1      -4.125  -5.242  -6.617  1.00  0.00    -0.507 OA
ATOM     22  H   UNL     1      -4.091  -5.976  -5.918  1.00  0.00     0.293 HD
ENDBRANCH  10  21
BRANCH  11  23
ATOM     23  O   UNL     1      -2.713  -0.633  -6.414  1.00  0.00    -0.508 OA
ATOM     24  H   UNL     1      -2.099   0.113  -6.721  1.00  0.00     0.293 HD
ENDBRANCH  11  23
ENDBRANCH   1   2
BRANCH   1  25
ATOM     25  C   UNL     1      -0.651  -8.751  -7.748  1.00  0.00     0.339 C 
ATOM     26  C   UNL     1       0.076 -10.109  -7.748  1.00  0.00     0.214 C 
ATOM     27  O   UNL     1      -1.558  -8.643  -6.663  1.00  0.00    -0.332 OA
ATOM     28  C   UNL     1       0.754 -10.374  -6.384  1.00  0.00     0.180 C 
ATOM     29  C   UNL     1      -0.887  -8.720  -5.415  1.00  0.00     0.179 C 
ATOM     30  C   UNL     1      -0.227 -10.108  -5.228  1.00  0.00     0.177 C 
BRANCH  26  31
ATOM     31  O   UNL     1      -0.852 -11.125  -8.032  1.00  0.00    -0.384 OA
ATOM     32  H   UNL     1      -0.473 -11.970  -7.676  1.00  0.00     0.211 HD
ENDBRANCH  26  31
BRANCH  28  33
ATOM     33  O   UNL     1       1.883  -9.550  -6.235  1.00  0.00    -0.387 OA
ATOM     34  H   UNL     1       1.645  -8.853  -5.571  1.00  0.00     0.211 HD
ENDBRANCH  28  33
BRANCH  29  35
ATOM     35  C   UNL     1      -1.878  -8.393  -4.290  1.00  0.00     0.191 C 
BRANCH  35  36
ATOM     36  O   UNL     1      -2.471  -7.141  -4.499  1.00  0.00    -0.394 OA
ATOM     37  H   UNL     1      -1.751  -6.548  -4.836  1.00  0.00     0.210 HD
ENDBRANCH  35  36
ENDBRANCH  29  35
BRANCH  30  38
ATOM     38  O   UNL     1      -1.201 -11.122  -5.207  1.00  0.00    -0.387 OA
ATOM     39  H   UNL     1      -0.967 -11.739  -4.466  1.00  0.00     0.211 HD
ENDBRANCH  30  38
ENDBRANCH   1  25
TORSDOF 11
ENDMDL
