MODEL 1
REMARK VINA RESULT:    -4.735      0.000      0.000
REMARK INTER + INTRA:          -6.364
REMARK INTER:                  -5.842
REMARK INTRA:                  -0.522
REMARK UNBOUND:                -0.522
REMARK SMILES CCCCCc1ccccc1
REMARK SMILES IDX 4 1 3 2 2 3 1 4 5 5 6 6 7 7 11 8 8 9 10 10 9 11
REMARK H PARENT
REMARK Flexibility Score: inf
ROOT
ATOM      1  C   UNL     1      -8.405 -16.645  -2.562  1.00  0.00     0.005 C 
ENDROOT
BRANCH   1   2
ATOM      2  C   UNL     1      -8.403 -18.059  -3.162  1.00  0.00     0.000 C 
BRANCH   2   3
ATOM      3  C   UNL     1      -7.874 -19.116  -2.180  1.00  0.00    -0.003 C 
ATOM      4  C   UNL     1      -6.443 -19.551  -2.495  1.00  0.00     0.004 C 
ENDBRANCH   2   3
ENDBRANCH   1   2
BRANCH   1   5
ATOM      5  C   UNL     1      -7.134 -15.882  -2.949  1.00  0.00     0.035 C 
BRANCH   5   6
ATOM      6  C   UNL     1      -6.386 -15.441  -1.720  1.00  0.00    -0.048 A 
ATOM      7  C   UNL     1      -4.990 -15.590  -1.646  1.00  0.00     0.004 A 
ATOM      8  C   UNL     1      -7.082 -14.930  -0.611  1.00  0.00     0.004 A 
ATOM      9  C   UNL     1      -4.301 -15.211  -0.491  1.00  0.00     0.000 A 
ATOM     10  C   UNL     1      -6.388 -14.552   0.543  1.00  0.00     0.000 A 
ATOM     11  C   UNL     1      -4.999 -14.690   0.602  1.00  0.00     0.000 A 
ENDBRANCH   5   6
ENDBRANCH   1   5
TORSDOF 4
ENDMDL
MODEL 2
REMARK VINA RESULT:    -4.708      2.100      4.887
REMARK INTER + INTRA:          -6.330
REMARK INTER:                  -5.912
REMARK INTRA:                  -0.418
REMARK UNBOUND:                -0.522
REMARK SMILES CCCCCc1ccccc1
REMARK SMILES IDX 4 1 3 2 2 3 1 4 5 5 6 6 7 7 11 8 8 9 10 10 9 11
REMARK H PARENT
REMARK Flexibility Score: inf
ROOT
ATOM      1  C   UNL     1      -6.232 -14.744   2.242  1.00  0.00     0.005 C 
ENDROOT
BRANCH   1   2
ATOM      2  C   UNL     1      -5.419 -15.245   3.445  1.00  0.00     0.000 C 
BRANCH   2   3
ATOM      3  C   UNL     1      -6.130 -16.373   4.209  1.00  0.00    -0.003 C 
ATOM      4  C   UNL     1      -7.366 -16.895   3.476  1.00  0.00     0.004 C 
ENDBRANCH   2   3
ENDBRANCH   1   2
BRANCH   1   5
ATOM      5  C   UNL     1      -5.312 -14.371   1.075  1.00  0.00     0.035 C 
BRANCH   5   6
ATOM      6  C   UNL     1      -5.772 -15.033  -0.196  1.00  0.00    -0.048 A 
ATOM      7  C   UNL     1      -7.139 -15.277  -0.414  1.00  0.00     0.004 A 
ATOM      8  C   UNL     1      -4.836 -15.466  -1.150  1.00  0.00     0.004 A 
ATOM      9  C   UNL     1      -7.562 -15.923  -1.579  1.00  0.00     0.000 A 
ATOM     10  C   UNL     1      -5.263 -16.111  -2.315  1.00  0.00     0.000 A 
ATOM     11  C   UNL     1      -6.625 -16.337  -2.530  1.00  0.00     0.000 A 
ENDBRANCH   5   6
ENDBRANCH   1   5
TORSDOF 4
ENDMDL
MODEL 3
REMARK VINA RESULT:    -4.613      1.773      3.101
REMARK INTER + INTRA:          -6.214
REMARK INTER:                  -5.678
REMARK INTRA:                  -0.536
REMARK UNBOUND:                -0.522
REMARK SMILES CCCCCc1ccccc1
REMARK SMILES IDX 4 1 3 2 2 3 1 4 5 5 6 6 7 7 11 8 8 9 10 10 9 11
REMARK H PARENT
REMARK Flexibility Score: inf
ROOT
ATOM      1  C   UNL     1      -7.672 -16.695  -1.509  1.00  0.00     0.005 C 
ENDROOT
BRANCH   1   2
ATOM      2  C   UNL     1      -7.555 -15.936  -2.839  1.00  0.00     0.000 C 
BRANCH   2   3
ATOM      3  C   UNL     1      -6.222 -15.184  -2.973  1.00  0.00    -0.003 C 
ATOM      4  C   UNL     1      -5.035 -15.984  -2.437  1.00  0.00     0.004 C 
ENDBRANCH   2   3
ENDBRANCH   1   2
BRANCH   1   5
ATOM      5  C   UNL     1      -8.401 -15.852  -0.457  1.00  0.00     0.035 C 
BRANCH   5   6
ATOM      6  C   UNL     1      -7.496 -15.560   0.709  1.00  0.00    -0.048 A 
ATOM      7  C   UNL     1      -7.719 -16.175   1.952  1.00  0.00     0.004 A 
ATOM      8  C   UNL     1      -6.455 -14.625   0.581  1.00  0.00     0.004 A 
ATOM      9  C   UNL     1      -6.898 -15.877   3.043  1.00  0.00     0.000 A 
ATOM     10  C   UNL     1      -5.635 -14.331   1.674  1.00  0.00     0.000 A 
ATOM     11  C   UNL     1      -5.855 -14.957   2.904  1.00  0.00     0.000 A 
ENDBRANCH   5   6
ENDBRANCH   1   5
TORSDOF 4
ENDMDL
MODEL 4
REMARK VINA RESULT:    -4.537      2.017      4.718
REMARK INTER + INTRA:          -6.120
REMARK INTER:                  -5.671
REMARK INTRA:                  -0.449
REMARK UNBOUND:                -0.522
REMARK SMILES CCCCCc1ccccc1
REMARK SMILES IDX 4 1 3 2 2 3 1 4 5 5 6 6 7 7 11 8 8 9 10 10 9 11
REMARK H PARENT
REMARK Flexibility Score: inf
ROOT
ATOM      1  C   UNL     1      -6.603 -14.860   1.958  1.00  0.00     0.005 C 
ENDROOT
BRANCH   1   2
ATOM      2  C   UNL     1      -5.659 -15.111   3.143  1.00  0.00     0.000 C 
BRANCH   2   3
ATOM      3  C   UNL     1      -6.100 -16.303   4.007  1.00  0.00    -0.003 C 
ATOM      4  C   UNL     1      -7.420 -16.916   3.539  1.00  0.00     0.004 C 
ENDBRANCH   2   3
ENDBRANCH   1   2
BRANCH   1   5
ATOM      5  C   UNL     1      -5.816 -14.687   0.655  1.00  0.00     0.035 C 
BRANCH   5   6
ATOM      6  C   UNL     1      -6.565 -15.291  -0.502  1.00  0.00    -0.048 A 
ATOM      7  C   UNL     1      -6.176 -15.014  -1.823  1.00  0.00     0.004 A 
ATOM      8  C   UNL     1      -7.696 -16.093  -0.272  1.00  0.00     0.004 A 
ATOM      9  C   UNL     1      -6.894 -15.549  -2.896  1.00  0.00     0.000 A 
ATOM     10  C   UNL     1      -8.411 -16.627  -1.348  1.00  0.00     0.000 A 
ATOM     11  C   UNL     1      -8.009 -16.357  -2.659  1.00  0.00     0.000 A 
ENDBRANCH   5   6
ENDBRANCH   1   5
TORSDOF 4
ENDMDL
MODEL 5
REMARK VINA RESULT:    -4.492      1.878      3.332
REMARK INTER + INTRA:          -6.063
REMARK INTER:                  -5.593
REMARK INTRA:                  -0.471
REMARK UNBOUND:                -0.522
REMARK SMILES CCCCCc1ccccc1
REMARK SMILES IDX 4 1 3 2 2 3 1 4 5 5 6 6 7 7 11 8 8 9 10 10 9 11
REMARK H PARENT
REMARK Flexibility Score: inf
ROOT
ATOM      1  C   UNL     1      -6.357 -20.267  -2.152  1.00  0.00     0.005 C 
ENDROOT
BRANCH   1   2
ATOM      2  C   UNL     1      -6.407 -21.301  -3.287  1.00  0.00     0.000 C 
BRANCH   2   3
ATOM      3  C   UNL     1      -5.010 -21.785  -3.706  1.00  0.00    -0.003 C 
ATOM      4  C   UNL     1      -3.885 -21.006  -3.025  1.00  0.00     0.004 C 
ENDBRANCH   2   3
ENDBRANCH   1   2
BRANCH   1   5
ATOM      5  C   UNL     1      -7.491 -19.246  -2.289  1.00  0.00     0.035 C 
BRANCH   5   6
ATOM      6  C   UNL     1      -6.936 -17.858  -2.460  1.00  0.00    -0.048 A 
ATOM      7  C   UNL     1      -5.589 -17.591  -2.166  1.00  0.00     0.004 A 
ATOM      8  C   UNL     1      -7.775 -16.804  -2.861  1.00  0.00     0.004 A 
ATOM      9  C   UNL     1      -5.083 -16.294  -2.294  1.00  0.00     0.000 A 
ATOM     10  C   UNL     1      -7.265 -15.508  -2.988  1.00  0.00     0.000 A 
ATOM     11  C   UNL     1      -5.920 -15.253  -2.707  1.00  0.00     0.000 A 
ENDBRANCH   5   6
ENDBRANCH   1   5
TORSDOF 4
ENDMDL
MODEL 6
REMARK VINA RESULT:    -4.414      2.993      4.817
REMARK INTER + INTRA:          -5.968
REMARK INTER:                  -5.672
REMARK INTRA:                  -0.297
REMARK UNBOUND:                -0.522
REMARK SMILES CCCCCc1ccccc1
REMARK SMILES IDX 4 1 3 2 2 3 1 4 5 5 6 6 7 7 11 8 8 9 10 10 9 11
REMARK H PARENT
REMARK Flexibility Score: inf
ROOT
ATOM      1  C   UNL     1      -5.553 -14.571   0.678  1.00  0.00     0.005 C 
ENDROOT
BRANCH   1   2
ATOM      2  C   UNL     1      -6.647 -14.653  -0.396  1.00  0.00     0.000 C 
BRANCH   2   3
ATOM      3  C   UNL     1      -6.305 -15.653  -1.512  1.00  0.00    -0.003 C 
ATOM      4  C   UNL     1      -6.351 -15.024  -2.904  1.00  0.00     0.004 C 
ENDBRANCH   2   3
ENDBRANCH   1   2
BRANCH   1   5
ATOM      5  C   UNL     1      -6.121 -14.049   2.002  1.00  0.00     0.035 C 
BRANCH   5   6
ATOM      6  C   UNL     1      -6.156 -15.145   3.033  1.00  0.00    -0.048 A 
ATOM      7  C   UNL     1      -5.119 -15.269   3.972  1.00  0.00     0.004 A 
ATOM      8  C   UNL     1      -7.196 -16.089   3.028  1.00  0.00     0.004 A 
ATOM      9  C   UNL     1      -5.135 -16.308   4.907  1.00  0.00     0.000 A 
ATOM     10  C   UNL     1      -7.210 -17.127   3.966  1.00  0.00     0.000 A 
ATOM     11  C   UNL     1      -6.181 -17.234   4.906  1.00  0.00     0.000 A 
ENDBRANCH   5   6
ENDBRANCH   1   5
TORSDOF 4
ENDMDL
MODEL 7
REMARK VINA RESULT:    -4.411      1.351      2.231
REMARK INTER + INTRA:          -5.964
REMARK INTER:                  -5.536
REMARK INTRA:                  -0.428
REMARK UNBOUND:                -0.522
REMARK SMILES CCCCCc1ccccc1
REMARK SMILES IDX 4 1 3 2 2 3 1 4 5 5 6 6 7 7 11 8 8 9 10 10 9 11
REMARK H PARENT
REMARK Flexibility Score: inf
ROOT
ATOM      1  C   UNL     1      -5.176 -15.881  -2.249  1.00  0.00     0.005 C 
ENDROOT
BRANCH   1   2
ATOM      2  C   UNL     1      -5.389 -17.400  -2.194  1.00  0.00     0.000 C 
BRANCH   2   3
ATOM      3  C   UNL     1      -6.856 -17.799  -2.419  1.00  0.00    -0.003 C 
ATOM      4  C   UNL     1      -7.058 -19.313  -2.461  1.00  0.00     0.004 C 
ENDBRANCH   2   3
ENDBRANCH   1   2
BRANCH   1   5
ATOM      5  C   UNL     1      -6.446 -15.131  -1.835  1.00  0.00     0.035 C 
BRANCH   5   6
ATOM      6  C   UNL     1      -6.564 -15.077  -0.335  1.00  0.00    -0.048 A 
ATOM      7  C   UNL     1      -5.482 -14.636   0.446  1.00  0.00     0.004 A 
ATOM      8  C   UNL     1      -7.736 -15.520   0.301  1.00  0.00     0.004 A 
ATOM      9  C   UNL     1      -5.581 -14.618   1.840  1.00  0.00     0.000 A 
ATOM     10  C   UNL     1      -7.831 -15.499   1.696  1.00  0.00     0.000 A 
ATOM     11  C   UNL     1      -6.756 -15.047   2.465  1.00  0.00     0.000 A 
ENDBRANCH   5   6
ENDBRANCH   1   5
TORSDOF 4
ENDMDL
MODEL 8
REMARK VINA RESULT:    -4.367      2.419      4.078
REMARK INTER + INTRA:          -5.910
REMARK INTER:                  -5.597
REMARK INTRA:                  -0.313
REMARK UNBOUND:                -0.522
REMARK SMILES CCCCCc1ccccc1
REMARK SMILES IDX 4 1 3 2 2 3 1 4 5 5 6 6 7 7 11 8 8 9 10 10 9 11
REMARK H PARENT
REMARK Flexibility Score: inf
ROOT
ATOM      1  C   UNL     1      -7.131 -15.669  -0.532  1.00  0.00     0.005 C 
ENDROOT
BRANCH   1   2
ATOM      2  C   UNL     1      -5.949 -15.302  -1.442  1.00  0.00     0.000 C 
BRANCH   2   3
ATOM      3  C   UNL     1      -6.384 -15.016  -2.888  1.00  0.00    -0.003 C 
ATOM      4  C   UNL     1      -7.592 -15.849  -3.317  1.00  0.00     0.004 C 
ENDBRANCH   2   3
ENDBRANCH   1   2
BRANCH   1   5
ATOM      5  C   UNL     1      -7.264 -14.672   0.625  1.00  0.00     0.035 C 
BRANCH   5   6
ATOM      6  C   UNL     1      -6.832 -15.303   1.921  1.00  0.00    -0.048 A 
ATOM      7  C   UNL     1      -7.594 -16.333   2.497  1.00  0.00     0.004 A 
ATOM      8  C   UNL     1      -5.695 -14.828   2.595  1.00  0.00     0.004 A 
ATOM      9  C   UNL     1      -7.209 -16.895   3.718  1.00  0.00     0.000 A 
ATOM     10  C   UNL     1      -5.313 -15.394   3.816  1.00  0.00     0.000 A 
ATOM     11  C   UNL     1      -6.068 -16.427   4.376  1.00  0.00     0.000 A 
ENDBRANCH   5   6
ENDBRANCH   1   5
TORSDOF 4
ENDMDL
MODEL 9
REMARK VINA RESULT:    -4.343      1.640      4.904
REMARK INTER + INTRA:          -5.880
REMARK INTER:                  -5.261
REMARK INTRA:                  -0.619
REMARK UNBOUND:                -0.522
REMARK SMILES CCCCCc1ccccc1
REMARK SMILES IDX 4 1 3 2 2 3 1 4 5 5 6 6 7 7 11 8 8 9 10 10 9 11
REMARK H PARENT
REMARK Flexibility Score: inf
ROOT
ATOM      1  C   UNL     1      -6.479 -14.927   1.582  1.00  0.00     0.005 C 
ENDROOT
BRANCH   1   2
ATOM      2  C   UNL     1      -6.699 -13.580   2.286  1.00  0.00     0.000 C 
BRANCH   2   3
ATOM      3  C   UNL     1      -7.735 -12.701   1.568  1.00  0.00    -0.003 C 
ATOM      4  C   UNL     1      -9.089 -13.392   1.411  1.00  0.00     0.004 C 
ENDBRANCH   2   3
ENDBRANCH   1   2
BRANCH   1   5
ATOM      5  C   UNL     1      -5.755 -14.736   0.244  1.00  0.00     0.035 C 
BRANCH   5   6
ATOM      6  C   UNL     1      -6.557 -15.331  -0.882  1.00  0.00    -0.048 A 
ATOM      7  C   UNL     1      -6.291 -14.968  -2.212  1.00  0.00     0.004 A 
ATOM      8  C   UNL     1      -7.618 -16.212  -0.608  1.00  0.00     0.004 A 
ATOM      9  C   UNL     1      -7.059 -15.496  -3.254  1.00  0.00     0.000 A 
ATOM     10  C   UNL     1      -8.383 -16.738  -1.654  1.00  0.00     0.000 A 
ATOM     11  C   UNL     1      -8.102 -16.383  -2.975  1.00  0.00     0.000 A 
ENDBRANCH   5   6
ENDBRANCH   1   5
TORSDOF 4
ENDMDL
