MODEL 1
REMARK VINA RESULT:    -4.112      0.000      0.000
REMARK INTER + INTRA:          -6.028
REMARK INTER:                  -5.554
REMARK INTRA:                  -0.474
REMARK UNBOUND:                -0.474
REMARK SMILES [NH3+]CCCC[C@@H]([NH3+])C(=O)[O-]
REMARK SMILES IDX 4 1 3 2 2 3 1 4 5 8 6 9 7 10 8 14 9 15 10 16
REMARK H PARENT 1 5 1 6 1 7 7 11 7 12 7 13
REMARK Flexibility Score: inf
ROOT
ATOM      1  C   UNL     1     -34.872  85.167 -18.566  1.00  0.00     0.012 C 
ENDROOT
BRANCH   1   2
ATOM      2  C   UNL     1     -35.851  84.718 -17.470  1.00  0.00     0.061 C 
BRANCH   2   3
ATOM      3  C   UNL     1     -36.850  83.686 -18.012  1.00  0.00     0.258 C 
BRANCH   3   4
ATOM      4  N   UNL     1     -36.686  82.397 -17.341  1.00  0.00    -0.358 N 
ATOM      5  H   UNL     1     -35.807  82.416 -16.774  1.00  0.00     0.344 HD
ATOM      6  H   UNL     1     -36.615  81.630 -18.047  1.00  0.00     0.344 HD
ATOM      7  H   UNL     1     -37.496  82.218 -16.703  1.00  0.00     0.344 HD
ENDBRANCH   3   4
ENDBRANCH   2   3
ENDBRANCH   1   2
BRANCH   1   8
ATOM      8  C   UNL     1     -34.597  84.054 -19.601  1.00  0.00     0.072 C 
BRANCH   8   9
ATOM      9  C   UNL     1     -33.206  83.385 -19.489  1.00  0.00     0.227 C 
BRANCH   9  10
ATOM     10  N   UNL     1     -32.298  84.135 -18.611  1.00  0.00    -0.350 N 
ATOM     11  H   UNL     1     -32.826  84.893 -18.120  1.00  0.00     0.345 HD
ATOM     12  H   UNL     1     -31.547  84.581 -19.185  1.00  0.00     0.345 HD
ATOM     13  H   UNL     1     -31.851  83.509 -17.903  1.00  0.00     0.345 HD
ENDBRANCH   9  10
BRANCH   9  14
ATOM     14  C   UNL     1     -33.319  81.943 -19.061  1.00  0.00     0.099 C 
ATOM     15  O   UNL     1     -32.290  81.314 -18.697  1.00  0.00    -0.544 OA
ATOM     16  O   UNL     1     -34.542  81.281 -19.100  1.00  0.00    -0.544 OA
ENDBRANCH   9  14
ENDBRANCH   8   9
ENDBRANCH   1   8
TORSDOF 7
ENDMDL
MODEL 2
REMARK VINA RESULT:    -3.976     12.563     13.551
REMARK INTER + INTRA:          -5.844
REMARK INTER:                  -5.769
REMARK INTRA:                  -0.075
REMARK UNBOUND:                -0.474
REMARK SMILES [NH3+]CCCC[C@@H]([NH3+])C(=O)[O-]
REMARK SMILES IDX 4 1 3 2 2 3 1 4 5 8 6 9 7 10 8 14 9 15 10 16
REMARK H PARENT 1 5 1 6 1 7 7 11 7 12 7 13
REMARK Flexibility Score: inf
ROOT
ATOM      1  C   UNL     1     -21.427  83.475 -21.962  1.00  0.00     0.012 C 
ENDROOT
BRANCH   1   2
ATOM      2  C   UNL     1     -22.229  84.024 -20.772  1.00  0.00     0.061 C 
BRANCH   2   3
ATOM      3  C   UNL     1     -22.595  82.903 -19.789  1.00  0.00     0.258 C 
BRANCH   3   4
ATOM      4  N   UNL     1     -21.520  82.683 -18.823  1.00  0.00    -0.358 N 
ATOM      5  H   UNL     1     -20.976  83.569 -18.709  1.00  0.00     0.344 HD
ATOM      6  H   UNL     1     -20.876  81.934 -19.165  1.00  0.00     0.344 HD
ATOM      7  H   UNL     1     -21.921  82.410 -17.896  1.00  0.00     0.344 HD
ENDBRANCH   3   4
ENDBRANCH   2   3
ENDBRANCH   1   2
BRANCH   1   8
ATOM      8  C   UNL     1     -21.543  84.374 -23.213  1.00  0.00     0.072 C 
BRANCH   8   9
ATOM      9  C   UNL     1     -21.825  85.869 -22.922  1.00  0.00     0.227 C 
BRANCH   9  10
ATOM     10  N   UNL     1     -20.618  86.588 -22.493  1.00  0.00    -0.350 N 
ATOM     11  H   UNL     1     -20.201  86.114 -21.658  1.00  0.00     0.345 HD
ATOM     12  H   UNL     1     -20.873  87.564 -22.219  1.00  0.00     0.345 HD
ATOM     13  H   UNL     1     -19.908  86.630 -23.259  1.00  0.00     0.345 HD
ENDBRANCH   9  10
BRANCH   9  14
ATOM     14  C   UNL     1     -22.481  86.546 -24.099  1.00  0.00     0.099 C 
ATOM     15  O   UNL     1     -21.983  87.603 -24.572  1.00  0.00    -0.544 OA
ATOM     16  O   UNL     1     -23.656  86.044 -24.648  1.00  0.00    -0.544 OA
ENDBRANCH   9  14
ENDBRANCH   8   9
ENDBRANCH   1   8
TORSDOF 7
ENDMDL
MODEL 3
REMARK VINA RESULT:    -3.888      2.119      4.221
REMARK INTER + INTRA:          -5.726
REMARK INTER:                  -5.229
REMARK INTRA:                  -0.497
REMARK UNBOUND:                -0.474
REMARK SMILES [NH3+]CCCC[C@@H]([NH3+])C(=O)[O-]
REMARK SMILES IDX 4 1 3 2 2 3 1 4 5 8 6 9 7 10 8 14 9 15 10 16
REMARK H PARENT 1 5 1 6 1 7 7 11 7 12 7 13
REMARK Flexibility Score: inf
ROOT
ATOM      1  C   UNL     1     -34.194  81.477 -19.476  1.00  0.00     0.012 C 
ENDROOT
BRANCH   1   2
ATOM      2  C   UNL     1     -32.778  81.657 -18.908  1.00  0.00     0.061 C 
BRANCH   2   3
ATOM      3  C   UNL     1     -32.077  82.866 -19.544  1.00  0.00     0.258 C 
BRANCH   3   4
ATOM      4  N   UNL     1     -32.235  84.059 -18.714  1.00  0.00    -0.358 N 
ATOM      5  H   UNL     1     -32.998  84.654 -19.112  1.00  0.00     0.344 HD
ATOM      6  H   UNL     1     -31.347  84.610 -18.703  1.00  0.00     0.344 HD
ATOM      7  H   UNL     1     -32.494  83.785 -17.738  1.00  0.00     0.344 HD
ENDBRANCH   3   4
ENDBRANCH   2   3
ENDBRANCH   1   2
BRANCH   1   8
ATOM      8  C   UNL     1     -35.290  81.808 -18.439  1.00  0.00     0.072 C 
BRANCH   8   9
ATOM      9  C   UNL     1     -36.238  82.966 -18.835  1.00  0.00     0.227 C 
BRANCH   9  10
ATOM     10  N   UNL     1     -37.401  83.061 -17.943  1.00  0.00    -0.350 N 
ATOM     11  H   UNL     1     -37.107  83.454 -17.018  1.00  0.00     0.345 HD
ATOM     12  H   UNL     1     -37.795  82.107 -17.780  1.00  0.00     0.345 HD
ATOM     13  H   UNL     1     -38.148  83.666 -18.355  1.00  0.00     0.345 HD
ENDBRANCH   9  10
BRANCH   9  14
ATOM     14  C   UNL     1     -35.501  84.279 -18.921  1.00  0.00     0.099 C 
ATOM     15  O   UNL     1     -35.162  84.735 -20.046  1.00  0.00    -0.544 OA
ATOM     16  O   UNL     1     -35.152  84.978 -17.771  1.00  0.00    -0.544 OA
ENDBRANCH   9  14
ENDBRANCH   8   9
ENDBRANCH   1   8
TORSDOF 7
ENDMDL
MODEL 4
REMARK VINA RESULT:    -3.846     11.994     13.186
REMARK INTER + INTRA:          -5.668
REMARK INTER:                  -5.137
REMARK INTRA:                  -0.531
REMARK UNBOUND:                -0.474
REMARK SMILES [NH3+]CCCC[C@@H]([NH3+])C(=O)[O-]
REMARK SMILES IDX 4 1 3 2 2 3 1 4 5 8 6 9 7 10 8 14 9 15 10 16
REMARK H PARENT 1 5 1 6 1 7 7 11 7 12 7 13
REMARK Flexibility Score: inf
ROOT
ATOM      1  C   UNL     1     -21.764  83.660 -23.445  1.00  0.00     0.012 C 
ENDROOT
BRANCH   1   2
ATOM      2  C   UNL     1     -22.675  84.896 -23.503  1.00  0.00     0.061 C 
BRANCH   2   3
ATOM      3  C   UNL     1     -21.850  86.189 -23.563  1.00  0.00     0.258 C 
BRANCH   3   4
ATOM      4  N   UNL     1     -20.852  86.222 -22.495  1.00  0.00    -0.358 N 
ATOM      5  H   UNL     1     -20.540  87.210 -22.349  1.00  0.00     0.344 HD
ATOM      6  H   UNL     1     -20.022  85.642 -22.760  1.00  0.00     0.344 HD
ATOM      7  H   UNL     1     -21.266  85.861 -21.605  1.00  0.00     0.344 HD
ENDBRANCH   3   4
ENDBRANCH   2   3
ENDBRANCH   1   2
BRANCH   1   8
ATOM      8  C   UNL     1     -22.125  82.717 -22.277  1.00  0.00     0.072 C 
BRANCH   8   9
ATOM      9  C   UNL     1     -22.947  83.369 -21.139  1.00  0.00     0.227 C 
BRANCH   9  10
ATOM     10  N   UNL     1     -24.039  82.503 -20.676  1.00  0.00    -0.350 N 
ATOM     11  H   UNL     1     -23.909  82.280 -19.661  1.00  0.00     0.345 HD
ATOM     12  H   UNL     1     -24.023  81.605 -21.210  1.00  0.00     0.345 HD
ATOM     13  H   UNL     1     -24.970  82.958 -20.815  1.00  0.00     0.345 HD
ENDBRANCH   9  10
BRANCH   9  14
ATOM     14  C   UNL     1     -22.062  83.799 -19.995  1.00  0.00     0.099 C 
ATOM     15  O   UNL     1     -21.860  85.025 -19.785  1.00  0.00    -0.544 OA
ATOM     16  O   UNL     1     -21.431  82.858 -19.189  1.00  0.00    -0.544 OA
ENDBRANCH   9  14
ENDBRANCH   8   9
ENDBRANCH   1   8
TORSDOF 7
ENDMDL
MODEL 5
REMARK VINA RESULT:    -3.837      2.120      3.003
REMARK INTER + INTRA:          -5.657
REMARK INTER:                  -5.490
REMARK INTRA:                  -0.167
REMARK UNBOUND:                -0.474
REMARK SMILES [NH3+]CCCC[C@@H]([NH3+])C(=O)[O-]
REMARK SMILES IDX 4 1 3 2 2 3 1 4 5 8 6 9 7 10 8 14 9 15 10 16
REMARK H PARENT 1 5 1 6 1 7 7 11 7 12 7 13
REMARK Flexibility Score: inf
ROOT
ATOM      1  C   UNL     1     -36.775  83.711 -18.076  1.00  0.00     0.012 C 
ENDROOT
BRANCH   1   2
ATOM      2  C   UNL     1     -35.914  84.757 -17.351  1.00  0.00     0.061 C 
BRANCH   2   3
ATOM      3  C   UNL     1     -34.858  85.352 -18.293  1.00  0.00     0.258 C 
BRANCH   3   4
ATOM      4  N   UNL     1     -33.550  85.411 -17.642  1.00  0.00    -0.358 N 
ATOM      5  H   UNL     1     -33.460  86.323 -17.138  1.00  0.00     0.344 HD
ATOM      6  H   UNL     1     -32.789  85.344 -18.356  1.00  0.00     0.344 HD
ATOM      7  H   UNL     1     -33.458  84.631 -16.951  1.00  0.00     0.344 HD
ENDBRANCH   3   4
ENDBRANCH   2   3
ENDBRANCH   1   2
BRANCH   1   8
ATOM      8  C   UNL     1     -36.297  82.267 -17.805  1.00  0.00     0.072 C 
BRANCH   8   9
ATOM      9  C   UNL     1     -35.257  81.722 -18.814  1.00  0.00     0.227 C 
BRANCH   9  10
ATOM     10  N   UNL     1     -34.049  81.217 -18.147  1.00  0.00    -0.350 N 
ATOM     11  H   UNL     1     -34.262  80.312 -17.667  1.00  0.00     0.345 HD
ATOM     12  H   UNL     1     -33.737  81.904 -17.424  1.00  0.00     0.345 HD
ATOM     13  H   UNL     1     -33.270  81.072 -18.830  1.00  0.00     0.345 HD
ENDBRANCH   9  10
BRANCH   9  14
ATOM     14  C   UNL     1     -35.861  80.680 -19.722  1.00  0.00     0.099 C 
ATOM     15  O   UNL     1     -35.130  80.061 -20.540  1.00  0.00    -0.544 OA
ATOM     16  O   UNL     1     -37.227  80.418 -19.698  1.00  0.00    -0.544 OA
ENDBRANCH   9  14
ENDBRANCH   8   9
ENDBRANCH   1   8
TORSDOF 7
ENDMDL
MODEL 6
REMARK VINA RESULT:    -3.770     12.231     13.191
REMARK INTER + INTRA:          -5.566
REMARK INTER:                  -5.447
REMARK INTRA:                  -0.119
REMARK UNBOUND:                -0.474
REMARK SMILES [NH3+]CCCC[C@@H]([NH3+])C(=O)[O-]
REMARK SMILES IDX 4 1 3 2 2 3 1 4 5 8 6 9 7 10 8 14 9 15 10 16
REMARK H PARENT 1 5 1 6 1 7 7 11 7 12 7 13
REMARK Flexibility Score: inf
ROOT
ATOM      1  C   UNL     1     -21.963  84.616 -22.519  1.00  0.00     0.012 C 
ENDROOT
BRANCH   1   2
ATOM      2  C   UNL     1     -21.506  86.030 -22.910  1.00  0.00     0.061 C 
BRANCH   2   3
ATOM      3  C   UNL     1     -22.408  86.620 -24.003  1.00  0.00     0.258 C 
BRANCH   3   4
ATOM      4  N   UNL     1     -21.743  87.729 -24.686  1.00  0.00    -0.358 N 
ATOM      5  H   UNL     1     -21.177  88.268 -23.992  1.00  0.00     0.344 HD
ATOM      6  H   UNL     1     -22.454  88.368 -25.111  1.00  0.00     0.344 HD
ATOM      7  H   UNL     1     -21.107  87.362 -25.431  1.00  0.00     0.344 HD
ENDBRANCH   3   4
ENDBRANCH   2   3
ENDBRANCH   1   2
BRANCH   1   8
ATOM      8  C   UNL     1     -22.079  84.438 -20.989  1.00  0.00     0.072 C 
BRANCH   8   9
ATOM      9  C   UNL     1     -21.701  83.032 -20.463  1.00  0.00     0.227 C 
BRANCH   9  10
ATOM     10  N   UNL     1     -21.615  82.992 -18.997  1.00  0.00    -0.350 N 
ATOM     11  H   UNL     1     -20.915  83.694 -18.663  1.00  0.00     0.345 HD
ATOM     12  H   UNL     1     -21.296  82.045 -18.692  1.00  0.00     0.345 HD
ATOM     13  H   UNL     1     -22.542  83.191 -18.556  1.00  0.00     0.345 HD
ENDBRANCH   9  10
BRANCH   9  14
ATOM     14  C   UNL     1     -22.639  81.975 -20.989  1.00  0.00     0.099 C 
ATOM     15  O   UNL     1     -23.883  82.110 -20.839  1.00  0.00    -0.544 OA
ATOM     16  O   UNL     1     -22.149  80.828 -21.605  1.00  0.00    -0.544 OA
ENDBRANCH   9  14
ENDBRANCH   8   9
ENDBRANCH   1   8
TORSDOF 7
ENDMDL
MODEL 7
REMARK VINA RESULT:    -3.759      1.635      2.667
REMARK INTER + INTRA:          -5.551
REMARK INTER:                  -5.095
REMARK INTRA:                  -0.457
REMARK UNBOUND:                -0.474
REMARK SMILES [NH3+]CCCC[C@@H]([NH3+])C(=O)[O-]
REMARK SMILES IDX 4 1 3 2 2 3 1 4 5 8 6 9 7 10 8 14 9 15 10 16
REMARK H PARENT 1 5 1 6 1 7 7 11 7 12 7 13
REMARK Flexibility Score: inf
ROOT
ATOM      1  C   UNL     1     -36.740  83.509 -18.108  1.00  0.00     0.012 C 
ENDROOT
BRANCH   1   2
ATOM      2  C   UNL     1     -36.010  84.654 -17.389  1.00  0.00     0.061 C 
BRANCH   2   3
ATOM      3  C   UNL     1     -34.997  85.334 -18.321  1.00  0.00     0.258 C 
BRANCH   3   4
ATOM      4  N   UNL     1     -33.694  85.467 -17.669  1.00  0.00    -0.358 N 
ATOM      5  H   UNL     1     -33.152  84.583 -17.806  1.00  0.00     0.344 HD
ATOM      6  H   UNL     1     -33.820  85.630 -16.644  1.00  0.00     0.344 HD
ATOM      7  H   UNL     1     -33.160  86.261 -18.092  1.00  0.00     0.344 HD
ENDBRANCH   3   4
ENDBRANCH   2   3
ENDBRANCH   1   2
BRANCH   1   8
ATOM      8  C   UNL     1     -36.037  82.148 -17.910  1.00  0.00     0.072 C 
BRANCH   8   9
ATOM      9  C   UNL     1     -35.270  81.621 -19.148  1.00  0.00     0.227 C 
BRANCH   9  10
ATOM     10  N   UNL     1     -35.659  82.320 -20.380  1.00  0.00    -0.350 N 
ATOM     11  H   UNL     1     -35.005  83.117 -20.557  1.00  0.00     0.345 HD
ATOM     12  H   UNL     1     -36.623  82.708 -20.272  1.00  0.00     0.345 HD
ATOM     13  H   UNL     1     -35.648  81.674 -21.202  1.00  0.00     0.345 HD
ENDBRANCH   9  10
BRANCH   9  14
ATOM     14  C   UNL     1     -33.777  81.670 -18.934  1.00  0.00     0.099 C 
ATOM     15  O   UNL     1     -33.184  80.681 -18.426  1.00  0.00    -0.544 OA
ATOM     16  O   UNL     1     -33.047  82.809 -19.255  1.00  0.00    -0.544 OA
ENDBRANCH   9  14
ENDBRANCH   8   9
ENDBRANCH   1   8
TORSDOF 7
ENDMDL
MODEL 8
REMARK VINA RESULT:    -3.729     12.276     13.093
REMARK INTER + INTRA:          -5.511
REMARK INTER:                  -5.260
REMARK INTRA:                  -0.250
REMARK UNBOUND:                -0.474
REMARK SMILES [NH3+]CCCC[C@@H]([NH3+])C(=O)[O-]
REMARK SMILES IDX 4 1 3 2 2 3 1 4 5 8 6 9 7 10 8 14 9 15 10 16
REMARK H PARENT 1 5 1 6 1 7 7 11 7 12 7 13
REMARK Flexibility Score: inf
ROOT
ATOM      1  C   UNL     1     -22.383  84.385 -21.839  1.00  0.00     0.012 C 
ENDROOT
BRANCH   1   2
ATOM      2  C   UNL     1     -22.141  84.444 -20.323  1.00  0.00     0.061 C 
BRANCH   2   3
ATOM      3  C   UNL     1     -22.535  83.123 -19.649  1.00  0.00     0.258 C 
BRANCH   3   4
ATOM      4  N   UNL     1     -21.444  82.614 -18.819  1.00  0.00    -0.358 N 
ATOM      5  H   UNL     1     -21.638  82.847 -17.818  1.00  0.00     0.344 HD
ATOM      6  H   UNL     1     -20.540  83.058 -19.100  1.00  0.00     0.344 HD
ATOM      7  H   UNL     1     -21.373  81.574 -18.916  1.00  0.00     0.344 HD
ENDBRANCH   3   4
ENDBRANCH   2   3
ENDBRANCH   1   2
BRANCH   1   8
ATOM      8  C   UNL     1     -21.287  83.587 -22.579  1.00  0.00     0.072 C 
BRANCH   8   9
ATOM      9  C   UNL     1     -21.805  82.421 -23.455  1.00  0.00     0.227 C 
BRANCH   9  10
ATOM     10  N   UNL     1     -20.796  81.959 -24.418  1.00  0.00    -0.350 N 
ATOM     11  H   UNL     1     -19.982  82.617 -24.420  1.00  0.00     0.345 HD
ATOM     12  H   UNL     1     -21.209  81.950 -25.378  1.00  0.00     0.345 HD
ATOM     13  H   UNL     1     -20.463  80.995 -24.187  1.00  0.00     0.345 HD
ENDBRANCH   9  10
BRANCH   9  14
ATOM     14  C   UNL     1     -22.322  81.283 -22.611  1.00  0.00     0.099 C 
ATOM     15  O   UNL     1     -23.560  81.051 -22.561  1.00  0.00    -0.544 OA
ATOM     16  O   UNL     1     -21.454  80.506 -21.852  1.00  0.00    -0.544 OA
ENDBRANCH   9  14
ENDBRANCH   8   9
ENDBRANCH   1   8
TORSDOF 7
ENDMDL
MODEL 9
REMARK VINA RESULT:    -3.651      2.643      4.230
REMARK INTER + INTRA:          -5.406
REMARK INTER:                  -5.206
REMARK INTRA:                  -0.200
REMARK UNBOUND:                -0.474
REMARK SMILES [NH3+]CCCC[C@@H]([NH3+])C(=O)[O-]
REMARK SMILES IDX 4 1 3 2 2 3 1 4 5 8 6 9 7 10 8 14 9 15 10 16
REMARK H PARENT 1 5 1 6 1 7 7 11 7 12 7 13
REMARK Flexibility Score: inf
ROOT
ATOM      1  C   UNL     1     -33.888  82.013 -19.320  1.00  0.00     0.012 C 
ENDROOT
BRANCH   1   2
ATOM      2  C   UNL     1     -32.432  81.656 -18.984  1.00  0.00     0.061 C 
BRANCH   2   3
ATOM      3  C   UNL     1     -31.529  82.895 -19.054  1.00  0.00     0.258 C 
BRANCH   3   4
ATOM      4  N   UNL     1     -32.259  84.097 -18.651  1.00  0.00    -0.358 N 
ATOM      5  H   UNL     1     -31.662  84.656 -17.999  1.00  0.00     0.344 HD
ATOM      6  H   UNL     1     -33.143  83.833 -18.159  1.00  0.00     0.344 HD
ATOM      7  H   UNL     1     -32.481  84.680 -19.490  1.00  0.00     0.344 HD
ENDBRANCH   3   4
ENDBRANCH   2   3
ENDBRANCH   1   2
BRANCH   1   8
ATOM      8  C   UNL     1     -34.891  81.396 -18.320  1.00  0.00     0.072 C 
BRANCH   8   9
ATOM      9  C   UNL     1     -36.066  82.319 -17.917  1.00  0.00     0.227 C 
BRANCH   9  10
ATOM     10  N   UNL     1     -35.611  83.661 -17.528  1.00  0.00    -0.350 N 
ATOM     11  H   UNL     1     -35.411  84.229 -18.384  1.00  0.00     0.345 HD
ATOM     12  H   UNL     1     -34.727  83.582 -16.976  1.00  0.00     0.345 HD
ATOM     13  H   UNL     1     -36.327  84.151 -16.946  1.00  0.00     0.345 HD
ENDBRANCH   9  10
BRANCH   9  14
ATOM     14  C   UNL     1     -37.113  82.385 -19.001  1.00  0.00     0.099 C 
ATOM     15  O   UNL     1     -37.425  83.498 -19.504  1.00  0.00    -0.544 OA
ATOM     16  O   UNL     1     -37.770  81.237 -19.429  1.00  0.00    -0.544 OA
ENDBRANCH   9  14
ENDBRANCH   8   9
ENDBRANCH   1   8
TORSDOF 7
ENDMDL
