MODEL 1
REMARK VINA RESULT:    -5.909      0.000      0.000
REMARK INTER + INTRA:          -6.463
REMARK INTER:                  -6.427
REMARK INTRA:                  -0.036
REMARK UNBOUND:                -0.036
REMARK SMILES O=C([O-])c1ccc(O)cc1
REMARK SMILES IDX 4 1 5 2 10 3 6 4 9 5 7 6 2 7 1 8 3 9 8 10
REMARK H PARENT 8 11
REMARK Flexibility Score: inf
ROOT
ATOM      1  C   UNL     1      13.045 -12.138  28.903  1.00  0.00    -0.003 A 
ATOM      2  C   UNL     1      14.057 -12.295  29.866  1.00  0.00     0.014 A 
ATOM      3  C   UNL     1      12.945 -13.074  27.859  1.00  0.00     0.014 A 
ATOM      4  C   UNL     1      14.951 -13.368  29.786  1.00  0.00     0.047 A 
ATOM      5  C   UNL     1      13.840 -14.147  27.782  1.00  0.00     0.047 A 
ATOM      6  C   UNL     1      14.845 -14.296  28.745  1.00  0.00     0.115 A 
ENDROOT
BRANCH   1   7
ATOM      7  C   UNL     1      12.097 -11.004  28.982  1.00  0.00     0.071 C 
ATOM      8  O   UNL     1      11.107 -10.941  28.203  1.00  0.00    -0.545 OA
ATOM      9  O   UNL     1      12.284  -9.992  29.916  1.00  0.00    -0.545 OA
ENDBRANCH   1   7
BRANCH   6  10
ATOM     10  O   UNL     1      15.742 -15.360  28.679  1.00  0.00    -0.508 OA
ATOM     11  H   UNL     1      16.365 -15.478  27.889  1.00  0.00     0.293 HD
ENDBRANCH   6  10
TORSDOF 2
ENDMDL
MODEL 2
REMARK VINA RESULT:    -5.901      1.622      4.054
REMARK INTER + INTRA:          -6.454
REMARK INTER:                  -6.418
REMARK INTRA:                  -0.036
REMARK UNBOUND:                -0.036
REMARK SMILES O=C([O-])c1ccc(O)cc1
REMARK SMILES IDX 4 1 5 2 10 3 6 4 9 5 7 6 2 7 1 8 3 9 8 10
REMARK H PARENT 8 11
REMARK Flexibility Score: inf
ROOT
ATOM      1  C   UNL     1      12.997 -12.406  28.666  1.00  0.00    -0.003 A 
ATOM      2  C   UNL     1      13.792 -12.140  29.795  1.00  0.00     0.014 A 
ATOM      3  C   UNL     1      11.973 -11.505  28.325  1.00  0.00     0.014 A 
ATOM      4  C   UNL     1      13.566 -10.995  30.566  1.00  0.00     0.047 A 
ATOM      5  C   UNL     1      11.750 -10.361  29.097  1.00  0.00     0.047 A 
ATOM      6  C   UNL     1      12.546 -10.103  30.220  1.00  0.00     0.115 A 
ENDROOT
BRANCH   1   7
ATOM      7  C   UNL     1      13.231 -13.616  27.846  1.00  0.00     0.071 C 
ATOM      8  O   UNL     1      12.518 -13.851  26.834  1.00  0.00    -0.545 OA
ATOM      9  O   UNL     1      14.240 -14.511  28.182  1.00  0.00    -0.545 OA
ENDBRANCH   1   7
BRANCH   6  10
ATOM     10  O   UNL     1      12.333  -8.967  30.997  1.00  0.00    -0.508 OA
ATOM     11  H   UNL     1      13.077  -8.304  31.180  1.00  0.00     0.293 HD
ENDBRANCH   6  10
TORSDOF 2
ENDMDL
MODEL 3
REMARK VINA RESULT:    -5.888      1.349      4.504
REMARK INTER + INTRA:          -6.441
REMARK INTER:                  -6.414
REMARK INTRA:                  -0.027
REMARK UNBOUND:                -0.036
REMARK SMILES O=C([O-])c1ccc(O)cc1
REMARK SMILES IDX 4 1 5 2 10 3 6 4 9 5 7 6 2 7 1 8 3 9 8 10
REMARK H PARENT 8 11
REMARK Flexibility Score: inf
ROOT
ATOM      1  C   UNL     1      13.553 -13.545  28.037  1.00  0.00    -0.003 A 
ATOM      2  C   UNL     1      12.440 -13.571  27.178  1.00  0.00     0.014 A 
ATOM      3  C   UNL     1      13.493 -12.768  29.208  1.00  0.00     0.014 A 
ATOM      4  C   UNL     1      11.290 -12.837  27.486  1.00  0.00     0.047 A 
ATOM      5  C   UNL     1      12.341 -12.035  29.513  1.00  0.00     0.047 A 
ATOM      6  C   UNL     1      11.237 -12.068  28.652  1.00  0.00     0.115 A 
ENDROOT
BRANCH   1   7
ATOM      7  C   UNL     1      14.773 -14.319  27.717  1.00  0.00     0.071 C 
ATOM      8  O   UNL     1      15.626 -13.865  26.907  1.00  0.00    -0.545 OA
ATOM      9  O   UNL     1      14.995 -15.559  28.304  1.00  0.00    -0.545 OA
ENDBRANCH   1   7
BRANCH   6  10
ATOM     10  O   UNL     1      10.085 -11.342  28.946  1.00  0.00    -0.508 OA
ATOM     11  H   UNL     1       9.201 -11.547  28.494  1.00  0.00     0.293 HD
ENDBRANCH   6  10
TORSDOF 2
ENDMDL
MODEL 4
REMARK VINA RESULT:    -5.869      0.069      1.533
REMARK INTER + INTRA:          -6.419
REMARK INTER:                  -6.383
REMARK INTRA:                  -0.036
REMARK UNBOUND:                -0.036
REMARK SMILES O=C([O-])c1ccc(O)cc1
REMARK SMILES IDX 4 1 5 2 10 3 6 4 9 5 7 6 2 7 1 8 3 9 8 10
REMARK H PARENT 8 11
REMARK Flexibility Score: inf
ROOT
ATOM      1  C   UNL     1      13.098 -12.119  28.925  1.00  0.00    -0.003 A 
ATOM      2  C   UNL     1      12.984 -13.045  27.873  1.00  0.00     0.014 A 
ATOM      3  C   UNL     1      14.114 -12.296  29.881  1.00  0.00     0.014 A 
ATOM      4  C   UNL     1      13.868 -14.125  27.780  1.00  0.00     0.047 A 
ATOM      5  C   UNL     1      14.997 -13.376  29.786  1.00  0.00     0.047 A 
ATOM      6  C   UNL     1      14.876 -14.294  28.735  1.00  0.00     0.115 A 
ENDROOT
BRANCH   1   7
ATOM      7  C   UNL     1      12.166 -10.976  29.030  1.00  0.00     0.071 C 
ATOM      8  O   UNL     1      11.176 -10.883  28.254  1.00  0.00    -0.545 OA
ATOM      9  O   UNL     1      12.368  -9.986  29.984  1.00  0.00    -0.545 OA
ENDBRANCH   1   7
BRANCH   6  10
ATOM     10  O   UNL     1      15.750 -15.373  28.629  1.00  0.00    -0.508 OA
ATOM     11  H   UNL     1      16.658 -15.365  29.078  1.00  0.00     0.293 HD
ENDBRANCH   6  10
TORSDOF 2
ENDMDL
MODEL 5
REMARK VINA RESULT:    -5.857     11.451     12.461
REMARK INTER + INTRA:          -6.406
REMARK INTER:                  -6.380
REMARK INTRA:                  -0.027
REMARK UNBOUND:                -0.036
REMARK SMILES O=C([O-])c1ccc(O)cc1
REMARK SMILES IDX 4 1 5 2 10 3 6 4 9 5 7 6 2 7 1 8 3 9 8 10
REMARK H PARENT 8 11
REMARK Flexibility Score: inf
ROOT
ATOM      1  C   UNL     1      16.637  -0.706  26.065  1.00  0.00    -0.003 A 
ATOM      2  C   UNL     1      17.862  -0.648  25.377  1.00  0.00     0.014 A 
ATOM      3  C   UNL     1      16.473  -1.657  27.088  1.00  0.00     0.014 A 
ATOM      4  C   UNL     1      18.902  -1.524  25.707  1.00  0.00     0.047 A 
ATOM      5  C   UNL     1      17.515  -2.531  27.416  1.00  0.00     0.047 A 
ATOM      6  C   UNL     1      18.732  -2.467  26.725  1.00  0.00     0.115 A 
ENDROOT
BRANCH   1   7
ATOM      7  C   UNL     1      15.533   0.217  25.721  1.00  0.00     0.071 C 
ATOM      8  O   UNL     1      14.627  -0.139  24.919  1.00  0.00    -0.545 OA
ATOM      9  O   UNL     1      15.479   1.490  26.276  1.00  0.00    -0.545 OA
ENDBRANCH   1   7
BRANCH   6  10
ATOM     10  O   UNL     1      19.777  -3.331  27.043  1.00  0.00    -0.508 OA
ATOM     11  H   UNL     1      20.619  -3.372  26.482  1.00  0.00     0.293 HD
ENDBRANCH   6  10
TORSDOF 2
ENDMDL
MODEL 6
REMARK VINA RESULT:    -5.855     11.452     12.445
REMARK INTER + INTRA:          -6.404
REMARK INTER:                  -6.377
REMARK INTRA:                  -0.027
REMARK UNBOUND:                -0.036
REMARK SMILES O=C([O-])c1ccc(O)cc1
REMARK SMILES IDX 4 1 5 2 10 3 6 4 9 5 7 6 2 7 1 8 3 9 8 10
REMARK H PARENT 8 11
REMARK Flexibility Score: inf
ROOT
ATOM      1  C   UNL     1      16.630  -0.707  26.073  1.00  0.00    -0.003 A 
ATOM      2  C   UNL     1      16.479  -1.664  27.093  1.00  0.00     0.014 A 
ATOM      3  C   UNL     1      17.851  -0.635  25.381  1.00  0.00     0.014 A 
ATOM      4  C   UNL     1      17.530  -2.530  27.412  1.00  0.00     0.047 A 
ATOM      5  C   UNL     1      18.900  -1.504  25.701  1.00  0.00     0.047 A 
ATOM      6  C   UNL     1      18.741  -2.453  26.718  1.00  0.00     0.115 A 
ENDROOT
BRANCH   1   7
ATOM      7  C   UNL     1      15.522   0.213  25.731  1.00  0.00     0.071 C 
ATOM      8  O   UNL     1      14.608  -0.151  24.944  1.00  0.00    -0.545 OA
ATOM      9  O   UNL     1      15.476   1.492  26.273  1.00  0.00    -0.545 OA
ENDBRANCH   1   7
BRANCH   6  10
ATOM     10  O   UNL     1      19.778  -3.323  27.047  1.00  0.00    -0.508 OA
ATOM     11  H   UNL     1      19.644  -4.082  27.705  1.00  0.00     0.293 HD
ENDBRANCH   6  10
TORSDOF 2
ENDMDL
MODEL 7
REMARK VINA RESULT:    -5.846     11.122     12.867
REMARK INTER + INTRA:          -6.394
REMARK INTER:                  -6.364
REMARK INTRA:                  -0.030
REMARK UNBOUND:                -0.036
REMARK SMILES O=C([O-])c1ccc(O)cc1
REMARK SMILES IDX 4 1 5 2 10 3 6 4 9 5 7 6 2 7 1 8 3 9 8 10
REMARK H PARENT 8 11
REMARK Flexibility Score: inf
ROOT
ATOM      1  C   UNL     1      17.243  -1.694  27.027  1.00  0.00    -0.003 A 
ATOM      2  C   UNL     1      17.357  -0.777  25.966  1.00  0.00     0.014 A 
ATOM      3  C   UNL     1      16.217  -1.519  27.971  1.00  0.00     0.014 A 
ATOM      4  C   UNL     1      16.461   0.291  25.854  1.00  0.00     0.047 A 
ATOM      5  C   UNL     1      15.321  -0.451  27.856  1.00  0.00     0.047 A 
ATOM      6  C   UNL     1      15.442   0.457  26.797  1.00  0.00     0.115 A 
ENDROOT
BRANCH   1   7
ATOM      7  C   UNL     1      18.189  -2.825  27.151  1.00  0.00     0.071 C 
ATOM      8  O   UNL     1      17.763  -4.003  27.296  1.00  0.00    -0.545 OA
ATOM      9  O   UNL     1      19.561  -2.605  27.112  1.00  0.00    -0.545 OA
ENDBRANCH   1   7
BRANCH   6  10
ATOM     10  O   UNL     1      14.556   1.525  26.671  1.00  0.00    -0.508 OA
ATOM     11  H   UNL     1      14.885   2.482  26.621  1.00  0.00     0.293 HD
ENDBRANCH   6  10
TORSDOF 2
ENDMDL
MODEL 8
REMARK VINA RESULT:    -5.843     10.996     12.536
REMARK INTER + INTRA:          -6.391
REMARK INTER:                  -6.355
REMARK INTRA:                  -0.036
REMARK UNBOUND:                -0.036
REMARK SMILES O=C([O-])c1ccc(O)cc1
REMARK SMILES IDX 4 1 5 2 10 3 6 4 9 5 7 6 2 7 1 8 3 9 8 10
REMARK H PARENT 8 11
REMARK Flexibility Score: inf
ROOT
ATOM      1  C   UNL     1      17.529  -1.978  26.833  1.00  0.00    -0.003 A 
ATOM      2  C   UNL     1      16.184  -2.222  27.162  1.00  0.00     0.014 A 
ATOM      3  C   UNL     1      17.829  -0.982  25.886  1.00  0.00     0.014 A 
ATOM      4  C   UNL     1      15.161  -1.484  26.557  1.00  0.00     0.047 A 
ATOM      5  C   UNL     1      16.804  -0.246  25.283  1.00  0.00     0.047 A 
ATOM      6  C   UNL     1      15.467  -0.496  25.617  1.00  0.00     0.115 A 
ENDROOT
BRANCH   1   7
ATOM      7  C   UNL     1      18.616  -2.755  27.469  1.00  0.00     0.071 C 
ATOM      8  O   UNL     1      19.804  -2.647  27.062  1.00  0.00    -0.545 OA
ATOM      9  O   UNL     1      18.342  -3.617  28.524  1.00  0.00    -0.545 OA
ENDBRANCH   1   7
BRANCH   6  10
ATOM     10  O   UNL     1      14.438   0.231  25.023  1.00  0.00    -0.508 OA
ATOM     11  H   UNL     1      14.108   0.015  24.090  1.00  0.00     0.293 HD
ENDBRANCH   6  10
TORSDOF 2
ENDMDL
MODEL 9
REMARK VINA RESULT:    -5.573      2.030      2.879
REMARK INTER + INTRA:          -6.097
REMARK INTER:                  -6.062
REMARK INTRA:                  -0.036
REMARK UNBOUND:                -0.036
REMARK SMILES O=C([O-])c1ccc(O)cc1
REMARK SMILES IDX 4 1 5 2 10 3 6 4 9 5 7 6 2 7 1 8 3 9 8 10
REMARK H PARENT 8 11
REMARK Flexibility Score: inf
ROOT
ATOM      1  C   UNL     1      12.502 -11.250  29.419  1.00  0.00    -0.003 A 
ATOM      2  C   UNL     1      11.387 -11.214  28.563  1.00  0.00     0.014 A 
ATOM      3  C   UNL     1      13.446 -12.281  29.266  1.00  0.00     0.014 A 
ATOM      4  C   UNL     1      11.222 -12.189  27.574  1.00  0.00     0.047 A 
ATOM      5  C   UNL     1      13.278 -13.254  28.276  1.00  0.00     0.047 A 
ATOM      6  C   UNL     1      12.165 -13.211  27.427  1.00  0.00     0.115 A 
ENDROOT
BRANCH   1   7
ATOM      7  C   UNL     1      12.682 -10.222  30.468  1.00  0.00     0.071 C 
ATOM      8  O   UNL     1      11.968  -9.183  30.476  1.00  0.00    -0.545 OA
ATOM      9  O   UNL     1      13.643 -10.386  31.458  1.00  0.00    -0.545 OA
ENDBRANCH   1   7
BRANCH   6  10
ATOM     10  O   UNL     1      11.988 -14.174  26.438  1.00  0.00    -0.508 OA
ATOM     11  H   UNL     1      12.759 -14.741  26.106  1.00  0.00     0.293 HD
ENDBRANCH   6  10
TORSDOF 2
ENDMDL
