MODEL 1
REMARK VINA RESULT:    -4.201      0.000      0.000
REMARK INTER + INTRA:          -4.435
REMARK INTER:                  -5.183
REMARK INTRA:                   0.748
REMARK UNBOUND:                 0.748
REMARK SMILES CC1=CC=CC(C)(C)CC1=O
REMARK SMILES IDX 1 1 2 2 3 3 10 4 11 5 9 6 4 8 5 9 6 10 7 11 8 12
REMARK H PARENT
REMARK Flexibility Score: 80.00
ROOT
ATOM      1  C   UNL     1     -13.310 -18.101  32.057  1.00  0.00     0.048 C 
ATOM      2  C   UNL     1     -13.086 -17.640  30.637  1.00  0.00    -0.008 C 
ATOM      3  C   UNL     1     -13.256 -16.327  30.370  1.00  0.00     0.007 C 
ENDROOT
BRANCH   2   4
ATOM      4  C   UNL     1     -12.619 -18.657  29.662  1.00  0.00     0.159 C 
ATOM      5  O   UNL     1     -12.257 -19.787  30.089  1.00  0.00    -0.295 OA
BRANCH   4   6
ATOM      6  C   UNL     1     -12.566 -18.422  28.184  1.00  0.00     0.091 CG0
ATOM      7  G   UNL     1     -11.667 -17.228  27.788  1.00  0.00     0.000 G0
ENDBRANCH   4   6
ENDBRANCH   2   4
BRANCH   3   8
ATOM      8  C   UNL     1     -13.086 -15.583  29.099  1.00  0.00    -0.003 C 
ATOM      9  C   UNL     1     -12.413 -15.939  27.997  1.00  0.00    -0.020 C 
BRANCH   9  10
ATOM     10  C   UNL     1     -11.673 -17.237  27.777  1.00  0.00    -0.010 CG0
ATOM     11  C   UNL     1     -10.324 -17.210  28.532  1.00  0.00     0.016 C 
ATOM     12  C   UNL     1     -11.372 -17.375  26.267  1.00  0.00     0.016 C 
ATOM     13  G   UNL     1     -12.567 -18.425  28.200  1.00  0.00     0.000 G0
ENDBRANCH   9  10
ENDBRANCH   3   8
TORSDOF 0
ENDMDL
MODEL 2
REMARK VINA RESULT:    -4.114      2.073      3.430
REMARK INTER + INTRA:          -4.328
REMARK INTER:                  -5.072
REMARK INTRA:                   0.744
REMARK UNBOUND:                 0.748
REMARK SMILES CC1=CC=CC(C)(C)CC1=O
REMARK SMILES IDX 1 1 2 2 3 3 10 4 11 5 9 6 4 8 5 9 6 10 7 11 8 12
REMARK H PARENT
REMARK Flexibility Score: 80.00
ROOT
ATOM      1  C   UNL     1     -14.001 -20.242  28.283  1.00  0.00     0.048 C 
ATOM      2  C   UNL     1     -13.313 -19.416  29.343  1.00  0.00    -0.008 C 
ATOM      3  C   UNL     1     -12.876 -20.056  30.450  1.00  0.00     0.007 C 
ENDROOT
BRANCH   2   4
ATOM      4  C   UNL     1     -13.104 -17.977  29.049  1.00  0.00     0.159 C 
ATOM      5  O   UNL     1     -13.310 -17.560  27.876  1.00  0.00    -0.295 OA
BRANCH   4   6
ATOM      6  C   UNL     1     -12.669 -16.977  30.076  1.00  0.00     0.091 CG0
ATOM      7  G   UNL     1     -11.308 -17.320  30.722  1.00  0.00     0.000 G0
ENDBRANCH   4   6
ENDBRANCH   2   4
BRANCH   3   8
ATOM      8  C   UNL     1     -12.154 -19.528  31.632  1.00  0.00    -0.003 C 
ATOM      9  C   UNL     1     -11.473 -18.382  31.762  1.00  0.00    -0.020 C 
BRANCH   9  10
ATOM     10  C   UNL     1     -11.303 -17.314  30.708  1.00  0.00    -0.010 CG0
ATOM     11  C   UNL     1     -10.248 -17.760  29.670  1.00  0.00     0.016 C 
ATOM     12  C   UNL     1     -10.782 -16.032  31.396  1.00  0.00     0.016 C 
ATOM     13  G   UNL     1     -12.672 -16.993  30.066  1.00  0.00     0.000 G0
ENDBRANCH   9  10
ENDBRANCH   3   8
TORSDOF 0
ENDMDL
MODEL 3
REMARK VINA RESULT:    -4.086      2.132      3.688
REMARK INTER + INTRA:          -4.293
REMARK INTER:                  -5.047
REMARK INTRA:                   0.754
REMARK UNBOUND:                 0.748
REMARK SMILES CC1=CC=CC(C)(C)CC1=O
REMARK SMILES IDX 1 1 2 2 3 3 10 4 11 5 9 6 4 8 5 9 6 10 7 11 8 12
REMARK H PARENT
REMARK Flexibility Score: 80.00
ROOT
ATOM      1  C   UNL     1     -13.061 -15.366  28.267  1.00  0.00     0.048 C 
ATOM      2  C   UNL     1     -13.154 -16.749  28.864  1.00  0.00    -0.008 C 
ATOM      3  C   UNL     1     -13.376 -17.782  28.022  1.00  0.00     0.007 C 
ENDROOT
BRANCH   2   4
ATOM      4  C   UNL     1     -12.917 -16.872  30.324  1.00  0.00     0.159 C 
ATOM      5  O   UNL     1     -12.449 -15.881  30.950  1.00  0.00    -0.295 OA
BRANCH   4   6
ATOM      6  C   UNL     1     -13.215 -18.113  31.109  1.00  0.00     0.091 CG0
ATOM      7  G   UNL     1     -12.430 -19.349  30.617  1.00  0.00     0.000 G0
ENDBRANCH   4   6
ENDBRANCH   2   4
BRANCH   3   8
ATOM      8  C   UNL     1     -13.488 -19.233  28.303  1.00  0.00    -0.003 C 
ATOM      9  C   UNL     1     -13.085 -19.917  29.382  1.00  0.00    -0.020 C 
BRANCH   9  10
ATOM     10  C   UNL     1     -12.425 -19.344  30.614  1.00  0.00    -0.010 CG0
ATOM     11  C   UNL     1     -10.942 -19.025  30.319  1.00  0.00     0.016 C 
ATOM     12  C   UNL     1     -12.471 -20.412  31.730  1.00  0.00     0.016 C 
ATOM     13  G   UNL     1     -13.215 -18.107  31.099  1.00  0.00     0.000 G0
ENDBRANCH   9  10
ENDBRANCH   3   8
TORSDOF 0
ENDMDL
MODEL 4
REMARK VINA RESULT:    -4.036      1.786      3.213
REMARK INTER + INTRA:          -4.231
REMARK INTER:                  -4.981
REMARK INTRA:                   0.749
REMARK UNBOUND:                 0.748
REMARK SMILES CC1=CC=CC(C)(C)CC1=O
REMARK SMILES IDX 1 1 2 2 3 3 10 4 11 5 9 6 4 8 5 9 6 10 7 11 8 12
REMARK H PARENT
REMARK Flexibility Score: 80.00
ROOT
ATOM      1  C   UNL     1     -13.764 -15.932  26.762  1.00  0.00     0.048 C 
ATOM      2  C   UNL     1     -12.896 -16.304  27.940  1.00  0.00    -0.008 C 
ATOM      3  C   UNL     1     -13.299 -15.905  29.165  1.00  0.00     0.007 C 
ENDROOT
BRANCH   2   4
ATOM      4  C   UNL     1     -11.706 -17.146  27.663  1.00  0.00     0.159 C 
ATOM      5  O   UNL     1     -11.587 -17.675  26.524  1.00  0.00    -0.295 OA
BRANCH   4   6
ATOM      6  C   UNL     1     -10.620 -17.397  28.664  1.00  0.00     0.091 CG0
ATOM      7  G   UNL     1     -11.127 -18.079  29.955  1.00  0.00     0.000 G0
ENDBRANCH   4   6
ENDBRANCH   2   4
BRANCH   3   8
ATOM      8  C   UNL     1     -12.682 -16.137  30.493  1.00  0.00    -0.003 C 
ATOM      9  C   UNL     1     -11.777 -17.056  30.854  1.00  0.00    -0.020 C 
BRANCH   9  10
ATOM     10  C   UNL     1     -11.135 -18.084  29.954  1.00  0.00    -0.010 CG0
ATOM     11  C   UNL     1     -12.128 -19.236  29.674  1.00  0.00     0.016 C 
ATOM     12  C   UNL     1      -9.912 -18.678  30.691  1.00  0.00     0.016 C 
ATOM     13  G   UNL     1     -10.633 -17.404  28.661  1.00  0.00     0.000 G0
ENDBRANCH   9  10
ENDBRANCH   3   8
TORSDOF 0
ENDMDL
MODEL 5
REMARK VINA RESULT:    -4.019      1.687      3.344
REMARK INTER + INTRA:          -4.211
REMARK INTER:                  -4.960
REMARK INTRA:                   0.750
REMARK UNBOUND:                 0.748
REMARK SMILES CC1=CC=CC(C)(C)CC1=O
REMARK SMILES IDX 1 1 2 2 3 3 10 4 11 5 9 6 4 8 5 9 6 10 7 11 8 12
REMARK H PARENT
REMARK Flexibility Score: 80.00
ROOT
ATOM      1  C   UNL     1     -13.516 -16.439  26.720  1.00  0.00     0.048 C 
ATOM      2  C   UNL     1     -12.658 -16.797  27.910  1.00  0.00    -0.008 C 
ATOM      3  C   UNL     1     -11.736 -15.895  28.312  1.00  0.00     0.007 C 
ENDROOT
BRANCH   2   4
ATOM      4  C   UNL     1     -12.950 -18.082  28.592  1.00  0.00     0.159 C 
ATOM      5  O   UNL     1     -14.002 -18.708  28.285  1.00  0.00    -0.295 OA
BRANCH   4   6
ATOM      6  C   UNL     1     -12.053 -18.693  29.624  1.00  0.00     0.091 CG0
ATOM      7  G   UNL     1     -11.833 -17.785  30.855  1.00  0.00     0.000 G0
ENDBRANCH   4   6
ENDBRANCH   2   4
BRANCH   3   8
ATOM      8  C   UNL     1     -10.781 -15.949  29.444  1.00  0.00    -0.003 C 
ATOM      9  C   UNL     1     -10.808 -16.727  30.534  1.00  0.00    -0.020 C 
BRANCH   9  10
ATOM     10  C   UNL     1     -11.838 -17.783  30.858  1.00  0.00    -0.010 CG0
ATOM     11  C   UNL     1     -13.138 -17.116  31.362  1.00  0.00     0.016 C 
ATOM     12  C   UNL     1     -11.284 -18.668  31.998  1.00  0.00     0.016 C 
ATOM     13  G   UNL     1     -12.071 -18.680  29.622  1.00  0.00     0.000 G0
ENDBRANCH   9  10
ENDBRANCH   3   8
TORSDOF 0
ENDMDL
MODEL 6
REMARK VINA RESULT:    -4.009      2.010      3.340
REMARK INTER + INTRA:          -4.198
REMARK INTER:                  -4.953
REMARK INTRA:                   0.756
REMARK UNBOUND:                 0.748
REMARK SMILES CC1=CC=CC(C)(C)CC1=O
REMARK SMILES IDX 1 1 2 2 3 3 10 4 11 5 9 6 4 8 5 9 6 10 7 11 8 12
REMARK H PARENT
REMARK Flexibility Score: 80.00
ROOT
ATOM      1  C   UNL     1     -14.019 -20.072  28.622  1.00  0.00     0.048 C 
ATOM      2  C   UNL     1     -13.149 -19.012  29.254  1.00  0.00    -0.008 C 
ATOM      3  C   UNL     1     -13.057 -17.820  28.625  1.00  0.00     0.007 C 
ENDROOT
BRANCH   2   4
ATOM      4  C   UNL     1     -12.525 -19.340  30.560  1.00  0.00     0.159 C 
ATOM      5  O   UNL     1     -12.898 -20.381  31.168  1.00  0.00    -0.295 OA
BRANCH   4   6
ATOM      6  C   UNL     1     -11.459 -18.505  31.200  1.00  0.00     0.091 CG0
ATOM      7  G   UNL     1     -11.907 -17.052  31.477  1.00  0.00     0.000 G0
ENDBRANCH   4   6
ENDBRANCH   2   4
BRANCH   3   8
ATOM      8  C   UNL     1     -12.315 -16.596  29.009  1.00  0.00    -0.003 C 
ATOM      9  C   UNL     1     -11.829 -16.244  30.206  1.00  0.00    -0.020 C 
BRANCH   9  10
ATOM     10  C   UNL     1     -11.903 -17.055  31.478  1.00  0.00    -0.010 CG0
ATOM     11  C   UNL     1     -13.324 -16.966  32.079  1.00  0.00     0.016 C 
ATOM     12  C   UNL     1     -10.914 -16.447  32.499  1.00  0.00     0.016 C 
ATOM     13  G   UNL     1     -11.466 -18.510  31.194  1.00  0.00     0.000 G0
ENDBRANCH   9  10
ENDBRANCH   3   8
TORSDOF 0
ENDMDL
MODEL 7
REMARK VINA RESULT:    -3.987      2.301      3.669
REMARK INTER + INTRA:          -4.171
REMARK INTER:                  -4.926
REMARK INTRA:                   0.755
REMARK UNBOUND:                 0.748
REMARK SMILES CC1=CC=CC(C)(C)CC1=O
REMARK SMILES IDX 1 1 2 2 3 3 10 4 11 5 9 6 4 8 5 9 6 10 7 11 8 12
REMARK H PARENT
REMARK Flexibility Score: 80.00
ROOT
ATOM      1  C   UNL     1     -13.647 -14.754  28.299  1.00  0.00     0.048 C 
ATOM      2  C   UNL     1     -12.800 -15.830  28.936  1.00  0.00    -0.008 C 
ATOM      3  C   UNL     1     -11.758 -16.310  28.223  1.00  0.00     0.007 C 
ENDROOT
BRANCH   2   4
ATOM      4  C   UNL     1     -13.136 -16.219  30.327  1.00  0.00     0.159 C 
ATOM      5  O   UNL     1     -13.969 -15.522  30.970  1.00  0.00    -0.295 OA
BRANCH   4   6
ATOM      6  C   UNL     1     -12.549 -17.412  31.017  1.00  0.00     0.091 CG0
ATOM      7  G   UNL     1     -11.006 -17.366  31.106  1.00  0.00     0.000 G0
ENDBRANCH   4   6
ENDBRANCH   2   4
BRANCH   3   8
ATOM      8  C   UNL     1     -10.747 -17.332  28.585  1.00  0.00    -0.003 C 
ATOM      9  C   UNL     1     -10.406 -17.789  29.797  1.00  0.00    -0.020 C 
BRANCH   9  10
ATOM     10  C   UNL     1     -11.011 -17.373  31.116  1.00  0.00    -0.010 CG0
ATOM     11  C   UNL     1     -10.471 -15.986  31.532  1.00  0.00     0.016 C 
ATOM     12  C   UNL     1     -10.579 -18.395  32.192  1.00  0.00     0.016 C 
ATOM     13  G   UNL     1     -12.553 -17.405  31.015  1.00  0.00     0.000 G0
ENDBRANCH   9  10
ENDBRANCH   3   8
TORSDOF 0
ENDMDL
MODEL 8
REMARK VINA RESULT:    -3.835      2.333      3.706
REMARK INTER + INTRA:          -3.984
REMARK INTER:                  -4.736
REMARK INTRA:                   0.752
REMARK UNBOUND:                 0.748
REMARK SMILES CC1=CC=CC(C)(C)CC1=O
REMARK SMILES IDX 1 1 2 2 3 3 10 4 11 5 9 6 4 8 5 9 6 10 7 11 8 12
REMARK H PARENT
REMARK Flexibility Score: 80.00
ROOT
ATOM      1  C   UNL     1     -13.549 -15.284  28.250  1.00  0.00     0.048 C 
ATOM      2  C   UNL     1     -12.847 -15.829  29.471  1.00  0.00    -0.008 C 
ATOM      3  C   UNL     1     -13.566 -15.945  30.608  1.00  0.00     0.007 C 
ENDROOT
BRANCH   2   4
ATOM      4  C   UNL     1     -11.439 -16.267  29.301  1.00  0.00     0.159 C 
ATOM      5  O   UNL     1     -10.967 -16.359  28.134  1.00  0.00    -0.295 OA
BRANCH   4   6
ATOM      6  C   UNL     1     -10.532 -16.599  30.446  1.00  0.00     0.091 CG0
ATOM      7  G   UNL     1     -11.052 -17.765  31.317  1.00  0.00     0.000 G0
ENDBRANCH   4   6
ENDBRANCH   2   4
BRANCH   3   8
ATOM      8  C   UNL     1     -13.168 -16.464  31.938  1.00  0.00    -0.003 C 
ATOM      9  C   UNL     1     -12.125 -17.238  32.264  1.00  0.00    -0.020 C 
BRANCH   9  10
ATOM     10  C   UNL     1     -11.063 -17.756  31.324  1.00  0.00    -0.010 CG0
ATOM     11  C   UNL     1     -11.621 -18.934  30.493  1.00  0.00     0.016 C 
ATOM     12  C   UNL     1      -9.882 -18.286  32.169  1.00  0.00     0.016 C 
ATOM     13  G   UNL     1     -10.540 -16.600  30.441  1.00  0.00     0.000 G0
ENDBRANCH   9  10
ENDBRANCH   3   8
TORSDOF 0
ENDMDL
MODEL 9
REMARK VINA RESULT:    -3.815      1.788      2.734
REMARK INTER + INTRA:          -3.958
REMARK INTER:                  -4.717
REMARK INTRA:                   0.759
REMARK UNBOUND:                 0.748
REMARK SMILES CC1=CC=CC(C)(C)CC1=O
REMARK SMILES IDX 1 1 2 2 3 3 10 4 11 5 9 6 4 8 5 9 6 10 7 11 8 12
REMARK H PARENT
REMARK Flexibility Score: 80.00
ROOT
ATOM      1  C   UNL     1     -14.382 -16.822  32.698  1.00  0.00     0.048 C 
ATOM      2  C   UNL     1     -13.360 -17.188  31.648  1.00  0.00    -0.008 C 
ATOM      3  C   UNL     1     -12.742 -18.384  31.765  1.00  0.00     0.007 C 
ENDROOT
BRANCH   2   4
ATOM      4  C   UNL     1     -13.172 -16.235  30.526  1.00  0.00     0.159 C 
ATOM      5  O   UNL     1     -14.001 -15.294  30.383  1.00  0.00    -0.295 OA
BRANCH   4   6
ATOM      6  C   UNL     1     -12.038 -16.318  29.551  1.00  0.00     0.091 CG0
ATOM      7  G   UNL     1     -12.012 -17.644  28.758  1.00  0.00     0.000 G0
ENDBRANCH   4   6
ENDBRANCH   2   4
BRANCH   3   8
ATOM      8  C   UNL     1     -11.730 -19.022  30.890  1.00  0.00    -0.003 C 
ATOM      9  C   UNL     1     -11.416 -18.742  29.619  1.00  0.00    -0.020 C 
BRANCH   9  10
ATOM     10  C   UNL     1     -12.023 -17.656  28.763  1.00  0.00    -0.010 CG0
ATOM     11  C   UNL     1     -13.428 -18.085  28.282  1.00  0.00     0.016 C 
ATOM     12  C   UNL     1     -11.130 -17.464  27.516  1.00  0.00     0.016 C 
ATOM     13  G   UNL     1     -12.044 -16.325  29.548  1.00  0.00     0.000 G0
ENDBRANCH   9  10
ENDBRANCH   3   8
TORSDOF 0
ENDMDL
