MODEL 1
REMARK VINA RESULT:    -5.252      0.000      0.000
REMARK INTER + INTRA:          -6.737
REMARK INTER:                  -6.327
REMARK INTRA:                  -0.411
REMARK UNBOUND:                -0.411
REMARK SMILES O=c1ccn([C@@H]2O[C@H](CO)[C@@H](O)[C@H]2O)c(=O)[nH]1
REMARK SMILES IDX 6 1 13 2 11 3 8 4 7 5 5 6 3 7 4 8 2 9 17 10 1 11 15 12 16 14
REMARK SMILES IDX 14 15 12 17 9 19 10 20
REMARK H PARENT 17 13 14 16 12 18 10 21
REMARK Flexibility Score: inf
ROOT
ATOM      1  C   UNL     1      19.157   6.737  16.062  1.00  0.00     0.255 C 
ATOM      2  C   UNL     1      17.792   6.767  16.730  1.00  0.00     0.196 C 
ATOM      3  C   UNL     1      18.140   6.553  18.188  1.00  0.00     0.179 C 
ATOM      4  C   UNL     1      19.507   5.847  18.130  1.00  0.00     0.178 C 
ATOM      5  O   UNL     1      19.995   5.879  16.802  1.00  0.00    -0.347 OA
ENDROOT
BRANCH   1   6
ATOM      6  N   UNL     1      19.057   6.295  14.655  1.00  0.00    -0.271 N 
ATOM      7  C   UNL     1      17.938   4.960  13.006  1.00  0.00     0.090 A 
ATOM      8  C   UNL     1      18.060   5.422  14.313  1.00  0.00     0.099 A 
ATOM      9  C   UNL     1      18.855   5.395  12.056  1.00  0.00     0.253 A 
ATOM     10  N   UNL     1      19.848   6.248  12.417  1.00  0.00    -0.274 N 
ATOM     11  O   UNL     1      18.766   4.994  10.864  1.00  0.00    -0.269 OA
ATOM     12  C   UNL     1      19.962   6.693  13.699  1.00  0.00     0.330 A 
ATOM     13  H   UNL     1      20.539   6.565  11.699  1.00  0.00     0.175 HD
ATOM     14  O   UNL     1      20.910   7.471  13.995  1.00  0.00    -0.248 OA
ENDBRANCH   1   6
BRANCH   2  15
ATOM     15  O   UNL     1      17.147   7.992  16.500  1.00  0.00    -0.386 OA
ATOM     16  H   UNL     1      16.714   8.245  17.358  1.00  0.00     0.211 HD
ENDBRANCH   2  15
BRANCH   3  17
ATOM     17  O   UNL     1      18.222   7.767  18.900  1.00  0.00    -0.387 OA
ATOM     18  H   UNL     1      17.544   7.747  19.628  1.00  0.00     0.211 HD
ENDBRANCH   3  17
BRANCH   4  19
ATOM     19  C   UNL     1      19.411   4.392  18.600  1.00  0.00     0.191 C 
BRANCH  19  20
ATOM     20  O   UNL     1      18.136   4.147  19.125  1.00  0.00    -0.394 OA
ATOM     21  H   UNL     1      17.517   4.750  18.636  1.00  0.00     0.210 HD
ENDBRANCH  19  20
ENDBRANCH   4  19
TORSDOF 5
ENDMDL
MODEL 2
REMARK VINA RESULT:    -5.181     12.629     15.607
REMARK INTER + INTRA:          -6.652
REMARK INTER:                  -6.141
REMARK INTRA:                  -0.511
REMARK UNBOUND:                -0.411
REMARK SMILES O=c1ccn([C@@H]2O[C@H](CO)[C@@H](O)[C@H]2O)c(=O)[nH]1
REMARK SMILES IDX 6 1 13 2 11 3 8 4 7 5 5 6 3 7 4 8 2 9 17 10 1 11 15 12 16 14
REMARK SMILES IDX 14 15 12 17 9 19 10 20
REMARK H PARENT 17 13 14 16 12 18 10 21
REMARK Flexibility Score: inf
ROOT
ATOM      1  C   UNL     1      30.782   9.783   6.594  1.00  0.00     0.255 C 
ATOM      2  C   UNL     1      30.497   8.318   6.303  1.00  0.00     0.196 C 
ATOM      3  C   UNL     1      31.081   8.144   4.917  1.00  0.00     0.179 C 
ATOM      4  C   UNL     1      31.079   9.574   4.345  1.00  0.00     0.178 C 
ATOM      5  O   UNL     1      30.762  10.491   5.375  1.00  0.00    -0.347 OA
ENDROOT
BRANCH   1   6
ATOM      6  N   UNL     1      29.800  10.341   7.546  1.00  0.00    -0.271 N 
ATOM      7  C   UNL     1      27.716  11.476   7.906  1.00  0.00     0.090 A 
ATOM      8  C   UNL     1      28.662  10.918   7.051  1.00  0.00     0.099 A 
ATOM      9  C   UNL     1      27.956  11.446   9.275  1.00  0.00     0.253 A 
ATOM     10  N   UNL     1      29.098  10.884   9.749  1.00  0.00    -0.274 N 
ATOM     11  O   UNL     1      27.116  11.942  10.073  1.00  0.00    -0.269 OA
ATOM     12  C   UNL     1      30.019  10.342   8.905  1.00  0.00     0.330 A 
ATOM     13  H   UNL     1      29.275  10.872  10.780  1.00  0.00     0.175 HD
ATOM     14  O   UNL     1      31.075   9.848   9.386  1.00  0.00    -0.248 OA
ENDBRANCH   1   6
BRANCH   2  15
ATOM     15  O   UNL     1      31.107   7.488   7.256  1.00  0.00    -0.386 OA
ATOM     16  H   UNL     1      31.038   6.562   6.904  1.00  0.00     0.211 HD
ENDBRANCH   2  15
BRANCH   3  17
ATOM     17  O   UNL     1      32.386   7.610   4.951  1.00  0.00    -0.387 OA
ATOM     18  H   UNL     1      32.639   7.349   4.025  1.00  0.00     0.211 HD
ENDBRANCH   3  17
BRANCH   4  19
ATOM     19  C   UNL     1      30.067   9.724   3.204  1.00  0.00     0.191 C 
BRANCH  19  20
ATOM     20  O   UNL     1      30.072  11.044   2.737  1.00  0.00    -0.394 OA
ATOM     21  H   UNL     1      31.004  11.231   2.452  1.00  0.00     0.210 HD
ENDBRANCH  19  20
ENDBRANCH   4  19
TORSDOF 5
ENDMDL
MODEL 3
REMARK VINA RESULT:    -5.129      2.957      4.840
REMARK INTER + INTRA:          -6.589
REMARK INTER:                  -6.227
REMARK INTRA:                  -0.362
REMARK UNBOUND:                -0.411
REMARK SMILES O=c1ccn([C@@H]2O[C@H](CO)[C@@H](O)[C@H]2O)c(=O)[nH]1
REMARK SMILES IDX 6 1 13 2 11 3 8 4 7 5 5 6 3 7 4 8 2 9 17 10 1 11 15 12 16 14
REMARK SMILES IDX 14 15 12 17 9 19 10 20
REMARK H PARENT 17 13 14 16 12 18 10 21
REMARK Flexibility Score: inf
ROOT
ATOM      1  C   UNL     1      18.274   6.533  16.918  1.00  0.00     0.255 C 
ATOM      2  C   UNL     1      18.188   7.567  18.029  1.00  0.00     0.196 C 
ATOM      3  C   UNL     1      18.648   8.830  17.332  1.00  0.00     0.179 C 
ATOM      4  C   UNL     1      19.488   8.304  16.153  1.00  0.00     0.178 C 
ATOM      5  O   UNL     1      19.320   6.903  16.047  1.00  0.00    -0.347 OA
ENDROOT
BRANCH   1   6
ATOM      6  N   UNL     1      18.494   5.177  17.463  1.00  0.00    -0.271 N 
ATOM      7  C   UNL     1      19.517   3.782  19.125  1.00  0.00     0.090 A 
ATOM      8  C   UNL     1      19.264   5.040  18.586  1.00  0.00     0.099 A 
ATOM      9  C   UNL     1      18.981   2.666  18.494  1.00  0.00     0.253 A 
ATOM     10  N   UNL     1      18.233   2.819  17.371  1.00  0.00    -0.274 N 
ATOM     11  O   UNL     1      19.193   1.515  18.962  1.00  0.00    -0.269 OA
ATOM     12  C   UNL     1      17.992   4.053  16.849  1.00  0.00     0.330 A 
ATOM     13  H   UNL     1      17.840   1.974  16.897  1.00  0.00     0.175 HD
ATOM     14  O   UNL     1      17.307   4.149  15.794  1.00  0.00    -0.248 OA
ENDBRANCH   1   6
BRANCH   2  15
ATOM     15  O   UNL     1      16.877   7.667  18.522  1.00  0.00    -0.386 OA
ATOM     16  H   UNL     1      16.771   6.932  19.181  1.00  0.00     0.211 HD
ENDBRANCH   2  15
BRANCH   3  17
ATOM     17  O   UNL     1      17.567   9.614  16.878  1.00  0.00    -0.387 OA
ATOM     18  H   UNL     1      17.926  10.486  16.563  1.00  0.00     0.211 HD
ENDBRANCH   3  17
BRANCH   4  19
ATOM     19  C   UNL     1      20.975   8.623  16.333  1.00  0.00     0.191 C 
BRANCH  19  20
ATOM     20  O   UNL     1      21.377   9.564  15.377  1.00  0.00    -0.394 OA
ATOM     21  H   UNL     1      22.369   9.585  15.411  1.00  0.00     0.210 HD
ENDBRANCH  19  20
ENDBRANCH   4  19
TORSDOF 5
ENDMDL
MODEL 4
REMARK VINA RESULT:    -5.125      1.540      2.191
REMARK INTER + INTRA:          -6.585
REMARK INTER:                  -6.070
REMARK INTRA:                  -0.514
REMARK UNBOUND:                -0.411
REMARK SMILES O=c1ccn([C@@H]2O[C@H](CO)[C@@H](O)[C@H]2O)c(=O)[nH]1
REMARK SMILES IDX 6 1 13 2 11 3 8 4 7 5 5 6 3 7 4 8 2 9 17 10 1 11 15 12 16 14
REMARK SMILES IDX 14 15 12 17 9 19 10 20
REMARK H PARENT 17 13 14 16 12 18 10 21
REMARK Flexibility Score: inf
ROOT
ATOM      1  C   UNL     1      20.604   6.881  15.377  1.00  0.00     0.255 C 
ATOM      2  C   UNL     1      20.228   8.316  15.710  1.00  0.00     0.196 C 
ATOM      3  C   UNL     1      20.386   8.352  17.215  1.00  0.00     0.179 C 
ATOM      4  C   UNL     1      20.238   6.875  17.627  1.00  0.00     0.178 C 
ATOM      5  O   UNL     1      20.243   6.063  16.468  1.00  0.00    -0.347 OA
ENDROOT
BRANCH   1   6
ATOM      6  N   UNL     1      19.945   6.428  14.135  1.00  0.00    -0.271 N 
ATOM      7  C   UNL     1      18.176   5.186  13.094  1.00  0.00     0.090 A 
ATOM      8  C   UNL     1      18.820   5.654  14.235  1.00  0.00     0.099 A 
ATOM      9  C   UNL     1      18.703   5.511  11.849  1.00  0.00     0.253 A 
ATOM     10  N   UNL     1      19.830   6.265  11.769  1.00  0.00    -0.274 N 
ATOM     11  O   UNL     1      18.139   5.101  10.799  1.00  0.00    -0.269 OA
ATOM     12  C   UNL     1      20.455   6.718  12.891  1.00  0.00     0.330 A 
ATOM     13  H   UNL     1      20.225   6.499  10.829  1.00  0.00     0.175 HD
ATOM     14  O   UNL     1      21.509   7.400  12.771  1.00  0.00    -0.248 OA
ENDBRANCH   1   6
BRANCH   2  15
ATOM     15  O   UNL     1      21.075   9.223  15.054  1.00  0.00    -0.386 OA
ATOM     16  H   UNL     1      20.497   9.962  14.730  1.00  0.00     0.211 HD
ENDBRANCH   2  15
BRANCH   3  17
ATOM     17  O   UNL     1      21.638   8.868  17.608  1.00  0.00    -0.387 OA
ATOM     18  H   UNL     1      21.644   9.845  17.422  1.00  0.00     0.211 HD
ENDBRANCH   3  17
BRANCH   4  19
ATOM     19  C   UNL     1      18.942   6.635  18.408  1.00  0.00     0.191 C 
BRANCH  19  20
ATOM     20  O   UNL     1      18.391   7.861  18.800  1.00  0.00    -0.394 OA
ATOM     21  H   UNL     1      18.909   8.561  18.324  1.00  0.00     0.210 HD
ENDBRANCH  19  20
ENDBRANCH   4  19
TORSDOF 5
ENDMDL
MODEL 5
REMARK VINA RESULT:    -5.027     14.345     16.082
REMARK INTER + INTRA:          -6.466
REMARK INTER:                  -5.969
REMARK INTRA:                  -0.497
REMARK UNBOUND:                -0.411
REMARK SMILES O=c1ccn([C@@H]2O[C@H](CO)[C@@H](O)[C@H]2O)c(=O)[nH]1
REMARK SMILES IDX 6 1 13 2 11 3 8 4 7 5 5 6 3 7 4 8 2 9 17 10 1 11 15 12 16 14
REMARK SMILES IDX 14 15 12 17 9 19 10 20
REMARK H PARENT 17 13 14 16 12 18 10 21
REMARK Flexibility Score: inf
ROOT
ATOM      1  C   UNL     1      31.131   8.979   6.323  1.00  0.00     0.255 C 
ATOM      2  C   UNL     1      29.904   8.406   7.014  1.00  0.00     0.196 C 
ATOM      3  C   UNL     1      30.256   6.939   7.134  1.00  0.00     0.179 C 
ATOM      4  C   UNL     1      31.297   6.727   6.018  1.00  0.00     0.178 C 
ATOM      5  O   UNL     1      31.677   7.983   5.488  1.00  0.00    -0.347 OA
ENDROOT
BRANCH   1   6
ATOM      6  N   UNL     1      30.793  10.191   5.548  1.00  0.00    -0.271 N 
ATOM      7  C   UNL     1      30.217  11.175   3.437  1.00  0.00     0.090 A 
ATOM      8  C   UNL     1      30.520  10.061   4.213  1.00  0.00     0.099 A 
ATOM      9  C   UNL     1      30.206  12.427   4.042  1.00  0.00     0.253 A 
ATOM     10  N   UNL     1      30.496  12.540   5.364  1.00  0.00    -0.274 N 
ATOM     11  O   UNL     1      29.933  13.453   3.363  1.00  0.00    -0.269 OA
ATOM     12  C   UNL     1      30.794  11.444   6.116  1.00  0.00     0.330 A 
ATOM     13  H   UNL     1      30.494  13.486   5.810  1.00  0.00     0.175 HD
ATOM     14  O   UNL     1      31.074  11.597   7.336  1.00  0.00    -0.248 OA
ENDBRANCH   1   6
BRANCH   2  15
ATOM     15  O   UNL     1      29.697   9.018   8.260  1.00  0.00    -0.386 OA
ATOM     16  H   UNL     1      29.959   9.969   8.151  1.00  0.00     0.211 HD
ENDBRANCH   2  15
BRANCH   3  17
ATOM     17  O   UNL     1      30.791   6.619   8.398  1.00  0.00    -0.387 OA
ATOM     18  H   UNL     1      30.456   7.286   9.055  1.00  0.00     0.211 HD
ENDBRANCH   3  17
BRANCH   4  19
ATOM     19  C   UNL     1      30.746   5.847   4.892  1.00  0.00     0.191 C 
BRANCH  19  20
ATOM     20  O   UNL     1      31.791   5.444   4.051  1.00  0.00    -0.394 OA
ATOM     21  H   UNL     1      31.728   4.455   3.988  1.00  0.00     0.210 HD
ENDBRANCH  19  20
ENDBRANCH   4  19
TORSDOF 5
ENDMDL
MODEL 6
REMARK VINA RESULT:    -5.024     13.158     15.020
REMARK INTER + INTRA:          -6.463
REMARK INTER:                  -5.902
REMARK INTRA:                  -0.561
REMARK UNBOUND:                -0.411
REMARK SMILES O=c1ccn([C@@H]2O[C@H](CO)[C@@H](O)[C@H]2O)c(=O)[nH]1
REMARK SMILES IDX 6 1 13 2 11 3 8 4 7 5 5 6 3 7 4 8 2 9 17 10 1 11 15 12 16 14
REMARK SMILES IDX 14 15 12 17 9 19 10 20
REMARK H PARENT 17 13 14 16 12 18 10 21
REMARK Flexibility Score: inf
ROOT
ATOM      1  C   UNL     1      29.092   6.333   5.578  1.00  0.00     0.255 C 
ATOM      2  C   UNL     1      27.594   6.189   5.797  1.00  0.00     0.196 C 
ATOM      3  C   UNL     1      27.406   4.686   5.772  1.00  0.00     0.179 C 
ATOM      4  C   UNL     1      28.624   4.186   4.973  1.00  0.00     0.178 C 
ATOM      5  O   UNL     1      29.529   5.256   4.779  1.00  0.00    -0.347 OA
ENDROOT
BRANCH   1   6
ATOM      6  N   UNL     1      29.419   7.628   4.946  1.00  0.00    -0.271 N 
ATOM      7  C   UNL     1      29.780   8.890   2.938  1.00  0.00     0.090 A 
ATOM      8  C   UNL     1      29.457   7.699   3.579  1.00  0.00     0.099 A 
ATOM      9  C   UNL     1      30.075  10.006   3.712  1.00  0.00     0.253 A 
ATOM     10  N   UNL     1      30.049   9.914   5.067  1.00  0.00    -0.274 N 
ATOM     11  O   UNL     1      30.369  11.099   3.158  1.00  0.00    -0.269 OA
ATOM     12  C   UNL     1      29.733   8.743   5.687  1.00  0.00     0.330 A 
ATOM     13  H   UNL     1      30.279  10.755   5.643  1.00  0.00     0.175 HD
ATOM     14  O   UNL     1      29.739   8.696   6.948  1.00  0.00    -0.248 OA
ENDBRANCH   1   6
BRANCH   2  15
ATOM     15  O   UNL     1      27.207   6.763   7.018  1.00  0.00    -0.386 OA
ATOM     16  H   UNL     1      27.981   6.661   7.632  1.00  0.00     0.211 HD
ENDBRANCH   2  15
BRANCH   3  17
ATOM     17  O   UNL     1      27.382   4.130   7.067  1.00  0.00    -0.387 OA
ATOM     18  H   UNL     1      27.530   3.150   6.987  1.00  0.00     0.211 HD
ENDBRANCH   3  17
BRANCH   4  19
ATOM     19  C   UNL     1      28.211   3.619   3.611  1.00  0.00     0.191 C 
BRANCH  19  20
ATOM     20  O   UNL     1      26.868   3.224   3.650  1.00  0.00    -0.394 OA
ATOM     21  H   UNL     1      26.718   2.848   4.557  1.00  0.00     0.210 HD
ENDBRANCH  19  20
ENDBRANCH   4  19
TORSDOF 5
ENDMDL
MODEL 7
REMARK VINA RESULT:    -5.018     14.659     16.471
REMARK INTER + INTRA:          -6.456
REMARK INTER:                  -5.880
REMARK INTRA:                  -0.576
REMARK UNBOUND:                -0.411
REMARK SMILES O=c1ccn([C@@H]2O[C@H](CO)[C@@H](O)[C@H]2O)c(=O)[nH]1
REMARK SMILES IDX 6 1 13 2 11 3 8 4 7 5 5 6 3 7 4 8 2 9 17 10 1 11 15 12 16 14
REMARK SMILES IDX 14 15 12 17 9 19 10 20
REMARK H PARENT 17 13 14 16 12 18 10 21
REMARK Flexibility Score: inf
ROOT
ATOM      1  C   UNL     1      30.241   8.195   4.917  1.00  0.00     0.255 C 
ATOM      2  C   UNL     1      31.571   7.497   4.681  1.00  0.00     0.196 C 
ATOM      3  C   UNL     1      31.509   6.344   5.660  1.00  0.00     0.179 C 
ATOM      4  C   UNL     1      30.503   6.828   6.721  1.00  0.00     0.178 C 
ATOM      5  O   UNL     1      29.878   8.013   6.267  1.00  0.00    -0.347 OA
ENDROOT
BRANCH   1   6
ATOM      6  N   UNL     1      30.323   9.632   4.581  1.00  0.00    -0.271 N 
ATOM      7  C   UNL     1      30.725  11.883   5.306  1.00  0.00     0.090 A 
ATOM      8  C   UNL     1      30.655  10.518   5.569  1.00  0.00     0.099 A 
ATOM      9  C   UNL     1      30.440  12.330   4.021  1.00  0.00     0.253 A 
ATOM     10  N   UNL     1      30.096  11.439   3.057  1.00  0.00    -0.274 N 
ATOM     11  O   UNL     1      30.498  13.561   3.755  1.00  0.00    -0.269 OA
ATOM     12  C   UNL     1      30.028  10.105   3.323  1.00  0.00     0.330 A 
ATOM     13  H   UNL     1      29.875  11.783   2.094  1.00  0.00     0.175 HD
ATOM     14  O   UNL     1      29.686   9.313   2.402  1.00  0.00    -0.248 OA
ENDBRANCH   1   6
BRANCH   2  15
ATOM     15  O   UNL     1      31.685   7.070   3.348  1.00  0.00    -0.386 OA
ATOM     16  H   UNL     1      32.112   6.174   3.378  1.00  0.00     0.211 HD
ENDBRANCH   2  15
BRANCH   3  17
ATOM     17  O   UNL     1      31.074   5.149   5.052  1.00  0.00    -0.387 OA
ATOM     18  H   UNL     1      31.482   5.093   4.148  1.00  0.00     0.211 HD
ENDBRANCH   3  17
BRANCH   4  19
ATOM     19  C   UNL     1      31.186   7.098   8.065  1.00  0.00     0.191 C 
BRANCH  19  20
ATOM     20  O   UNL     1      30.695   8.289   8.616  1.00  0.00    -0.394 OA
ATOM     21  H   UNL     1      31.239   8.461   9.428  1.00  0.00     0.210 HD
ENDBRANCH  19  20
ENDBRANCH   4  19
TORSDOF 5
ENDMDL
MODEL 8
REMARK VINA RESULT:    -4.913      9.874     12.611
REMARK INTER + INTRA:          -6.329
REMARK INTER:                  -5.746
REMARK INTRA:                  -0.583
REMARK UNBOUND:                -0.411
REMARK SMILES O=c1ccn([C@@H]2O[C@H](CO)[C@@H](O)[C@H]2O)c(=O)[nH]1
REMARK SMILES IDX 6 1 13 2 11 3 8 4 7 5 5 6 3 7 4 8 2 9 17 10 1 11 15 12 16 14
REMARK SMILES IDX 14 15 12 17 9 19 10 20
REMARK H PARENT 17 13 14 16 12 18 10 21
REMARK Flexibility Score: inf
ROOT
ATOM      1  C   UNL     1      24.759   1.622   5.108  1.00  0.00     0.255 C 
ATOM      2  C   UNL     1      25.854   2.661   4.925  1.00  0.00     0.196 C 
ATOM      3  C   UNL     1      27.110   1.854   5.174  1.00  0.00     0.179 C 
ATOM      4  C   UNL     1      26.614   0.673   6.029  1.00  0.00     0.178 C 
ATOM      5  O   UNL     1      25.199   0.675   6.054  1.00  0.00    -0.347 OA
ENDROOT
BRANCH   1   6
ATOM      6  N   UNL     1      23.491   2.249   5.538  1.00  0.00    -0.271 N 
ATOM      7  C   UNL     1      22.079   2.986   7.332  1.00  0.00     0.090 A 
ATOM      8  C   UNL     1      23.266   2.419   6.877  1.00  0.00     0.099 A 
ATOM      9  C   UNL     1      21.121   3.367   6.399  1.00  0.00     0.253 A 
ATOM     10  N   UNL     1      21.354   3.175   5.075  1.00  0.00    -0.274 N 
ATOM     11  O   UNL     1      20.038   3.884   6.784  1.00  0.00    -0.269 OA
ATOM     12  C   UNL     1      22.518   2.618   4.639  1.00  0.00     0.330 A 
ATOM     13  H   UNL     1      20.626   3.457   4.380  1.00  0.00     0.175 HD
ATOM     14  O   UNL     1      22.686   2.442   3.401  1.00  0.00    -0.248 OA
ENDBRANCH   1   6
BRANCH   2  15
ATOM     15  O   UNL     1      25.812   3.214   3.635  1.00  0.00    -0.386 OA
ATOM     16  H   UNL     1      26.017   4.180   3.739  1.00  0.00     0.211 HD
ENDBRANCH   2  15
BRANCH   3  17
ATOM     17  O   UNL     1      27.703   1.404   3.977  1.00  0.00    -0.387 OA
ATOM     18  H   UNL     1      28.610   1.058   4.190  1.00  0.00     0.211 HD
ENDBRANCH   3  17
BRANCH   4  19
ATOM     19  C   UNL     1      27.146   0.752   7.464  1.00  0.00     0.191 C 
BRANCH  19  20
ATOM     20  O   UNL     1      26.075   0.776   8.366  1.00  0.00    -0.394 OA
ATOM     21  H   UNL     1      25.311   1.176   7.875  1.00  0.00     0.210 HD
ENDBRANCH  19  20
ENDBRANCH   4  19
TORSDOF 5
ENDMDL
MODEL 9
REMARK VINA RESULT:    -4.896      8.246     11.382
REMARK INTER + INTRA:          -6.309
REMARK INTER:                  -5.916
REMARK INTRA:                  -0.393
REMARK UNBOUND:                -0.411
REMARK SMILES O=c1ccn([C@@H]2O[C@H](CO)[C@@H](O)[C@H]2O)c(=O)[nH]1
REMARK SMILES IDX 6 1 13 2 11 3 8 4 7 5 5 6 3 7 4 8 2 9 17 10 1 11 15 12 16 14
REMARK SMILES IDX 14 15 12 17 9 19 10 20
REMARK H PARENT 17 13 14 16 12 18 10 21
REMARK Flexibility Score: inf
ROOT
ATOM      1  C   UNL     1      21.362   2.708   5.487  1.00  0.00     0.255 C 
ATOM      2  C   UNL     1      20.688   1.442   5.993  1.00  0.00     0.196 C 
ATOM      3  C   UNL     1      19.488   1.989   6.737  1.00  0.00     0.179 C 
ATOM      4  C   UNL     1      19.910   3.428   7.090  1.00  0.00     0.178 C 
ATOM      5  O   UNL     1      21.111   3.744   6.411  1.00  0.00    -0.347 OA
ENDROOT
BRANCH   1   6
ATOM      6  N   UNL     1      22.814   2.506   5.302  1.00  0.00    -0.271 N 
ATOM      7  C   UNL     1      24.962   2.083   6.284  1.00  0.00     0.090 A 
ATOM      8  C   UNL     1      23.587   2.260   6.405  1.00  0.00     0.099 A 
ATOM      9  C   UNL     1      25.537   2.172   5.021  1.00  0.00     0.253 A 
ATOM     10  N   UNL     1      24.758   2.433   3.940  1.00  0.00    -0.274 N 
ATOM     11  O   UNL     1      26.780   2.014   4.882  1.00  0.00    -0.269 OA
ATOM     12  C   UNL     1      23.413   2.606   4.068  1.00  0.00     0.330 A 
ATOM     13  H   UNL     1      25.198   2.505   2.995  1.00  0.00     0.175 HD
ATOM     14  O   UNL     1      22.729   2.865   3.040  1.00  0.00    -0.248 OA
ENDBRANCH   1   6
BRANCH   2  15
ATOM     15  O   UNL     1      20.329   0.604   4.926  1.00  0.00    -0.386 OA
ATOM     16  H   UNL     1      19.699  -0.068   5.298  1.00  0.00     0.211 HD
ENDBRANCH   2  15
BRANCH   3  17
ATOM     17  O   UNL     1      18.320   1.979   5.947  1.00  0.00    -0.387 OA
ATOM     18  H   UNL     1      18.400   2.698   5.265  1.00  0.00     0.211 HD
ENDBRANCH   3  17
BRANCH   4  19
ATOM     19  C   UNL     1      20.121   3.599   8.598  1.00  0.00     0.191 C 
BRANCH  19  20
ATOM     20  O   UNL     1      20.181   4.962   8.916  1.00  0.00    -0.394 OA
ATOM     21  H   UNL     1      19.391   5.146   9.489  1.00  0.00     0.210 HD
ENDBRANCH  19  20
ENDBRANCH   4  19
TORSDOF 5
ENDMDL
