MODEL 1
REMARK VINA RESULT:    -4.929      0.000      0.000
REMARK INTER + INTRA:         -11.897
REMARK INTER:                  -9.539
REMARK INTRA:                  -2.359
REMARK UNBOUND:                -2.359
REMARK SMILES CCCCCCCCCCCCCCCCCC(=O)[O-]
REMARK SMILES IDX 10 1 11 2 12 3 13 4 14 5 15 6 16 7 17 8 18 9 19 10 20 11
REMARK SMILES IDX 9 12 8 13 7 14 6 15 5 16 4 17 3 18 2 19 1 20
REMARK H PARENT
REMARK Flexibility Score: inf
ROOT
ATOM      1  C   UNL     1      60.251  29.009  12.350  1.00  0.00     0.000 C 
ENDROOT
BRANCH   1   2
ATOM      2  C   UNL     1      60.625  29.830  11.102  1.00  0.00     0.000 C 
BRANCH   2   3
ATOM      3  C   UNL     1      60.557  29.056   9.773  1.00  0.00     0.000 C 
BRANCH   3   4
ATOM      4  C   UNL     1      61.930  28.570   9.289  1.00  0.00     0.000 C 
BRANCH   4   5
ATOM      5  C   UNL     1      62.935  29.731   9.236  1.00  0.00     0.000 C 
BRANCH   5   6
ATOM      6  C   UNL     1      64.340  29.333   9.720  1.00  0.00     0.000 C 
BRANCH   6   7
ATOM      7  C   UNL     1      65.493  30.195   9.169  1.00  0.00     0.006 C 
BRANCH   7   8
ATOM      8  C   UNL     1      65.207  31.707   9.182  1.00  0.00     0.053 C 
BRANCH   8   9
ATOM      9  C   UNL     1      66.293  32.496   9.852  1.00  0.00     0.041 C 
ATOM     10  O   UNL     1      67.449  32.533   9.356  1.00  0.00    -0.550 OA
ATOM     11  O   UNL     1      66.038  33.154  11.048  1.00  0.00    -0.550 OA
ENDBRANCH   8   9
ENDBRANCH   7   8
ENDBRANCH   6   7
ENDBRANCH   5   6
ENDBRANCH   4   5
ENDBRANCH   3   4
ENDBRANCH   2   3
ENDBRANCH   1   2
BRANCH   1  12
ATOM     12  C   UNL     1      61.317  28.996  13.462  1.00  0.00     0.000 C 
BRANCH  12  13
ATOM     13  C   UNL     1      62.738  29.337  12.965  1.00  0.00    -0.000 C 
BRANCH  13  14
ATOM     14  C   UNL     1      63.298  30.610  13.622  1.00  0.00    -0.000 C 
BRANCH  14  15
ATOM     15  C   UNL     1      63.248  31.835  12.691  1.00  0.00    -0.000 C 
BRANCH  15  16
ATOM     16  C   UNL     1      62.040  32.771  12.900  1.00  0.00    -0.000 C 
BRANCH  16  17
ATOM     17  C   UNL     1      61.322  32.615  14.253  1.00  0.00    -0.000 C 
BRANCH  17  18
ATOM     18  C   UNL     1      61.528  33.820  15.182  1.00  0.00    -0.000 C 
BRANCH  18  19
ATOM     19  C   UNL     1      62.519  33.484  16.302  1.00  0.00    -0.003 C 
ATOM     20  C   UNL     1      63.835  34.234  16.118  1.00  0.00     0.004 C 
ENDBRANCH  18  19
ENDBRANCH  17  18
ENDBRANCH  16  17
ENDBRANCH  15  16
ENDBRANCH  14  15
ENDBRANCH  13  14
ENDBRANCH  12  13
ENDBRANCH   1  12
TORSDOF 16
ENDMDL
MODEL 2
REMARK VINA RESULT:    -4.890      2.412      6.015
REMARK INTER + INTRA:         -11.823
REMARK INTER:                  -9.190
REMARK INTRA:                  -2.633
REMARK UNBOUND:                -2.359
REMARK SMILES CCCCCCCCCCCCCCCCCC(=O)[O-]
REMARK SMILES IDX 10 1 11 2 12 3 13 4 14 5 15 6 16 7 17 8 18 9 19 10 20 11
REMARK SMILES IDX 9 12 8 13 7 14 6 15 5 16 4 17 3 18 2 19 1 20
REMARK H PARENT
REMARK Flexibility Score: inf
ROOT
ATOM      1  C   UNL     1      62.188  29.247  13.777  1.00  0.00     0.000 C 
ENDROOT
BRANCH   1   2
ATOM      2  C   UNL     1      63.474  29.451  12.955  1.00  0.00     0.000 C 
BRANCH   2   3
ATOM      3  C   UNL     1      64.584  30.240  13.673  1.00  0.00     0.000 C 
BRANCH   3   4
ATOM      4  C   UNL     1      64.112  31.606  14.192  1.00  0.00     0.000 C 
BRANCH   4   5
ATOM      5  C   UNL     1      63.623  32.492  13.036  1.00  0.00     0.000 C 
BRANCH   5   6
ATOM      6  C   UNL     1      62.242  33.116  13.299  1.00  0.00     0.000 C 
BRANCH   6   7
ATOM      7  C   UNL     1      61.699  32.932  14.730  1.00  0.00     0.006 C 
BRANCH   7   8
ATOM      8  C   UNL     1      61.693  34.222  15.568  1.00  0.00     0.053 C 
BRANCH   8   9
ATOM      9  C   UNL     1      62.663  34.175  16.711  1.00  0.00     0.041 C 
ATOM     10  O   UNL     1      63.902  34.164  16.492  1.00  0.00    -0.550 OA
ATOM     11  O   UNL     1      62.197  34.100  18.017  1.00  0.00    -0.550 OA
ENDBRANCH   8   9
ENDBRANCH   7   8
ENDBRANCH   6   7
ENDBRANCH   5   6
ENDBRANCH   4   5
ENDBRANCH   3   4
ENDBRANCH   2   3
ENDBRANCH   1   2
BRANCH   1  12
ATOM     12  C   UNL     1      60.908  29.050  12.943  1.00  0.00     0.000 C 
BRANCH  12  13
ATOM     13  C   UNL     1      60.750  30.072  11.796  1.00  0.00    -0.000 C 
BRANCH  13  14
ATOM     14  C   UNL     1      60.738  29.401  10.413  1.00  0.00    -0.000 C 
BRANCH  14  15
ATOM     15  C   UNL     1      61.886  29.880   9.506  1.00  0.00    -0.000 C 
BRANCH  15  16
ATOM     16  C   UNL     1      63.083  28.913   9.396  1.00  0.00    -0.000 C 
BRANCH  16  17
ATOM     17  C   UNL     1      64.468  29.584   9.428  1.00  0.00    -0.000 C 
BRANCH  17  18
ATOM     18  C   UNL     1      64.398  31.085   9.745  1.00  0.00    -0.000 C 
BRANCH  18  19
ATOM     19  C   UNL     1      65.781  31.631  10.117  1.00  0.00    -0.003 C 
ATOM     20  C   UNL     1      66.868  31.026   9.235  1.00  0.00     0.004 C 
ENDBRANCH  18  19
ENDBRANCH  17  18
ENDBRANCH  16  17
ENDBRANCH  15  16
ENDBRANCH  14  15
ENDBRANCH  13  14
ENDBRANCH  12  13
ENDBRANCH   1  12
TORSDOF 16
ENDMDL
MODEL 3
REMARK VINA RESULT:    -4.868      1.395      2.719
REMARK INTER + INTRA:         -11.780
REMARK INTER:                  -9.051
REMARK INTRA:                  -2.729
REMARK UNBOUND:                -2.359
REMARK SMILES CCCCCCCCCCCCCCCCCC(=O)[O-]
REMARK SMILES IDX 10 1 11 2 12 3 13 4 14 5 15 6 16 7 17 8 18 9 19 10 20 11
REMARK SMILES IDX 9 12 8 13 7 14 6 15 5 16 4 17 3 18 2 19 1 20
REMARK H PARENT
REMARK Flexibility Score: inf
ROOT
ATOM      1  C   UNL     1      63.625  29.050  13.094  1.00  0.00     0.000 C 
ENDROOT
BRANCH   1   2
ATOM      2  C   UNL     1      62.260  29.282  13.768  1.00  0.00     0.000 C 
BRANCH   2   3
ATOM      3  C   UNL     1      61.055  28.696  13.008  1.00  0.00     0.000 C 
BRANCH   3   4
ATOM      4  C   UNL     1      60.258  29.757  12.237  1.00  0.00     0.000 C 
BRANCH   4   5
ATOM      5  C   UNL     1      60.877  30.009  10.853  1.00  0.00     0.000 C 
BRANCH   5   6
ATOM      6  C   UNL     1      61.378  28.722  10.175  1.00  0.00     0.000 C 
BRANCH   6   7
ATOM      7  C   UNL     1      62.353  28.935   9.001  1.00  0.00     0.006 C 
BRANCH   7   8
ATOM      8  C   UNL     1      62.878  30.376   8.875  1.00  0.00     0.053 C 
BRANCH   8   9
ATOM      9  C   UNL     1      64.358  30.475   9.102  1.00  0.00     0.041 C 
ATOM     10  O   UNL     1      65.054  29.432   9.214  1.00  0.00    -0.550 OA
ATOM     11  O   UNL     1      64.960  31.719   9.232  1.00  0.00    -0.550 OA
ENDBRANCH   8   9
ENDBRANCH   7   8
ENDBRANCH   6   7
ENDBRANCH   5   6
ENDBRANCH   4   5
ENDBRANCH   3   4
ENDBRANCH   2   3
ENDBRANCH   1   2
BRANCH   1  12
ATOM     12  C   UNL     1      64.375  30.333  12.688  1.00  0.00     0.000 C 
BRANCH  12  13
ATOM     13  C   UNL     1      64.102  31.534  13.620  1.00  0.00    -0.000 C 
BRANCH  13  14
ATOM     14  C   UNL     1      63.614  32.772  12.850  1.00  0.00    -0.000 C 
BRANCH  14  15
ATOM     15  C   UNL     1      62.080  32.873  12.789  1.00  0.00    -0.000 C 
BRANCH  15  16
ATOM     16  C   UNL     1      61.411  33.480  14.039  1.00  0.00    -0.000 C 
BRANCH  16  17
ATOM     17  C   UNL     1      60.815  32.456  15.022  1.00  0.00    -0.000 C 
BRANCH  17  18
ATOM     18  C   UNL     1      61.502  32.476  16.396  1.00  0.00    -0.000 C 
BRANCH  18  19
ATOM     19  C   UNL     1      62.679  33.458  16.405  1.00  0.00    -0.003 C 
ATOM     20  C   UNL     1      62.498  34.525  17.481  1.00  0.00     0.004 C 
ENDBRANCH  18  19
ENDBRANCH  17  18
ENDBRANCH  16  17
ENDBRANCH  15  16
ENDBRANCH  14  15
ENDBRANCH  13  14
ENDBRANCH  12  13
ENDBRANCH   1  12
TORSDOF 16
ENDMDL
MODEL 4
REMARK VINA RESULT:    -4.836      2.566      5.516
REMARK INTER + INTRA:         -11.718
REMARK INTER:                  -9.210
REMARK INTRA:                  -2.508
REMARK UNBOUND:                -2.359
REMARK SMILES CCCCCCCCCCCCCCCCCC(=O)[O-]
REMARK SMILES IDX 10 1 11 2 12 3 13 4 14 5 15 6 16 7 17 8 18 9 19 10 20 11
REMARK SMILES IDX 9 12 8 13 7 14 6 15 5 16 4 17 3 18 2 19 1 20
REMARK H PARENT
REMARK Flexibility Score: inf
ROOT
ATOM      1  C   UNL     1      60.772  29.002  12.450  1.00  0.00     0.000 C 
ENDROOT
BRANCH   1   2
ATOM      2  C   UNL     1      61.804  29.397  13.524  1.00  0.00     0.000 C 
BRANCH   2   3
ATOM      3  C   UNL     1      63.252  28.972  13.217  1.00  0.00     0.000 C 
BRANCH   3   4
ATOM      4  C   UNL     1      64.243  30.143  13.264  1.00  0.00     0.000 C 
BRANCH   4   5
ATOM      5  C   UNL     1      64.013  31.007  14.513  1.00  0.00     0.000 C 
BRANCH   5   6
ATOM      6  C   UNL     1      63.927  32.510  14.197  1.00  0.00     0.000 C 
BRANCH   6   7
ATOM      7  C   UNL     1      62.988  32.885  13.033  1.00  0.00     0.006 C 
BRANCH   7   8
ATOM      8  C   UNL     1      61.508  33.008  13.437  1.00  0.00     0.053 C 
BRANCH   8   9
ATOM      9  C   UNL     1      61.331  33.351  14.887  1.00  0.00     0.041 C 
ATOM     10  O   UNL     1      61.492  34.534  15.284  1.00  0.00    -0.550 OA
ATOM     11  O   UNL     1      61.029  32.354  15.806  1.00  0.00    -0.550 OA
ENDBRANCH   8   9
ENDBRANCH   7   8
ENDBRANCH   6   7
ENDBRANCH   5   6
ENDBRANCH   4   5
ENDBRANCH   3   4
ENDBRANCH   2   3
ENDBRANCH   1   2
BRANCH   1  12
ATOM     12  C   UNL     1      60.684  29.965  11.251  1.00  0.00     0.000 C 
BRANCH  12  13
ATOM     13  C   UNL     1      60.549  29.252   9.888  1.00  0.00    -0.000 C 
BRANCH  13  14
ATOM     14  C   UNL     1      61.897  28.724   9.369  1.00  0.00    -0.000 C 
BRANCH  14  15
ATOM     15  C   UNL     1      62.997  29.801   9.358  1.00  0.00    -0.000 C 
BRANCH  15  16
ATOM     16  C   UNL     1      64.422  29.287   9.651  1.00  0.00    -0.000 C 
BRANCH  16  17
ATOM     17  C   UNL     1      65.542  30.324   9.450  1.00  0.00    -0.000 C 
BRANCH  17  18
ATOM     18  C   UNL     1      65.161  31.722   9.957  1.00  0.00    -0.000 C 
BRANCH  18  19
ATOM     19  C   UNL     1      66.407  32.596  10.144  1.00  0.00    -0.003 C 
ATOM     20  C   UNL     1      66.327  33.402  11.436  1.00  0.00     0.004 C 
ENDBRANCH  18  19
ENDBRANCH  17  18
ENDBRANCH  16  17
ENDBRANCH  15  16
ENDBRANCH  14  15
ENDBRANCH  13  14
ENDBRANCH  12  13
ENDBRANCH   1  12
TORSDOF 16
ENDMDL
MODEL 5
REMARK VINA RESULT:    -4.821      3.059      5.648
REMARK INTER + INTRA:         -11.689
REMARK INTER:                  -9.092
REMARK INTRA:                  -2.597
REMARK UNBOUND:                -2.359
REMARK SMILES CCCCCCCCCCCCCCCCCC(=O)[O-]
REMARK SMILES IDX 10 1 11 2 12 3 13 4 14 5 15 6 16 7 17 8 18 9 19 10 20 11
REMARK SMILES IDX 9 12 8 13 7 14 6 15 5 16 4 17 3 18 2 19 1 20
REMARK H PARENT
REMARK Flexibility Score: inf
ROOT
ATOM      1  C   UNL     1      60.484  29.643  11.196  1.00  0.00     0.000 C 
ENDROOT
BRANCH   1   2
ATOM      2  C   UNL     1      60.661  29.434  12.711  1.00  0.00     0.000 C 
BRANCH   2   3
ATOM      3  C   UNL     1      61.153  30.673  13.483  1.00  0.00     0.000 C 
BRANCH   3   4
ATOM      4  C   UNL     1      61.249  31.929  12.605  1.00  0.00     0.000 C 
BRANCH   4   5
ATOM      5  C   UNL     1      61.402  33.191  13.467  1.00  0.00     0.000 C 
BRANCH   5   6
ATOM      6  C   UNL     1      61.628  32.878  14.956  1.00  0.00     0.000 C 
BRANCH   6   7
ATOM      7  C   UNL     1      61.961  34.095  15.841  1.00  0.00     0.006 C 
BRANCH   7   8
ATOM      8  C   UNL     1      63.135  33.864  16.809  1.00  0.00     0.053 C 
BRANCH   8   9
ATOM      9  C   UNL     1      63.208  34.904  17.888  1.00  0.00     0.041 C 
ATOM     10  O   UNL     1      64.228  35.633  17.999  1.00  0.00    -0.550 OA
ATOM     11  O   UNL     1      62.167  35.038  18.796  1.00  0.00    -0.550 OA
ENDBRANCH   8   9
ENDBRANCH   7   8
ENDBRANCH   6   7
ENDBRANCH   5   6
ENDBRANCH   4   5
ENDBRANCH   3   4
ENDBRANCH   2   3
ENDBRANCH   1   2
BRANCH   1  12
ATOM     12  C   UNL     1      61.536  28.940  10.317  1.00  0.00     0.000 C 
BRANCH  12  13
ATOM     13  C   UNL     1      62.342  29.904   9.420  1.00  0.00    -0.000 C 
BRANCH  13  14
ATOM     14  C   UNL     1      63.842  29.900   9.757  1.00  0.00    -0.000 C 
BRANCH  14  15
ATOM     15  C   UNL     1      64.128  29.486  11.212  1.00  0.00    -0.000 C 
BRANCH  15  16
ATOM     16  C   UNL     1      64.568  30.632  12.146  1.00  0.00    -0.000 C 
BRANCH  16  17
ATOM     17  C   UNL     1      64.808  31.984  11.451  1.00  0.00    -0.000 C 
BRANCH  17  18
ATOM     18  C   UNL     1      65.070  33.128  12.443  1.00  0.00    -0.000 C 
BRANCH  18  19
ATOM     19  C   UNL     1      65.149  32.599  13.879  1.00  0.00    -0.003 C 
ATOM     20  C   UNL     1      66.233  33.321  14.673  1.00  0.00     0.004 C 
ENDBRANCH  18  19
ENDBRANCH  17  18
ENDBRANCH  16  17
ENDBRANCH  15  16
ENDBRANCH  14  15
ENDBRANCH  13  14
ENDBRANCH  12  13
ENDBRANCH   1  12
TORSDOF 16
ENDMDL
MODEL 6
REMARK VINA RESULT:    -4.799      2.990      6.530
REMARK INTER + INTRA:         -11.647
REMARK INTER:                  -9.231
REMARK INTRA:                  -2.416
REMARK UNBOUND:                -2.359
REMARK SMILES CCCCCCCCCCCCCCCCCC(=O)[O-]
REMARK SMILES IDX 10 1 11 2 12 3 13 4 14 5 15 6 16 7 17 8 18 9 19 10 20 11
REMARK SMILES IDX 9 12 8 13 7 14 6 15 5 16 4 17 3 18 2 19 1 20
REMARK H PARENT
REMARK Flexibility Score: inf
ROOT
ATOM      1  C   UNL     1      63.982  29.500  13.437  1.00  0.00     0.000 C 
ENDROOT
BRANCH   1   2
ATOM      2  C   UNL     1      64.015  30.894  12.783  1.00  0.00     0.000 C 
BRANCH   2   3
ATOM      3  C   UNL     1      63.933  32.074  13.768  1.00  0.00     0.000 C 
BRANCH   3   4
ATOM      4  C   UNL     1      63.094  33.244  13.235  1.00  0.00     0.000 C 
BRANCH   4   5
ATOM      5  C   UNL     1      61.632  33.122  13.690  1.00  0.00     0.000 C 
BRANCH   5   6
ATOM      6  C   UNL     1      61.486  32.981  15.215  1.00  0.00     0.000 C 
BRANCH   6   7
ATOM      7  C   UNL     1      61.815  34.250  16.027  1.00  0.00     0.006 C 
BRANCH   7   8
ATOM      8  C   UNL     1      63.244  34.276  16.598  1.00  0.00     0.053 C 
BRANCH   8   9
ATOM      9  C   UNL     1      63.333  35.018  17.899  1.00  0.00     0.041 C 
ATOM     10  O   UNL     1      64.399  35.603  18.224  1.00  0.00    -0.550 OA
ATOM     11  O   UNL     1      62.252  35.027  18.770  1.00  0.00    -0.550 OA
ENDBRANCH   8   9
ENDBRANCH   7   8
ENDBRANCH   6   7
ENDBRANCH   5   6
ENDBRANCH   4   5
ENDBRANCH   3   4
ENDBRANCH   2   3
ENDBRANCH   1   2
BRANCH   1  12
ATOM     12  C   UNL     1      62.710  28.679  13.153  1.00  0.00     0.000 C 
BRANCH  12  13
ATOM     13  C   UNL     1      61.422  29.312  13.723  1.00  0.00    -0.000 C 
BRANCH  13  14
ATOM     14  C   UNL     1      60.485  29.826  12.617  1.00  0.00    -0.000 C 
BRANCH  14  15
ATOM     15  C   UNL     1      60.891  29.340  11.215  1.00  0.00    -0.000 C 
BRANCH  15  16
ATOM     16  C   UNL     1      61.014  30.447  10.146  1.00  0.00    -0.000 C 
BRANCH  16  17
ATOM     17  C   UNL     1      62.108  30.212   9.089  1.00  0.00    -0.000 C 
BRANCH  17  18
ATOM     18  C   UNL     1      62.916  28.930   9.338  1.00  0.00    -0.000 C 
BRANCH  18  19
ATOM     19  C   UNL     1      64.382  29.256   9.642  1.00  0.00    -0.003 C 
ATOM     20  C   UNL     1      64.783  30.601   9.044  1.00  0.00     0.004 C 
ENDBRANCH  18  19
ENDBRANCH  17  18
ENDBRANCH  16  17
ENDBRANCH  15  16
ENDBRANCH  14  15
ENDBRANCH  13  14
ENDBRANCH  12  13
ENDBRANCH   1  12
TORSDOF 16
ENDMDL
MODEL 7
REMARK VINA RESULT:    -4.798      2.730      4.706
REMARK INTER + INTRA:         -11.645
REMARK INTER:                  -9.409
REMARK INTRA:                  -2.235
REMARK UNBOUND:                -2.359
REMARK SMILES CCCCCCCCCCCCCCCCCC(=O)[O-]
REMARK SMILES IDX 10 1 11 2 12 3 13 4 14 5 15 6 16 7 17 8 18 9 19 10 20 11
REMARK SMILES IDX 9 12 8 13 7 14 6 15 5 16 4 17 3 18 2 19 1 20
REMARK H PARENT
REMARK Flexibility Score: inf
ROOT
ATOM      1  C   UNL     1      64.051  31.172  13.179  1.00  0.00     0.000 C 
ENDROOT
BRANCH   1   2
ATOM      2  C   UNL     1      64.410  30.082  12.152  1.00  0.00     0.000 C 
BRANCH   2   3
ATOM      3  C   UNL     1      64.246  30.500  10.679  1.00  0.00     0.000 C 
BRANCH   3   4
ATOM      4  C   UNL     1      64.272  29.310   9.711  1.00  0.00     0.000 C 
BRANCH   4   5
ATOM      5  C   UNL     1      62.887  29.081   9.087  1.00  0.00     0.000 C 
BRANCH   5   6
ATOM      6  C   UNL     1      61.845  28.581  10.102  1.00  0.00     0.000 C 
BRANCH   6   7
ATOM      7  C   UNL     1      60.678  29.550  10.378  1.00  0.00     0.006 C 
BRANCH   7   8
ATOM      8  C   UNL     1      60.664  30.124  11.807  1.00  0.00     0.053 C 
BRANCH   8   9
ATOM      9  C   UNL     1      60.506  29.062  12.854  1.00  0.00     0.041 C 
ATOM     10  O   UNL     1      61.455  28.793  13.636  1.00  0.00    -0.550 OA
ATOM     11  O   UNL     1      59.322  28.340  12.939  1.00  0.00    -0.550 OA
ENDBRANCH   8   9
ENDBRANCH   7   8
ENDBRANCH   6   7
ENDBRANCH   5   6
ENDBRANCH   4   5
ENDBRANCH   3   4
ENDBRANCH   2   3
ENDBRANCH   1   2
BRANCH   1  12
ATOM     12  C   UNL     1      64.184  32.618  12.664  1.00  0.00     0.000 C 
BRANCH  12  13
ATOM     13  C   UNL     1      65.549  33.267  12.980  1.00  0.00    -0.000 C 
BRANCH  13  14
ATOM     14  C   UNL     1      65.457  34.300  14.115  1.00  0.00    -0.000 C 
BRANCH  14  15
ATOM     15  C   UNL     1      65.307  33.652  15.503  1.00  0.00    -0.000 C 
BRANCH  15  16
ATOM     16  C   UNL     1      64.279  34.326  16.435  1.00  0.00    -0.000 C 
BRANCH  16  17
ATOM     17  C   UNL     1      62.914  33.619  16.518  1.00  0.00    -0.000 C 
BRANCH  17  18
ATOM     18  C   UNL     1      61.777  34.438  15.891  1.00  0.00    -0.000 C 
BRANCH  18  19
ATOM     19  C   UNL     1      61.408  33.892  14.507  1.00  0.00    -0.003 C 
ATOM     20  C   UNL     1      60.805  32.494  14.608  1.00  0.00     0.004 C 
ENDBRANCH  18  19
ENDBRANCH  17  18
ENDBRANCH  16  17
ENDBRANCH  15  16
ENDBRANCH  14  15
ENDBRANCH  13  14
ENDBRANCH  12  13
ENDBRANCH   1  12
TORSDOF 16
ENDMDL
MODEL 8
REMARK VINA RESULT:    -4.734      1.605      3.569
REMARK INTER + INTRA:         -11.521
REMARK INTER:                  -8.944
REMARK INTRA:                  -2.576
REMARK UNBOUND:                -2.359
REMARK SMILES CCCCCCCCCCCCCCCCCC(=O)[O-]
REMARK SMILES IDX 10 1 11 2 12 3 13 4 14 5 15 6 16 7 17 8 18 9 19 10 20 11
REMARK SMILES IDX 9 12 8 13 7 14 6 15 5 16 4 17 3 18 2 19 1 20
REMARK H PARENT
REMARK Flexibility Score: inf
ROOT
ATOM      1  C   UNL     1      64.371  29.973  13.592  1.00  0.00     0.000 C 
ENDROOT
BRANCH   1   2
ATOM      2  C   UNL     1      63.223  29.356  12.772  1.00  0.00     0.000 C 
BRANCH   2   3
ATOM      3  C   UNL     1      61.884  29.231  13.523  1.00  0.00     0.000 C 
BRANCH   3   4
ATOM      4  C   UNL     1      60.697  28.949  12.591  1.00  0.00     0.000 C 
BRANCH   4   5
ATOM      5  C   UNL     1      60.691  29.922  11.402  1.00  0.00     0.000 C 
BRANCH   5   6
ATOM      6  C   UNL     1      60.551  29.212  10.045  1.00  0.00     0.000 C 
BRANCH   6   7
ATOM      7  C   UNL     1      61.863  29.037   9.256  1.00  0.00     0.006 C 
BRANCH   7   8
ATOM      8  C   UNL     1      62.604  30.356   8.970  1.00  0.00     0.053 C 
BRANCH   8   9
ATOM      9  C   UNL     1      64.058  30.292   9.330  1.00  0.00     0.041 C 
ATOM     10  O   UNL     1      64.682  31.340   9.640  1.00  0.00    -0.550 OA
ATOM     11  O   UNL     1      64.735  29.080   9.281  1.00  0.00    -0.550 OA
ENDBRANCH   8   9
ENDBRANCH   7   8
ENDBRANCH   6   7
ENDBRANCH   5   6
ENDBRANCH   4   5
ENDBRANCH   3   4
ENDBRANCH   2   3
ENDBRANCH   1   2
BRANCH   1  12
ATOM     12  C   UNL     1      64.576  31.486  13.386  1.00  0.00     0.000 C 
BRANCH  12  13
ATOM     13  C   UNL     1      65.361  32.169  14.526  1.00  0.00    -0.000 C 
BRANCH  13  14
ATOM     14  C   UNL     1      65.370  33.700  14.394  1.00  0.00    -0.000 C 
BRANCH  14  15
ATOM     15  C   UNL     1      64.243  34.377  15.194  1.00  0.00    -0.000 C 
BRANCH  15  16
ATOM     16  C   UNL     1      63.642  33.524  16.331  1.00  0.00    -0.000 C 
BRANCH  16  17
ATOM     17  C   UNL     1      62.106  33.413  16.320  1.00  0.00    -0.000 C 
BRANCH  17  18
ATOM     18  C   UNL     1      61.603  32.156  15.596  1.00  0.00    -0.000 C 
BRANCH  18  19
ATOM     19  C   UNL     1      60.642  32.525  14.460  1.00  0.00    -0.003 C 
ATOM     20  C   UNL     1      61.400  33.060  13.249  1.00  0.00     0.004 C 
ENDBRANCH  18  19
ENDBRANCH  17  18
ENDBRANCH  16  17
ENDBRANCH  15  16
ENDBRANCH  14  15
ENDBRANCH  13  14
ENDBRANCH  12  13
ENDBRANCH   1  12
TORSDOF 16
ENDMDL
MODEL 9
REMARK VINA RESULT:    -4.719      2.389      6.383
REMARK INTER + INTRA:         -11.491
REMARK INTER:                  -9.125
REMARK INTRA:                  -2.366
REMARK UNBOUND:                -2.359
REMARK SMILES CCCCCCCCCCCCCCCCCC(=O)[O-]
REMARK SMILES IDX 10 1 11 2 12 3 13 4 14 5 15 6 16 7 17 8 18 9 19 10 20 11
REMARK SMILES IDX 9 12 8 13 7 14 6 15 5 16 4 17 3 18 2 19 1 20
REMARK H PARENT
REMARK Flexibility Score: inf
ROOT
ATOM      1  C   UNL     1      64.488  30.762  12.314  1.00  0.00     0.000 C 
ENDROOT
BRANCH   1   2
ATOM      2  C   UNL     1      63.561  31.440  13.340  1.00  0.00     0.000 C 
BRANCH   2   3
ATOM      3  C   UNL     1      63.069  32.844  12.941  1.00  0.00     0.000 C 
BRANCH   3   4
ATOM      4  C   UNL     1      61.665  33.162  13.474  1.00  0.00     0.000 C 
BRANCH   4   5
ATOM      5  C   UNL     1      61.214  32.106  14.495  1.00  0.00     0.000 C 
BRANCH   5   6
ATOM      6  C   UNL     1      61.322  32.593  15.950  1.00  0.00     0.000 C 
BRANCH   6   7
ATOM      7  C   UNL     1      61.772  34.056  16.123  1.00  0.00     0.006 C 
BRANCH   7   8
ATOM      8  C   UNL     1      62.437  34.352  17.479  1.00  0.00     0.053 C 
BRANCH   8   9
ATOM      9  C   UNL     1      63.888  34.708  17.346  1.00  0.00     0.041 C 
ATOM     10  O   UNL     1      64.372  35.662  18.011  1.00  0.00    -0.550 OA
ATOM     11  O   UNL     1      64.697  34.013  16.457  1.00  0.00    -0.550 OA
ENDBRANCH   8   9
ENDBRANCH   7   8
ENDBRANCH   6   7
ENDBRANCH   5   6
ENDBRANCH   4   5
ENDBRANCH   3   4
ENDBRANCH   2   3
ENDBRANCH   1   2
BRANCH   1  12
ATOM     12  C   UNL     1      64.897  31.650  11.124  1.00  0.00     0.000 C 
BRANCH  12  13
ATOM     13  C   UNL     1      65.287  30.854   9.859  1.00  0.00    -0.000 C 
BRANCH  13  14
ATOM     14  C   UNL     1      64.063  30.460   9.016  1.00  0.00    -0.000 C 
BRANCH  14  15
ATOM     15  C   UNL     1      63.610  29.010   9.261  1.00  0.00    -0.000 C 
BRANCH  15  16
ATOM     16  C   UNL     1      62.146  28.847   9.721  1.00  0.00    -0.000 C 
BRANCH  16  17
ATOM     17  C   UNL     1      61.401  30.165  10.002  1.00  0.00    -0.000 C 
BRANCH  17  18
ATOM     18  C   UNL     1      60.701  30.176  11.369  1.00  0.00    -0.000 C 
BRANCH  18  19
ATOM     19  C   UNL     1      61.083  28.939  12.190  1.00  0.00    -0.003 C 
ATOM     20  C   UNL     1      59.946  28.520  13.118  1.00  0.00     0.004 C 
ENDBRANCH  18  19
ENDBRANCH  17  18
ENDBRANCH  16  17
ENDBRANCH  15  16
ENDBRANCH  14  15
ENDBRANCH  13  14
ENDBRANCH  12  13
ENDBRANCH   1  12
TORSDOF 16
ENDMDL
