MODEL 1
REMARK VINA RESULT:    -4.134      0.000      0.000
REMARK INTER + INTRA:          -8.657
REMARK INTER:                  -7.035
REMARK INTRA:                  -1.622
REMARK UNBOUND:                -1.622
REMARK SMILES CCCCCCCCCCCCCC(=O)[O-]
REMARK SMILES IDX 8 1 9 2 10 3 11 4 12 5 13 6 14 7 15 8 16 9 7 10 6 11 5 12
REMARK SMILES IDX 4 13 3 14 2 15 1 16
REMARK H PARENT
REMARK Flexibility Score: inf
ROOT
ATOM      1  C   UNL     1     -21.083 -14.878 -17.142  1.00  0.00     0.000 C 
ENDROOT
BRANCH   1   2
ATOM      2  C   UNL     1     -22.531 -14.360 -17.045  1.00  0.00     0.000 C 
BRANCH   2   3
ATOM      3  C   UNL     1     -22.673 -12.827 -17.059  1.00  0.00     0.000 C 
BRANCH   3   4
ATOM      4  C   UNL     1     -23.275 -12.214 -15.777  1.00  0.00     0.000 C 
BRANCH   4   5
ATOM      5  C   UNL     1     -23.315 -13.155 -14.559  1.00  0.00     0.006 C 
BRANCH   5   6
ATOM      6  C   UNL     1     -24.743 -13.472 -14.098  1.00  0.00     0.053 C 
BRANCH   6   7
ATOM      7  C   UNL     1     -24.938 -14.951 -13.984  1.00  0.00     0.041 C 
ATOM      8  O   UNL     1     -23.981 -15.735 -14.220  1.00  0.00    -0.550 OA
ATOM      9  O   UNL     1     -26.189 -15.465 -13.666  1.00  0.00    -0.550 OA
ENDBRANCH   6   7
ENDBRANCH   5   6
ENDBRANCH   4   5
ENDBRANCH   3   4
ENDBRANCH   2   3
ENDBRANCH   1   2
BRANCH   1  10
ATOM     10  C   UNL     1     -20.038 -13.763 -17.353  1.00  0.00     0.000 C 
BRANCH  10  11
ATOM     11  C   UNL     1     -18.910 -14.184 -18.310  1.00  0.00    -0.000 C 
BRANCH  11  12
ATOM     12  C   UNL     1     -18.900 -13.363 -19.610  1.00  0.00    -0.000 C 
BRANCH  12  13
ATOM     13  C   UNL     1     -20.000 -12.276 -19.657  1.00  0.00    -0.000 C 
BRANCH  13  14
ATOM     14  C   UNL     1     -20.969 -12.446 -20.842  1.00  0.00    -0.000 C 
BRANCH  14  15
ATOM     15  C   UNL     1     -21.511 -13.881 -20.993  1.00  0.00    -0.003 C 
ATOM     16  C   UNL     1     -22.962 -14.015 -20.533  1.00  0.00     0.004 C 
ENDBRANCH  14  15
ENDBRANCH  13  14
ENDBRANCH  12  13
ENDBRANCH  11  12
ENDBRANCH  10  11
ENDBRANCH   1  10
TORSDOF 12
ENDMDL
MODEL 2
REMARK VINA RESULT:    -4.104      1.361      2.994
REMARK INTER + INTRA:          -8.604
REMARK INTER:                  -6.922
REMARK INTRA:                  -1.682
REMARK UNBOUND:                -1.622
REMARK SMILES CCCCCCCCCCCCCC(=O)[O-]
REMARK SMILES IDX 8 1 9 2 10 3 11 4 12 5 13 6 14 7 15 8 16 9 7 10 6 11 5 12
REMARK SMILES IDX 4 13 3 14 2 15 1 16
REMARK H PARENT
REMARK Flexibility Score: inf
ROOT
ATOM      1  C   UNL     1     -22.332 -12.596 -20.096  1.00  0.00     0.000 C 
ENDROOT
BRANCH   1   2
ATOM      2  C   UNL     1     -22.327 -11.993 -18.678  1.00  0.00     0.000 C 
BRANCH   2   3
ATOM      3  C   UNL     1     -22.984 -12.872 -17.597  1.00  0.00     0.000 C 
BRANCH   3   4
ATOM      4  C   UNL     1     -23.011 -12.258 -16.182  1.00  0.00     0.000 C 
BRANCH   4   5
ATOM      5  C   UNL     1     -22.636 -13.223 -15.044  1.00  0.00     0.006 C 
BRANCH   5   6
ATOM      6  C   UNL     1     -23.375 -14.565 -15.133  1.00  0.00     0.053 C 
BRANCH   6   7
ATOM      7  C   UNL     1     -24.480 -14.619 -14.126  1.00  0.00     0.041 C 
ATOM      8  O   UNL     1     -24.802 -15.716 -13.598  1.00  0.00    -0.550 OA
ATOM      9  O   UNL     1     -25.188 -13.466 -13.808  1.00  0.00    -0.550 OA
ENDBRANCH   6   7
ENDBRANCH   5   6
ENDBRANCH   4   5
ENDBRANCH   3   4
ENDBRANCH   2   3
ENDBRANCH   1   2
BRANCH   1  10
ATOM     10  C   UNL     1     -20.937 -12.646 -20.754  1.00  0.00     0.000 C 
BRANCH  10  11
ATOM     11  C   UNL     1     -20.513 -14.075 -21.132  1.00  0.00    -0.000 C 
BRANCH  11  12
ATOM     12  C   UNL     1     -21.449 -15.144 -20.543  1.00  0.00    -0.000 C 
BRANCH  12  13
ATOM     13  C   UNL     1     -20.750 -16.080 -19.531  1.00  0.00    -0.000 C 
BRANCH  13  14
ATOM     14  C   UNL     1     -20.642 -15.472 -18.119  1.00  0.00    -0.000 C 
BRANCH  14  15
ATOM     15  C   UNL     1     -19.207 -15.065 -17.732  1.00  0.00    -0.003 C 
ATOM     16  C   UNL     1     -19.021 -13.549 -17.671  1.00  0.00     0.004 C 
ENDBRANCH  14  15
ENDBRANCH  13  14
ENDBRANCH  12  13
ENDBRANCH  11  12
ENDBRANCH  10  11
ENDBRANCH   1  10
TORSDOF 12
ENDMDL
MODEL 3
REMARK VINA RESULT:    -4.083      2.762      5.890
REMARK INTER + INTRA:          -8.569
REMARK INTER:                  -7.117
REMARK INTRA:                  -1.452
REMARK UNBOUND:                -1.622
REMARK SMILES CCCCCCCCCCCCCC(=O)[O-]
REMARK SMILES IDX 8 1 9 2 10 3 11 4 12 5 13 6 14 7 15 8 16 9 7 10 6 11 5 12
REMARK SMILES IDX 4 13 3 14 2 15 1 16
REMARK H PARENT
REMARK Flexibility Score: inf
ROOT
ATOM      1  C   UNL     1     -22.668 -13.705 -20.366  1.00  0.00     0.000 C 
ENDROOT
BRANCH   1   2
ATOM      2  C   UNL     1     -21.304 -13.044 -20.643  1.00  0.00     0.000 C 
BRANCH   2   3
ATOM      3  C   UNL     1     -20.091 -13.792 -20.059  1.00  0.00     0.000 C 
BRANCH   3   4
ATOM      4  C   UNL     1     -19.301 -13.017 -18.984  1.00  0.00     0.000 C 
BRANCH   4   5
ATOM      5  C   UNL     1     -19.077 -13.776 -17.663  1.00  0.00     0.006 C 
BRANCH   5   6
ATOM      6  C   UNL     1     -19.629 -15.206 -17.697  1.00  0.00     0.053 C 
BRANCH   6   7
ATOM      7  C   UNL     1     -18.511 -16.198 -17.643  1.00  0.00     0.041 C 
ATOM      8  O   UNL     1     -18.607 -17.222 -16.916  1.00  0.00    -0.550 OA
ATOM      9  O   UNL     1     -17.341 -15.967 -18.357  1.00  0.00    -0.550 OA
ENDBRANCH   6   7
ENDBRANCH   5   6
ENDBRANCH   4   5
ENDBRANCH   3   4
ENDBRANCH   2   3
ENDBRANCH   1   2
BRANCH   1  10
ATOM     10  C   UNL     1     -22.952 -13.939 -18.868  1.00  0.00     0.000 C 
BRANCH  10  11
ATOM     11  C   UNL     1     -22.909 -12.638 -18.048  1.00  0.00    -0.000 C 
BRANCH  11  12
ATOM     12  C   UNL     1     -22.453 -12.868 -16.598  1.00  0.00    -0.000 C 
BRANCH  12  13
ATOM     13  C   UNL     1     -23.380 -12.208 -15.551  1.00  0.00    -0.000 C 
BRANCH  13  14
ATOM     14  C   UNL     1     -23.924 -13.205 -14.510  1.00  0.00    -0.000 C 
BRANCH  14  15
ATOM     15  C   UNL     1     -23.668 -14.679 -14.876  1.00  0.00    -0.003 C 
ATOM     16  C   UNL     1     -24.730 -15.620 -14.309  1.00  0.00     0.004 C 
ENDBRANCH  14  15
ENDBRANCH  13  14
ENDBRANCH  12  13
ENDBRANCH  11  12
ENDBRANCH  10  11
ENDBRANCH   1  10
TORSDOF 12
ENDMDL
MODEL 4
REMARK VINA RESULT:    -4.069      1.378      2.869
REMARK INTER + INTRA:          -8.546
REMARK INTER:                  -6.905
REMARK INTRA:                  -1.641
REMARK UNBOUND:                -1.622
REMARK SMILES CCCCCCCCCCCCCC(=O)[O-]
REMARK SMILES IDX 8 1 9 2 10 3 11 4 12 5 13 6 14 7 15 8 16 9 7 10 6 11 5 12
REMARK SMILES IDX 4 13 3 14 2 15 1 16
REMARK H PARENT
REMARK Flexibility Score: inf
ROOT
ATOM      1  C   UNL     1     -23.006 -13.877 -18.941  1.00  0.00     0.000 C 
ENDROOT
BRANCH   1   2
ATOM      2  C   UNL     1     -22.727 -12.822 -17.854  1.00  0.00     0.000 C 
BRANCH   2   3
ATOM      3  C   UNL     1     -22.197 -13.386 -16.524  1.00  0.00     0.000 C 
BRANCH   3   4
ATOM      4  C   UNL     1     -22.402 -14.902 -16.328  1.00  0.00     0.000 C 
BRANCH   4   5
ATOM      5  C   UNL     1     -23.644 -15.294 -15.507  1.00  0.00     0.006 C 
BRANCH   5   6
ATOM      6  C   UNL     1     -23.663 -14.652 -14.114  1.00  0.00     0.053 C 
BRANCH   6   7
ATOM      7  C   UNL     1     -24.797 -13.682 -14.002  1.00  0.00     0.041 C 
ATOM      8  O   UNL     1     -25.986 -14.095 -14.015  1.00  0.00    -0.550 OA
ATOM      9  O   UNL     1     -24.540 -12.318 -13.935  1.00  0.00    -0.550 OA
ENDBRANCH   6   7
ENDBRANCH   5   6
ENDBRANCH   4   5
ENDBRANCH   3   4
ENDBRANCH   2   3
ENDBRANCH   1   2
BRANCH   1  10
ATOM     10  C   UNL     1     -22.637 -13.413 -20.366  1.00  0.00     0.000 C 
BRANCH  10  11
ATOM     11  C   UNL     1     -21.393 -12.509 -20.388  1.00  0.00    -0.000 C 
BRANCH  11  12
ATOM     12  C   UNL     1     -20.201 -13.160 -21.109  1.00  0.00    -0.000 C 
BRANCH  12  13
ATOM     13  C   UNL     1     -18.971 -13.366 -20.195  1.00  0.00    -0.000 C 
BRANCH  13  14
ATOM     14  C   UNL     1     -19.218 -12.928 -18.739  1.00  0.00    -0.000 C 
BRANCH  14  15
ATOM     15  C   UNL     1     -18.895 -14.022 -17.703  1.00  0.00    -0.003 C 
ATOM     16  C   UNL     1     -19.257 -15.424 -18.195  1.00  0.00     0.004 C 
ENDBRANCH  14  15
ENDBRANCH  13  14
ENDBRANCH  12  13
ENDBRANCH  11  12
ENDBRANCH  10  11
ENDBRANCH   1  10
TORSDOF 12
ENDMDL
MODEL 5
REMARK VINA RESULT:    -4.027      1.577      3.440
REMARK INTER + INTRA:          -8.474
REMARK INTER:                  -6.627
REMARK INTRA:                  -1.847
REMARK UNBOUND:                -1.622
REMARK SMILES CCCCCCCCCCCCCC(=O)[O-]
REMARK SMILES IDX 8 1 9 2 10 3 11 4 12 5 13 6 14 7 15 8 16 9 7 10 6 11 5 12
REMARK SMILES IDX 4 13 3 14 2 15 1 16
REMARK H PARENT
REMARK Flexibility Score: inf
ROOT
ATOM      1  C   UNL     1     -23.097 -14.636 -19.779  1.00  0.00     0.000 C 
ENDROOT
BRANCH   1   2
ATOM      2  C   UNL     1     -22.483 -13.260 -20.102  1.00  0.00     0.000 C 
BRANCH   2   3
ATOM      3  C   UNL     1     -22.759 -12.165 -19.056  1.00  0.00     0.000 C 
BRANCH   3   4
ATOM      4  C   UNL     1     -22.087 -12.386 -17.685  1.00  0.00     0.000 C 
BRANCH   4   5
ATOM      5  C   UNL     1     -23.048 -12.425 -16.483  1.00  0.00     0.006 C 
BRANCH   5   6
ATOM      6  C   UNL     1     -22.535 -13.309 -15.339  1.00  0.00     0.053 C 
BRANCH   6   7
ATOM      7  C   UNL     1     -23.639 -13.602 -14.372  1.00  0.00     0.041 C 
ATOM      8  O   UNL     1     -23.835 -14.780 -13.974  1.00  0.00    -0.550 OA
ATOM      9  O   UNL     1     -24.482 -12.581 -13.950  1.00  0.00    -0.550 OA
ENDBRANCH   6   7
ENDBRANCH   5   6
ENDBRANCH   4   5
ENDBRANCH   3   4
ENDBRANCH   2   3
ENDBRANCH   1   2
BRANCH   1  10
ATOM     10  C   UNL     1     -22.068 -15.672 -19.278  1.00  0.00     0.000 C 
BRANCH  10  11
ATOM     11  C   UNL     1     -22.309 -16.084 -17.816  1.00  0.00    -0.000 C 
BRANCH  11  12
ATOM     12  C   UNL     1     -21.011 -16.133 -16.993  1.00  0.00    -0.000 C 
BRANCH  12  13
ATOM     13  C   UNL     1     -19.806 -16.695 -17.783  1.00  0.00    -0.000 C 
BRANCH  13  14
ATOM     14  C   UNL     1     -18.575 -15.769 -17.747  1.00  0.00    -0.000 C 
BRANCH  14  15
ATOM     15  C   UNL     1     -18.930 -14.270 -17.755  1.00  0.00    -0.003 C 
ATOM     16  C   UNL     1     -18.854 -13.654 -19.152  1.00  0.00     0.004 C 
ENDBRANCH  14  15
ENDBRANCH  13  14
ENDBRANCH  12  13
ENDBRANCH  11  12
ENDBRANCH  10  11
ENDBRANCH   1  10
TORSDOF 12
ENDMDL
MODEL 6
REMARK VINA RESULT:    -3.979      1.494      3.064
REMARK INTER + INTRA:          -8.392
REMARK INTER:                  -6.875
REMARK INTRA:                  -1.517
REMARK UNBOUND:                -1.622
REMARK SMILES CCCCCCCCCCCCCC(=O)[O-]
REMARK SMILES IDX 8 1 9 2 10 3 11 4 12 5 13 6 14 7 15 8 16 9 7 10 6 11 5 12
REMARK SMILES IDX 4 13 3 14 2 15 1 16
REMARK H PARENT
REMARK Flexibility Score: inf
ROOT
ATOM      1  C   UNL     1     -21.911 -13.838 -16.099  1.00  0.00     0.000 C 
ENDROOT
BRANCH   1   2
ATOM      2  C   UNL     1     -21.943 -15.253 -16.708  1.00  0.00     0.000 C 
BRANCH   2   3
ATOM      3  C   UNL     1     -23.351 -15.846 -16.900  1.00  0.00     0.000 C 
BRANCH   3   4
ATOM      4  C   UNL     1     -23.731 -16.964 -15.907  1.00  0.00     0.000 C 
BRANCH   4   5
ATOM      5  C   UNL     1     -24.767 -16.566 -14.840  1.00  0.00     0.006 C 
BRANCH   5   6
ATOM      6  C   UNL     1     -24.296 -15.404 -13.956  1.00  0.00     0.053 C 
BRANCH   6   7
ATOM      7  C   UNL     1     -25.323 -14.316 -13.937  1.00  0.00     0.041 C 
ATOM      8  O   UNL     1     -26.540 -14.591 -14.098  1.00  0.00    -0.550 OA
ATOM      9  O   UNL     1     -24.928 -12.991 -13.790  1.00  0.00    -0.550 OA
ENDBRANCH   6   7
ENDBRANCH   5   6
ENDBRANCH   4   5
ENDBRANCH   3   4
ENDBRANCH   2   3
ENDBRANCH   1   2
BRANCH   1  10
ATOM     10  C   UNL     1     -22.972 -12.885 -16.690  1.00  0.00     0.000 C 
BRANCH  10  11
ATOM     11  C   UNL     1     -22.393 -11.953 -17.768  1.00  0.00    -0.000 C 
BRANCH  11  12
ATOM     12  C   UNL     1     -22.593 -12.499 -19.191  1.00  0.00    -0.000 C 
BRANCH  12  13
ATOM     13  C   UNL     1     -21.414 -12.183 -20.141  1.00  0.00    -0.000 C 
BRANCH  13  14
ATOM     14  C   UNL     1     -20.053 -12.132 -19.420  1.00  0.00    -0.000 C 
BRANCH  14  15
ATOM     15  C   UNL     1     -19.426 -13.520 -19.190  1.00  0.00    -0.003 C 
ATOM     16  C   UNL     1     -18.766 -13.649 -17.817  1.00  0.00     0.004 C 
ENDBRANCH  14  15
ENDBRANCH  13  14
ENDBRANCH  12  13
ENDBRANCH  11  12
ENDBRANCH  10  11
ENDBRANCH   1  10
TORSDOF 12
ENDMDL
MODEL 7
REMARK VINA RESULT:    -3.966      3.379      5.941
REMARK INTER + INTRA:          -8.370
REMARK INTER:                  -6.689
REMARK INTRA:                  -1.681
REMARK UNBOUND:                -1.622
REMARK SMILES CCCCCCCCCCCCCC(=O)[O-]
REMARK SMILES IDX 8 1 9 2 10 3 11 4 12 5 13 6 14 7 15 8 16 9 7 10 6 11 5 12
REMARK SMILES IDX 4 13 3 14 2 15 1 16
REMARK H PARENT
REMARK Flexibility Score: inf
ROOT
ATOM      1  C   UNL     1     -19.294 -13.231 -18.830  1.00  0.00     0.000 C 
ENDROOT
BRANCH   1   2
ATOM      2  C   UNL     1     -20.004 -11.929 -19.251  1.00  0.00     0.000 C 
BRANCH   2   3
ATOM      3  C   UNL     1     -21.385 -12.125 -19.901  1.00  0.00     0.000 C 
BRANCH   3   4
ATOM      4  C   UNL     1     -21.510 -13.366 -20.811  1.00  0.00     0.000 C 
BRANCH   4   5
ATOM      5  C   UNL     1     -22.840 -14.131 -20.693  1.00  0.00     0.006 C 
BRANCH   5   6
ATOM      6  C   UNL     1     -22.656 -15.654 -20.721  1.00  0.00     0.053 C 
BRANCH   6   7
ATOM      7  C   UNL     1     -22.042 -16.081 -22.017  1.00  0.00     0.041 C 
ATOM      8  O   UNL     1     -22.699 -15.992 -23.087  1.00  0.00    -0.550 OA
ATOM      9  O   UNL     1     -20.763 -16.623 -22.036  1.00  0.00    -0.550 OA
ENDBRANCH   6   7
ENDBRANCH   5   6
ENDBRANCH   4   5
ENDBRANCH   3   4
ENDBRANCH   2   3
ENDBRANCH   1   2
BRANCH   1  10
ATOM     10  C   UNL     1     -19.718 -13.745 -17.438  1.00  0.00     0.000 C 
BRANCH  10  11
ATOM     11  C   UNL     1     -20.606 -14.999 -17.517  1.00  0.00    -0.000 C 
BRANCH  11  12
ATOM     12  C   UNL     1     -21.868 -14.885 -16.646  1.00  0.00    -0.000 C 
BRANCH  12  13
ATOM     13  C   UNL     1     -22.870 -13.823 -17.156  1.00  0.00    -0.000 C 
BRANCH  13  14
ATOM     14  C   UNL     1     -22.995 -12.608 -16.217  1.00  0.00    -0.000 C 
BRANCH  14  15
ATOM     15  C   UNL     1     -23.048 -12.986 -14.725  1.00  0.00    -0.003 C 
ATOM     16  C   UNL     1     -24.474 -13.229 -14.228  1.00  0.00     0.004 C 
ENDBRANCH  14  15
ENDBRANCH  13  14
ENDBRANCH  12  13
ENDBRANCH  11  12
ENDBRANCH  10  11
ENDBRANCH   1  10
TORSDOF 12
ENDMDL
MODEL 8
REMARK VINA RESULT:    -3.916      2.728      5.734
REMARK INTER + INTRA:          -8.284
REMARK INTER:                  -6.711
REMARK INTRA:                  -1.574
REMARK UNBOUND:                -1.622
REMARK SMILES CCCCCCCCCCCCCC(=O)[O-]
REMARK SMILES IDX 8 1 9 2 10 3 11 4 12 5 13 6 14 7 15 8 16 9 7 10 6 11 5 12
REMARK SMILES IDX 4 13 3 14 2 15 1 16
REMARK H PARENT
REMARK Flexibility Score: inf
ROOT
ATOM      1  C   UNL     1     -23.026 -14.239 -18.698  1.00  0.00     0.000 C 
ENDROOT
BRANCH   1   2
ATOM      2  C   UNL     1     -22.651 -13.704 -20.093  1.00  0.00     0.000 C 
BRANCH   2   3
ATOM      3  C   UNL     1     -21.868 -12.379 -20.090  1.00  0.00     0.000 C 
BRANCH   3   4
ATOM      4  C   UNL     1     -20.962 -12.157 -18.861  1.00  0.00     0.000 C 
BRANCH   4   5
ATOM      5  C   UNL     1     -19.650 -12.961 -18.862  1.00  0.00     0.006 C 
BRANCH   5   6
ATOM      6  C   UNL     1     -19.412 -13.714 -17.547  1.00  0.00     0.053 C 
BRANCH   6   7
ATOM      7  C   UNL     1     -18.716 -15.013 -17.809  1.00  0.00     0.041 C 
ATOM      8  O   UNL     1     -17.711 -15.052 -18.565  1.00  0.00    -0.550 OA
ATOM      9  O   UNL     1     -19.210 -16.189 -17.258  1.00  0.00    -0.550 OA
ENDBRANCH   6   7
ENDBRANCH   5   6
ENDBRANCH   4   5
ENDBRANCH   3   4
ENDBRANCH   2   3
ENDBRANCH   1   2
BRANCH   1  10
ATOM     10  C   UNL     1     -22.496 -15.660 -18.415  1.00  0.00     0.000 C 
BRANCH  10  11
ATOM     11  C   UNL     1     -23.306 -16.388 -17.329  1.00  0.00    -0.000 C 
BRANCH  11  12
ATOM     12  C   UNL     1     -22.629 -16.334 -15.950  1.00  0.00    -0.000 C 
BRANCH  12  13
ATOM     13  C   UNL     1     -23.608 -16.009 -14.798  1.00  0.00    -0.000 C 
BRANCH  13  14
ATOM     14  C   UNL     1     -24.002 -14.521 -14.740  1.00  0.00    -0.000 C 
BRANCH  14  15
ATOM     15  C   UNL     1     -22.823 -13.561 -14.990  1.00  0.00    -0.003 C 
ATOM     16  C   UNL     1     -23.260 -12.249 -15.643  1.00  0.00     0.004 C 
ENDBRANCH  14  15
ENDBRANCH  13  14
ENDBRANCH  12  13
ENDBRANCH  11  12
ENDBRANCH  10  11
ENDBRANCH   1  10
TORSDOF 12
ENDMDL
MODEL 9
REMARK VINA RESULT:    -3.858      1.664      3.049
REMARK INTER + INTRA:          -8.186
REMARK INTER:                  -6.734
REMARK INTRA:                  -1.453
REMARK UNBOUND:                -1.622
REMARK SMILES CCCCCCCCCCCCCC(=O)[O-]
REMARK SMILES IDX 8 1 9 2 10 3 11 4 12 5 13 6 14 7 15 8 16 9 7 10 6 11 5 12
REMARK SMILES IDX 4 13 3 14 2 15 1 16
REMARK H PARENT
REMARK Flexibility Score: inf
ROOT
ATOM      1  C   UNL     1     -22.900 -12.778 -17.740  1.00  0.00     0.000 C 
ENDROOT
BRANCH   1   2
ATOM      2  C   UNL     1     -23.063 -12.203 -16.320  1.00  0.00     0.000 C 
BRANCH   2   3
ATOM      3  C   UNL     1     -22.731 -13.184 -15.181  1.00  0.00     0.000 C 
BRANCH   3   4
ATOM      4  C   UNL     1     -23.950 -13.701 -14.387  1.00  0.00     0.000 C 
BRANCH   4   5
ATOM      5  C   UNL     1     -24.113 -15.231 -14.364  1.00  0.00     0.006 C 
BRANCH   5   6
ATOM      6  C   UNL     1     -23.466 -15.918 -15.573  1.00  0.00     0.053 C 
BRANCH   6   7
ATOM      7  C   UNL     1     -22.998 -17.291 -15.203  1.00  0.00     0.041 C 
ATOM      8  O   UNL     1     -22.204 -17.913 -15.957  1.00  0.00    -0.550 OA
ATOM      9  O   UNL     1     -23.478 -17.902 -14.051  1.00  0.00    -0.550 OA
ENDBRANCH   6   7
ENDBRANCH   5   6
ENDBRANCH   4   5
ENDBRANCH   3   4
ENDBRANCH   2   3
ENDBRANCH   1   2
BRANCH   1  10
ATOM     10  C   UNL     1     -22.080 -11.875 -18.685  1.00  0.00     0.000 C 
BRANCH  10  11
ATOM     11  C   UNL     1     -21.841 -12.522 -20.059  1.00  0.00    -0.000 C 
BRANCH  11  12
ATOM     12  C   UNL     1     -20.350 -12.591 -20.429  1.00  0.00    -0.000 C 
BRANCH  12  13
ATOM     13  C   UNL     1     -19.679 -13.924 -20.024  1.00  0.00    -0.000 C 
BRANCH  13  14
ATOM     14  C   UNL     1     -18.690 -13.772 -18.852  1.00  0.00    -0.000 C 
BRANCH  14  15
ATOM     15  C   UNL     1     -19.333 -14.002 -17.471  1.00  0.00    -0.003 C 
ATOM     16  C   UNL     1     -20.205 -15.257 -17.429  1.00  0.00     0.004 C 
ENDBRANCH  14  15
ENDBRANCH  13  14
ENDBRANCH  12  13
ENDBRANCH  11  12
ENDBRANCH  10  11
ENDBRANCH   1  10
TORSDOF 12
ENDMDL
