MODEL 1
REMARK VINA RESULT:    -4.017      0.000      0.000
REMARK INTER + INTRA:          -5.877
REMARK INTER:                  -5.661
REMARK INTRA:                  -0.216
REMARK UNBOUND:                -0.216
REMARK SMILES CCCCCCCCC(=O)[O-]
REMARK SMILES IDX 6 1 7 2 8 3 9 4 10 5 11 6 5 7 4 8 3 9 2 10 1 11
REMARK H PARENT
REMARK Flexibility Score: inf
ROOT
ATOM      1  C   UNL     1      17.239  -6.339  13.637  1.00  0.00     0.000 C 
ENDROOT
BRANCH   1   2
ATOM      2  C   UNL     1      16.709  -7.455  12.724  1.00  0.00     0.006 C 
BRANCH   2   3
ATOM      3  C   UNL     1      17.802  -8.462  12.343  1.00  0.00     0.053 C 
BRANCH   3   4
ATOM      4  C   UNL     1      17.797  -9.656  13.248  1.00  0.00     0.041 C 
ATOM      5  O   UNL     1      18.478  -9.650  14.308  1.00  0.00    -0.550 OA
ATOM      6  O   UNL     1      17.067 -10.787  12.905  1.00  0.00    -0.550 OA
ENDBRANCH   3   4
ENDBRANCH   2   3
ENDBRANCH   1   2
BRANCH   1   7
ATOM      7  C   UNL     1      16.307  -6.127  14.840  1.00  0.00     0.000 C 
BRANCH   7   8
ATOM      8  C   UNL     1      17.059  -6.125  16.181  1.00  0.00    -0.000 C 
BRANCH   8   9
ATOM      9  C   UNL     1      16.152  -5.752  17.366  1.00  0.00    -0.000 C 
BRANCH   9  10
ATOM     10  C   UNL     1      16.948  -5.265  18.587  1.00  0.00    -0.003 C 
ATOM     11  C   UNL     1      16.203  -4.202  19.395  1.00  0.00     0.004 C 
ENDBRANCH   9  10
ENDBRANCH   8   9
ENDBRANCH   7   8
ENDBRANCH   1   7
TORSDOF 7
ENDMDL
MODEL 2
REMARK VINA RESULT:    -3.980      1.444      2.235
REMARK INTER + INTRA:          -5.825
REMARK INTER:                  -5.520
REMARK INTRA:                  -0.304
REMARK UNBOUND:                -0.216
REMARK SMILES CCCCCCCCC(=O)[O-]
REMARK SMILES IDX 6 1 7 2 8 3 9 4 10 5 11 6 5 7 4 8 3 9 2 10 1 11
REMARK H PARENT
REMARK Flexibility Score: inf
ROOT
ATOM      1  C   UNL     1      18.133  -8.327  14.120  1.00  0.00     0.000 C 
ENDROOT
BRANCH   1   2
ATOM      2  C   UNL     1      17.847  -9.593  13.298  1.00  0.00     0.006 C 
BRANCH   2   3
ATOM      3  C   UNL     1      16.531  -9.493  12.515  1.00  0.00     0.053 C 
BRANCH   3   4
ATOM      4  C   UNL     1      15.787 -10.794  12.511  1.00  0.00     0.041 C 
ATOM      5  O   UNL     1      16.414 -11.881  12.413  1.00  0.00    -0.550 OA
ATOM      6  O   UNL     1      14.399 -10.802  12.582  1.00  0.00    -0.550 OA
ENDBRANCH   3   4
ENDBRANCH   2   3
ENDBRANCH   1   2
BRANCH   1   7
ATOM      7  C   UNL     1      17.253  -7.158  13.650  1.00  0.00     0.000 C 
BRANCH   7   8
ATOM      8  C   UNL     1      17.116  -6.054  14.710  1.00  0.00    -0.000 C 
BRANCH   8   9
ATOM      9  C   UNL     1      17.284  -6.587  16.143  1.00  0.00    -0.000 C 
BRANCH   9  10
ATOM     10  C   UNL     1      16.275  -5.968  17.124  1.00  0.00    -0.003 C 
ATOM     11  C   UNL     1      16.941  -5.395  18.376  1.00  0.00     0.004 C 
ENDBRANCH   9  10
ENDBRANCH   8   9
ENDBRANCH   7   8
ENDBRANCH   1   7
TORSDOF 7
ENDMDL
MODEL 3
REMARK VINA RESULT:    -3.939      2.147      3.326
REMARK INTER + INTRA:          -5.766
REMARK INTER:                  -5.413
REMARK INTRA:                  -0.353
REMARK UNBOUND:                -0.216
REMARK SMILES CCCCCCCCC(=O)[O-]
REMARK SMILES IDX 6 1 7 2 8 3 9 4 10 5 11 6 5 7 4 8 3 9 2 10 1 11
REMARK H PARENT
REMARK Flexibility Score: inf
ROOT
ATOM      1  C   UNL     1      17.853  -9.551  13.354  1.00  0.00     0.000 C 
ENDROOT
BRANCH   1   2
ATOM      2  C   UNL     1      16.533  -9.940  12.673  1.00  0.00     0.006 C 
BRANCH   2   3
ATOM      3  C   UNL     1      16.549 -11.385  12.157  1.00  0.00     0.053 C 
BRANCH   3   4
ATOM      4  C   UNL     1      15.251 -12.085  12.424  1.00  0.00     0.041 C 
ATOM      5  O   UNL     1      14.179 -11.428  12.487  1.00  0.00    -0.550 OA
ATOM      6  O   UNL     1      15.231 -13.458  12.634  1.00  0.00    -0.550 OA
ENDBRANCH   3   4
ENDBRANCH   2   3
ENDBRANCH   1   2
BRANCH   1   7
ATOM      7  C   UNL     1      18.014  -8.023  13.405  1.00  0.00     0.000 C 
BRANCH   7   8
ATOM      8  C   UNL     1      16.669  -7.282  13.363  1.00  0.00    -0.000 C 
BRANCH   8   9
ATOM      9  C   UNL     1      16.504  -6.289  14.527  1.00  0.00    -0.000 C 
BRANCH   9  10
ATOM     10  C   UNL     1      17.343  -6.676  15.755  1.00  0.00    -0.003 C 
ATOM     11  C   UNL     1      16.812  -6.065  17.052  1.00  0.00     0.004 C 
ENDBRANCH   9  10
ENDBRANCH   8   9
ENDBRANCH   7   8
ENDBRANCH   1   7
TORSDOF 7
ENDMDL
MODEL 4
REMARK VINA RESULT:    -3.897      3.319      4.606
REMARK INTER + INTRA:          -5.708
REMARK INTER:                  -5.291
REMARK INTRA:                  -0.416
REMARK UNBOUND:                -0.216
REMARK SMILES CCCCCCCCC(=O)[O-]
REMARK SMILES IDX 6 1 7 2 8 3 9 4 10 5 11 6 5 7 4 8 3 9 2 10 1 11
REMARK H PARENT
REMARK Flexibility Score: inf
ROOT
ATOM      1  C   UNL     1      16.233  -9.539  12.205  1.00  0.00     0.000 C 
ENDROOT
BRANCH   1   2
ATOM      2  C   UNL     1      14.936 -10.356  12.308  1.00  0.00     0.006 C 
BRANCH   2   3
ATOM      3  C   UNL     1      15.191 -11.866  12.209  1.00  0.00     0.053 C 
BRANCH   3   4
ATOM      4  C   UNL     1      14.028 -12.660  12.721  1.00  0.00     0.041 C 
ATOM      5  O   UNL     1      14.088 -13.917  12.761  1.00  0.00    -0.550 OA
ATOM      6  O   UNL     1      12.867 -12.013  13.125  1.00  0.00    -0.550 OA
ENDBRANCH   3   4
ENDBRANCH   2   3
ENDBRANCH   1   2
BRANCH   1   7
ATOM      7  C   UNL     1      17.375 -10.226  12.969  1.00  0.00     0.000 C 
BRANCH   7   8
ATOM      8  C   UNL     1      18.262  -9.231  13.734  1.00  0.00    -0.000 C 
BRANCH   8   9
ATOM      9  C   UNL     1      17.894  -7.766  13.442  1.00  0.00    -0.000 C 
BRANCH   9  10
ATOM     10  C   UNL     1      17.453  -7.007  14.704  1.00  0.00    -0.003 C 
ATOM     11  C   UNL     1      16.226  -6.126  14.466  1.00  0.00     0.004 C 
ENDBRANCH   9  10
ENDBRANCH   8   9
ENDBRANCH   7   8
ENDBRANCH   1   7
TORSDOF 7
ENDMDL
MODEL 5
REMARK VINA RESULT:    -3.863      3.054      6.090
REMARK INTER + INTRA:          -5.659
REMARK INTER:                  -5.267
REMARK INTRA:                  -0.392
REMARK UNBOUND:                -0.216
REMARK SMILES CCCCCCCCC(=O)[O-]
REMARK SMILES IDX 6 1 7 2 8 3 9 4 10 5 11 6 5 7 4 8 3 9 2 10 1 11
REMARK H PARENT
REMARK Flexibility Score: inf
ROOT
ATOM      1  C   UNL     1      17.942  -9.224  13.350  1.00  0.00     0.000 C 
ENDROOT
BRANCH   1   2
ATOM      2  C   UNL     1      18.131  -7.966  12.488  1.00  0.00     0.006 C 
BRANCH   2   3
ATOM      3  C   UNL     1      18.164  -6.684  13.330  1.00  0.00     0.053 C 
BRANCH   3   4
ATOM      4  C   UNL     1      17.101  -6.685  14.386  1.00  0.00     0.041 C 
ATOM      5  O   UNL     1      15.891  -6.545  14.067  1.00  0.00    -0.550 OA
ATOM      6  O   UNL     1      17.451  -6.809  15.725  1.00  0.00    -0.550 OA
ENDBRANCH   3   4
ENDBRANCH   2   3
ENDBRANCH   1   2
BRANCH   1   7
ATOM      7  C   UNL     1      17.089 -10.269  12.615  1.00  0.00     0.000 C 
BRANCH   7   8
ATOM      8  C   UNL     1      15.595  -9.909  12.593  1.00  0.00    -0.000 C 
BRANCH   8   9
ATOM      9  C   UNL     1      14.724 -11.035  12.009  1.00  0.00    -0.000 C 
BRANCH   9  10
ATOM     10  C   UNL     1      15.418 -12.405  12.062  1.00  0.00    -0.003 C 
ATOM     11  C   UNL     1      14.521 -13.502  12.637  1.00  0.00     0.004 C 
ENDBRANCH   9  10
ENDBRANCH   8   9
ENDBRANCH   7   8
ENDBRANCH   1   7
TORSDOF 7
ENDMDL
MODEL 6
REMARK VINA RESULT:    -3.817      3.966      6.569
REMARK INTER + INTRA:          -5.594
REMARK INTER:                  -5.165
REMARK INTRA:                  -0.429
REMARK UNBOUND:                -0.216
REMARK SMILES CCCCCCCCC(=O)[O-]
REMARK SMILES IDX 6 1 7 2 8 3 9 4 10 5 11 6 5 7 4 8 3 9 2 10 1 11
REMARK H PARENT
REMARK Flexibility Score: inf
ROOT
ATOM      1  C   UNL     1      15.901 -11.494  11.910  1.00  0.00     0.000 C 
ENDROOT
BRANCH   1   2
ATOM      2  C   UNL     1      17.035 -10.581  12.401  1.00  0.00     0.006 C 
BRANCH   2   3
ATOM      3  C   UNL     1      16.568  -9.135  12.612  1.00  0.00     0.053 C 
BRANCH   3   4
ATOM      4  C   UNL     1      17.696  -8.242  13.031  1.00  0.00     0.041 C 
ATOM      5  O   UNL     1      18.422  -7.689  12.164  1.00  0.00    -0.550 OA
ATOM      6  O   UNL     1      17.965  -8.048  14.380  1.00  0.00    -0.550 OA
ENDBRANCH   3   4
ENDBRANCH   2   3
ENDBRANCH   1   2
BRANCH   1   7
ATOM      7  C   UNL     1      15.963 -12.866  12.599  1.00  0.00     0.000 C 
BRANCH   7   8
ATOM      8  C   UNL     1      14.596 -13.565  12.656  1.00  0.00    -0.000 C 
BRANCH   8   9
ATOM      9  C   UNL     1      13.500 -12.782  11.914  1.00  0.00    -0.000 C 
BRANCH   9  10
ATOM     10  C   UNL     1      12.434 -12.215  12.864  1.00  0.00    -0.003 C 
ATOM     11  C   UNL     1      12.435 -10.686  12.912  1.00  0.00     0.004 C 
ENDBRANCH   9  10
ENDBRANCH   8   9
ENDBRANCH   7   8
ENDBRANCH   1   7
TORSDOF 7
ENDMDL
MODEL 7
REMARK VINA RESULT:    -3.791      3.691      4.944
REMARK INTER + INTRA:          -5.559
REMARK INTER:                  -5.191
REMARK INTRA:                  -0.368
REMARK UNBOUND:                -0.216
REMARK SMILES CCCCCCCCC(=O)[O-]
REMARK SMILES IDX 6 1 7 2 8 3 9 4 10 5 11 6 5 7 4 8 3 9 2 10 1 11
REMARK H PARENT
REMARK Flexibility Score: inf
ROOT
ATOM      1  C   UNL     1      14.465  -9.121  12.429  1.00  0.00     0.000 C 
ENDROOT
BRANCH   1   2
ATOM      2  C   UNL     1      15.027 -10.539  12.242  1.00  0.00     0.006 C 
BRANCH   2   3
ATOM      3  C   UNL     1      13.984 -11.622  12.547  1.00  0.00     0.053 C 
BRANCH   3   4
ATOM      4  C   UNL     1      14.600 -12.988  12.597  1.00  0.00     0.041 C 
ATOM      5  O   UNL     1      13.876 -14.003  12.771  1.00  0.00    -0.550 OA
ATOM      6  O   UNL     1      15.977 -13.135  12.485  1.00  0.00    -0.550 OA
ENDBRANCH   3   4
ENDBRANCH   2   3
ENDBRANCH   1   2
BRANCH   1   7
ATOM      7  C   UNL     1      15.526  -8.062  12.093  1.00  0.00     0.000 C 
BRANCH   7   8
ATOM      8  C   UNL     1      16.318  -7.601  13.326  1.00  0.00    -0.000 C 
BRANCH   8   9
ATOM      9  C   UNL     1      17.821  -7.910  13.215  1.00  0.00    -0.000 C 
BRANCH   9  10
ATOM     10  C   UNL     1      18.150  -9.367  13.574  1.00  0.00    -0.003 C 
ATOM     11  C   UNL     1      18.530  -9.544  15.044  1.00  0.00     0.004 C 
ENDBRANCH   9  10
ENDBRANCH   8   9
ENDBRANCH   7   8
ENDBRANCH   1   7
TORSDOF 7
ENDMDL
MODEL 8
REMARK VINA RESULT:    -3.780      2.531      3.754
REMARK INTER + INTRA:          -5.542
REMARK INTER:                  -4.886
REMARK INTRA:                  -0.656
REMARK UNBOUND:                -0.216
REMARK SMILES CCCCCCCCC(=O)[O-]
REMARK SMILES IDX 6 1 7 2 8 3 9 4 10 5 11 6 5 7 4 8 3 9 2 10 1 11
REMARK H PARENT
REMARK Flexibility Score: inf
ROOT
ATOM      1  C   UNL     1      18.092  -9.138  13.115  1.00  0.00     0.000 C 
ENDROOT
BRANCH   1   2
ATOM      2  C   UNL     1      16.887 -10.055  12.853  1.00  0.00     0.006 C 
BRANCH   2   3
ATOM      3  C   UNL     1      15.721  -9.307  12.192  1.00  0.00     0.053 C 
BRANCH   3   4
ATOM      4  C   UNL     1      14.395  -9.849  12.629  1.00  0.00     0.041 C 
ATOM      5  O   UNL     1      14.202 -11.093  12.674  1.00  0.00    -0.550 OA
ATOM      6  O   UNL     1      13.361  -8.980  12.955  1.00  0.00    -0.550 OA
ENDBRANCH   3   4
ENDBRANCH   2   3
ENDBRANCH   1   2
BRANCH   1   7
ATOM      7  C   UNL     1      18.049  -7.902  12.203  1.00  0.00     0.000 C 
BRANCH   7   8
ATOM      8  C   UNL     1      18.319  -6.594  12.962  1.00  0.00    -0.000 C 
BRANCH   8   9
ATOM      9  C   UNL     1      17.044  -5.759  13.174  1.00  0.00    -0.000 C 
BRANCH   9  10
ATOM     10  C   UNL     1      16.275  -6.169  14.440  1.00  0.00    -0.003 C 
ATOM     11  C   UNL     1      17.195  -6.437  15.631  1.00  0.00     0.004 C 
ENDBRANCH   9  10
ENDBRANCH   8   9
ENDBRANCH   7   8
ENDBRANCH   1   7
TORSDOF 7
ENDMDL
MODEL 9
REMARK VINA RESULT:    -3.713      4.018      6.204
REMARK INTER + INTRA:          -5.449
REMARK INTER:                  -5.105
REMARK INTRA:                  -0.344
REMARK UNBOUND:                -0.216
REMARK SMILES CCCCCCCCC(=O)[O-]
REMARK SMILES IDX 6 1 7 2 8 3 9 4 10 5 11 6 5 7 4 8 3 9 2 10 1 11
REMARK H PARENT
REMARK Flexibility Score: inf
ROOT
ATOM      1  C   UNL     1      15.877 -12.507  12.543  1.00  0.00     0.000 C 
ENDROOT
BRANCH   1   2
ATOM      2  C   UNL     1      14.494 -12.555  11.875  1.00  0.00     0.006 C 
BRANCH   2   3
ATOM      3  C   UNL     1      13.386 -12.948  12.861  1.00  0.00     0.053 C 
BRANCH   3   4
ATOM      4  C   UNL     1      12.181 -12.068  12.722  1.00  0.00     0.041 C 
ATOM      5  O   UNL     1      11.156 -12.489  12.124  1.00  0.00    -0.550 OA
ATOM      6  O   UNL     1      12.202 -10.773  13.224  1.00  0.00    -0.550 OA
ENDBRANCH   3   4
ENDBRANCH   2   3
ENDBRANCH   1   2
BRANCH   1   7
ATOM      7  C   UNL     1      16.607 -11.199  12.199  1.00  0.00     0.000 C 
BRANCH   7   8
ATOM      8  C   UNL     1      15.781  -9.950  12.540  1.00  0.00    -0.000 C 
BRANCH   8   9
ATOM      9  C   UNL     1      16.504  -8.643  12.170  1.00  0.00    -0.000 C 
BRANCH   9  10
ATOM     10  C   UNL     1      17.848  -8.488  12.899  1.00  0.00    -0.003 C 
ATOM     11  C   UNL     1      17.746  -7.616  14.151  1.00  0.00     0.004 C 
ENDBRANCH   9  10
ENDBRANCH   8   9
ENDBRANCH   7   8
ENDBRANCH   1   7
TORSDOF 7
ENDMDL
