MODEL 1
REMARK VINA RESULT:    -5.043      0.000      0.000
REMARK INTER + INTRA:          -5.962
REMARK INTER:                  -5.780
REMARK INTRA:                  -0.182
REMARK UNBOUND:                -0.182
REMARK SMILES CC=Cc1ccc(O)c(OC)c1
REMARK SMILES IDX 4 1 12 2 9 3 7 4 6 5 5 6 3 7 1 8 2 9 10 10 11 11 8 12
REMARK H PARENT 8 13
REMARK Flexibility Score: inf
ROOT
ATOM      1  C   UNL     1       2.657  28.185  56.998  1.00  0.00    -0.022 A 
ATOM      2  C   UNL     1       1.357  28.493  57.433  1.00  0.00     0.058 A 
ATOM      3  C   UNL     1       0.405  29.032  56.544  1.00  0.00     0.161 A 
ATOM      4  C   UNL     1       0.772  29.271  55.208  1.00  0.00     0.157 A 
ATOM      5  C   UNL     1       2.068  28.980  54.777  1.00  0.00     0.051 A 
ATOM      6  C   UNL     1       3.007  28.446  55.661  1.00  0.00     0.012 A 
ENDROOT
BRANCH   1   7
ATOM      7  C   UNL     1       3.621  27.628  57.981  1.00  0.00     0.003 C 
ATOM      8  C   UNL     1       5.811  26.801  58.747  1.00  0.00     0.035 C 
ATOM      9  C   UNL     1       4.906  27.377  57.706  1.00  0.00    -0.030 C 
ENDBRANCH   1   7
BRANCH   3  10
ATOM     10  O   UNL     1      -0.903  29.339  56.952  1.00  0.00    -0.493 OA
ATOM     11  C   UNL     1      -1.246  30.400  57.839  1.00  0.00     0.278 C 
ENDBRANCH   3  10
BRANCH   4  12
ATOM     12  O   UNL     1      -0.139  29.802  54.294  1.00  0.00    -0.504 OA
ATOM     13  H   UNL     1      -0.692  30.626  54.498  1.00  0.00     0.293 HD
ENDBRANCH   4  12
TORSDOF 3
ENDMDL
MODEL 2
REMARK VINA RESULT:    -5.022      2.739      5.096
REMARK INTER + INTRA:          -5.938
REMARK INTER:                  -5.788
REMARK INTRA:                  -0.151
REMARK UNBOUND:                -0.182
REMARK SMILES CC=Cc1ccc(O)c(OC)c1
REMARK SMILES IDX 4 1 12 2 9 3 7 4 6 5 5 6 3 7 1 8 2 9 10 10 11 11 8 12
REMARK H PARENT 8 13
REMARK Flexibility Score: inf
ROOT
ATOM      1  C   UNL     1       2.016  28.322  56.859  1.00  0.00    -0.022 A 
ATOM      2  C   UNL     1       2.719  28.604  55.675  1.00  0.00     0.058 A 
ATOM      3  C   UNL     1       4.092  28.310  55.560  1.00  0.00     0.161 A 
ATOM      4  C   UNL     1       4.764  27.735  56.653  1.00  0.00     0.157 A 
ATOM      5  C   UNL     1       4.073  27.468  57.837  1.00  0.00     0.051 A 
ATOM      6  C   UNL     1       2.712  27.761  57.946  1.00  0.00     0.012 A 
ENDROOT
BRANCH   1   7
ATOM      7  C   UNL     1       0.573  28.663  56.926  1.00  0.00     0.003 C 
ATOM      8  C   UNL     1      -1.380  30.017  57.572  1.00  0.00     0.035 C 
ATOM      9  C   UNL     1       0.090  29.752  57.534  1.00  0.00    -0.030 C 
ENDBRANCH   1   7
BRANCH   3  10
ATOM     10  O   UNL     1       4.814  28.573  54.385  1.00  0.00    -0.493 OA
ATOM     11  C   UNL     1       4.234  28.687  53.088  1.00  0.00     0.278 C 
ENDBRANCH   3  10
BRANCH   4  12
ATOM     12  O   UNL     1       6.123  27.427  56.583  1.00  0.00    -0.504 OA
ATOM     13  H   UNL     1       6.475  26.664  56.017  1.00  0.00     0.293 HD
ENDBRANCH   4  12
TORSDOF 3
ENDMDL
MODEL 3
REMARK VINA RESULT:    -4.877      1.323      3.016
REMARK INTER + INTRA:          -5.772
REMARK INTER:                  -5.620
REMARK INTRA:                  -0.152
REMARK UNBOUND:                -0.182
REMARK SMILES CC=Cc1ccc(O)c(OC)c1
REMARK SMILES IDX 4 1 12 2 9 3 7 4 6 5 5 6 3 7 1 8 2 9 10 10 11 11 8 12
REMARK H PARENT 8 13
REMARK Flexibility Score: inf
ROOT
ATOM      1  C   UNL     1       2.914  28.091  57.086  1.00  0.00    -0.022 A 
ATOM      2  C   UNL     1       3.416  28.387  55.808  1.00  0.00     0.058 A 
ATOM      3  C   UNL     1       2.614  29.035  54.847  1.00  0.00     0.161 A 
ATOM      4  C   UNL     1       1.291  29.376  55.176  1.00  0.00     0.157 A 
ATOM      5  C   UNL     1       0.783  29.068  56.441  1.00  0.00     0.051 A 
ATOM      6  C   UNL     1       1.582  28.428  57.390  1.00  0.00     0.012 A 
ENDROOT
BRANCH   1   7
ATOM      7  C   UNL     1       3.802  27.399  58.055  1.00  0.00     0.003 C 
ATOM      8  C   UNL     1       5.946  26.536  58.907  1.00  0.00     0.035 C 
ATOM      9  C   UNL     1       5.122  27.260  57.891  1.00  0.00    -0.030 C 
ENDBRANCH   1   7
BRANCH   3  10
ATOM     10  O   UNL     1       3.096  29.351  53.567  1.00  0.00    -0.493 OA
ATOM     11  C   UNL     1       4.207  28.716  52.941  1.00  0.00     0.278 C 
ENDBRANCH   3  10
BRANCH   4  12
ATOM     12  O   UNL     1       0.462  30.018  54.256  1.00  0.00    -0.504 OA
ATOM     13  H   UNL     1      -0.373  30.518  54.537  1.00  0.00     0.293 HD
ENDBRANCH   4  12
TORSDOF 3
ENDMDL
MODEL 4
REMARK VINA RESULT:    -4.401      2.383      4.081
REMARK INTER + INTRA:          -5.226
REMARK INTER:                  -5.064
REMARK INTRA:                  -0.162
REMARK UNBOUND:                -0.182
REMARK SMILES CC=Cc1ccc(O)c(OC)c1
REMARK SMILES IDX 4 1 12 2 9 3 7 4 6 5 5 6 3 7 1 8 2 9 10 10 11 11 8 12
REMARK H PARENT 8 13
REMARK Flexibility Score: inf
ROOT
ATOM      1  C   UNL     1       3.514  28.644  54.871  1.00  0.00    -0.022 A 
ATOM      2  C   UNL     1       2.247  28.698  55.475  1.00  0.00     0.058 A 
ATOM      3  C   UNL     1       2.054  28.244  56.795  1.00  0.00     0.161 A 
ATOM      4  C   UNL     1       3.147  27.721  57.507  1.00  0.00     0.157 A 
ATOM      5  C   UNL     1       4.405  27.650  56.905  1.00  0.00     0.051 A 
ATOM      6  C   UNL     1       4.592  28.102  55.597  1.00  0.00     0.012 A 
ENDROOT
BRANCH   1   7
ATOM      7  C   UNL     1       3.657  29.127  53.475  1.00  0.00     0.003 C 
ATOM      8  C   UNL     1       4.535  29.097  51.173  1.00  0.00     0.035 C 
ATOM      9  C   UNL     1       4.433  28.540  52.557  1.00  0.00    -0.030 C 
ENDBRANCH   1   7
BRANCH   3  10
ATOM     10  O   UNL     1       0.799  28.297  57.424  1.00  0.00    -0.493 OA
ATOM     11  C   UNL     1      -0.164  29.327  57.222  1.00  0.00     0.278 C 
ENDBRANCH   3  10
BRANCH   4  12
ATOM     12  O   UNL     1       3.001  27.261  58.817  1.00  0.00    -0.504 OA
ATOM     13  H   UNL     1       2.576  27.824  59.543  1.00  0.00     0.293 HD
ENDBRANCH   4  12
TORSDOF 3
ENDMDL
MODEL 5
REMARK VINA RESULT:    -4.349      2.274      4.077
REMARK INTER + INTRA:          -5.167
REMARK INTER:                  -5.012
REMARK INTRA:                  -0.155
REMARK UNBOUND:                -0.182
REMARK SMILES CC=Cc1ccc(O)c(OC)c1
REMARK SMILES IDX 4 1 12 2 9 3 7 4 6 5 5 6 3 7 1 8 2 9 10 10 11 11 8 12
REMARK H PARENT 8 13
REMARK Flexibility Score: inf
ROOT
ATOM      1  C   UNL     1       3.290  28.847  54.756  1.00  0.00    -0.022 A 
ATOM      2  C   UNL     1       3.546  28.288  56.020  1.00  0.00     0.058 A 
ATOM      3  C   UNL     1       2.516  28.149  56.972  1.00  0.00     0.161 A 
ATOM      4  C   UNL     1       1.220  28.587  56.649  1.00  0.00     0.157 A 
ATOM      5  C   UNL     1       0.965  29.157  55.400  1.00  0.00     0.051 A 
ATOM      6  C   UNL     1       1.989  29.293  54.460  1.00  0.00     0.012 A 
ENDROOT
BRANCH   1   7
ATOM      7  C   UNL     1       4.415  28.978  53.797  1.00  0.00     0.003 C 
ATOM      8  C   UNL     1       5.534  28.756  51.614  1.00  0.00     0.035 C 
ATOM      9  C   UNL     1       4.350  28.605  52.514  1.00  0.00    -0.030 C 
ENDBRANCH   1   7
BRANCH   3  10
ATOM     10  O   UNL     1       2.744  27.585  58.237  1.00  0.00    -0.493 OA
ATOM     11  C   UNL     1       3.940  26.910  58.619  1.00  0.00     0.278 C 
ENDBRANCH   3  10
BRANCH   4  12
ATOM     12  O   UNL     1       0.171  28.467  57.561  1.00  0.00    -0.504 OA
ATOM     13  H   UNL     1       0.327  28.384  58.558  1.00  0.00     0.293 HD
ENDBRANCH   4  12
TORSDOF 3
ENDMDL
MODEL 6
REMARK VINA RESULT:    -4.296      7.417     10.361
REMARK INTER + INTRA:          -5.106
REMARK INTER:                  -4.946
REMARK INTRA:                  -0.160
REMARK UNBOUND:                -0.182
REMARK SMILES CC=Cc1ccc(O)c(OC)c1
REMARK SMILES IDX 4 1 12 2 9 3 7 4 6 5 5 6 3 7 1 8 2 9 10 10 11 11 8 12
REMARK H PARENT 8 13
REMARK Flexibility Score: inf
ROOT
ATOM      1  C   UNL     1      -7.631  31.902  57.813  1.00  0.00    -0.022 A 
ATOM      2  C   UNL     1      -6.671  31.998  58.835  1.00  0.00     0.058 A 
ATOM      3  C   UNL     1      -5.802  30.925  59.116  1.00  0.00     0.161 A 
ATOM      4  C   UNL     1      -5.909  29.741  58.366  1.00  0.00     0.157 A 
ATOM      5  C   UNL     1      -6.873  29.636  57.359  1.00  0.00     0.051 A 
ATOM      6  C   UNL     1      -7.731  30.702  57.085  1.00  0.00     0.012 A 
ENDROOT
BRANCH   1   7
ATOM      7  C   UNL     1      -8.527  33.060  57.568  1.00  0.00     0.003 C 
ATOM      8  C   UNL     1      -9.089  35.335  56.810  1.00  0.00     0.035 C 
ATOM      9  C   UNL     1      -8.127  34.208  57.009  1.00  0.00    -0.030 C 
ENDBRANCH   1   7
BRANCH   3  10
ATOM     10  O   UNL     1      -4.828  31.001  60.125  1.00  0.00    -0.493 OA
ATOM     11  C   UNL     1      -3.515  31.522  59.944  1.00  0.00     0.278 C 
ENDBRANCH   3  10
BRANCH   4  12
ATOM     12  O   UNL     1      -5.068  28.655  58.609  1.00  0.00    -0.504 OA
ATOM     13  H   UNL     1      -4.426  28.633  59.391  1.00  0.00     0.293 HD
ENDBRANCH   4  12
TORSDOF 3
ENDMDL
MODEL 7
REMARK VINA RESULT:    -4.230      8.110      9.895
REMARK INTER + INTRA:          -5.031
REMARK INTER:                  -4.867
REMARK INTRA:                  -0.164
REMARK UNBOUND:                -0.182
REMARK SMILES CC=Cc1ccc(O)c(OC)c1
REMARK SMILES IDX 4 1 12 2 9 3 7 4 6 5 5 6 3 7 1 8 2 9 10 10 11 11 8 12
REMARK H PARENT 8 13
REMARK Flexibility Score: inf
ROOT
ATOM      1  C   UNL     1      -7.346  29.073  57.137  1.00  0.00    -0.022 A 
ATOM      2  C   UNL     1      -6.400  29.731  57.941  1.00  0.00     0.058 A 
ATOM      3  C   UNL     1      -6.599  31.066  58.347  1.00  0.00     0.161 A 
ATOM      4  C   UNL     1      -7.756  31.745  57.928  1.00  0.00     0.157 A 
ATOM      5  C   UNL     1      -8.691  31.099  57.115  1.00  0.00     0.051 A 
ATOM      6  C   UNL     1      -8.490  29.776  56.717  1.00  0.00     0.012 A 
ENDROOT
BRANCH   1   7
ATOM      7  C   UNL     1      -7.080  27.669  56.732  1.00  0.00     0.003 C 
ATOM      8  C   UNL     1      -7.512  25.567  55.522  1.00  0.00     0.035 C 
ATOM      9  C   UNL     1      -7.838  26.985  55.867  1.00  0.00    -0.030 C 
ENDBRANCH   1   7
BRANCH   3  10
ATOM     10  O   UNL     1      -5.673  31.742  59.158  1.00  0.00    -0.493 OA
ATOM     11  C   UNL     1      -4.562  31.127  59.803  1.00  0.00     0.278 C 
ENDBRANCH   3  10
BRANCH   4  12
ATOM     12  O   UNL     1      -7.993  33.067  58.307  1.00  0.00    -0.504 OA
ATOM     13  H   UNL     1      -7.992  33.360  59.276  1.00  0.00     0.293 HD
ENDBRANCH   4  12
TORSDOF 3
ENDMDL
MODEL 8
REMARK VINA RESULT:    -4.225      8.185     10.429
REMARK INTER + INTRA:          -5.025
REMARK INTER:                  -4.855
REMARK INTRA:                  -0.170
REMARK UNBOUND:                -0.182
REMARK SMILES CC=Cc1ccc(O)c(OC)c1
REMARK SMILES IDX 4 1 12 2 9 3 7 4 6 5 5 6 3 7 1 8 2 9 10 10 11 11 8 12
REMARK H PARENT 8 13
REMARK Flexibility Score: inf
ROOT
ATOM      1  C   UNL     1      -7.435  31.787  58.084  1.00  0.00    -0.022 A 
ATOM      2  C   UNL     1      -7.565  30.619  57.313  1.00  0.00     0.058 A 
ATOM      3  C   UNL     1      -6.686  29.532  57.492  1.00  0.00     0.161 A 
ATOM      4  C   UNL     1      -5.662  29.628  58.449  1.00  0.00     0.157 A 
ATOM      5  C   UNL     1      -5.520  30.794  59.207  1.00  0.00     0.051 A 
ATOM      6  C   UNL     1      -6.393  31.868  59.027  1.00  0.00     0.012 A 
ENDROOT
BRANCH   1   7
ATOM      7  C   UNL     1      -8.383  32.904  57.847  1.00  0.00     0.003 C 
ATOM      8  C   UNL     1      -9.105  35.069  56.920  1.00  0.00     0.035 C 
ATOM      9  C   UNL     1      -8.100  33.977  57.099  1.00  0.00    -0.030 C 
ENDBRANCH   1   7
BRANCH   3  10
ATOM     10  O   UNL     1      -6.802  28.351  56.741  1.00  0.00    -0.493 OA
ATOM     11  C   UNL     1      -7.772  27.335  56.975  1.00  0.00     0.278 C 
ENDBRANCH   3  10
BRANCH   4  12
ATOM     12  O   UNL     1      -4.770  28.576  58.660  1.00  0.00    -0.504 OA
ATOM     13  H   UNL     1      -4.806  27.721  58.119  1.00  0.00     0.293 HD
ENDBRANCH   4  12
TORSDOF 3
ENDMDL
MODEL 9
REMARK VINA RESULT:    -4.213      8.206      9.561
REMARK INTER + INTRA:          -5.011
REMARK INTER:                  -4.851
REMARK INTRA:                  -0.160
REMARK UNBOUND:                -0.182
REMARK SMILES CC=Cc1ccc(O)c(OC)c1
REMARK SMILES IDX 4 1 12 2 9 3 7 4 6 5 5 6 3 7 1 8 2 9 10 10 11 11 8 12
REMARK H PARENT 8 13
REMARK Flexibility Score: inf
ROOT
ATOM      1  C   UNL     1      -6.322  29.482  57.910  1.00  0.00    -0.022 A 
ATOM      2  C   UNL     1      -7.283  30.405  57.463  1.00  0.00     0.058 A 
ATOM      3  C   UNL     1      -8.435  29.975  56.775  1.00  0.00     0.161 A 
ATOM      4  C   UNL     1      -8.614  28.604  56.527  1.00  0.00     0.157 A 
ATOM      5  C   UNL     1      -7.653  27.684  56.956  1.00  0.00     0.051 A 
ATOM      6  C   UNL     1      -6.514  28.115  57.638  1.00  0.00     0.012 A 
ENDROOT
BRANCH   1   7
ATOM      7  C   UNL     1      -5.123  29.992  58.622  1.00  0.00     0.003 C 
ATOM      8  C   UNL     1      -3.882  31.505  60.118  1.00  0.00     0.035 C 
ATOM      9  C   UNL     1      -5.137  31.043  59.450  1.00  0.00    -0.030 C 
ENDBRANCH   1   7
BRANCH   3  10
ATOM     10  O   UNL     1      -9.414  30.878  56.327  1.00  0.00    -0.493 OA
ATOM     11  C   UNL     1     -10.064  31.840  57.152  1.00  0.00     0.278 C 
ENDBRANCH   3  10
BRANCH   4  12
ATOM     12  O   UNL     1      -9.740  28.134  55.850  1.00  0.00    -0.504 OA
ATOM     13  H   UNL     1     -10.674  28.461  56.064  1.00  0.00     0.293 HD
ENDBRANCH   4  12
TORSDOF 3
ENDMDL
