MODEL 1
REMARK VINA RESULT:    -4.895      0.000      0.000
REMARK INTER + INTRA:          -5.540
REMARK INTER:                  -5.324
REMARK INTRA:                  -0.217
REMARK UNBOUND:                -0.217
REMARK SMILES O=C([O-])c1ccccc1O
REMARK SMILES IDX 4 1 9 2 5 3 8 4 6 5 7 6 2 7 1 8 3 9 10 10
REMARK H PARENT 10 11
REMARK Flexibility Score: inf
ROOT
ATOM      1  C   UNL     1      13.103  14.014 162.741  1.00  0.00     0.039 A 
ATOM      2  C   UNL     1      12.547  13.979 161.440  1.00  0.00     0.124 A 
ATOM      3  C   UNL     1      12.380  13.439 163.805  1.00  0.00     0.014 A 
ATOM      4  C   UNL     1      11.295  13.379 161.231  1.00  0.00     0.047 A 
ATOM      5  C   UNL     1      11.136  12.844 163.581  1.00  0.00     0.001 A 
ATOM      6  C   UNL     1      10.594  12.814 162.298  1.00  0.00     0.004 A 
ENDROOT
BRANCH   1   7
ATOM      7  C   UNL     1      14.424  14.640 163.008  1.00  0.00     0.075 C 
ATOM      8  O   UNL     1      14.581  15.882 162.869  1.00  0.00    -0.545 OA
ATOM      9  O   UNL     1      15.511  13.875 163.416  1.00  0.00    -0.545 OA
ENDBRANCH   1   7
BRANCH   2  10
ATOM     10  O   UNL     1      13.226  14.536 160.357  1.00  0.00    -0.507 OA
ATOM     11  H   UNL     1      13.162  14.138 159.427  1.00  0.00     0.293 HD
ENDBRANCH   2  10
TORSDOF 2
ENDMDL
MODEL 2
REMARK VINA RESULT:    -4.840      2.372      4.122
REMARK INTER + INTRA:          -5.481
REMARK INTER:                  -5.266
REMARK INTRA:                  -0.215
REMARK UNBOUND:                -0.217
REMARK SMILES O=C([O-])c1ccccc1O
REMARK SMILES IDX 4 1 9 2 5 3 8 4 6 5 7 6 2 7 1 8 3 9 10 10
REMARK H PARENT 10 11
REMARK Flexibility Score: inf
ROOT
ATOM      1  C   UNL     1      11.880  13.532 162.040  1.00  0.00     0.039 A 
ATOM      2  C   UNL     1      12.435  13.397 163.335  1.00  0.00     0.124 A 
ATOM      3  C   UNL     1      12.590  14.267 161.070  1.00  0.00     0.014 A 
ATOM      4  C   UNL     1      13.672  13.992 163.631  1.00  0.00     0.047 A 
ATOM      5  C   UNL     1      13.820  14.853 161.378  1.00  0.00     0.001 A 
ATOM      6  C   UNL     1      14.359  14.716 162.656  1.00  0.00     0.004 A 
ENDROOT
BRANCH   1   7
ATOM      7  C   UNL     1      10.573  12.920 161.683  1.00  0.00     0.075 C 
ATOM      8  O   UNL     1       9.509  13.331 162.218  1.00  0.00    -0.545 OA
ATOM      9  O   UNL     1      10.494  11.887 160.756  1.00  0.00    -0.545 OA
ENDBRANCH   1   7
BRANCH   2  10
ATOM     10  O   UNL     1      11.769  12.679 164.327  1.00  0.00    -0.507 OA
ATOM     11  H   UNL     1      11.353  13.139 165.129  1.00  0.00     0.293 HD
ENDBRANCH   2  10
TORSDOF 2
ENDMDL
MODEL 3
REMARK VINA RESULT:    -4.808      2.582      3.530
REMARK INTER + INTRA:          -5.447
REMARK INTER:                  -5.201
REMARK INTRA:                  -0.246
REMARK UNBOUND:                -0.217
REMARK SMILES O=C([O-])c1ccccc1O
REMARK SMILES IDX 4 1 9 2 5 3 8 4 6 5 7 6 2 7 1 8 3 9 10 10
REMARK H PARENT 10 11
REMARK Flexibility Score: inf
ROOT
ATOM      1  C   UNL     1      12.304  14.883 161.209  1.00  0.00     0.039 A 
ATOM      2  C   UNL     1      11.956  13.520 161.365  1.00  0.00     0.124 A 
ATOM      3  C   UNL     1      13.410  15.387 161.922  1.00  0.00     0.014 A 
ATOM      4  C   UNL     1      12.709  12.699 162.219  1.00  0.00     0.047 A 
ATOM      5  C   UNL     1      14.151  14.558 162.768  1.00  0.00     0.001 A 
ATOM      6  C   UNL     1      13.801  13.217 162.916  1.00  0.00     0.004 A 
ENDROOT
BRANCH   1   7
ATOM      7  C   UNL     1      11.535  15.788 160.316  1.00  0.00     0.075 C 
ATOM      8  O   UNL     1      12.122  16.439 159.410  1.00  0.00    -0.545 OA
ATOM      9  O   UNL     1      10.160  15.938 160.457  1.00  0.00    -0.545 OA
ENDBRANCH   1   7
BRANCH   2  10
ATOM     10  O   UNL     1      10.870  12.977 160.679  1.00  0.00    -0.507 OA
ATOM     11  H   UNL     1      10.119  13.558 160.326  1.00  0.00     0.293 HD
ENDBRANCH   2  10
TORSDOF 2
ENDMDL
MODEL 4
REMARK VINA RESULT:    -4.748      1.338      2.220
REMARK INTER + INTRA:          -5.381
REMARK INTER:                  -5.140
REMARK INTRA:                  -0.241
REMARK UNBOUND:                -0.217
REMARK SMILES O=C([O-])c1ccccc1O
REMARK SMILES IDX 4 1 9 2 5 3 8 4 6 5 7 6 2 7 1 8 3 9 10 10
REMARK H PARENT 10 11
REMARK Flexibility Score: inf
ROOT
ATOM      1  C   UNL     1      13.292  14.280 162.991  1.00  0.00     0.039 A 
ATOM      2  C   UNL     1      12.395  14.256 164.085  1.00  0.00     0.124 A 
ATOM      3  C   UNL     1      13.025  13.459 161.876  1.00  0.00     0.014 A 
ATOM      4  C   UNL     1      11.265  13.425 164.045  1.00  0.00     0.047 A 
ATOM      5  C   UNL     1      11.896  12.638 161.850  1.00  0.00     0.001 A 
ATOM      6  C   UNL     1      11.018  12.620 162.932  1.00  0.00     0.004 A 
ENDROOT
BRANCH   1   7
ATOM      7  C   UNL     1      14.501  15.144 162.991  1.00  0.00     0.075 C 
ATOM      8  O   UNL     1      14.392  16.393 163.110  1.00  0.00    -0.545 OA
ATOM      9  O   UNL     1      15.773  14.598 162.859  1.00  0.00    -0.545 OA
ENDBRANCH   1   7
BRANCH   2  10
ATOM     10  O   UNL     1      12.618  15.050 165.210  1.00  0.00    -0.507 OA
ATOM     11  H   UNL     1      11.910  15.681 165.565  1.00  0.00     0.293 HD
ENDBRANCH   2  10
TORSDOF 2
ENDMDL
MODEL 5
REMARK VINA RESULT:    -4.739     15.833     16.295
REMARK INTER + INTRA:          -5.372
REMARK INTER:                  -5.124
REMARK INTRA:                  -0.247
REMARK UNBOUND:                -0.217
REMARK SMILES O=C([O-])c1ccccc1O
REMARK SMILES IDX 4 1 9 2 5 3 8 4 6 5 7 6 2 7 1 8 3 9 10 10
REMARK H PARENT 10 11
REMARK Flexibility Score: inf
ROOT
ATOM      1  C   UNL     1      20.233   0.044 159.474  1.00  0.00     0.039 A 
ATOM      2  C   UNL     1      20.500   0.964 158.433  1.00  0.00     0.124 A 
ATOM      3  C   UNL     1      21.244  -0.224 160.419  1.00  0.00     0.014 A 
ATOM      4  C   UNL     1      21.754   1.590 158.356  1.00  0.00     0.047 A 
ATOM      5  C   UNL     1      22.487   0.407 160.331  1.00  0.00     0.001 A 
ATOM      6  C   UNL     1      22.742   1.311 159.302  1.00  0.00     0.004 A 
ENDROOT
BRANCH   1   7
ATOM      7  C   UNL     1      18.921  -0.642 159.593  1.00  0.00     0.075 C 
ATOM      8  O   UNL     1      18.359  -1.125 158.574  1.00  0.00    -0.545 OA
ATOM      9  O   UNL     1      18.285  -0.767 160.823  1.00  0.00    -0.545 OA
ENDBRANCH   1   7
BRANCH   2  10
ATOM     10  O   UNL     1      19.531   1.260 157.475  1.00  0.00    -0.507 OA
ATOM     11  H   UNL     1      19.297   2.215 157.231  1.00  0.00     0.293 HD
ENDBRANCH   2  10
TORSDOF 2
ENDMDL
MODEL 6
REMARK VINA RESULT:    -4.724      2.630      3.745
REMARK INTER + INTRA:          -5.355
REMARK INTER:                  -5.108
REMARK INTRA:                  -0.247
REMARK UNBOUND:                -0.217
REMARK SMILES O=C([O-])c1ccccc1O
REMARK SMILES IDX 4 1 9 2 5 3 8 4 6 5 7 6 2 7 1 8 3 9 10 10
REMARK H PARENT 10 11
REMARK Flexibility Score: inf
ROOT
ATOM      1  C   UNL     1      11.626  13.374 161.797  1.00  0.00     0.039 A 
ATOM      2  C   UNL     1      11.859  14.563 161.067  1.00  0.00     0.124 A 
ATOM      3  C   UNL     1      12.658  12.864 162.611  1.00  0.00     0.014 A 
ATOM      4  C   UNL     1      13.101  15.210 161.162  1.00  0.00     0.047 A 
ATOM      5  C   UNL     1      13.888  13.519 162.697  1.00  0.00     0.001 A 
ATOM      6  C   UNL     1      14.110  14.690 161.974  1.00  0.00     0.004 A 
ENDROOT
BRANCH   1   7
ATOM      7  C   UNL     1      10.328  12.654 161.726  1.00  0.00     0.075 C 
ATOM      8  O   UNL     1       9.253  13.252 161.999  1.00  0.00    -0.545 OA
ATOM      9  O   UNL     1      10.268  11.315 161.358  1.00  0.00    -0.545 OA
ENDBRANCH   1   7
BRANCH   2  10
ATOM     10  O   UNL     1      10.869  15.105 160.248  1.00  0.00    -0.507 OA
ATOM     11  H   UNL     1      11.029  15.941 159.700  1.00  0.00     0.293 HD
ENDBRANCH   2  10
TORSDOF 2
ENDMDL
MODEL 7
REMARK VINA RESULT:    -4.654      2.494      3.801
REMARK INTER + INTRA:          -5.278
REMARK INTER:                  -5.085
REMARK INTRA:                  -0.193
REMARK UNBOUND:                -0.217
REMARK SMILES O=C([O-])c1ccccc1O
REMARK SMILES IDX 4 1 9 2 5 3 8 4 6 5 7 6 2 7 1 8 3 9 10 10
REMARK H PARENT 10 11
REMARK Flexibility Score: inf
ROOT
ATOM      1  C   UNL     1      12.443  14.298 163.858  1.00  0.00     0.039 A 
ATOM      2  C   UNL     1      13.687  14.054 163.229  1.00  0.00     0.124 A 
ATOM      3  C   UNL     1      12.082  15.628 164.156  1.00  0.00     0.014 A 
ATOM      4  C   UNL     1      14.534  15.127 162.915  1.00  0.00     0.047 A 
ATOM      5  C   UNL     1      12.935  16.687 163.836  1.00  0.00     0.001 A 
ATOM      6  C   UNL     1      14.159  16.437 163.217  1.00  0.00     0.004 A 
ENDROOT
BRANCH   1   7
ATOM      7  C   UNL     1      11.515  13.193 164.210  1.00  0.00     0.075 C 
ATOM      8  O   UNL     1      11.272  12.924 165.417  1.00  0.00    -0.545 OA
ATOM      9  O   UNL     1      10.895  12.434 163.224  1.00  0.00    -0.545 OA
ENDBRANCH   1   7
BRANCH   2  10
ATOM     10  O   UNL     1      14.086  12.755 162.916  1.00  0.00    -0.507 OA
ATOM     11  H   UNL     1      15.058  12.473 162.956  1.00  0.00     0.293 HD
ENDBRANCH   2  10
TORSDOF 2
ENDMDL
MODEL 8
REMARK VINA RESULT:    -4.599      1.633      2.085
REMARK INTER + INTRA:          -5.219
REMARK INTER:                  -4.965
REMARK INTRA:                  -0.254
REMARK UNBOUND:                -0.217
REMARK SMILES O=C([O-])c1ccccc1O
REMARK SMILES IDX 4 1 9 2 5 3 8 4 6 5 7 6 2 7 1 8 3 9 10 10
REMARK H PARENT 10 11
REMARK Flexibility Score: inf
ROOT
ATOM      1  C   UNL     1      12.042  14.652 162.859  1.00  0.00     0.039 A 
ATOM      2  C   UNL     1      12.397  13.303 162.619  1.00  0.00     0.124 A 
ATOM      3  C   UNL     1      10.748  15.087 162.506  1.00  0.00     0.014 A 
ATOM      4  C   UNL     1      11.466  12.427 162.040  1.00  0.00     0.047 A 
ATOM      5  C   UNL     1       9.832  14.203 161.931  1.00  0.00     0.001 A 
ATOM      6  C   UNL     1      10.189  12.877 161.698  1.00  0.00     0.004 A 
ENDROOT
BRANCH   1   7
ATOM      7  C   UNL     1      12.996  15.614 163.469  1.00  0.00     0.075 C 
ATOM      8  O   UNL     1      12.638  16.341 164.435  1.00  0.00    -0.545 OA
ATOM      9  O   UNL     1      14.297  15.735 162.994  1.00  0.00    -0.545 OA
ENDBRANCH   1   7
BRANCH   2  10
ATOM     10  O   UNL     1      13.665  12.828 162.951  1.00  0.00    -0.507 OA
ATOM     11  H   UNL     1      14.456  13.452 163.062  1.00  0.00     0.293 HD
ENDBRANCH   2  10
TORSDOF 2
ENDMDL
MODEL 9
REMARK VINA RESULT:    -4.556      2.020      3.010
REMARK INTER + INTRA:          -5.172
REMARK INTER:                  -4.921
REMARK INTRA:                  -0.251
REMARK UNBOUND:                -0.217
REMARK SMILES O=C([O-])c1ccccc1O
REMARK SMILES IDX 4 1 9 2 5 3 8 4 6 5 7 6 2 7 1 8 3 9 10 10
REMARK H PARENT 10 11
REMARK Flexibility Score: inf
ROOT
ATOM      1  C   UNL     1      12.154  14.912 162.025  1.00  0.00     0.039 A 
ATOM      2  C   UNL     1      12.100  13.538 162.362  1.00  0.00     0.124 A 
ATOM      3  C   UNL     1      11.901  15.867 163.030  1.00  0.00     0.014 A 
ATOM      4  C   UNL     1      11.799  13.152 163.677  1.00  0.00     0.047 A 
ATOM      5  C   UNL     1      11.604  15.468 164.335  1.00  0.00     0.001 A 
ATOM      6  C   UNL     1      11.552  14.114 164.658  1.00  0.00     0.004 A 
ENDROOT
BRANCH   1   7
ATOM      7  C   UNL     1      12.468  15.366 160.646  1.00  0.00     0.075 C 
ATOM      8  O   UNL     1      13.484  14.926 160.046  1.00  0.00    -0.545 OA
ATOM      9  O   UNL     1      11.653  16.282 159.988  1.00  0.00    -0.545 OA
ENDBRANCH   1   7
BRANCH   2  10
ATOM     10  O   UNL     1      12.342  12.557 161.401  1.00  0.00    -0.507 OA
ATOM     11  H   UNL     1      11.634  11.881 161.140  1.00  0.00     0.293 HD
ENDBRANCH   2  10
TORSDOF 2
ENDMDL
