MODEL 1
REMARK VINA RESULT:    -3.843      0.000      0.000
REMARK INTER + INTRA:         -14.994
REMARK INTER:                 -10.133
REMARK INTRA:                  -4.861
REMARK UNBOUND:                -4.861
REMARK SMILES CCCCCCCCCCCCCCCCCCCCCCCCCCCCCC(=O)[O-]
REMARK SMILES IDX 16 1 17 2 18 3 19 4 20 5 21 6 22 7 23 8 24 9 25 10 26 11
REMARK SMILES IDX 27 12 28 13 29 14 30 15 31 16 32 17 15 18 14 19 13 20 12 21
REMARK SMILES IDX 11 22 10 23 9 24 8 25 7 26 6 27 5 28 4 29 3 30 2 31 1 32
REMARK H PARENT
REMARK Flexibility Score: inf
ROOT
ATOM      1  C   UNL     1      15.994 -33.015  -2.109  1.00  0.00     0.000 C 
ENDROOT
BRANCH   1   2
ATOM      2  C   UNL     1      14.961 -33.602  -1.130  1.00  0.00     0.000 C 
BRANCH   2   3
ATOM      3  C   UNL     1      13.758 -34.242  -1.843  1.00  0.00     0.000 C 
BRANCH   3   4
ATOM      4  C   UNL     1      13.759 -35.775  -1.744  1.00  0.00     0.000 C 
BRANCH   4   5
ATOM      5  C   UNL     1      13.521 -36.273  -0.307  1.00  0.00     0.000 C 
BRANCH   5   6
ATOM      6  C   UNL     1      14.620 -37.233   0.177  1.00  0.00     0.000 C 
BRANCH   6   7
ATOM      7  C   UNL     1      15.003 -36.997   1.649  1.00  0.00     0.000 C 
BRANCH   7   8
ATOM      8  C   UNL     1      15.355 -35.529   1.940  1.00  0.00     0.000 C 
BRANCH   8   9
ATOM      9  C   UNL     1      16.676 -35.379   2.714  1.00  0.00     0.000 C 
BRANCH   9  10
ATOM     10  C   UNL     1      16.498 -34.633   4.046  1.00  0.00     0.000 C 
BRANCH  10  11
ATOM     11  C   UNL     1      15.923 -35.525   5.157  1.00  0.00     0.000 C 
BRANCH  11  12
ATOM     12  C   UNL     1      17.032 -36.343   5.833  1.00  0.00     0.000 C 
BRANCH  12  13
ATOM     13  C   UNL     1      17.557 -35.700   7.129  1.00  0.00     0.006 C 
BRANCH  13  14
ATOM     14  C   UNL     1      16.743 -34.478   7.594  1.00  0.00     0.053 C 
BRANCH  14  15
ATOM     15  C   UNL     1      17.612 -33.363   8.094  1.00  0.00     0.041 C 
ATOM     16  O   UNL     1      18.086 -33.400   9.260  1.00  0.00    -0.550 OA
ATOM     17  O   UNL     1      17.928 -32.299   7.258  1.00  0.00    -0.550 OA
ENDBRANCH  14  15
ENDBRANCH  13  14
ENDBRANCH  12  13
ENDBRANCH  11  12
ENDBRANCH  10  11
ENDBRANCH   9  10
ENDBRANCH   8   9
ENDBRANCH   7   8
ENDBRANCH   6   7
ENDBRANCH   5   6
ENDBRANCH   4   5
ENDBRANCH   3   4
ENDBRANCH   2   3
ENDBRANCH   1   2
BRANCH   1  18
ATOM     18  C   UNL     1      17.358 -33.728  -2.111  1.00  0.00     0.000 C 
BRANCH  18  19
ATOM     19  C   UNL     1      17.356 -35.023  -1.280  1.00  0.00     0.000 C 
BRANCH  19  20
ATOM     20  C   UNL     1      17.421 -36.285  -2.157  1.00  0.00     0.000 C 
BRANCH  20  21
ATOM     21  C   UNL     1      18.062 -37.476  -1.424  1.00  0.00     0.000 C 
BRANCH  21  22
ATOM     22  C   UNL     1      18.333 -37.173   0.065  1.00  0.00     0.000 C 
BRANCH  22  23
ATOM     23  C   UNL     1      18.800 -38.395   0.873  1.00  0.00     0.000 C 
BRANCH  23  24
ATOM     24  C   UNL     1      17.780 -39.547   0.861  1.00  0.00    -0.000 C 
BRANCH  24  25
ATOM     25  C   UNL     1      17.321 -39.942   2.272  1.00  0.00    -0.000 C 
BRANCH  25  26
ATOM     26  C   UNL     1      17.704 -38.899   3.333  1.00  0.00    -0.000 C 
BRANCH  26  27
ATOM     27  C   UNL     1      18.406 -39.565   4.524  1.00  0.00    -0.000 C 
BRANCH  27  28
ATOM     28  C   UNL     1      19.896 -39.796   4.228  1.00  0.00    -0.000 C 
BRANCH  28  29
ATOM     29  C   UNL     1      20.785 -39.582   5.464  1.00  0.00    -0.000 C 
BRANCH  29  30
ATOM     30  C   UNL     1      20.226 -38.511   6.418  1.00  0.00    -0.000 C 
BRANCH  30  31
ATOM     31  C   UNL     1      21.305 -37.934   7.349  1.00  0.00    -0.003 C 
ATOM     32  C   UNL     1      20.743 -36.940   8.365  1.00  0.00     0.004 C 
ENDBRANCH  30  31
ENDBRANCH  29  30
ENDBRANCH  28  29
ENDBRANCH  27  28
ENDBRANCH  26  27
ENDBRANCH  25  26
ENDBRANCH  24  25
ENDBRANCH  23  24
ENDBRANCH  22  23
ENDBRANCH  21  22
ENDBRANCH  20  21
ENDBRANCH  19  20
ENDBRANCH  18  19
ENDBRANCH   1  18
TORSDOF 28
ENDMDL
MODEL 2
REMARK VINA RESULT:    -3.840      1.783      4.976
REMARK INTER + INTRA:         -14.987
REMARK INTER:                 -10.464
REMARK INTRA:                  -4.523
REMARK UNBOUND:                -4.861
REMARK SMILES CCCCCCCCCCCCCCCCCCCCCCCCCCCCCC(=O)[O-]
REMARK SMILES IDX 16 1 17 2 18 3 19 4 20 5 21 6 22 7 23 8 24 9 25 10 26 11
REMARK SMILES IDX 27 12 28 13 29 14 30 15 31 16 32 17 15 18 14 19 13 20 12 21
REMARK SMILES IDX 11 22 10 23 9 24 8 25 7 26 6 27 5 28 4 29 3 30 2 31 1 32
REMARK H PARENT
REMARK Flexibility Score: inf
ROOT
ATOM      1  C   UNL     1      13.791 -35.178  -2.122  1.00  0.00     0.000 C 
ENDROOT
BRANCH   1   2
ATOM      2  C   UNL     1      13.393 -35.325  -0.642  1.00  0.00     0.000 C 
BRANCH   2   3
ATOM      3  C   UNL     1      13.651 -36.737  -0.092  1.00  0.00     0.000 C 
BRANCH   3   4
ATOM      4  C   UNL     1      14.587 -36.735   1.127  1.00  0.00     0.000 C 
BRANCH   4   5
ATOM      5  C   UNL     1      15.092 -35.323   1.480  1.00  0.00     0.000 C 
BRANCH   5   6
ATOM      6  C   UNL     1      16.542 -35.323   1.990  1.00  0.00     0.000 C 
BRANCH   6   7
ATOM      7  C   UNL     1      16.641 -34.973   3.485  1.00  0.00     0.000 C 
BRANCH   7   8
ATOM      8  C   UNL     1      16.591 -36.216   4.388  1.00  0.00     0.000 C 
BRANCH   8   9
ATOM      9  C   UNL     1      16.805 -35.878   5.874  1.00  0.00     0.000 C 
BRANCH   9  10
ATOM     10  C   UNL     1      17.739 -36.877   6.577  1.00  0.00     0.000 C 
BRANCH  10  11
ATOM     11  C   UNL     1      18.367 -36.306   7.857  1.00  0.00     0.000 C 
BRANCH  11  12
ATOM     12  C   UNL     1      19.896 -36.440   7.825  1.00  0.00     0.000 C 
BRANCH  12  13
ATOM     13  C   UNL     1      20.597 -35.666   8.956  1.00  0.00     0.006 C 
BRANCH  13  14
ATOM     14  C   UNL     1      20.767 -34.163   8.674  1.00  0.00     0.053 C 
BRANCH  14  15
ATOM     15  C   UNL     1      20.353 -33.307   9.833  1.00  0.00     0.041 C 
ATOM     16  O   UNL     1      19.144 -32.991   9.992  1.00  0.00    -0.550 OA
ATOM     17  O   UNL     1      21.299 -32.889  10.761  1.00  0.00    -0.550 OA
ENDBRANCH  14  15
ENDBRANCH  13  14
ENDBRANCH  12  13
ENDBRANCH  11  12
ENDBRANCH  10  11
ENDBRANCH   9  10
ENDBRANCH   8   9
ENDBRANCH   7   8
ENDBRANCH   6   7
ENDBRANCH   5   6
ENDBRANCH   4   5
ENDBRANCH   3   4
ENDBRANCH   2   3
ENDBRANCH   1   2
BRANCH   1  18
ATOM     18  C   UNL     1      14.180 -33.750  -2.546  1.00  0.00     0.000 C 
BRANCH  18  19
ATOM     19  C   UNL     1      15.260 -33.132  -1.640  1.00  0.00     0.000 C 
BRANCH  19  20
ATOM     20  C   UNL     1      16.683 -33.379  -2.168  1.00  0.00     0.000 C 
BRANCH  20  21
ATOM     21  C   UNL     1      17.413 -34.488  -1.391  1.00  0.00     0.000 C 
BRANCH  21  22
ATOM     22  C   UNL     1      17.456 -35.820  -2.170  1.00  0.00     0.000 C 
BRANCH  22  23
ATOM     23  C   UNL     1      17.193 -37.059  -1.298  1.00  0.00     0.000 C 
BRANCH  23  24
ATOM     24  C   UNL     1      18.458 -37.902  -1.057  1.00  0.00    -0.000 C 
BRANCH  24  25
ATOM     25  C   UNL     1      18.881 -37.922   0.419  1.00  0.00    -0.000 C 
BRANCH  25  26
ATOM     26  C   UNL     1      17.856 -38.630   1.319  1.00  0.00    -0.000 C 
BRANCH  26  27
ATOM     27  C   UNL     1      17.498 -40.011   0.755  1.00  0.00    -0.000 C 
BRANCH  27  28
ATOM     28  C   UNL     1      15.977 -40.164   0.593  1.00  0.00    -0.000 C 
BRANCH  28  29
ATOM     29  C   UNL     1      15.578 -40.659  -0.807  1.00  0.00    -0.000 C 
BRANCH  29  30
ATOM     30  C   UNL     1      14.173 -40.188  -1.224  1.00  0.00    -0.000 C 
BRANCH  30  31
ATOM     31  C   UNL     1      14.138 -39.645  -2.662  1.00  0.00    -0.003 C 
ATOM     32  C   UNL     1      15.531 -39.469  -3.265  1.00  0.00     0.004 C 
ENDBRANCH  30  31
ENDBRANCH  29  30
ENDBRANCH  28  29
ENDBRANCH  27  28
ENDBRANCH  26  27
ENDBRANCH  25  26
ENDBRANCH  24  25
ENDBRANCH  23  24
ENDBRANCH  22  23
ENDBRANCH  21  22
ENDBRANCH  20  21
ENDBRANCH  19  20
ENDBRANCH  18  19
ENDBRANCH   1  18
TORSDOF 28
ENDMDL
MODEL 3
REMARK VINA RESULT:    -3.809      2.755      5.886
REMARK INTER + INTRA:         -14.904
REMARK INTER:                 -10.408
REMARK INTRA:                  -4.496
REMARK UNBOUND:                -4.861
REMARK SMILES CCCCCCCCCCCCCCCCCCCCCCCCCCCCCC(=O)[O-]
REMARK SMILES IDX 16 1 17 2 18 3 19 4 20 5 21 6 22 7 23 8 24 9 25 10 26 11
REMARK SMILES IDX 27 12 28 13 29 14 30 15 31 16 32 17 15 18 14 19 13 20 12 21
REMARK SMILES IDX 11 22 10 23 9 24 8 25 7 26 6 27 5 28 4 29 3 30 2 31 1 32
REMARK H PARENT
REMARK Flexibility Score: inf
ROOT
ATOM      1  C   UNL     1      13.204 -35.455  -1.245  1.00  0.00     0.000 C 
ENDROOT
BRANCH   1   2
ATOM      2  C   UNL     1      13.822 -34.454  -2.238  1.00  0.00     0.000 C 
BRANCH   2   3
ATOM      3  C   UNL     1      14.134 -33.092  -1.597  1.00  0.00     0.000 C 
BRANCH   3   4
ATOM      4  C   UNL     1      15.551 -32.596  -1.922  1.00  0.00     0.000 C 
BRANCH   4   5
ATOM      5  C   UNL     1      16.545 -33.752  -2.141  1.00  0.00     0.000 C 
BRANCH   5   6
ATOM      6  C   UNL     1      17.167 -34.254  -0.829  1.00  0.00     0.000 C 
BRANCH   6   7
ATOM      7  C   UNL     1      17.382 -35.778  -0.822  1.00  0.00     0.000 C 
BRANCH   7   8
ATOM      8  C   UNL     1      17.891 -36.308  -2.172  1.00  0.00     0.000 C 
BRANCH   8   9
ATOM      9  C   UNL     1      17.237 -37.643  -2.569  1.00  0.00     0.000 C 
BRANCH   9  10
ATOM     10  C   UNL     1      15.742 -37.696  -2.212  1.00  0.00     0.000 C 
BRANCH  10  11
ATOM     11  C   UNL     1      15.247 -39.122  -1.928  1.00  0.00     0.000 C 
BRANCH  11  12
ATOM     12  C   UNL     1      15.090 -39.358  -0.419  1.00  0.00     0.000 C 
BRANCH  12  13
ATOM     13  C   UNL     1      16.359 -39.927   0.241  1.00  0.00     0.006 C 
BRANCH  13  14
ATOM     14  C   UNL     1      16.946 -39.030   1.344  1.00  0.00     0.053 C 
BRANCH  14  15
ATOM     15  C   UNL     1      18.444 -38.980   1.313  1.00  0.00     0.041 C 
ATOM     16  O   UNL     1      19.107 -39.081   2.379  1.00  0.00    -0.550 OA
ATOM     17  O   UNL     1      19.110 -38.862   0.100  1.00  0.00    -0.550 OA
ENDBRANCH  14  15
ENDBRANCH  13  14
ENDBRANCH  12  13
ENDBRANCH  11  12
ENDBRANCH  10  11
ENDBRANCH   9  10
ENDBRANCH   8   9
ENDBRANCH   7   8
ENDBRANCH   6   7
ENDBRANCH   5   6
ENDBRANCH   4   5
ENDBRANCH   3   4
ENDBRANCH   2   3
ENDBRANCH   1   2
BRANCH   1  18
ATOM     18  C   UNL     1      13.776 -35.381   0.182  1.00  0.00     0.000 C 
BRANCH  18  19
ATOM     19  C   UNL     1      13.325 -36.557   1.068  1.00  0.00     0.000 C 
BRANCH  19  20
ATOM     20  C   UNL     1      14.246 -36.765   2.281  1.00  0.00     0.000 C 
BRANCH  20  21
ATOM     21  C   UNL     1      15.429 -35.781   2.296  1.00  0.00     0.000 C 
BRANCH  21  22
ATOM     22  C   UNL     1      15.953 -35.515   3.724  1.00  0.00     0.000 C 
BRANCH  22  23
ATOM     23  C   UNL     1      16.640 -36.730   4.370  1.00  0.00     0.000 C 
BRANCH  23  24
ATOM     24  C   UNL     1      16.502 -36.751   5.902  1.00  0.00    -0.000 C 
BRANCH  24  25
ATOM     25  C   UNL     1      17.461 -35.771   6.594  1.00  0.00    -0.000 C 
BRANCH  25  26
ATOM     26  C   UNL     1      18.125 -36.375   7.842  1.00  0.00    -0.000 C 
BRANCH  26  27
ATOM     27  C   UNL     1      19.634 -36.545   7.628  1.00  0.00    -0.000 C 
BRANCH  27  28
ATOM     28  C   UNL     1      20.433 -35.863   8.750  1.00  0.00    -0.000 C 
BRANCH  28  29
ATOM     29  C   UNL     1      20.691 -34.373   8.471  1.00  0.00    -0.000 C 
BRANCH  29  30
ATOM     30  C   UNL     1      20.841 -33.547   9.761  1.00  0.00    -0.000 C 
BRANCH  30  31
ATOM     31  C   UNL     1      19.524 -33.440  10.547  1.00  0.00    -0.003 C 
ATOM     32  C   UNL     1      18.385 -32.845   9.721  1.00  0.00     0.004 C 
ENDBRANCH  30  31
ENDBRANCH  29  30
ENDBRANCH  28  29
ENDBRANCH  27  28
ENDBRANCH  26  27
ENDBRANCH  25  26
ENDBRANCH  24  25
ENDBRANCH  23  24
ENDBRANCH  22  23
ENDBRANCH  21  22
ENDBRANCH  20  21
ENDBRANCH  19  20
ENDBRANCH  18  19
ENDBRANCH   1  18
TORSDOF 28
ENDMDL
MODEL 4
REMARK VINA RESULT:    -3.799      2.506      4.977
REMARK INTER + INTRA:         -14.878
REMARK INTER:                  -9.736
REMARK INTRA:                  -5.141
REMARK UNBOUND:                -4.861
REMARK SMILES CCCCCCCCCCCCCCCCCCCCCCCCCCCCCC(=O)[O-]
REMARK SMILES IDX 16 1 17 2 18 3 19 4 20 5 21 6 22 7 23 8 24 9 25 10 26 11
REMARK SMILES IDX 27 12 28 13 29 14 30 15 31 16 32 17 15 18 14 19 13 20 12 21
REMARK SMILES IDX 11 22 10 23 9 24 8 25 7 26 6 27 5 28 4 29 3 30 2 31 1 32
REMARK H PARENT
REMARK Flexibility Score: inf
ROOT
ATOM      1  C   UNL     1      15.876 -32.995  -2.124  1.00  0.00     0.000 C 
ENDROOT
BRANCH   1   2
ATOM      2  C   UNL     1      17.214 -33.751  -2.031  1.00  0.00     0.000 C 
BRANCH   2   3
ATOM      3  C   UNL     1      17.434 -34.408  -0.658  1.00  0.00     0.000 C 
BRANCH   3   4
ATOM      4  C   UNL     1      17.530 -35.939  -0.744  1.00  0.00     0.000 C 
BRANCH   4   5
ATOM      5  C   UNL     1      17.768 -36.435  -2.182  1.00  0.00     0.000 C 
BRANCH   5   6
ATOM      6  C   UNL     1      16.905 -37.656  -2.538  1.00  0.00     0.000 C 
BRANCH   6   7
ATOM      7  C   UNL     1      15.503 -37.592  -1.905  1.00  0.00     0.000 C 
BRANCH   7   8
ATOM      8  C   UNL     1      15.080 -38.928  -1.272  1.00  0.00     0.000 C 
BRANCH   8   9
ATOM      9  C   UNL     1      15.266 -38.944   0.255  1.00  0.00     0.000 C 
BRANCH   9  10
ATOM     10  C   UNL     1      16.386 -39.896   0.703  1.00  0.00     0.000 C 
BRANCH  10  11
ATOM     11  C   UNL     1      17.785 -39.273   0.579  1.00  0.00     0.000 C 
BRANCH  11  12
ATOM     12  C   UNL     1      18.256 -38.709   1.927  1.00  0.00     0.000 C 
BRANCH  12  13
ATOM     13  C   UNL     1      17.665 -39.455   3.136  1.00  0.00     0.006 C 
BRANCH  13  14
ATOM     14  C   UNL     1      18.541 -39.391   4.400  1.00  0.00     0.053 C 
BRANCH  14  15
ATOM     15  C   UNL     1      19.883 -40.030   4.205  1.00  0.00     0.041 C 
ATOM     16  O   UNL     1      19.987 -41.112   3.571  1.00  0.00    -0.550 OA
ATOM     17  O   UNL     1      21.026 -39.408   4.693  1.00  0.00    -0.550 OA
ENDBRANCH  14  15
ENDBRANCH  13  14
ENDBRANCH  12  13
ENDBRANCH  11  12
ENDBRANCH  10  11
ENDBRANCH   9  10
ENDBRANCH   8   9
ENDBRANCH   7   8
ENDBRANCH   6   7
ENDBRANCH   5   6
ENDBRANCH   4   5
ENDBRANCH   3   4
ENDBRANCH   2   3
ENDBRANCH   1   2
BRANCH   1  18
ATOM     18  C   UNL     1      14.627 -33.894  -2.129  1.00  0.00     0.000 C 
BRANCH  18  19
ATOM     19  C   UNL     1      13.881 -33.888  -0.783  1.00  0.00     0.000 C 
BRANCH  19  20
ATOM     20  C   UNL     1      13.056 -35.168  -0.563  1.00  0.00     0.000 C 
BRANCH  20  21
ATOM     21  C   UNL     1      13.361 -35.836   0.790  1.00  0.00     0.000 C 
BRANCH  21  22
ATOM     22  C   UNL     1      14.496 -35.123   1.554  1.00  0.00     0.000 C 
BRANCH  22  23
ATOM     23  C   UNL     1      15.437 -36.081   2.303  1.00  0.00     0.000 C 
BRANCH  23  24
ATOM     24  C   UNL     1      16.707 -35.387   2.827  1.00  0.00    -0.000 C 
BRANCH  24  25
ATOM     25  C   UNL     1      16.613 -35.033   4.318  1.00  0.00    -0.000 C 
BRANCH  25  26
ATOM     26  C   UNL     1      16.658 -36.273   5.224  1.00  0.00    -0.000 C 
BRANCH  26  27
ATOM     27  C   UNL     1      15.840 -36.045   6.502  1.00  0.00    -0.000 C 
BRANCH  27  28
ATOM     28  C   UNL     1      16.614 -36.510   7.745  1.00  0.00    -0.000 C 
BRANCH  28  29
ATOM     29  C   UNL     1      18.120 -36.667   7.481  1.00  0.00    -0.000 C 
BRANCH  29  30
ATOM     30  C   UNL     1      18.965 -35.617   8.223  1.00  0.00    -0.000 C 
BRANCH  30  31
ATOM     31  C   UNL     1      20.429 -36.056   8.397  1.00  0.00    -0.003 C 
ATOM     32  C   UNL     1      20.762 -37.331   7.624  1.00  0.00     0.004 C 
ENDBRANCH  30  31
ENDBRANCH  29  30
ENDBRANCH  28  29
ENDBRANCH  27  28
ENDBRANCH  26  27
ENDBRANCH  25  26
ENDBRANCH  24  25
ENDBRANCH  23  24
ENDBRANCH  22  23
ENDBRANCH  21  22
ENDBRANCH  20  21
ENDBRANCH  19  20
ENDBRANCH  18  19
ENDBRANCH   1  18
TORSDOF 28
ENDMDL
MODEL 5
REMARK VINA RESULT:    -3.753      1.945      5.013
REMARK INTER + INTRA:         -14.757
REMARK INTER:                  -9.821
REMARK INTRA:                  -4.936
REMARK UNBOUND:                -4.861
REMARK SMILES CCCCCCCCCCCCCCCCCCCCCCCCCCCCCC(=O)[O-]
REMARK SMILES IDX 16 1 17 2 18 3 19 4 20 5 21 6 22 7 23 8 24 9 25 10 26 11
REMARK SMILES IDX 27 12 28 13 29 14 30 15 31 16 32 17 15 18 14 19 13 20 12 21
REMARK SMILES IDX 11 22 10 23 9 24 8 25 7 26 6 27 5 28 4 29 3 30 2 31 1 32
REMARK H PARENT
REMARK Flexibility Score: inf
ROOT
ATOM      1  C   UNL     1      18.340 -38.020  -0.619  1.00  0.00     0.000 C 
ENDROOT
BRANCH   1   2
ATOM      2  C   UNL     1      16.958 -38.134  -1.288  1.00  0.00     0.000 C 
BRANCH   2   3
ATOM      3  C   UNL     1      16.614 -36.913  -2.158  1.00  0.00     0.000 C 
BRANCH   3   4
ATOM      4  C   UNL     1      17.711 -35.837  -2.127  1.00  0.00     0.000 C 
BRANCH   4   5
ATOM      5  C   UNL     1      17.291 -34.590  -1.326  1.00  0.00     0.000 C 
BRANCH   5   6
ATOM      6  C   UNL     1      16.949 -33.394  -2.230  1.00  0.00     0.000 C 
BRANCH   6   7
ATOM      7  C   UNL     1      15.547 -32.825  -1.951  1.00  0.00     0.000 C 
BRANCH   7   8
ATOM      8  C   UNL     1      14.425 -33.796  -2.356  1.00  0.00     0.000 C 
BRANCH   8   9
ATOM      9  C   UNL     1      13.440 -34.075  -1.207  1.00  0.00     0.000 C 
BRANCH   9  10
ATOM     10  C   UNL     1      13.802 -35.341  -0.414  1.00  0.00     0.000 C 
BRANCH  10  11
ATOM     11  C   UNL     1      14.326 -35.032   0.996  1.00  0.00     0.000 C 
BRANCH  11  12
ATOM     12  C   UNL     1      15.363 -36.075   1.436  1.00  0.00     0.000 C 
BRANCH  12  13
ATOM     13  C   UNL     1      16.477 -35.487   2.320  1.00  0.00     0.006 C 
BRANCH  13  14
ATOM     14  C   UNL     1      16.698 -36.250   3.639  1.00  0.00     0.053 C 
BRANCH  14  15
ATOM     15  C   UNL     1      15.415 -36.547   4.356  1.00  0.00     0.041 C 
ATOM     16  O   UNL     1      15.077 -37.738   4.588  1.00  0.00    -0.550 OA
ATOM     17  O   UNL     1      14.611 -35.506   4.801  1.00  0.00    -0.550 OA
ENDBRANCH  14  15
ENDBRANCH  13  14
ENDBRANCH  12  13
ENDBRANCH  11  12
ENDBRANCH  10  11
ENDBRANCH   9  10
ENDBRANCH   8   9
ENDBRANCH   7   8
ENDBRANCH   6   7
ENDBRANCH   5   6
ENDBRANCH   4   5
ENDBRANCH   3   4
ENDBRANCH   2   3
ENDBRANCH   1   2
BRANCH   1  18
ATOM     18  C   UNL     1      18.364 -38.394   0.874  1.00  0.00     0.000 C 
BRANCH  18  19
ATOM     19  C   UNL     1      17.160 -39.256   1.294  1.00  0.00     0.000 C 
BRANCH  19  20
ATOM     20  C   UNL     1      17.298 -39.802   2.725  1.00  0.00     0.000 C 
BRANCH  20  21
ATOM     21  C   UNL     1      18.609 -39.358   3.399  1.00  0.00     0.000 C 
BRANCH  21  22
ATOM     22  C   UNL     1      18.894 -40.140   4.699  1.00  0.00     0.000 C 
BRANCH  22  23
ATOM     23  C   UNL     1      17.903 -39.840   5.835  1.00  0.00     0.000 C 
BRANCH  23  24
ATOM     24  C   UNL     1      18.517 -38.983   6.955  1.00  0.00    -0.000 C 
BRANCH  24  25
ATOM     25  C   UNL     1      18.495 -37.482   6.630  1.00  0.00    -0.000 C 
BRANCH  25  26
ATOM     26  C   UNL     1      18.750 -36.605   7.865  1.00  0.00    -0.000 C 
BRANCH  26  27
ATOM     27  C   UNL     1      20.245 -36.294   8.013  1.00  0.00    -0.000 C 
BRANCH  27  28
ATOM     28  C   UNL     1      20.839 -37.005   9.239  1.00  0.00    -0.000 C 
BRANCH  28  29
ATOM     29  C   UNL     1      21.782 -38.157   8.856  1.00  0.00    -0.000 C 
BRANCH  29  30
ATOM     30  C   UNL     1      22.074 -38.208   7.346  1.00  0.00    -0.000 C 
BRANCH  30  31
ATOM     31  C   UNL     1      22.430 -39.624   6.864  1.00  0.00    -0.003 C 
ATOM     32  C   UNL     1      22.404 -39.758   5.342  1.00  0.00     0.004 C 
ENDBRANCH  30  31
ENDBRANCH  29  30
ENDBRANCH  28  29
ENDBRANCH  27  28
ENDBRANCH  26  27
ENDBRANCH  25  26
ENDBRANCH  24  25
ENDBRANCH  23  24
ENDBRANCH  22  23
ENDBRANCH  21  22
ENDBRANCH  20  21
ENDBRANCH  19  20
ENDBRANCH  18  19
ENDBRANCH   1  18
TORSDOF 28
ENDMDL
MODEL 6
REMARK VINA RESULT:    -3.741      1.775      7.360
REMARK INTER + INTRA:         -14.725
REMARK INTER:                 -10.377
REMARK INTRA:                  -4.348
REMARK UNBOUND:                -4.861
REMARK SMILES CCCCCCCCCCCCCCCCCCCCCCCCCCCCCC(=O)[O-]
REMARK SMILES IDX 16 1 17 2 18 3 19 4 20 5 21 6 22 7 23 8 24 9 25 10 26 11
REMARK SMILES IDX 27 12 28 13 29 14 30 15 31 16 32 17 15 18 14 19 13 20 12 21
REMARK SMILES IDX 11 22 10 23 9 24 8 25 7 26 6 27 5 28 4 29 3 30 2 31 1 32
REMARK H PARENT
REMARK Flexibility Score: inf
ROOT
ATOM      1  C   UNL     1      18.093 -39.044   5.036  1.00  0.00     0.000 C 
ENDROOT
BRANCH   1   2
ATOM      2  C   UNL     1      19.355 -39.699   4.447  1.00  0.00     0.000 C 
BRANCH   2   3
ATOM      3  C   UNL     1      20.655 -39.113   5.023  1.00  0.00     0.000 C 
BRANCH   3   4
ATOM      4  C   UNL     1      21.801 -40.137   5.055  1.00  0.00     0.000 C 
BRANCH   4   5
ATOM      5  C   UNL     1      22.827 -39.839   6.165  1.00  0.00     0.000 C 
BRANCH   5   6
ATOM      6  C   UNL     1      22.794 -40.880   7.296  1.00  0.00     0.000 C 
BRANCH   6   7
ATOM      7  C   UNL     1      22.560 -40.243   8.677  1.00  0.00     0.000 C 
BRANCH   7   8
ATOM      8  C   UNL     1      22.675 -38.710   8.648  1.00  0.00     0.000 C 
BRANCH   8   9
ATOM      9  C   UNL     1      21.390 -38.011   9.125  1.00  0.00     0.000 C 
BRANCH   9  10
ATOM     10  C   UNL     1      21.000 -36.821   8.234  1.00  0.00     0.000 C 
BRANCH  10  11
ATOM     11  C   UNL     1      19.606 -36.975   7.608  1.00  0.00     0.000 C 
BRANCH  11  12
ATOM     12  C   UNL     1      18.631 -35.934   8.177  1.00  0.00     0.000 C 
BRANCH  12  13
ATOM     13  C   UNL     1      19.013 -35.453   9.588  1.00  0.00     0.006 C 
BRANCH  13  14
ATOM     14  C   UNL     1      19.031 -33.921   9.742  1.00  0.00     0.053 C 
BRANCH  14  15
ATOM     15  C   UNL     1      19.841 -33.243   8.679  1.00  0.00     0.041 C 
ATOM     16  O   UNL     1      19.297 -32.428   7.887  1.00  0.00    -0.550 OA
ATOM     17  O   UNL     1      21.206 -33.482   8.586  1.00  0.00    -0.550 OA
ENDBRANCH  14  15
ENDBRANCH  13  14
ENDBRANCH  12  13
ENDBRANCH  11  12
ENDBRANCH  10  11
ENDBRANCH   9  10
ENDBRANCH   8   9
ENDBRANCH   7   8
ENDBRANCH   6   7
ENDBRANCH   5   6
ENDBRANCH   4   5
ENDBRANCH   3   4
ENDBRANCH   2   3
ENDBRANCH   1   2
BRANCH   1  18
ATOM     18  C   UNL     1      17.003 -38.702   4.003  1.00  0.00     0.000 C 
BRANCH  18  19
ATOM     19  C   UNL     1      16.845 -37.188   3.781  1.00  0.00     0.000 C 
BRANCH  19  20
ATOM     20  C   UNL     1      15.541 -36.835   3.047  1.00  0.00     0.000 C 
BRANCH  20  21
ATOM     21  C   UNL     1      15.728 -35.691   2.034  1.00  0.00     0.000 C 
BRANCH  21  22
ATOM     22  C   UNL     1      17.204 -35.261   1.901  1.00  0.00     0.000 C 
BRANCH  22  23
ATOM     23  C   UNL     1      17.637 -34.961   0.457  1.00  0.00     0.000 C 
BRANCH  23  24
ATOM     24  C   UNL     1      16.462 -34.552  -0.448  1.00  0.00    -0.000 C 
BRANCH  24  25
ATOM     25  C   UNL     1      16.411 -35.362  -1.752  1.00  0.00    -0.000 C 
BRANCH  25  26
ATOM     26  C   UNL     1      17.789 -35.901  -2.167  1.00  0.00    -0.000 C 
BRANCH  26  27
ATOM     27  C   UNL     1      17.708 -37.395  -2.508  1.00  0.00    -0.000 C 
BRANCH  27  28
ATOM     28  C   UNL     1      16.287 -37.937  -2.290  1.00  0.00    -0.000 C 
BRANCH  28  29
ATOM     29  C   UNL     1      16.243 -39.097  -1.283  1.00  0.00    -0.000 C 
BRANCH  29  30
ATOM     30  C   UNL     1      16.668 -38.669   0.133  1.00  0.00    -0.000 C 
BRANCH  30  31
ATOM     31  C   UNL     1      18.026 -39.261   0.543  1.00  0.00    -0.003 C 
ATOM     32  C   UNL     1      19.072 -38.192   0.854  1.00  0.00     0.004 C 
ENDBRANCH  30  31
ENDBRANCH  29  30
ENDBRANCH  28  29
ENDBRANCH  27  28
ENDBRANCH  26  27
ENDBRANCH  25  26
ENDBRANCH  24  25
ENDBRANCH  23  24
ENDBRANCH  22  23
ENDBRANCH  21  22
ENDBRANCH  20  21
ENDBRANCH  19  20
ENDBRANCH  18  19
ENDBRANCH   1  18
TORSDOF 28
ENDMDL
MODEL 7
REMARK VINA RESULT:    -3.701      2.611      6.760
REMARK INTER + INTRA:         -14.619
REMARK INTER:                  -9.860
REMARK INTRA:                  -4.759
REMARK UNBOUND:                -4.861
REMARK SMILES CCCCCCCCCCCCCCCCCCCCCCCCCCCCCC(=O)[O-]
REMARK SMILES IDX 16 1 17 2 18 3 19 4 20 5 21 6 22 7 23 8 24 9 25 10 26 11
REMARK SMILES IDX 27 12 28 13 29 14 30 15 31 16 32 17 15 18 14 19 13 20 12 21
REMARK SMILES IDX 11 22 10 23 9 24 8 25 7 26 6 27 5 28 4 29 3 30 2 31 1 32
REMARK H PARENT
REMARK Flexibility Score: inf
ROOT
ATOM      1  C   UNL     1      16.604 -36.376   4.969  1.00  0.00     0.000 C 
ENDROOT
BRANCH   1   2
ATOM      2  C   UNL     1      15.602 -36.409   6.138  1.00  0.00     0.000 C 
BRANCH   2   3
ATOM      3  C   UNL     1      15.795 -35.244   7.122  1.00  0.00     0.000 C 
BRANCH   3   4
ATOM      4  C   UNL     1      17.085 -34.452   6.855  1.00  0.00     0.000 C 
BRANCH   4   5
ATOM      5  C   UNL     1      16.935 -32.954   7.179  1.00  0.00     0.000 C 
BRANCH   5   6
ATOM      6  C   UNL     1      18.104 -32.410   8.016  1.00  0.00     0.000 C 
BRANCH   6   7
ATOM      7  C   UNL     1      18.678 -33.461   8.983  1.00  0.00     0.000 C 
BRANCH   7   8
ATOM      8  C   UNL     1      20.199 -33.630   8.835  1.00  0.00     0.000 C 
BRANCH   8   9
ATOM      9  C   UNL     1      20.660 -35.077   9.085  1.00  0.00     0.000 C 
BRANCH   9  10
ATOM     10  C   UNL     1      20.094 -36.063   8.050  1.00  0.00     0.000 C 
BRANCH  10  11
ATOM     11  C   UNL     1      19.037 -37.007   8.642  1.00  0.00     0.000 C 
BRANCH  11  12
ATOM     12  C   UNL     1      18.658 -38.105   7.638  1.00  0.00     0.000 C 
BRANCH  12  13
ATOM     13  C   UNL     1      19.606 -38.173   6.427  1.00  0.00     0.006 C 
BRANCH  13  14
ATOM     14  C   UNL     1      19.279 -39.307   5.440  1.00  0.00     0.053 C 
BRANCH  14  15
ATOM     15  C   UNL     1      20.498 -39.843   4.751  1.00  0.00     0.041 C 
ATOM     16  O   UNL     1      21.627 -39.326   4.961  1.00  0.00    -0.550 OA
ATOM     17  O   UNL     1      20.393 -40.940   3.905  1.00  0.00    -0.550 OA
ENDBRANCH  14  15
ENDBRANCH  13  14
ENDBRANCH  12  13
ENDBRANCH  11  12
ENDBRANCH  10  11
ENDBRANCH   9  10
ENDBRANCH   8   9
ENDBRANCH   7   8
ENDBRANCH   6   7
ENDBRANCH   5   6
ENDBRANCH   4   5
ENDBRANCH   3   4
ENDBRANCH   2   3
ENDBRANCH   1   2
BRANCH   1  18
ATOM     18  C   UNL     1      15.996 -35.982   3.611  1.00  0.00     0.000 C 
BRANCH  18  19
ATOM     19  C   UNL     1      16.976 -35.196   2.722  1.00  0.00     0.000 C 
BRANCH  19  20
ATOM     20  C   UNL     1      16.603 -35.264   1.232  1.00  0.00     0.000 C 
BRANCH  20  21
ATOM     21  C   UNL     1      17.769 -34.856   0.315  1.00  0.00     0.000 C 
BRANCH  21  22
ATOM     22  C   UNL     1      17.287 -34.136  -0.962  1.00  0.00     0.000 C 
BRANCH  22  23
ATOM     23  C   UNL     1      16.923 -35.089  -2.113  1.00  0.00     0.000 C 
BRANCH  23  24
ATOM     24  C   UNL     1      17.856 -36.309  -2.198  1.00  0.00    -0.000 C 
BRANCH  24  25
ATOM     25  C   UNL     1      17.086 -37.633  -2.310  1.00  0.00    -0.000 C 
BRANCH  25  26
ATOM     26  C   UNL     1      15.594 -37.481  -1.974  1.00  0.00    -0.000 C 
BRANCH  26  27
ATOM     27  C   UNL     1      15.262 -38.169  -0.644  1.00  0.00    -0.000 C 
BRANCH  27  28
ATOM     28  C   UNL     1      15.871 -39.579  -0.584  1.00  0.00    -0.000 C 
BRANCH  28  29
ATOM     29  C   UNL     1      16.112 -40.059   0.857  1.00  0.00    -0.000 C 
BRANCH  29  30
ATOM     30  C   UNL     1      16.745 -38.974   1.746  1.00  0.00    -0.000 C 
BRANCH  30  31
ATOM     31  C   UNL     1      18.278 -39.080   1.800  1.00  0.00    -0.003 C 
ATOM     32  C   UNL     1      18.976 -38.088   0.870  1.00  0.00     0.004 C 
ENDBRANCH  30  31
ENDBRANCH  29  30
ENDBRANCH  28  29
ENDBRANCH  27  28
ENDBRANCH  26  27
ENDBRANCH  25  26
ENDBRANCH  24  25
ENDBRANCH  23  24
ENDBRANCH  22  23
ENDBRANCH  21  22
ENDBRANCH  20  21
ENDBRANCH  19  20
ENDBRANCH  18  19
ENDBRANCH   1  18
TORSDOF 28
ENDMDL
MODEL 8
REMARK VINA RESULT:    -3.692      2.323      5.362
REMARK INTER + INTRA:         -14.595
REMARK INTER:                  -9.347
REMARK INTRA:                  -5.249
REMARK UNBOUND:                -4.861
REMARK SMILES CCCCCCCCCCCCCCCCCCCCCCCCCCCCCC(=O)[O-]
REMARK SMILES IDX 16 1 17 2 18 3 19 4 20 5 21 6 22 7 23 8 24 9 25 10 26 11
REMARK SMILES IDX 27 12 28 13 29 14 30 15 31 16 32 17 15 18 14 19 13 20 12 21
REMARK SMILES IDX 11 22 10 23 9 24 8 25 7 26 6 27 5 28 4 29 3 30 2 31 1 32
REMARK H PARENT
REMARK Flexibility Score: inf
ROOT
ATOM      1  C   UNL     1      17.118 -35.156  -1.515  1.00  0.00     0.000 C 
ENDROOT
BRANCH   1   2
ATOM      2  C   UNL     1      17.716 -36.218  -2.455  1.00  0.00     0.000 C 
BRANCH   2   3
ATOM      3  C   UNL     1      18.057 -37.531  -1.731  1.00  0.00     0.000 C 
BRANCH   3   4
ATOM      4  C   UNL     1      18.171 -37.355  -0.209  1.00  0.00     0.000 C 
BRANCH   4   5
ATOM      5  C   UNL     1      18.786 -38.586   0.483  1.00  0.00     0.000 C 
BRANCH   5   6
ATOM      6  C   UNL     1      18.377 -38.700   1.960  1.00  0.00     0.000 C 
BRANCH   6   7
ATOM      7  C   UNL     1      17.645 -40.018   2.271  1.00  0.00     0.000 C 
BRANCH   7   8
ATOM      8  C   UNL     1      16.852 -39.957   3.586  1.00  0.00     0.000 C 
BRANCH   8   9
ATOM      9  C   UNL     1      17.436 -40.877   4.673  1.00  0.00     0.000 C 
BRANCH   9  10
ATOM     10  C   UNL     1      18.241 -40.105   5.730  1.00  0.00     0.000 C 
BRANCH  10  11
ATOM     11  C   UNL     1      17.807 -38.637   5.856  1.00  0.00     0.000 C 
BRANCH  11  12
ATOM     12  C   UNL     1      18.300 -38.030   7.177  1.00  0.00     0.000 C 
BRANCH  12  13
ATOM     13  C   UNL     1      19.559 -37.160   7.012  1.00  0.00     0.006 C 
BRANCH  13  14
ATOM     14  C   UNL     1      20.637 -37.410   8.082  1.00  0.00     0.053 C 
BRANCH  14  15
ATOM     15  C   UNL     1      21.597 -38.493   7.691  1.00  0.00     0.041 C 
ATOM     16  O   UNL     1      22.693 -38.204   7.141  1.00  0.00    -0.550 OA
ATOM     17  O   UNL     1      21.299 -39.821   7.969  1.00  0.00    -0.550 OA
ENDBRANCH  14  15
ENDBRANCH  13  14
ENDBRANCH  12  13
ENDBRANCH  11  12
ENDBRANCH  10  11
ENDBRANCH   9  10
ENDBRANCH   8   9
ENDBRANCH   7   8
ENDBRANCH   6   7
ENDBRANCH   5   6
ENDBRANCH   4   5
ENDBRANCH   3   4
ENDBRANCH   2   3
ENDBRANCH   1   2
BRANCH   1  18
ATOM     18  C   UNL     1      17.251 -33.706  -2.015  1.00  0.00     0.000 C 
BRANCH  18  19
ATOM     19  C   UNL     1      15.893 -32.996  -2.158  1.00  0.00     0.000 C 
BRANCH  19  20
ATOM     20  C   UNL     1      14.937 -33.316  -0.996  1.00  0.00     0.000 C 
BRANCH  20  21
ATOM     21  C   UNL     1      13.519 -33.665  -1.482  1.00  0.00     0.000 C 
BRANCH  21  22
ATOM     22  C   UNL     1      13.521 -34.790  -2.538  1.00  0.00     0.000 C 
BRANCH  22  23
ATOM     23  C   UNL     1      13.207 -36.182  -1.963  1.00  0.00     0.000 C 
BRANCH  23  24
ATOM     24  C   UNL     1      14.267 -37.234  -2.329  1.00  0.00    -0.000 C 
BRANCH  24  25
ATOM     25  C   UNL     1      14.044 -38.572  -1.608  1.00  0.00    -0.000 C 
BRANCH  25  26
ATOM     26  C   UNL     1      14.833 -38.674  -0.294  1.00  0.00    -0.000 C 
BRANCH  26  27
ATOM     27  C   UNL     1      13.962 -38.260   0.899  1.00  0.00    -0.000 C 
BRANCH  27  28
ATOM     28  C   UNL     1      14.773 -37.451   1.923  1.00  0.00    -0.000 C 
BRANCH  28  29
ATOM     29  C   UNL     1      15.064 -36.018   1.450  1.00  0.00    -0.000 C 
BRANCH  29  30
ATOM     30  C   UNL     1      16.297 -35.405   2.138  1.00  0.00    -0.000 C 
BRANCH  30  31
ATOM     31  C   UNL     1      16.607 -36.070   3.489  1.00  0.00    -0.003 C 
ATOM     32  C   UNL     1      16.186 -35.215   4.684  1.00  0.00     0.004 C 
ENDBRANCH  30  31
ENDBRANCH  29  30
ENDBRANCH  28  29
ENDBRANCH  27  28
ENDBRANCH  26  27
ENDBRANCH  25  26
ENDBRANCH  24  25
ENDBRANCH  23  24
ENDBRANCH  22  23
ENDBRANCH  21  22
ENDBRANCH  20  21
ENDBRANCH  19  20
ENDBRANCH  18  19
ENDBRANCH   1  18
TORSDOF 28
ENDMDL
MODEL 9
REMARK VINA RESULT:    -3.678      2.528      4.665
REMARK INTER + INTRA:         -14.560
REMARK INTER:                  -9.231
REMARK INTRA:                  -5.330
REMARK UNBOUND:                -4.861
REMARK SMILES CCCCCCCCCCCCCCCCCCCCCCCCCCCCCC(=O)[O-]
REMARK SMILES IDX 16 1 17 2 18 3 19 4 20 5 21 6 22 7 23 8 24 9 25 10 26 11
REMARK SMILES IDX 27 12 28 13 29 14 30 15 31 16 32 17 15 18 14 19 13 20 12 21
REMARK SMILES IDX 11 22 10 23 9 24 8 25 7 26 6 27 5 28 4 29 3 30 2 31 1 32
REMARK H PARENT
REMARK Flexibility Score: inf
ROOT
ATOM      1  C   UNL     1      17.752 -34.990  -2.154  1.00  0.00     0.000 C 
ENDROOT
BRANCH   1   2
ATOM      2  C   UNL     1      16.912 -33.760  -1.764  1.00  0.00     0.000 C 
BRANCH   2   3
ATOM      3  C   UNL     1      15.400 -33.994  -1.927  1.00  0.00     0.000 C 
BRANCH   3   4
ATOM      4  C   UNL     1      14.640 -33.897  -0.596  1.00  0.00     0.000 C 
BRANCH   4   5
ATOM      5  C   UNL     1      13.694 -35.090  -0.369  1.00  0.00     0.000 C 
BRANCH   5   6
ATOM      6  C   UNL     1      13.400 -35.867  -1.662  1.00  0.00     0.000 C 
BRANCH   6   7
ATOM      7  C   UNL     1      12.948 -37.313  -1.393  1.00  0.00     0.000 C 
BRANCH   7   8
ATOM      8  C   UNL     1      14.039 -38.154  -0.709  1.00  0.00     0.000 C 
BRANCH   8   9
ATOM      9  C   UNL     1      13.645 -38.592   0.712  1.00  0.00     0.000 C 
BRANCH   9  10
ATOM     10  C   UNL     1      14.776 -39.345   1.433  1.00  0.00     0.000 C 
BRANCH  10  11
ATOM     11  C   UNL     1      15.651 -40.166   0.475  1.00  0.00     0.000 C 
BRANCH  11  12
ATOM     12  C   UNL     1      17.073 -40.325   1.031  1.00  0.00     0.000 C 
BRANCH  12  13
ATOM     13  C   UNL     1      17.204 -39.877   2.497  1.00  0.00     0.006 C 
BRANCH  13  14
ATOM     14  C   UNL     1      18.609 -39.371   2.873  1.00  0.00     0.053 C 
BRANCH  14  15
ATOM     15  C   UNL     1      19.223 -40.152   3.996  1.00  0.00     0.041 C 
ATOM     16  O   UNL     1      20.452 -40.426   3.983  1.00  0.00    -0.550 OA
ATOM     17  O   UNL     1      18.444 -40.545   5.077  1.00  0.00    -0.550 OA
ENDBRANCH  14  15
ENDBRANCH  13  14
ENDBRANCH  12  13
ENDBRANCH  11  12
ENDBRANCH  10  11
ENDBRANCH   9  10
ENDBRANCH   8   9
ENDBRANCH   7   8
ENDBRANCH   6   7
ENDBRANCH   5   6
ENDBRANCH   4   5
ENDBRANCH   3   4
ENDBRANCH   2   3
ENDBRANCH   1   2
BRANCH   1  18
ATOM     18  C   UNL     1      16.977 -36.319  -2.171  1.00  0.00     0.000 C 
BRANCH  18  19
ATOM     19  C   UNL     1      17.681 -37.432  -1.374  1.00  0.00     0.000 C 
BRANCH  19  20
ATOM     20  C   UNL     1      18.110 -36.969   0.028  1.00  0.00     0.000 C 
BRANCH  20  21
ATOM     21  C   UNL     1      16.919 -36.493   0.879  1.00  0.00     0.000 C 
BRANCH  21  22
ATOM     22  C   UNL     1      17.262 -35.247   1.724  1.00  0.00     0.000 C 
BRANCH  22  23
ATOM     23  C   UNL     1      16.538 -35.197   3.079  1.00  0.00     0.000 C 
BRANCH  23  24
ATOM     24  C   UNL     1      16.132 -36.589   3.594  1.00  0.00    -0.000 C 
BRANCH  24  25
ATOM     25  C   UNL     1      16.732 -36.908   4.971  1.00  0.00    -0.000 C 
BRANCH  25  26
ATOM     26  C   UNL     1      16.515 -35.776   5.987  1.00  0.00    -0.000 C 
BRANCH  26  27
ATOM     27  C   UNL     1      17.590 -35.813   7.081  1.00  0.00    -0.000 C 
BRANCH  27  28
ATOM     28  C   UNL     1      18.130 -37.238   7.279  1.00  0.00    -0.000 C 
BRANCH  28  29
ATOM     29  C   UNL     1      19.276 -37.301   8.302  1.00  0.00    -0.000 C 
BRANCH  29  30
ATOM     30  C   UNL     1      20.410 -36.310   7.983  1.00  0.00    -0.000 C 
BRANCH  30  31
ATOM     31  C   UNL     1      20.639 -35.296   9.116  1.00  0.00    -0.003 C 
ATOM     32  C   UNL     1      20.518 -33.846   8.650  1.00  0.00     0.004 C 
ENDBRANCH  30  31
ENDBRANCH  29  30
ENDBRANCH  28  29
ENDBRANCH  27  28
ENDBRANCH  26  27
ENDBRANCH  25  26
ENDBRANCH  24  25
ENDBRANCH  23  24
ENDBRANCH  22  23
ENDBRANCH  21  22
ENDBRANCH  20  21
ENDBRANCH  19  20
ENDBRANCH  18  19
ENDBRANCH   1  18
TORSDOF 28
ENDMDL
