MODEL 1
REMARK VINA RESULT:    -7.098      0.000      0.000
REMARK INTER + INTRA:         -11.563
REMARK INTER:                  -9.588
REMARK INTRA:                  -1.975
REMARK UNBOUND:                -1.975
REMARK SMILES CC[C@H](CC[C@H](C)[C@@H]1CC[C@H]2[C@@H]3CC(=O)C4=CC(=O)CC[C@@]4(C)[C@@H]3CC[C@]21C)C(C)C
REMARK SMILES IDX 4 1 3 2 2 3 1 4 29 5 30 6 31 7 5 8 6 9 7 10 8 11 9 12 27 13
REMARK SMILES IDX 10 14 11 15 26 16 28 17 12 18 25 19 24 20 13 21 22 22 14 23
REMARK SMILES IDX 16 24 21 25 23 26 15 27 17 28 20 29 18 30 19 31
REMARK H PARENT
REMARK Flexibility Score: inf
ROOT
ATOM      1  C   UNL     1      14.843 111.225  21.420  1.00  0.00     0.004 C 
ENDROOT
BRANCH   1   2
ATOM      2  C   UNL     1      14.200 109.810  21.503  1.00  0.00    -0.009 C 
BRANCH   2   3
ATOM      3  C   UNL     1      13.048 109.808  22.549  1.00  0.00     0.000 C 
ATOM      4  C   UNL     1      11.665 109.581  21.933  1.00  0.00     0.004 C 
ENDBRANCH   2   3
BRANCH   2   5
ATOM      5  C   UNL     1      13.740 109.277  20.105  1.00  0.00    -0.014 C 
ATOM      6  C   UNL     1      13.806 110.336  18.989  1.00  0.00     0.007 C 
ATOM      7  C   UNL     1      14.514 108.013  19.684  1.00  0.00     0.007 C 
ENDBRANCH   2   5
ENDBRANCH   1   2
BRANCH   1   8
ATOM      8  C   UNL     1      14.283 112.252  22.436  1.00  0.00     0.004 C 
BRANCH   8   9
ATOM      9  C   UNL     1      14.501 113.738  22.027  1.00  0.00    -0.011 C 
ATOM     10  C   UNL     1      14.962 114.617  23.210  1.00  0.00     0.008 C 
BRANCH   9  11
ATOM     11  C   UNL     1      13.303 114.316  21.187  1.00  0.00    -0.002 C 
ATOM     12  C   UNL     1      12.046 113.428  21.271  1.00  0.00     0.005 C 
ATOM     13  C   UNL     1      13.474 114.723  19.672  1.00  0.00    -0.026 C 
ATOM     14  C   UNL     1      11.560 113.205  19.850  1.00  0.00     0.005 C 
ATOM     15  C   UNL     1      12.113 114.357  18.999  1.00  0.00    -0.001 C 
ATOM     16  C   UNL     1      13.806 116.236  19.514  1.00  0.00     0.007 C 
ATOM     17  C   UNL     1      14.586 113.928  18.941  1.00  0.00     0.012 C 
ATOM     18  C   UNL     1      11.088 115.532  18.857  1.00  0.00     0.004 C 
ATOM     19  C   UNL     1      12.677 117.223  19.896  1.00  0.00     0.005 C 
ATOM     20  C   UNL     1      11.247 116.607  19.958  1.00  0.00     0.003 C 
ATOM     21  C   UNL     1      11.154 116.181  17.453  1.00  0.00     0.085 C 
ATOM     22  C   UNL     1      10.048 117.652  19.938  1.00  0.00    -0.000 C 
ATOM     23  C   UNL     1      10.270 117.389  17.352  1.00  0.00     0.159 C 
ATOM     24  C   UNL     1       9.492 117.848  18.522  1.00  0.00     0.005 C 
ATOM     25  C   UNL     1       8.893 117.106  20.838  1.00  0.00     0.020 C 
ATOM     26  C   UNL     1      10.490 119.036  20.489  1.00  0.00     0.017 C 
ATOM     27  O   UNL     1      10.150 117.972  16.238  1.00  0.00    -0.295 OA
ATOM     28  C   UNL     1       8.255 118.340  18.336  1.00  0.00     0.055 C 
ATOM     29  C   UNL     1       7.638 117.999  20.833  1.00  0.00     0.081 C 
ATOM     30  C   UNL     1       7.319 118.518  19.459  1.00  0.00     0.156 C 
ATOM     31  O   UNL     1       6.219 119.101  19.261  1.00  0.00    -0.295 OA
ENDBRANCH   9  11
ENDBRANCH   8   9
ENDBRANCH   1   8
TORSDOF 6
ENDMDL
MODEL 2
REMARK VINA RESULT:    -7.098      3.207      8.268
REMARK INTER + INTRA:         -11.563
REMARK INTER:                  -9.664
REMARK INTRA:                  -1.898
REMARK UNBOUND:                -1.975
REMARK SMILES CC[C@H](CC[C@H](C)[C@@H]1CC[C@H]2[C@@H]3CC(=O)C4=CC(=O)CC[C@@]4(C)[C@@H]3CC[C@]21C)C(C)C
REMARK SMILES IDX 4 1 3 2 2 3 1 4 29 5 30 6 31 7 5 8 6 9 7 10 8 11 9 12 27 13
REMARK SMILES IDX 10 14 11 15 26 16 28 17 12 18 25 19 24 20 13 21 22 22 14 23
REMARK SMILES IDX 16 24 21 25 23 26 15 27 17 28 20 29 18 30 19 31
REMARK H PARENT
REMARK Flexibility Score: inf
ROOT
ATOM      1  C   UNL     1      10.358 118.714  18.967  1.00  0.00     0.004 C 
ENDROOT
BRANCH   1   2
ATOM      2  C   UNL     1       9.782 118.552  20.405  1.00  0.00    -0.009 C 
BRANCH   2   3
ATOM      3  C   UNL     1       9.457 119.948  21.010  1.00  0.00     0.000 C 
ATOM      4  C   UNL     1       9.122 121.007  19.956  1.00  0.00     0.004 C 
ENDBRANCH   2   3
BRANCH   2   5
ATOM      5  C   UNL     1       8.557 117.578  20.453  1.00  0.00    -0.014 C 
ATOM      6  C   UNL     1       7.786 117.622  21.785  1.00  0.00     0.007 C 
ATOM      7  C   UNL     1       7.592 117.804  19.274  1.00  0.00     0.007 C 
ENDBRANCH   2   5
ENDBRANCH   1   2
BRANCH   1   8
ATOM      8  C   UNL     1      11.812 118.208  18.791  1.00  0.00     0.004 C 
BRANCH   8   9
ATOM      9  C   UNL     1      12.374 117.441  20.023  1.00  0.00    -0.011 C 
ATOM     10  C   UNL     1      13.652 118.092  20.594  1.00  0.00     0.008 C 
BRANCH   9  11
ATOM     11  C   UNL     1      12.460 115.889  19.780  1.00  0.00    -0.002 C 
ATOM     12  C   UNL     1      11.727 115.453  18.496  1.00  0.00     0.005 C 
ATOM     13  C   UNL     1      12.068 114.851  20.903  1.00  0.00    -0.026 C 
ATOM     14  C   UNL     1      10.832 114.285  18.866  1.00  0.00     0.005 C 
ATOM     15  C   UNL     1      11.415 113.655  20.139  1.00  0.00    -0.001 C 
ATOM     16  C   UNL     1      13.307 114.399  21.730  1.00  0.00     0.007 C 
ATOM     17  C   UNL     1      11.018 115.395  21.906  1.00  0.00     0.012 C 
ATOM     18  C   UNL     1      12.366 112.453  19.822  1.00  0.00     0.004 C 
ATOM     19  C   UNL     1      14.352 113.542  20.975  1.00  0.00     0.005 C 
ATOM     20  C   UNL     1      13.844 112.878  19.660  1.00  0.00     0.003 C 
ATOM     21  C   UNL     1      12.239 111.330  20.880  1.00  0.00     0.085 C 
ATOM     22  C   UNL     1      14.741 111.690  19.100  1.00  0.00    -0.000 C 
ATOM     23  C   UNL     1      13.238 110.233  20.656  1.00  0.00     0.159 C 
ATOM     24  C   UNL     1      14.212 110.323  19.548  1.00  0.00     0.005 C 
ATOM     25  C   UNL     1      14.708 111.732  17.538  1.00  0.00     0.020 C 
ATOM     26  C   UNL     1      16.218 111.824  19.565  1.00  0.00     0.017 C 
ATOM     27  O   UNL     1      13.196 109.204  21.387  1.00  0.00    -0.295 OA
ATOM     28  C   UNL     1      14.547 109.207  18.876  1.00  0.00     0.055 C 
ATOM     29  C   UNL     1      15.479 110.574  16.878  1.00  0.00     0.081 C 
ATOM     30  C   UNL     1      15.253 109.267  17.586  1.00  0.00     0.156 C 
ATOM     31  O   UNL     1      15.661 108.200  17.053  1.00  0.00    -0.295 OA
ENDBRANCH   9  11
ENDBRANCH   8   9
ENDBRANCH   1   8
TORSDOF 6
ENDMDL
MODEL 3
REMARK VINA RESULT:    -6.961      2.914      8.369
REMARK INTER + INTRA:         -11.377
REMARK INTER:                  -9.445
REMARK INTRA:                  -1.932
REMARK UNBOUND:                -1.975
REMARK SMILES CC[C@H](CC[C@H](C)[C@@H]1CC[C@H]2[C@@H]3CC(=O)C4=CC(=O)CC[C@@]4(C)[C@@H]3CC[C@]21C)C(C)C
REMARK SMILES IDX 4 1 3 2 2 3 1 4 29 5 30 6 31 7 5 8 6 9 7 10 8 11 9 12 27 13
REMARK SMILES IDX 10 14 11 15 26 16 28 17 12 18 25 19 24 20 13 21 22 22 14 23
REMARK SMILES IDX 16 24 21 25 23 26 15 27 17 28 20 29 18 30 19 31
REMARK H PARENT
REMARK Flexibility Score: inf
ROOT
ATOM      1  C   UNL     1       7.674 118.882  22.567  1.00  0.00     0.004 C 
ENDROOT
BRANCH   1   2
ATOM      2  C   UNL     1       7.410 120.227  21.828  1.00  0.00    -0.009 C 
BRANCH   2   3
ATOM      3  C   UNL     1       6.221 120.978  22.493  1.00  0.00     0.000 C 
ATOM      4  C   UNL     1       6.550 122.425  22.872  1.00  0.00     0.004 C 
ENDBRANCH   2   3
BRANCH   2   5
ATOM      5  C   UNL     1       8.696 121.115  21.721  1.00  0.00    -0.014 C 
ATOM      6  C   UNL     1       9.925 120.506  22.420  1.00  0.00     0.007 C 
ATOM      7  C   UNL     1       9.035 121.468  20.261  1.00  0.00     0.007 C 
ENDBRANCH   2   5
ENDBRANCH   1   2
BRANCH   1   8
ATOM      8  C   UNL     1       7.614 117.625  21.664  1.00  0.00     0.004 C 
BRANCH   8   9
ATOM      9  C   UNL     1       8.457 117.733  20.360  1.00  0.00    -0.011 C 
ATOM     10  C   UNL     1       7.598 117.593  19.085  1.00  0.00     0.008 C 
BRANCH   9  11
ATOM     11  C   UNL     1       9.751 116.840  20.402  1.00  0.00    -0.002 C 
ATOM     12  C   UNL     1      10.195 116.515  21.842  1.00  0.00     0.005 C 
ATOM     13  C   UNL     1      11.054 117.229  19.600  1.00  0.00    -0.026 C 
ATOM     14  C   UNL     1      11.678 116.824  21.934  1.00  0.00     0.005 C 
ATOM     15  C   UNL     1      12.239 116.767  20.506  1.00  0.00    -0.001 C 
ATOM     16  C   UNL     1      11.097 116.547  18.202  1.00  0.00     0.007 C 
ATOM     17  C   UNL     1      11.205 118.755  19.374  1.00  0.00     0.012 C 
ATOM     18  C   UNL     1      12.847 115.365  20.166  1.00  0.00     0.004 C 
ATOM     19  C   UNL     1      11.273 115.008  18.201  1.00  0.00     0.005 C 
ATOM     20  C   UNL     1      11.820 114.401  19.527  1.00  0.00     0.003 C 
ATOM     21  C   UNL     1      14.102 115.490  19.268  1.00  0.00     0.085 C 
ATOM     22  C   UNL     1      12.390 112.919  19.420  1.00  0.00    -0.000 C 
ATOM     23  C   UNL     1      14.613 114.149  18.830  1.00  0.00     0.159 C 
ATOM     24  C   UNL     1      13.911 112.912  19.232  1.00  0.00     0.005 C 
ATOM     25  C   UNL     1      12.064 112.161  20.747  1.00  0.00     0.020 C 
ATOM     26  C   UNL     1      11.744 112.145  18.238  1.00  0.00     0.017 C 
ATOM     27  O   UNL     1      15.686 114.086  18.166  1.00  0.00    -0.295 OA
ATOM     28  C   UNL     1      14.631 111.816  19.530  1.00  0.00     0.055 C 
ATOM     29  C   UNL     1      12.640 110.733  20.793  1.00  0.00     0.081 C 
ATOM     30  C   UNL     1      14.032 110.667  20.229  1.00  0.00     0.156 C 
ATOM     31  O   UNL     1      14.704 109.611  20.373  1.00  0.00    -0.295 OA
ENDBRANCH   9  11
ENDBRANCH   8   9
ENDBRANCH   1   8
TORSDOF 6
ENDMDL
MODEL 4
REMARK VINA RESULT:    -6.788      1.729      2.482
REMARK INTER + INTRA:         -11.144
REMARK INTER:                  -9.316
REMARK INTRA:                  -1.829
REMARK UNBOUND:                -1.975
REMARK SMILES CC[C@H](CC[C@H](C)[C@@H]1CC[C@H]2[C@@H]3CC(=O)C4=CC(=O)CC[C@@]4(C)[C@@H]3CC[C@]21C)C(C)C
REMARK SMILES IDX 4 1 3 2 2 3 1 4 29 5 30 6 31 7 5 8 6 9 7 10 8 11 9 12 27 13
REMARK SMILES IDX 10 14 11 15 26 16 28 17 12 18 25 19 24 20 13 21 22 22 14 23
REMARK SMILES IDX 16 24 21 25 23 26 15 27 17 28 20 29 18 30 19 31
REMARK H PARENT
REMARK Flexibility Score: inf
ROOT
ATOM      1  C   UNL     1      14.846 111.477  20.065  1.00  0.00     0.004 C 
ENDROOT
BRANCH   1   2
ATOM      2  C   UNL     1      13.756 110.899  19.115  1.00  0.00    -0.009 C 
BRANCH   2   3
ATOM      3  C   UNL     1      13.840 111.590  17.724  1.00  0.00     0.000 C 
ATOM      4  C   UNL     1      12.475 112.012  17.170  1.00  0.00     0.004 C 
ENDBRANCH   2   3
BRANCH   2   5
ATOM      5  C   UNL     1      13.817 109.337  19.012  1.00  0.00    -0.014 C 
ATOM      6  C   UNL     1      14.976 108.822  18.140  1.00  0.00     0.007 C 
ATOM      7  C   UNL     1      13.858 108.668  20.399  1.00  0.00     0.007 C 
ENDBRANCH   2   5
ENDBRANCH   1   2
BRANCH   1   8
ATOM      8  C   UNL     1      14.380 112.671  20.935  1.00  0.00     0.004 C 
BRANCH   8   9
ATOM      9  C   UNL     1      14.572 114.062  20.265  1.00  0.00    -0.011 C 
ATOM     10  C   UNL     1      15.808 114.814  20.805  1.00  0.00     0.008 C 
BRANCH   9  11
ATOM     11  C   UNL     1      13.242 114.900  20.220  1.00  0.00    -0.002 C 
ATOM     12  C   UNL     1      11.989 114.023  20.414  1.00  0.00     0.005 C 
ATOM     13  C   UNL     1      12.925 115.891  19.033  1.00  0.00    -0.026 C 
ATOM     14  C   UNL     1      11.015 114.382  19.307  1.00  0.00     0.005 C 
ATOM     15  C   UNL     1      11.380 115.794  18.826  1.00  0.00    -0.001 C 
ATOM     16  C   UNL     1      13.373 117.345  19.359  1.00  0.00     0.007 C 
ATOM     17  C   UNL     1      13.602 115.488  17.697  1.00  0.00     0.012 C 
ATOM     18  C   UNL     1      10.530 116.899  19.538  1.00  0.00     0.004 C 
ATOM     19  C   UNL     1      12.583 118.065  20.480  1.00  0.00     0.005 C 
ATOM     20  C   UNL     1      11.198 117.440  20.823  1.00  0.00     0.003 C 
ATOM     21  C   UNL     1      10.186 118.063  18.576  1.00  0.00     0.085 C 
ATOM     22  C   UNL     1      10.211 118.373  21.652  1.00  0.00    -0.000 C 
ATOM     23  C   UNL     1       9.485 119.185  19.282  1.00  0.00     0.159 C 
ATOM     24  C   UNL     1       9.228 119.111  20.736  1.00  0.00     0.005 C 
ATOM     25  C   UNL     1       9.382 117.480  22.630  1.00  0.00     0.020 C 
ATOM     26  C   UNL     1      10.991 119.426  22.487  1.00  0.00     0.017 C 
ATOM     27  O   UNL     1       9.061 120.167  18.609  1.00  0.00    -0.295 OA
ATOM     28  C   UNL     1       8.077 119.605  21.226  1.00  0.00     0.055 C 
ATOM     29  C   UNL     1       8.329 118.266  23.434  1.00  0.00     0.081 C 
ATOM     30  C   UNL     1       7.622 119.289  22.590  1.00  0.00     0.156 C 
ATOM     31  O   UNL     1       6.607 119.874  23.054  1.00  0.00    -0.295 OA
ENDBRANCH   9  11
ENDBRANCH   8   9
ENDBRANCH   1   8
TORSDOF 6
ENDMDL
MODEL 5
REMARK VINA RESULT:    -6.763      1.731      2.559
REMARK INTER + INTRA:         -11.110
REMARK INTER:                  -9.428
REMARK INTRA:                  -1.682
REMARK UNBOUND:                -1.975
REMARK SMILES CC[C@H](CC[C@H](C)[C@@H]1CC[C@H]2[C@@H]3CC(=O)C4=CC(=O)CC[C@@]4(C)[C@@H]3CC[C@]21C)C(C)C
REMARK SMILES IDX 4 1 3 2 2 3 1 4 29 5 30 6 31 7 5 8 6 9 7 10 8 11 9 12 27 13
REMARK SMILES IDX 10 14 11 15 26 16 28 17 12 18 25 19 24 20 13 21 22 22 14 23
REMARK SMILES IDX 16 24 21 25 23 26 15 27 17 28 20 29 18 30 19 31
REMARK H PARENT
REMARK Flexibility Score: inf
ROOT
ATOM      1  C   UNL     1      14.180 109.517  18.987  1.00  0.00     0.004 C 
ENDROOT
BRANCH   1   2
ATOM      2  C   UNL     1      15.701 109.562  18.656  1.00  0.00    -0.009 C 
BRANCH   2   3
ATOM      3  C   UNL     1      16.317 108.139  18.787  1.00  0.00     0.000 C 
ATOM      4  C   UNL     1      17.375 108.032  19.889  1.00  0.00     0.004 C 
ENDBRANCH   2   3
BRANCH   2   5
ATOM      5  C   UNL     1      15.992 110.216  17.263  1.00  0.00    -0.014 C 
ATOM      6  C   UNL     1      17.285 111.051  17.233  1.00  0.00     0.007 C 
ATOM      7  C   UNL     1      16.006 109.175  16.128  1.00  0.00     0.007 C 
ENDBRANCH   2   5
ENDBRANCH   1   2
BRANCH   1   8
ATOM      8  C   UNL     1      13.757 110.373  20.207  1.00  0.00     0.004 C 
BRANCH   8   9
ATOM      9  C   UNL     1      14.309 111.828  20.189  1.00  0.00    -0.011 C 
ATOM     10  C   UNL     1      15.216 112.133  21.400  1.00  0.00     0.008 C 
BRANCH   9  11
ATOM     11  C   UNL     1      13.190 112.895  19.900  1.00  0.00    -0.002 C 
ATOM     12  C   UNL     1      11.771 112.305  20.019  1.00  0.00     0.005 C 
ATOM     13  C   UNL     1      13.207 113.782  18.595  1.00  0.00    -0.026 C 
ATOM     14  C   UNL     1      11.010 112.713  18.771  1.00  0.00     0.005 C 
ATOM     15  C   UNL     1      11.704 113.962  18.208  1.00  0.00    -0.001 C 
ATOM     16  C   UNL     1      13.907 115.151  18.836  1.00  0.00     0.007 C 
ATOM     17  C   UNL     1      13.920 113.103  17.397  1.00  0.00     0.012 C 
ATOM     18  C   UNL     1      11.030 115.285  18.702  1.00  0.00     0.004 C 
ATOM     19  C   UNL     1      13.171 116.135  19.777  1.00  0.00     0.005 C 
ATOM     20  C   UNL     1      11.659 115.834  20.004  1.00  0.00     0.003 C 
ATOM     21  C   UNL     1      11.032 116.373  17.600  1.00  0.00     0.085 C 
ATOM     22  C   UNL     1      10.804 117.030  20.613  1.00  0.00    -0.000 C 
ATOM     23  C   UNL     1      10.507 117.684  18.105  1.00  0.00     0.159 C 
ATOM     24  C   UNL     1      10.093 117.831  19.516  1.00  0.00     0.005 C 
ATOM     25  C   UNL     1       9.714 116.434  21.560  1.00  0.00     0.020 C 
ATOM     26  C   UNL     1      11.693 118.003  21.435  1.00  0.00     0.017 C 
ATOM     27  O   UNL     1      10.364 118.643  17.295  1.00  0.00    -0.295 OA
ATOM     28  C   UNL     1       9.023 118.592  19.811  1.00  0.00     0.055 C 
ATOM     29  C   UNL     1       8.768 117.497  22.149  1.00  0.00     0.081 C 
ATOM     30  C   UNL     1       8.375 118.530  21.131  1.00  0.00     0.156 C 
ATOM     31  O   UNL     1       7.459 119.351  21.409  1.00  0.00    -0.295 OA
ENDBRANCH   9  11
ENDBRANCH   8   9
ENDBRANCH   1   8
TORSDOF 6
ENDMDL
MODEL 6
REMARK VINA RESULT:    -6.742      2.189      3.504
REMARK INTER + INTRA:         -11.082
REMARK INTER:                  -8.905
REMARK INTRA:                  -2.177
REMARK UNBOUND:                -1.975
REMARK SMILES CC[C@H](CC[C@H](C)[C@@H]1CC[C@H]2[C@@H]3CC(=O)C4=CC(=O)CC[C@@]4(C)[C@@H]3CC[C@]21C)C(C)C
REMARK SMILES IDX 4 1 3 2 2 3 1 4 29 5 30 6 31 7 5 8 6 9 7 10 8 11 9 12 27 13
REMARK SMILES IDX 10 14 11 15 26 16 28 17 12 18 25 19 24 20 13 21 22 22 14 23
REMARK SMILES IDX 16 24 21 25 23 26 15 27 17 28 20 29 18 30 19 31
REMARK H PARENT
REMARK Flexibility Score: inf
ROOT
ATOM      1  C   UNL     1      14.650 108.369  18.597  1.00  0.00     0.004 C 
ENDROOT
BRANCH   1   2
ATOM      2  C   UNL     1      16.053 108.930  18.220  1.00  0.00    -0.009 C 
BRANCH   2   3
ATOM      3  C   UNL     1      17.157 108.200  19.038  1.00  0.00     0.000 C 
ATOM      4  C   UNL     1      17.910 109.120  20.004  1.00  0.00     0.004 C 
ENDBRANCH   2   3
BRANCH   2   5
ATOM      5  C   UNL     1      16.321 108.887  16.678  1.00  0.00    -0.014 C 
ATOM      6  C   UNL     1      15.525 109.938  15.884  1.00  0.00     0.007 C 
ATOM      7  C   UNL     1      17.822 108.997  16.349  1.00  0.00     0.007 C 
ENDBRANCH   2   5
ENDBRANCH   1   2
BRANCH   1   8
ATOM      8  C   UNL     1      13.798 109.305  19.491  1.00  0.00     0.004 C 
BRANCH   8   9
ATOM      9  C   UNL     1      14.559 110.558  20.012  1.00  0.00    -0.011 C 
ATOM     10  C   UNL     1      14.753 110.539  21.544  1.00  0.00     0.008 C 
BRANCH   9  11
ATOM     11  C   UNL     1      13.987 111.900  19.424  1.00  0.00    -0.002 C 
ATOM     12  C   UNL     1      12.851 111.660  18.409  1.00  0.00     0.005 C 
ATOM     13  C   UNL     1      14.931 113.000  18.799  1.00  0.00    -0.026 C 
ATOM     14  C   UNL     1      13.173 112.482  17.175  1.00  0.00     0.005 C 
ATOM     15  C   UNL     1      14.113 113.612  17.618  1.00  0.00    -0.001 C 
ATOM     16  C   UNL     1      15.329 114.082  19.845  1.00  0.00     0.007 C 
ATOM     17  C   UNL     1      16.244 112.423  18.209  1.00  0.00     0.012 C 
ATOM     18  C   UNL     1      13.338 114.933  17.942  1.00  0.00     0.004 C 
ATOM     19  C   UNL     1      14.188 115.005  20.336  1.00  0.00     0.005 C 
ATOM     20  C   UNL     1      12.923 115.040  19.428  1.00  0.00     0.003 C 
ATOM     21  C   UNL     1      14.140 116.186  17.513  1.00  0.00     0.085 C 
ATOM     22  C   UNL     1      11.933 116.260  19.677  1.00  0.00    -0.000 C 
ATOM     23  C   UNL     1      13.465 117.457  17.937  1.00  0.00     0.159 C 
ATOM     24  C   UNL     1      12.201 117.413  18.702  1.00  0.00     0.005 C 
ATOM     25  C   UNL     1      10.467 115.769  19.451  1.00  0.00     0.020 C 
ATOM     26  C   UNL     1      12.053 116.804  21.128  1.00  0.00     0.017 C 
ATOM     27  O   UNL     1      13.956 118.564  17.578  1.00  0.00    -0.295 OA
ATOM     28  C   UNL     1      11.253 118.335  18.457  1.00  0.00     0.055 C 
ATOM     29  C   UNL     1       9.418 116.889  19.585  1.00  0.00     0.081 C 
ATOM     30  C   UNL     1       9.873 118.170  18.944  1.00  0.00     0.156 C 
ATOM     31  O   UNL     1       9.051 119.114  18.805  1.00  0.00    -0.295 OA
ENDBRANCH   9  11
ENDBRANCH   8   9
ENDBRANCH   1   8
TORSDOF 6
ENDMDL
MODEL 7
REMARK VINA RESULT:    -6.647      3.171      8.265
REMARK INTER + INTRA:         -10.953
REMARK INTER:                  -9.303
REMARK INTRA:                  -1.649
REMARK UNBOUND:                -1.975
REMARK SMILES CC[C@H](CC[C@H](C)[C@@H]1CC[C@H]2[C@@H]3CC(=O)C4=CC(=O)CC[C@@]4(C)[C@@H]3CC[C@]21C)C(C)C
REMARK SMILES IDX 4 1 3 2 2 3 1 4 29 5 30 6 31 7 5 8 6 9 7 10 8 11 9 12 27 13
REMARK SMILES IDX 10 14 11 15 26 16 28 17 12 18 25 19 24 20 13 21 22 22 14 23
REMARK SMILES IDX 16 24 21 25 23 26 15 27 17 28 20 29 18 30 19 31
REMARK H PARENT
REMARK Flexibility Score: inf
ROOT
ATOM      1  C   UNL     1      10.320 118.162  21.146  1.00  0.00     0.004 C 
ENDROOT
BRANCH   1   2
ATOM      2  C   UNL     1       8.975 117.581  20.618  1.00  0.00    -0.009 C 
BRANCH   2   3
ATOM      3  C   UNL     1       7.836 117.857  21.641  1.00  0.00     0.000 C 
ATOM      4  C   UNL     1       8.012 119.169  22.411  1.00  0.00     0.004 C 
ENDBRANCH   2   3
BRANCH   2   5
ATOM      5  C   UNL     1       8.626 118.090  19.179  1.00  0.00    -0.014 C 
ATOM      6  C   UNL     1       7.119 118.063  18.865  1.00  0.00     0.007 C 
ATOM      7  C   UNL     1       9.200 119.494  18.908  1.00  0.00     0.007 C 
ENDBRANCH   2   5
ENDBRANCH   1   2
BRANCH   1   8
ATOM      8  C   UNL     1      11.183 117.164  21.958  1.00  0.00     0.004 C 
BRANCH   8   9
ATOM      9  C   UNL     1      10.814 115.669  21.731  1.00  0.00    -0.011 C 
ATOM     10  C   UNL     1      10.232 115.002  22.996  1.00  0.00     0.008 C 
BRANCH   9  11
ATOM     11  C   UNL     1      11.961 114.866  21.014  1.00  0.00    -0.002 C 
ATOM     12  C   UNL     1      13.353 115.481  21.264  1.00  0.00     0.005 C 
ATOM     13  C   UNL     1      11.890 114.510  19.478  1.00  0.00    -0.026 C 
ATOM     14  C   UNL     1      14.035 115.609  19.915  1.00  0.00     0.005 C 
ATOM     15  C   UNL     1      13.366 114.597  18.974  1.00  0.00    -0.001 C 
ATOM     16  C   UNL     1      11.283 113.096  19.241  1.00  0.00     0.007 C 
ATOM     17  C   UNL     1      11.052 115.517  18.650  1.00  0.00     0.012 C 
ATOM     18  C   UNL     1      14.144 113.240  18.915  1.00  0.00     0.004 C 
ATOM     19  C   UNL     1      12.140 111.899  19.719  1.00  0.00     0.005 C 
ATOM     20  C   UNL     1      13.647 112.213  19.959  1.00  0.00     0.003 C 
ATOM     21  C   UNL     1      14.113 112.626  17.494  1.00  0.00     0.085 C 
ATOM     22  C   UNL     1      14.607 110.948  20.044  1.00  0.00    -0.000 C 
ATOM     23  C   UNL     1      14.744 111.265  17.458  1.00  0.00     0.159 C 
ATOM     24  C   UNL     1      15.273 110.652  18.695  1.00  0.00     0.005 C 
ATOM     25  C   UNL     1      15.735 111.244  21.084  1.00  0.00     0.020 C 
ATOM     26  C   UNL     1      13.836 109.679  20.502  1.00  0.00     0.017 C 
ATOM     27  O   UNL     1      14.873 110.675  16.348  1.00  0.00    -0.295 OA
ATOM     28  C   UNL     1      16.400 109.921  18.635  1.00  0.00     0.055 C 
ATOM     29  C   UNL     1      16.778 110.116  21.194  1.00  0.00     0.081 C 
ATOM     30  C   UNL     1      17.144 109.552  19.851  1.00  0.00     0.156 C 
ATOM     31  O   UNL     1      18.121 108.759  19.762  1.00  0.00    -0.295 OA
ENDBRANCH   9  11
ENDBRANCH   8   9
ENDBRANCH   1   8
TORSDOF 6
ENDMDL
MODEL 8
REMARK VINA RESULT:    -6.500      3.240      8.172
REMARK INTER + INTRA:         -10.754
REMARK INTER:                  -8.763
REMARK INTRA:                  -1.991
REMARK UNBOUND:                -1.975
REMARK SMILES CC[C@H](CC[C@H](C)[C@@H]1CC[C@H]2[C@@H]3CC(=O)C4=CC(=O)CC[C@@]4(C)[C@@H]3CC[C@]21C)C(C)C
REMARK SMILES IDX 4 1 3 2 2 3 1 4 29 5 30 6 31 7 5 8 6 9 7 10 8 11 9 12 27 13
REMARK SMILES IDX 10 14 11 15 26 16 28 17 12 18 25 19 24 20 13 21 22 22 14 23
REMARK SMILES IDX 16 24 21 25 23 26 15 27 17 28 20 29 18 30 19 31
REMARK H PARENT
REMARK Flexibility Score: inf
ROOT
ATOM      1  C   UNL     1       9.639 119.023  18.641  1.00  0.00     0.004 C 
ENDROOT
BRANCH   1   2
ATOM      2  C   UNL     1       8.476 118.626  19.596  1.00  0.00    -0.009 C 
BRANCH   2   3
ATOM      3  C   UNL     1       7.503 117.649  18.875  1.00  0.00     0.000 C 
ATOM      4  C   UNL     1       6.338 118.354  18.174  1.00  0.00     0.004 C 
ENDBRANCH   2   3
BRANCH   2   5
ATOM      5  C   UNL     1       8.989 118.061  20.963  1.00  0.00    -0.014 C 
ATOM      6  C   UNL     1       9.928 119.022  21.714  1.00  0.00     0.007 C 
ATOM      7  C   UNL     1       7.831 117.624  21.880  1.00  0.00     0.007 C 
ENDBRANCH   2   5
ENDBRANCH   1   2
BRANCH   1   8
ATOM      8  C   UNL     1      10.217 117.855  17.803  1.00  0.00     0.004 C 
BRANCH   8   9
ATOM      9  C   UNL     1      11.763 117.707  17.895  1.00  0.00    -0.011 C 
ATOM     10  C   UNL     1      12.462 117.928  16.536  1.00  0.00     0.008 C 
BRANCH   9  11
ATOM     11  C   UNL     1      12.201 116.413  18.674  1.00  0.00    -0.002 C 
ATOM     12  C   UNL     1      10.996 115.571  19.139  1.00  0.00     0.005 C 
ATOM     13  C   UNL     1      13.208 116.476  19.888  1.00  0.00    -0.026 C 
ATOM     14  C   UNL     1      11.210 115.256  20.608  1.00  0.00     0.005 C 
ATOM     15  C   UNL     1      12.717 115.374  20.880  1.00  0.00    -0.001 C 
ATOM     16  C   UNL     1      14.676 116.229  19.434  1.00  0.00     0.007 C 
ATOM     17  C   UNL     1      13.180 117.830  20.642  1.00  0.00     0.012 C 
ATOM     18  C   UNL     1      13.446 113.992  20.774  1.00  0.00     0.004 C 
ATOM     19  C   UNL     1      15.003 114.801  18.934  1.00  0.00     0.005 C 
ATOM     20  C   UNL     1      13.983 113.700  19.353  1.00  0.00     0.003 C 
ATOM     21  C   UNL     1      14.582 113.865  21.818  1.00  0.00     0.085 C 
ATOM     22  C   UNL     1      14.495 112.200  19.213  1.00  0.00    -0.000 C 
ATOM     23  C   UNL     1      15.369 112.600  21.638  1.00  0.00     0.159 C 
ATOM     24  C   UNL     1      15.044 111.665  20.541  1.00  0.00     0.005 C 
ATOM     25  C   UNL     1      13.292 111.298  18.789  1.00  0.00     0.020 C 
ATOM     26  C   UNL     1      15.607 112.077  18.135  1.00  0.00     0.017 C 
ATOM     27  O   UNL     1      16.273 112.314  22.473  1.00  0.00    -0.295 OA
ATOM     28  C   UNL     1      15.136 110.341  20.758  1.00  0.00     0.055 C 
ATOM     29  C   UNL     1      13.650 109.803  18.701  1.00  0.00     0.081 C 
ATOM     30  C   UNL     1      14.536 109.365  19.833  1.00  0.00     0.156 C 
ATOM     31  O   UNL     1      14.755 108.136  20.003  1.00  0.00    -0.295 OA
ENDBRANCH   9  11
ENDBRANCH   8   9
ENDBRANCH   1   8
TORSDOF 6
ENDMDL
MODEL 9
REMARK VINA RESULT:    -6.488      2.202      3.845
REMARK INTER + INTRA:         -10.738
REMARK INTER:                  -9.410
REMARK INTRA:                  -1.328
REMARK UNBOUND:                -1.975
REMARK SMILES CC[C@H](CC[C@H](C)[C@@H]1CC[C@H]2[C@@H]3CC(=O)C4=CC(=O)CC[C@@]4(C)[C@@H]3CC[C@]21C)C(C)C
REMARK SMILES IDX 4 1 3 2 2 3 1 4 29 5 30 6 31 7 5 8 6 9 7 10 8 11 9 12 27 13
REMARK SMILES IDX 10 14 11 15 26 16 28 17 12 18 25 19 24 20 13 21 22 22 14 23
REMARK SMILES IDX 16 24 21 25 23 26 15 27 17 28 20 29 18 30 19 31
REMARK H PARENT
REMARK Flexibility Score: inf
ROOT
ATOM      1  C   UNL     1      12.471 111.624  19.128  1.00  0.00     0.004 C 
ENDROOT
BRANCH   1   2
ATOM      2  C   UNL     1      13.228 111.369  20.465  1.00  0.00    -0.009 C 
BRANCH   2   3
ATOM      3  C   UNL     1      12.360 111.838  21.668  1.00  0.00     0.000 C 
ATOM      4  C   UNL     1      13.176 112.469  22.799  1.00  0.00     0.004 C 
ENDBRANCH   2   3
BRANCH   2   5
ATOM      5  C   UNL     1      13.703 109.884  20.611  1.00  0.00    -0.014 C 
ATOM      6  C   UNL     1      12.784 109.027  21.500  1.00  0.00     0.007 C 
ATOM      7  C   UNL     1      13.904 109.204  19.243  1.00  0.00     0.007 C 
ENDBRANCH   2   5
ENDBRANCH   1   2
BRANCH   1   8
ATOM      8  C   UNL     1      11.342 112.681  19.215  1.00  0.00     0.004 C 
BRANCH   8   9
ATOM      9  C   UNL     1      11.499 113.866  18.218  1.00  0.00    -0.011 C 
ATOM     10  C   UNL     1      12.788 113.765  17.375  1.00  0.00     0.008 C 
BRANCH   9  11
ATOM     11  C   UNL     1      11.245 115.263  18.896  1.00  0.00    -0.002 C 
ATOM     12  C   UNL     1      11.112 116.400  17.864  1.00  0.00     0.005 C 
ATOM     13  C   UNL     1      12.172 115.803  20.053  1.00  0.00    -0.026 C 
ATOM     14  C   UNL     1      12.024 117.525  18.317  1.00  0.00     0.005 C 
ATOM     15  C   UNL     1      12.244 117.347  19.826  1.00  0.00    -0.001 C 
ATOM     16  C   UNL     1      11.603 115.454  21.459  1.00  0.00     0.007 C 
ATOM     17  C   UNL     1      13.620 115.254  19.991  1.00  0.00     0.012 C 
ATOM     18  C   UNL     1      11.245 118.205  20.673  1.00  0.00     0.004 C 
ATOM     19  C   UNL     1      10.289 116.169  21.859  1.00  0.00     0.005 C 
ATOM     20  C   UNL     1       9.947 117.442  21.030  1.00  0.00     0.003 C 
ATOM     21  C   UNL     1      11.914 118.761  21.954  1.00  0.00     0.085 C 
ATOM     22  C   UNL     1       8.855 118.406  21.671  1.00  0.00    -0.000 C 
ATOM     23  C   UNL     1      10.931 119.474  22.835  1.00  0.00     0.159 C 
ATOM     24  C   UNL     1       9.504 119.552  22.456  1.00  0.00     0.005 C 
ATOM     25  C   UNL     1       8.002 119.032  20.521  1.00  0.00     0.020 C 
ATOM     26  C   UNL     1       7.904 117.632  22.625  1.00  0.00     0.017 C 
ATOM     27  O   UNL     1      11.348 120.061  23.874  1.00  0.00    -0.295 OA
ATOM     28  C   UNL     1       8.816 120.678  22.717  1.00  0.00     0.055 C 
ATOM     29  C   UNL     1       6.959 120.050  21.017  1.00  0.00     0.081 C 
ATOM     30  C   UNL     1       7.507 120.940  22.097  1.00  0.00     0.156 C 
ATOM     31  O   UNL     1       6.838 121.943  22.466  1.00  0.00    -0.295 OA
ENDBRANCH   9  11
ENDBRANCH   8   9
ENDBRANCH   1   8
TORSDOF 6
ENDMDL
