MODEL 1
REMARK VINA RESULT:    -8.376      0.000      0.000
REMARK INTER + INTRA:         -14.688
REMARK INTER:                 -13.027
REMARK INTRA:                  -1.661
REMARK UNBOUND:                -1.661
REMARK SMILES C[C@@]12C[C@@]3(O)O[C@@H](O1)[C@]1(COC(=O)c4ccccc4)[C@H]3C[C@@]12O[C@@H]1O[C@@H](CO)[C@@H](O)[C@@H](O)[C@H]1O
REMARK SMILES IDX 1 1 2 2 3 3 4 4 20 5 21 6 22 7 9 8 7 9 8 10 6 11 23 12 24 13
REMARK SMILES IDX 33 14 25 15 31 16 26 17 29 18 34 19 32 21 27 23 28 24 30 26
REMARK SMILES IDX 5 28 10 30 11 31 12 32 13 33 14 34 15 35 19 36 16 37 18 38
REMARK SMILES IDX 17 39
REMARK H PARENT 34 20 32 22 28 25 30 27 5 29
REMARK Flexibility Score: inf
ROOT
ATOM      1  C   UNL     1     -37.086  41.228  42.538  1.00  0.00     0.046 C 
ATOM      2  C   UNL     1     -35.677  41.173  41.923  1.00  0.00     0.104 C 
ATOM      3  C   UNL     1     -35.677  41.945  40.541  1.00  0.00     0.104 C 
ATOM      4  C   UNL     1     -34.233  41.732  40.007  1.00  0.00     0.175 C 
ATOM      5  C   UNL     1     -33.840  40.243  40.107  1.00  0.00     0.070 C 
ATOM      6  C   UNL     1     -35.026  39.299  40.274  1.00  0.00     0.050 C 
ATOM      7  C   UNL     1     -35.052  39.716  41.746  1.00  0.00     0.115 C 
ATOM      8  C   UNL     1     -33.565  40.135  41.622  1.00  0.00     0.096 C 
ATOM      9  C   UNL     1     -33.488  41.583  42.094  1.00  0.00     0.267 C 
ATOM     10  O   UNL     1     -34.736  41.851  42.726  1.00  0.00    -0.342 OA
ATOM     11  O   UNL     1     -33.367  42.370  40.918  1.00  0.00    -0.320 OA
ENDROOT
BRANCH   7  12
ATOM     12  O   UNL     1     -35.631  38.707  42.578  1.00  0.00    -0.339 OA
BRANCH  12  13
ATOM     13  C   UNL     1     -35.046  38.376  43.824  1.00  0.00     0.282 C 
ATOM     14  C   UNL     1     -35.759  39.074  45.028  1.00  0.00     0.202 C 
ATOM     15  O   UNL     1     -35.142  36.947  43.953  1.00  0.00    -0.341 OA
ATOM     16  C   UNL     1     -35.871  38.098  46.221  1.00  0.00     0.179 C 
ATOM     17  C   UNL     1     -36.476  36.540  44.271  1.00  0.00     0.178 C 
ATOM     18  C   UNL     1     -36.815  36.936  45.767  1.00  0.00     0.177 C 
BRANCH  14  19
ATOM     19  O   UNL     1     -35.137  40.278  45.406  1.00  0.00    -0.385 OA
ATOM     20  H   UNL     1     -35.229  40.929  44.663  1.00  0.00     0.211 HD
ENDBRANCH  14  19
BRANCH  16  21
ATOM     21  O   UNL     1     -34.582  37.612  46.517  1.00  0.00    -0.387 OA
ATOM     22  H   UNL     1     -34.260  37.131  45.712  1.00  0.00     0.211 HD
ENDBRANCH  16  21
BRANCH  17  23
ATOM     23  C   UNL     1     -36.667  35.047  43.915  1.00  0.00     0.191 C 
BRANCH  23  24
ATOM     24  O   UNL     1     -35.609  34.243  44.347  1.00  0.00    -0.394 OA
ATOM     25  H   UNL     1     -35.204  34.706  45.132  1.00  0.00     0.210 HD
ENDBRANCH  23  24
ENDBRANCH  17  23
BRANCH  18  26
ATOM     26  O   UNL     1     -36.759  35.814  46.639  1.00  0.00    -0.387 OA
ATOM     27  H   UNL     1     -36.167  36.004  47.400  1.00  0.00     0.211 HD
ENDBRANCH  18  26
ENDBRANCH  12  13
ENDBRANCH   7  12
BRANCH   4  28
ATOM     28  O   UNL     1     -34.055  42.235  38.709  1.00  0.00    -0.365 OA
ATOM     29  H   UNL     1     -34.291  43.197  38.740  1.00  0.00     0.214 HD
ENDBRANCH   4  28
BRANCH   8  30
ATOM     30  C   UNL     1     -32.311  39.239  41.776  1.00  0.00     0.249 C 
BRANCH  30  31
ATOM     31  O   UNL     1     -31.249  39.881  42.488  1.00  0.00    -0.461 OA
BRANCH  31  32
ATOM     32  C   UNL     1     -30.072  40.226  41.812  1.00  0.00     0.338 C 
ATOM     33  O   UNL     1     -29.897  41.418  41.442  1.00  0.00    -0.246 OA
BRANCH  32  34
ATOM     34  C   UNL     1     -29.052  39.189  41.561  1.00  0.00     0.060 A 
ATOM     35  C   UNL     1     -27.961  39.461  40.702  1.00  0.00     0.015 A 
ATOM     36  C   UNL     1     -29.081  37.962  42.258  1.00  0.00     0.015 A 
ATOM     37  C   UNL     1     -26.875  38.569  40.615  1.00  0.00     0.001 A 
ATOM     38  C   UNL     1     -28.017  37.063  42.138  1.00  0.00     0.001 A 
ATOM     39  C   UNL     1     -26.897  37.383  41.352  1.00  0.00     0.000 A 
ENDBRANCH  32  34
ENDBRANCH  31  32
ENDBRANCH  30  31
ENDBRANCH   8  30
TORSDOF 12
ENDMDL
MODEL 2
REMARK VINA RESULT:    -8.371      2.805      7.112
REMARK INTER + INTRA:         -14.680
REMARK INTER:                 -13.134
REMARK INTRA:                  -1.546
REMARK UNBOUND:                -1.661
REMARK SMILES C[C@@]12C[C@@]3(O)O[C@@H](O1)[C@]1(COC(=O)c4ccccc4)[C@H]3C[C@@]12O[C@@H]1O[C@@H](CO)[C@@H](O)[C@@H](O)[C@H]1O
REMARK SMILES IDX 1 1 2 2 3 3 4 4 20 5 21 6 22 7 9 8 7 9 8 10 6 11 23 12 24 13
REMARK SMILES IDX 33 14 25 15 31 16 26 17 29 18 34 19 32 21 27 23 28 24 30 26
REMARK SMILES IDX 5 28 10 30 11 31 12 32 13 33 14 34 15 35 19 36 16 37 18 38
REMARK SMILES IDX 17 39
REMARK H PARENT 34 20 32 22 28 25 30 27 5 29
REMARK Flexibility Score: inf
ROOT
ATOM      1  C   UNL     1     -37.511  40.928  44.460  1.00  0.00     0.046 C 
ATOM      2  C   UNL     1     -37.095  39.567  45.045  1.00  0.00     0.104 C 
ATOM      3  C   UNL     1     -37.437  39.534  46.591  1.00  0.00     0.104 C 
ATOM      4  C   UNL     1     -36.889  38.156  47.054  1.00  0.00     0.175 C 
ATOM      5  C   UNL     1     -35.451  37.949  46.534  1.00  0.00     0.070 C 
ATOM      6  C   UNL     1     -34.761  39.235  46.092  1.00  0.00     0.050 C 
ATOM      7  C   UNL     1     -35.578  39.139  44.801  1.00  0.00     0.115 C 
ATOM      8  C   UNL     1     -35.742  37.618  45.054  1.00  0.00     0.096 C 
ATOM      9  C   UNL     1     -37.240  37.339  45.019  1.00  0.00     0.267 C 
ATOM     10  O   UNL     1     -37.841  38.512  44.480  1.00  0.00    -0.342 OA
ATOM     11  O   UNL     1     -37.637  37.175  46.373  1.00  0.00    -0.320 OA
ENDROOT
BRANCH   7  12
ATOM     12  O   UNL     1     -34.933  39.801  43.709  1.00  0.00    -0.339 OA
BRANCH  12  13
ATOM     13  C   UNL     1     -34.931  39.224  42.417  1.00  0.00     0.282 C 
ATOM     14  C   UNL     1     -36.148  39.683  41.550  1.00  0.00     0.202 C 
ATOM     15  O   UNL     1     -33.699  39.627  41.792  1.00  0.00    -0.341 OA
ATOM     16  C   UNL     1     -35.703  39.931  40.091  1.00  0.00     0.179 C 
ATOM     17  C   UNL     1     -33.749  40.994  41.375  1.00  0.00     0.178 C 
ATOM     18  C   UNL     1     -34.708  41.138  40.122  1.00  0.00     0.177 C 
BRANCH  14  19
ATOM     19  O   UNL     1     -37.230  38.785  41.610  1.00  0.00    -0.385 OA
ATOM     20  H   UNL     1     -36.881  37.863  41.496  1.00  0.00     0.211 HD
ENDBRANCH  14  19
BRANCH  16  21
ATOM     21  O   UNL     1     -35.065  38.765  39.619  1.00  0.00    -0.387 OA
ATOM     22  H   UNL     1     -35.006  38.136  40.384  1.00  0.00     0.211 HD
ENDBRANCH  16  21
BRANCH  17  23
ATOM     23  C   UNL     1     -32.313  41.536  41.184  1.00  0.00     0.191 C 
BRANCH  23  24
ATOM     24  O   UNL     1     -31.550  40.761  40.306  1.00  0.00    -0.394 OA
ATOM     25  H   UNL     1     -31.391  39.889  40.763  1.00  0.00     0.210 HD
ENDBRANCH  23  24
ENDBRANCH  17  23
BRANCH  18  26
ATOM     26  O   UNL     1     -33.978  41.276  38.909  1.00  0.00    -0.387 OA
ATOM     27  H   UNL     1     -33.061  40.940  39.023  1.00  0.00     0.211 HD
ENDBRANCH  18  26
ENDBRANCH  12  13
ENDBRANCH   7  12
BRANCH   4  28
ATOM     28  O   UNL     1     -36.975  37.977  48.444  1.00  0.00    -0.365 OA
ATOM     29  H   UNL     1     -36.996  37.000  48.606  1.00  0.00     0.214 HD
ENDBRANCH   4  28
BRANCH   8  30
ATOM     30  C   UNL     1     -34.767  36.482  44.660  1.00  0.00     0.249 C 
BRANCH  30  31
ATOM     31  O   UNL     1     -35.437  35.307  44.192  1.00  0.00    -0.461 OA
BRANCH  31  32
ATOM     32  C   UNL     1     -35.497  34.172  45.010  1.00  0.00     0.338 C 
ATOM     33  O   UNL     1     -36.587  33.861  45.559  1.00  0.00    -0.246 OA
BRANCH  32  34
ATOM     34  C   UNL     1     -34.284  33.352  45.199  1.00  0.00     0.060 A 
ATOM     35  C   UNL     1     -34.300  32.260  46.097  1.00  0.00     0.015 A 
ATOM     36  C   UNL     1     -33.135  33.568  44.408  1.00  0.00     0.015 A 
ATOM     37  C   UNL     1     -33.229  31.345  46.135  1.00  0.00     0.001 A 
ATOM     38  C   UNL     1     -32.059  32.678  44.478  1.00  0.00     0.001 A 
ATOM     39  C   UNL     1     -32.122  31.545  45.308  1.00  0.00     0.000 A 
ENDBRANCH  32  34
ENDBRANCH  31  32
ENDBRANCH  30  31
ENDBRANCH   8  30
TORSDOF 12
ENDMDL
MODEL 3
REMARK VINA RESULT:    -8.345      2.622      5.108
REMARK INTER + INTRA:         -14.641
REMARK INTER:                 -14.028
REMARK INTRA:                  -0.613
REMARK UNBOUND:                -1.661
REMARK SMILES C[C@@]12C[C@@]3(O)O[C@@H](O1)[C@]1(COC(=O)c4ccccc4)[C@H]3C[C@@]12O[C@@H]1O[C@@H](CO)[C@@H](O)[C@@H](O)[C@H]1O
REMARK SMILES IDX 1 1 2 2 3 3 4 4 20 5 21 6 22 7 9 8 7 9 8 10 6 11 23 12 24 13
REMARK SMILES IDX 33 14 25 15 31 16 26 17 29 18 34 19 32 21 27 23 28 24 30 26
REMARK SMILES IDX 5 28 10 30 11 31 12 32 13 33 14 34 15 35 19 36 16 37 18 38
REMARK SMILES IDX 17 39
REMARK H PARENT 34 20 32 22 28 25 30 27 5 29
REMARK Flexibility Score: inf
ROOT
ATOM      1  C   UNL     1     -33.965  37.588  43.466  1.00  0.00     0.046 C 
ATOM      2  C   UNL     1     -33.801  39.062  43.060  1.00  0.00     0.104 C 
ATOM      3  C   UNL     1     -32.289  39.493  43.247  1.00  0.00     0.104 C 
ATOM      4  C   UNL     1     -32.296  41.005  42.888  1.00  0.00     0.175 C 
ATOM      5  C   UNL     1     -33.444  41.725  43.624  1.00  0.00     0.070 C 
ATOM      6  C   UNL     1     -34.005  40.947  44.809  1.00  0.00     0.050 C 
ATOM      7  C   UNL     1     -34.769  40.098  43.792  1.00  0.00     0.115 C 
ATOM      8  C   UNL     1     -34.647  41.261  42.774  1.00  0.00     0.096 C 
ATOM      9  C   UNL     1     -34.013  40.667  41.521  1.00  0.00     0.267 C 
ATOM     10  O   UNL     1     -34.073  39.254  41.689  1.00  0.00    -0.342 OA
ATOM     11  O   UNL     1     -32.660  41.095  41.529  1.00  0.00    -0.320 OA
ENDROOT
BRANCH   7  12
ATOM     12  O   UNL     1     -35.951  39.522  44.356  1.00  0.00    -0.339 OA
BRANCH  12  13
ATOM     13  C   UNL     1     -35.997  39.166  45.725  1.00  0.00     0.282 C 
ATOM     14  C   UNL     1     -37.323  39.616  46.420  1.00  0.00     0.202 C 
ATOM     15  O   UNL     1     -35.872  37.734  45.778  1.00  0.00    -0.341 OA
ATOM     16  C   UNL     1     -37.816  38.520  47.391  1.00  0.00     0.179 C 
ATOM     17  C   UNL     1     -37.088  37.089  45.387  1.00  0.00     0.178 C 
ATOM     18  C   UNL     1     -38.181  37.273  46.519  1.00  0.00     0.177 C 
BRANCH  14  19
ATOM     19  O   UNL     1     -37.204  40.859  47.067  1.00  0.00    -0.385 OA
ATOM     20  H   UNL     1     -36.375  40.854  47.612  1.00  0.00     0.211 HD
ENDBRANCH  14  19
BRANCH  16  21
ATOM     21  O   UNL     1     -36.769  38.218  48.286  1.00  0.00    -0.387 OA
ATOM     22  H   UNL     1     -36.838  38.859  49.040  1.00  0.00     0.211 HD
ENDBRANCH  16  21
BRANCH  17  23
ATOM     23  C   UNL     1     -36.795  35.628  44.971  1.00  0.00     0.191 C 
BRANCH  23  24
ATOM     24  O   UNL     1     -36.037  34.933  45.917  1.00  0.00    -0.394 OA
ATOM     25  H   UNL     1     -35.811  34.052  45.506  1.00  0.00     0.210 HD
ENDBRANCH  23  24
ENDBRANCH  17  23
BRANCH  18  26
ATOM     26  O   UNL     1     -38.346  36.092  47.294  1.00  0.00    -0.387 OA
ATOM     27  H   UNL     1     -39.261  35.745  47.194  1.00  0.00     0.211 HD
ENDBRANCH  18  26
ENDBRANCH  12  13
ENDBRANCH   7  12
BRANCH   4  28
ATOM     28  O   UNL     1     -31.057  41.623  43.117  1.00  0.00    -0.365 OA
ATOM     29  H   UNL     1     -30.667  41.821  42.228  1.00  0.00     0.214 HD
ENDBRANCH   4  28
BRANCH   8  30
ATOM     30  C   UNL     1     -35.577  42.490  42.623  1.00  0.00     0.249 C 
BRANCH  30  31
ATOM     31  O   UNL     1     -35.593  43.018  41.293  1.00  0.00    -0.461 OA
BRANCH  31  32
ATOM     32  C   UNL     1     -35.192  44.341  41.069  1.00  0.00     0.338 C 
ATOM     33  O   UNL     1     -35.485  45.229  41.914  1.00  0.00    -0.246 OA
BRANCH  32  34
ATOM     34  C   UNL     1     -34.421  44.666  39.853  1.00  0.00     0.060 A 
ATOM     35  C   UNL     1     -34.990  45.487  38.851  1.00  0.00     0.015 A 
ATOM     36  C   UNL     1     -33.073  44.268  39.724  1.00  0.00     0.015 A 
ATOM     37  C   UNL     1     -34.203  45.978  37.792  1.00  0.00     0.001 A 
ATOM     38  C   UNL     1     -32.307  44.728  38.649  1.00  0.00     0.001 A 
ATOM     39  C   UNL     1     -32.857  45.615  37.708  1.00  0.00     0.000 A 
ENDBRANCH  32  34
ENDBRANCH  31  32
ENDBRANCH  30  31
ENDBRANCH   8  30
TORSDOF 12
ENDMDL
MODEL 4
REMARK VINA RESULT:    -8.301      2.860      5.521
REMARK INTER + INTRA:         -14.571
REMARK INTER:                 -12.998
REMARK INTRA:                  -1.573
REMARK UNBOUND:                -1.661
REMARK SMILES C[C@@]12C[C@@]3(O)O[C@@H](O1)[C@]1(COC(=O)c4ccccc4)[C@H]3C[C@@]12O[C@@H]1O[C@@H](CO)[C@@H](O)[C@@H](O)[C@H]1O
REMARK SMILES IDX 1 1 2 2 3 3 4 4 20 5 21 6 22 7 9 8 7 9 8 10 6 11 23 12 24 13
REMARK SMILES IDX 33 14 25 15 31 16 26 17 29 18 34 19 32 21 27 23 28 24 30 26
REMARK SMILES IDX 5 28 10 30 11 31 12 32 13 33 14 34 15 35 19 36 16 37 18 38
REMARK SMILES IDX 17 39
REMARK H PARENT 34 20 32 22 28 25 30 27 5 29
REMARK Flexibility Score: inf
ROOT
ATOM      1  C   UNL     1     -33.857  38.038  42.778  1.00  0.00     0.046 C 
ATOM      2  C   UNL     1     -33.798  39.406  42.079  1.00  0.00     0.104 C 
ATOM      3  C   UNL     1     -32.336  39.647  41.520  1.00  0.00     0.104 C 
ATOM      4  C   UNL     1     -32.406  41.082  40.928  1.00  0.00     0.175 C 
ATOM      5  C   UNL     1     -33.060  42.047  41.938  1.00  0.00     0.070 C 
ATOM      6  C   UNL     1     -33.083  41.523  43.370  1.00  0.00     0.050 C 
ATOM      7  C   UNL     1     -34.272  40.655  42.951  1.00  0.00     0.115 C 
ATOM      8  C   UNL     1     -34.541  41.640  41.785  1.00  0.00     0.096 C 
ATOM      9  C   UNL     1     -34.570  40.800  40.514  1.00  0.00     0.267 C 
ATOM     10  O   UNL     1     -34.637  39.444  40.946  1.00  0.00    -0.342 OA
ATOM     11  O   UNL     1     -33.330  41.034  39.863  1.00  0.00    -0.320 OA
ENDROOT
BRANCH   7  12
ATOM     12  O   UNL     1     -35.115  40.329  44.061  1.00  0.00    -0.339 OA
BRANCH  12  13
ATOM     13  C   UNL     1     -36.506  40.583  44.008  1.00  0.00     0.282 C 
ATOM     14  C   UNL     1     -37.284  39.505  43.186  1.00  0.00     0.202 C 
ATOM     15  O   UNL     1     -36.970  40.597  45.369  1.00  0.00    -0.341 OA
ATOM     16  C   UNL     1     -38.624  39.168  43.878  1.00  0.00     0.179 C 
ATOM     17  C   UNL     1     -37.052  39.273  45.906  1.00  0.00     0.178 C 
ATOM     18  C   UNL     1     -38.270  38.502  45.248  1.00  0.00     0.177 C 
BRANCH  14  19
ATOM     19  O   UNL     1     -37.480  39.879  41.844  1.00  0.00    -0.385 OA
ATOM     20  H   UNL     1     -38.453  39.879  41.655  1.00  0.00     0.211 HD
ENDBRANCH  14  19
BRANCH  16  21
ATOM     21  O   UNL     1     -39.335  40.370  44.072  1.00  0.00    -0.387 OA
ATOM     22  H   UNL     1     -39.562  40.421  45.036  1.00  0.00     0.211 HD
ENDBRANCH  16  21
BRANCH  17  23
ATOM     23  C   UNL     1     -37.055  39.333  47.452  1.00  0.00     0.191 C 
BRANCH  23  24
ATOM     24  O   UNL     1     -37.038  38.070  48.048  1.00  0.00    -0.394 OA
ATOM     25  H   UNL     1     -37.741  38.081  48.755  1.00  0.00     0.210 HD
ENDBRANCH  23  24
ENDBRANCH  17  23
BRANCH  18  26
ATOM     26  O   UNL     1     -39.387  38.429  46.126  1.00  0.00    -0.387 OA
ATOM     27  H   UNL     1     -40.079  39.071  45.850  1.00  0.00     0.211 HD
ENDBRANCH  18  26
ENDBRANCH  12  13
ENDBRANCH   7  12
BRANCH   4  28
ATOM     28  O   UNL     1     -31.158  41.550  40.488  1.00  0.00    -0.365 OA
ATOM     29  H   UNL     1     -31.164  42.534  40.603  1.00  0.00     0.214 HD
ENDBRANCH   4  28
BRANCH   8  30
ATOM     30  C   UNL     1     -35.362  42.953  41.824  1.00  0.00     0.249 C 
BRANCH  30  31
ATOM     31  O   UNL     1     -35.492  43.570  40.538  1.00  0.00    -0.461 OA
BRANCH  31  32
ATOM     32  C   UNL     1     -34.957  44.847  40.326  1.00  0.00     0.338 C 
ATOM     33  O   UNL     1     -35.159  45.752  41.180  1.00  0.00    -0.246 OA
BRANCH  32  34
ATOM     34  C   UNL     1     -34.156  45.103  39.114  1.00  0.00     0.060 A 
ATOM     35  C   UNL     1     -34.763  45.675  37.971  1.00  0.00     0.015 A 
ATOM     36  C   UNL     1     -32.760  44.894  39.112  1.00  0.00     0.015 A 
ATOM     37  C   UNL     1     -33.980  46.119  36.888  1.00  0.00     0.001 A 
ATOM     38  C   UNL     1     -31.992  45.302  38.017  1.00  0.00     0.001 A 
ATOM     39  C   UNL     1     -32.594  45.952  36.925  1.00  0.00     0.000 A 
ENDBRANCH  32  34
ENDBRANCH  31  32
ENDBRANCH  30  31
ENDBRANCH   8  30
TORSDOF 12
ENDMDL
MODEL 5
REMARK VINA RESULT:    -8.298      1.898      2.544
REMARK INTER + INTRA:         -14.567
REMARK INTER:                 -13.223
REMARK INTRA:                  -1.344
REMARK UNBOUND:                -1.661
REMARK SMILES C[C@@]12C[C@@]3(O)O[C@@H](O1)[C@]1(COC(=O)c4ccccc4)[C@H]3C[C@@]12O[C@@H]1O[C@@H](CO)[C@@H](O)[C@@H](O)[C@H]1O
REMARK SMILES IDX 1 1 2 2 3 3 4 4 20 5 21 6 22 7 9 8 7 9 8 10 6 11 23 12 24 13
REMARK SMILES IDX 33 14 25 15 31 16 26 17 29 18 34 19 32 21 27 23 28 24 30 26
REMARK SMILES IDX 5 28 10 30 11 31 12 32 13 33 14 34 15 35 19 36 16 37 18 38
REMARK SMILES IDX 17 39
REMARK H PARENT 34 20 32 22 28 25 30 27 5 29
REMARK Flexibility Score: inf
ROOT
ATOM      1  C   UNL     1     -38.199  39.138  41.206  1.00  0.00     0.046 C 
ATOM      2  C   UNL     1     -36.871  39.909  41.292  1.00  0.00     0.104 C 
ATOM      3  C   UNL     1     -36.190  39.941  39.863  1.00  0.00     0.104 C 
ATOM      4  C   UNL     1     -34.839  40.665  40.122  1.00  0.00     0.175 C 
ATOM      5  C   UNL     1     -34.130  40.053  41.347  1.00  0.00     0.070 C 
ATOM      6  C   UNL     1     -34.651  38.675  41.740  1.00  0.00     0.050 C 
ATOM      7  C   UNL     1     -35.836  39.392  42.390  1.00  0.00     0.115 C 
ATOM      8  C   UNL     1     -34.968  40.674  42.485  1.00  0.00     0.096 C 
ATOM      9  C   UNL     1     -35.765  41.780  41.804  1.00  0.00     0.267 C 
ATOM     10  O   UNL     1     -37.080  41.262  41.632  1.00  0.00    -0.342 OA
ATOM     11  O   UNL     1     -35.156  41.974  40.536  1.00  0.00    -0.320 OA
ENDROOT
BRANCH   7  12
ATOM     12  O   UNL     1     -36.414  38.622  43.448  1.00  0.00    -0.339 OA
BRANCH  12  13
ATOM     13  C   UNL     1     -36.824  39.244  44.652  1.00  0.00     0.282 C 
ATOM     14  C   UNL     1     -38.373  39.206  44.851  1.00  0.00     0.202 C 
ATOM     15  O   UNL     1     -36.169  38.535  45.719  1.00  0.00    -0.341 OA
ATOM     16  C   UNL     1     -38.715  38.919  46.331  1.00  0.00     0.179 C 
ATOM     17  C   UNL     1     -36.785  37.266  45.957  1.00  0.00     0.178 C 
ATOM     18  C   UNL     1     -38.198  37.476  46.643  1.00  0.00     0.177 C 
BRANCH  14  19
ATOM     19  O   UNL     1     -39.011  40.374  44.395  1.00  0.00    -0.385 OA
ATOM     20  H   UNL     1     -38.783  40.505  43.439  1.00  0.00     0.211 HD
ENDBRANCH  14  19
BRANCH  16  21
ATOM     21  O   UNL     1     -38.053  39.874  47.131  1.00  0.00    -0.387 OA
ATOM     22  H   UNL     1     -38.403  39.773  48.053  1.00  0.00     0.211 HD
ENDBRANCH  16  21
BRANCH  17  23
ATOM     23  C   UNL     1     -35.804  36.342  46.717  1.00  0.00     0.191 C 
BRANCH  23  24
ATOM     24  O   UNL     1     -35.190  36.973  47.802  1.00  0.00    -0.394 OA
ATOM     25  H   UNL     1     -35.542  37.906  47.823  1.00  0.00     0.210 HD
ENDBRANCH  23  24
ENDBRANCH  17  23
BRANCH  18  26
ATOM     26  O   UNL     1     -38.157  37.198  48.037  1.00  0.00    -0.387 OA
ATOM     27  H   UNL     1     -38.314  36.241  48.198  1.00  0.00     0.211 HD
ENDBRANCH  18  26
ENDBRANCH  12  13
ENDBRANCH   7  12
BRANCH   4  28
ATOM     28  O   UNL     1     -34.009  40.684  38.990  1.00  0.00    -0.365 OA
ATOM     29  H   UNL     1     -34.579  40.938  38.221  1.00  0.00     0.214 HD
ENDBRANCH   4  28
BRANCH   8  30
ATOM     30  C   UNL     1     -33.969  41.060  43.604  1.00  0.00     0.249 C 
BRANCH  30  31
ATOM     31  O   UNL     1     -32.848  41.806  43.118  1.00  0.00    -0.461 OA
BRANCH  31  32
ATOM     32  C   UNL     1     -31.557  41.477  43.553  1.00  0.00     0.338 C 
ATOM     33  O   UNL     1     -31.149  41.913  44.662  1.00  0.00    -0.246 OA
BRANCH  32  34
ATOM     34  C   UNL     1     -30.708  40.614  42.709  1.00  0.00     0.060 A 
ATOM     35  C   UNL     1     -29.873  41.189  41.722  1.00  0.00     0.015 A 
ATOM     36  C   UNL     1     -30.624  39.226  42.948  1.00  0.00     0.015 A 
ATOM     37  C   UNL     1     -28.907  40.411  41.056  1.00  0.00     0.001 A 
ATOM     38  C   UNL     1     -29.689  38.451  42.256  1.00  0.00     0.001 A 
ATOM     39  C   UNL     1     -28.803  39.048  41.343  1.00  0.00     0.000 A 
ENDBRANCH  32  34
ENDBRANCH  31  32
ENDBRANCH  30  31
ENDBRANCH   8  30
TORSDOF 12
ENDMDL
MODEL 6
REMARK VINA RESULT:    -8.275      3.505      5.354
REMARK INTER + INTRA:         -14.531
REMARK INTER:                 -13.042
REMARK INTRA:                  -1.489
REMARK UNBOUND:                -1.661
REMARK SMILES C[C@@]12C[C@@]3(O)O[C@@H](O1)[C@]1(COC(=O)c4ccccc4)[C@H]3C[C@@]12O[C@@H]1O[C@@H](CO)[C@@H](O)[C@@H](O)[C@H]1O
REMARK SMILES IDX 1 1 2 2 3 3 4 4 20 5 21 6 22 7 9 8 7 9 8 10 6 11 23 12 24 13
REMARK SMILES IDX 33 14 25 15 31 16 26 17 29 18 34 19 32 21 27 23 28 24 30 26
REMARK SMILES IDX 5 28 10 30 11 31 12 32 13 33 14 34 15 35 19 36 16 37 18 38
REMARK SMILES IDX 17 39
REMARK H PARENT 34 20 32 22 28 25 30 27 5 29
REMARK Flexibility Score: inf
ROOT
ATOM      1  C   UNL     1     -34.992  42.501  44.783  1.00  0.00     0.046 C 
ATOM      2  C   UNL     1     -35.240  41.627  43.542  1.00  0.00     0.104 C 
ATOM      3  C   UNL     1     -35.357  42.553  42.263  1.00  0.00     0.104 C 
ATOM      4  C   UNL     1     -35.689  41.553  41.120  1.00  0.00     0.175 C 
ATOM      5  C   UNL     1     -36.831  40.610  41.549  1.00  0.00     0.070 C 
ATOM      6  C   UNL     1     -37.638  41.115  42.740  1.00  0.00     0.050 C 
ATOM      7  C   UNL     1     -36.486  40.635  43.626  1.00  0.00     0.115 C 
ATOM      8  C   UNL     1     -36.062  39.663  42.495  1.00  0.00     0.096 C 
ATOM      9  C   UNL     1     -34.594  39.956  42.208  1.00  0.00     0.267 C 
ATOM     10  O   UNL     1     -34.145  40.776  43.282  1.00  0.00    -0.342 OA
ATOM     11  O   UNL     1     -34.575  40.698  40.997  1.00  0.00    -0.320 OA
ENDROOT
BRANCH   7  12
ATOM     12  O   UNL     1     -36.923  40.328  44.953  1.00  0.00    -0.339 OA
BRANCH  12  13
ATOM     13  C   UNL     1     -36.663  39.058  45.522  1.00  0.00     0.282 C 
ATOM     14  C   UNL     1     -36.066  39.155  46.963  1.00  0.00     0.202 C 
ATOM     15  O   UNL     1     -37.921  38.361  45.554  1.00  0.00    -0.341 OA
ATOM     16  C   UNL     1     -36.678  38.063  47.870  1.00  0.00     0.179 C 
ATOM     17  C   UNL     1     -38.764  38.854  46.599  1.00  0.00     0.178 C 
ATOM     18  C   UNL     1     -38.202  38.391  48.005  1.00  0.00     0.177 C 
BRANCH  14  19
ATOM     19  O   UNL     1     -34.660  39.102  46.975  1.00  0.00    -0.385 OA
ATOM     20  H   UNL     1     -34.379  38.267  47.431  1.00  0.00     0.211 HD
ENDBRANCH  14  19
BRANCH  16  21
ATOM     21  O   UNL     1     -36.486  36.812  47.248  1.00  0.00    -0.387 OA
ATOM     22  H   UNL     1     -36.923  36.859  46.360  1.00  0.00     0.211 HD
ENDBRANCH  16  21
BRANCH  17  23
ATOM     23  C   UNL     1     -40.236  38.472  46.308  1.00  0.00     0.191 C 
BRANCH  23  24
ATOM     24  O   UNL     1     -41.103  38.810  47.350  1.00  0.00    -0.394 OA
ATOM     25  H   UNL     1     -41.329  37.959  47.817  1.00  0.00     0.210 HD
ENDBRANCH  23  24
ENDBRANCH  17  23
BRANCH  18  26
ATOM     26  O   UNL     1     -38.948  37.307  48.545  1.00  0.00    -0.387 OA
ATOM     27  H   UNL     1     -38.879  37.300  49.525  1.00  0.00     0.211 HD
ENDBRANCH  18  26
ENDBRANCH  12  13
ENDBRANCH   7  12
BRANCH   4  28
ATOM     28  O   UNL     1     -35.966  42.193  39.902  1.00  0.00    -0.365 OA
ATOM     29  H   UNL     1     -36.633  42.900  40.096  1.00  0.00     0.214 HD
ENDBRANCH   4  28
BRANCH   8  30
ATOM     30  C   UNL     1     -36.600  38.237  42.220  1.00  0.00     0.249 C 
BRANCH  30  31
ATOM     31  O   UNL     1     -35.860  37.219  42.901  1.00  0.00    -0.461 OA
BRANCH  31  32
ATOM     32  C   UNL     1     -36.463  35.982  43.164  1.00  0.00     0.338 C 
ATOM     33  O   UNL     1     -37.510  35.660  42.542  1.00  0.00    -0.246 OA
BRANCH  32  34
ATOM     34  C   UNL     1     -35.850  35.075  44.153  1.00  0.00     0.060 A 
ATOM     35  C   UNL     1     -36.669  34.309  45.016  1.00  0.00     0.015 A 
ATOM     36  C   UNL     1     -34.454  34.866  44.176  1.00  0.00     0.015 A 
ATOM     37  C   UNL     1     -36.116  33.290  45.815  1.00  0.00     0.001 A 
ATOM     38  C   UNL     1     -33.907  33.878  45.000  1.00  0.00     0.001 A 
ATOM     39  C   UNL     1     -34.739  33.063  45.786  1.00  0.00     0.000 A 
ENDBRANCH  32  34
ENDBRANCH  31  32
ENDBRANCH  30  31
ENDBRANCH   8  30
TORSDOF 12
ENDMDL
MODEL 7
REMARK VINA RESULT:    -8.163      2.718      8.809
REMARK INTER + INTRA:         -14.356
REMARK INTER:                 -13.758
REMARK INTRA:                  -0.598
REMARK UNBOUND:                -1.661
REMARK SMILES C[C@@]12C[C@@]3(O)O[C@@H](O1)[C@]1(COC(=O)c4ccccc4)[C@H]3C[C@@]12O[C@@H]1O[C@@H](CO)[C@@H](O)[C@@H](O)[C@H]1O
REMARK SMILES IDX 1 1 2 2 3 3 4 4 20 5 21 6 22 7 9 8 7 9 8 10 6 11 23 12 24 13
REMARK SMILES IDX 33 14 25 15 31 16 26 17 29 18 34 19 32 21 27 23 28 24 30 26
REMARK SMILES IDX 5 28 10 30 11 31 12 32 13 33 14 34 15 35 19 36 16 37 18 38
REMARK SMILES IDX 17 39
REMARK H PARENT 34 20 32 22 28 25 30 27 5 29
REMARK Flexibility Score: inf
ROOT
ATOM      1  C   UNL     1     -33.232  38.360  43.635  1.00  0.00     0.046 C 
ATOM      2  C   UNL     1     -34.669  38.042  44.082  1.00  0.00     0.104 C 
ATOM      3  C   UNL     1     -34.953  36.498  43.878  1.00  0.00     0.104 C 
ATOM      4  C   UNL     1     -36.445  36.346  44.283  1.00  0.00     0.175 C 
ATOM      5  C   UNL     1     -37.300  37.429  43.592  1.00  0.00     0.070 C 
ATOM      6  C   UNL     1     -36.621  38.084  42.395  1.00  0.00     0.050 C 
ATOM      7  C   UNL     1     -35.819  38.913  43.401  1.00  0.00     0.115 C 
ATOM      8  C   UNL     1     -36.931  38.657  44.451  1.00  0.00     0.096 C 
ATOM      9  C   UNL     1     -36.237  38.066  45.672  1.00  0.00     0.267 C 
ATOM     10  O   UNL     1     -34.843  38.270  45.463  1.00  0.00    -0.342 OA
ATOM     11  O   UNL     1     -36.527  36.676  45.651  1.00  0.00    -0.320 OA
ENDROOT
BRANCH   7  12
ATOM     12  O   UNL     1     -35.383  40.157  42.844  1.00  0.00    -0.339 OA
BRANCH  12  13
ATOM     13  C   UNL     1     -35.064  40.258  41.469  1.00  0.00     0.282 C 
ATOM     14  C   UNL     1     -35.668  41.537  40.803  1.00  0.00     0.202 C 
ATOM     15  O   UNL     1     -33.629  40.286  41.384  1.00  0.00    -0.341 OA
ATOM     16  C   UNL     1     -34.652  42.156  39.817  1.00  0.00     0.179 C 
ATOM     17  C   UNL     1     -33.108  41.559  41.780  1.00  0.00     0.178 C 
ATOM     18  C   UNL     1     -33.432  42.640  40.669  1.00  0.00     0.177 C 
BRANCH  14  19
ATOM     19  O   UNL     1     -36.906  41.295  40.180  1.00  0.00    -0.385 OA
ATOM     20  H   UNL     1     -36.749  40.742  39.372  1.00  0.00     0.211 HD
ENDBRANCH  14  19
BRANCH  16  21
ATOM     21  O   UNL     1     -34.261  41.159  38.900  1.00  0.00    -0.387 OA
ATOM     22  H   UNL     1     -33.688  40.519  39.394  1.00  0.00     0.211 HD
ENDBRANCH  16  21
BRANCH  17  23
ATOM     23  C   UNL     1     -31.615  41.418  42.160  1.00  0.00     0.191 C 
BRANCH  23  24
ATOM     24  O   UNL     1     -30.841  40.864  41.138  1.00  0.00    -0.394 OA
ATOM     25  H   UNL     1     -31.153  39.923  41.025  1.00  0.00     0.210 HD
ENDBRANCH  23  24
ENDBRANCH  17  23
BRANCH  18  26
ATOM     26  O   UNL     1     -32.293  42.940  39.871  1.00  0.00    -0.387 OA
ATOM     27  H   UNL     1     -32.406  42.575  38.966  1.00  0.00     0.211 HD
ENDBRANCH  18  26
ENDBRANCH  12  13
ENDBRANCH   7  12
BRANCH   4  28
ATOM     28  O   UNL     1     -36.943  35.055  44.048  1.00  0.00    -0.365 OA
ATOM     29  H   UNL     1     -37.818  35.164  43.596  1.00  0.00     0.214 HD
ENDBRANCH   4  28
BRANCH   8  30
ATOM     30  C   UNL     1     -38.241  39.457  44.657  1.00  0.00     0.249 C 
BRANCH  30  31
ATOM     31  O   UNL     1     -38.742  39.373  45.996  1.00  0.00    -0.461 OA
BRANCH  31  32
ATOM     32  C   UNL     1     -39.987  38.780  46.234  1.00  0.00     0.338 C 
ATOM     33  O   UNL     1     -40.938  38.996  45.436  1.00  0.00    -0.246 OA
BRANCH  32  34
ATOM     34  C   UNL     1     -40.157  37.900  47.407  1.00  0.00     0.060 A 
ATOM     35  C   UNL     1     -40.840  38.370  48.553  1.00  0.00     0.015 A 
ATOM     36  C   UNL     1     -39.750  36.549  47.363  1.00  0.00     0.015 A 
ATOM     37  C   UNL     1     -41.195  37.488  49.591  1.00  0.00     0.001 A 
ATOM     38  C   UNL     1     -40.071  35.686  48.414  1.00  0.00     0.001 A 
ATOM     39  C   UNL     1     -40.828  36.143  49.507  1.00  0.00     0.000 A 
ENDBRANCH  32  34
ENDBRANCH  31  32
ENDBRANCH  30  31
ENDBRANCH   8  30
TORSDOF 12
ENDMDL
MODEL 8
REMARK VINA RESULT:    -8.107      2.077      6.081
REMARK INTER + INTRA:         -14.270
REMARK INTER:                 -12.720
REMARK INTRA:                  -1.551
REMARK UNBOUND:                -1.661
REMARK SMILES C[C@@]12C[C@@]3(O)O[C@@H](O1)[C@]1(COC(=O)c4ccccc4)[C@H]3C[C@@]12O[C@@H]1O[C@@H](CO)[C@@H](O)[C@@H](O)[C@H]1O
REMARK SMILES IDX 1 1 2 2 3 3 4 4 20 5 21 6 22 7 9 8 7 9 8 10 6 11 23 12 24 13
REMARK SMILES IDX 33 14 25 15 31 16 26 17 29 18 34 19 32 21 27 23 28 24 30 26
REMARK SMILES IDX 5 28 10 30 11 31 12 32 13 33 14 34 15 35 19 36 16 37 18 38
REMARK SMILES IDX 17 39
REMARK H PARENT 34 20 32 22 28 25 30 27 5 29
REMARK Flexibility Score: inf
ROOT
ATOM      1  C   UNL     1     -38.151  39.315  41.392  1.00  0.00     0.046 C 
ATOM      2  C   UNL     1     -37.455  39.389  42.762  1.00  0.00     0.104 C 
ATOM      3  C   UNL     1     -38.516  39.117  43.905  1.00  0.00     0.104 C 
ATOM      4  C   UNL     1     -37.699  39.309  45.212  1.00  0.00     0.175 C 
ATOM      5  C   UNL     1     -36.888  40.619  45.150  1.00  0.00     0.070 C 
ATOM      6  C   UNL     1     -37.376  41.600  44.089  1.00  0.00     0.050 C 
ATOM      7  C   UNL     1     -36.647  40.731  43.061  1.00  0.00     0.115 C 
ATOM      8  C   UNL     1     -35.748  40.190  44.202  1.00  0.00     0.096 C 
ATOM      9  C   UNL     1     -35.857  38.671  44.147  1.00  0.00     0.267 C 
ATOM     10  O   UNL     1     -36.489  38.371  42.906  1.00  0.00    -0.342 OA
ATOM     11  O   UNL     1     -36.711  38.303  45.221  1.00  0.00    -0.320 OA
ENDROOT
BRANCH   7  12
ATOM     12  O   UNL     1     -36.270  41.478  41.900  1.00  0.00    -0.339 OA
BRANCH  12  13
ATOM     13  C   UNL     1     -34.936  41.446  41.426  1.00  0.00     0.282 C 
ATOM     14  C   UNL     1     -34.822  40.827  39.995  1.00  0.00     0.202 C 
ATOM     15  O   UNL     1     -34.476  42.809  41.413  1.00  0.00    -0.341 OA
ATOM     16  C   UNL     1     -33.796  41.617  39.151  1.00  0.00     0.179 C 
ATOM     17  C   UNL     1     -35.037  43.539  40.318  1.00  0.00     0.178 C 
ATOM     18  C   UNL     1     -34.381  43.055  38.959  1.00  0.00     0.177 C 
BRANCH  14  19
ATOM     19  O   UNL     1     -34.516  39.453  40.019  1.00  0.00    -0.385 OA
ATOM     20  H   UNL     1     -34.148  39.227  40.912  1.00  0.00     0.211 HD
ENDBRANCH  14  19
BRANCH  16  21
ATOM     21  O   UNL     1     -32.578  41.660  39.861  1.00  0.00    -0.387 OA
ATOM     22  H   UNL     1     -31.977  42.275  39.368  1.00  0.00     0.211 HD
ENDBRANCH  16  21
BRANCH  17  23
ATOM     23  C   UNL     1     -34.947  45.058  40.600  1.00  0.00     0.191 C 
BRANCH  23  24
ATOM     24  O   UNL     1     -35.344  45.839  39.512  1.00  0.00    -0.394 OA
ATOM     25  H   UNL     1     -34.798  46.673  39.548  1.00  0.00     0.210 HD
ENDBRANCH  23  24
ENDBRANCH  17  23
BRANCH  18  26
ATOM     26  O   UNL     1     -33.413  43.979  38.478  1.00  0.00    -0.387 OA
ATOM     27  H   UNL     1     -33.341  43.918  37.499  1.00  0.00     0.211 HD
ENDBRANCH  18  26
ENDBRANCH  12  13
ENDBRANCH   7  12
BRANCH   4  28
ATOM     28  O   UNL     1     -38.495  39.239  46.366  1.00  0.00    -0.365 OA
ATOM     29  H   UNL     1     -39.419  39.467  46.091  1.00  0.00     0.214 HD
ENDBRANCH   4  28
BRANCH   8  30
ATOM     30  C   UNL     1     -34.450  40.820  44.764  1.00  0.00     0.249 C 
BRANCH  30  31
ATOM     31  O   UNL     1     -33.263  40.204  44.254  1.00  0.00    -0.461 OA
BRANCH  31  32
ATOM     32  C   UNL     1     -32.164  41.000  43.907  1.00  0.00     0.338 C 
ATOM     33  O   UNL     1     -32.026  42.133  44.442  1.00  0.00    -0.246 OA
BRANCH  32  34
ATOM     34  C   UNL     1     -31.180  40.490  42.932  1.00  0.00     0.060 A 
ATOM     35  C   UNL     1     -30.403  41.394  42.170  1.00  0.00     0.015 A 
ATOM     36  C   UNL     1     -30.915  39.107  42.829  1.00  0.00     0.015 A 
ATOM     37  C   UNL     1     -29.320  40.934  41.395  1.00  0.00     0.001 A 
ATOM     38  C   UNL     1     -29.863  38.654  42.028  1.00  0.00     0.001 A 
ATOM     39  C   UNL     1     -29.040  39.567  41.345  1.00  0.00     0.000 A 
ENDBRANCH  32  34
ENDBRANCH  31  32
ENDBRANCH  30  31
ENDBRANCH   8  30
TORSDOF 12
ENDMDL
MODEL 9
REMARK VINA RESULT:    -8.084      3.303      8.967
REMARK INTER + INTRA:         -14.235
REMARK INTER:                 -12.613
REMARK INTRA:                  -1.621
REMARK UNBOUND:                -1.661
REMARK SMILES C[C@@]12C[C@@]3(O)O[C@@H](O1)[C@]1(COC(=O)c4ccccc4)[C@H]3C[C@@]12O[C@@H]1O[C@@H](CO)[C@@H](O)[C@@H](O)[C@H]1O
REMARK SMILES IDX 1 1 2 2 3 3 4 4 20 5 21 6 22 7 9 8 7 9 8 10 6 11 23 12 24 13
REMARK SMILES IDX 33 14 25 15 31 16 26 17 29 18 34 19 32 21 27 23 28 24 30 26
REMARK SMILES IDX 5 28 10 30 11 31 12 32 13 33 14 34 15 35 19 36 16 37 18 38
REMARK SMILES IDX 17 39
REMARK H PARENT 34 20 32 22 28 25 30 27 5 29
REMARK Flexibility Score: inf
ROOT
ATOM      1  C   UNL     1     -33.517  38.264  44.008  1.00  0.00     0.046 C 
ATOM      2  C   UNL     1     -34.837  38.000  44.752  1.00  0.00     0.104 C 
ATOM      3  C   UNL     1     -34.879  36.491  45.228  1.00  0.00     0.104 C 
ATOM      4  C   UNL     1     -36.285  36.353  45.875  1.00  0.00     0.175 C 
ATOM      5  C   UNL     1     -37.363  36.942  44.942  1.00  0.00     0.070 C 
ATOM      6  C   UNL     1     -36.908  37.110  43.497  1.00  0.00     0.050 C 
ATOM      7  C   UNL     1     -36.170  38.369  43.956  1.00  0.00     0.115 C 
ATOM      8  C   UNL     1     -37.129  38.450  45.172  1.00  0.00     0.096 C 
ATOM      9  C   UNL     1     -36.243  38.508  46.411  1.00  0.00     0.267 C 
ATOM     10  O   UNL     1     -34.925  38.764  45.935  1.00  0.00    -0.342 OA
ATOM     11  O   UNL     1     -36.301  37.214  46.992  1.00  0.00    -0.320 OA
ENDROOT
BRANCH   7  12
ATOM     12  O   UNL     1     -35.995  39.306  42.890  1.00  0.00    -0.339 OA
BRANCH  12  13
ATOM     13  C   UNL     1     -36.399  40.654  43.041  1.00  0.00     0.282 C 
ATOM     14  C   UNL     1     -35.384  41.496  43.882  1.00  0.00     0.202 C 
ATOM     15  O   UNL     1     -36.512  41.198  41.714  1.00  0.00    -0.341 OA
ATOM     16  C   UNL     1     -35.223  42.906  43.270  1.00  0.00     0.179 C 
ATOM     17  C   UNL     1     -35.226  41.461  41.147  1.00  0.00     0.178 C 
ATOM     18  C   UNL     1     -34.571  42.715  41.861  1.00  0.00     0.177 C 
BRANCH  14  19
ATOM     19  O   UNL     1     -35.730  41.564  45.244  1.00  0.00    -0.385 OA
ATOM     20  H   UNL     1     -36.298  42.365  45.386  1.00  0.00     0.211 HD
ENDBRANCH  14  19
BRANCH  16  21
ATOM     21  O   UNL     1     -36.502  43.488  43.158  1.00  0.00    -0.387 OA
ATOM     22  H   UNL     1     -37.122  42.936  43.700  1.00  0.00     0.211 HD
ENDBRANCH  16  21
BRANCH  17  23
ATOM     23  C   UNL     1     -35.341  41.554  39.607  1.00  0.00     0.191 C 
BRANCH  23  24
ATOM     24  O   UNL     1     -34.112  41.772  38.979  1.00  0.00    -0.394 OA
ATOM     25  H   UNL     1     -34.154  42.687  38.586  1.00  0.00     0.210 HD
ENDBRANCH  23  24
ENDBRANCH  17  23
BRANCH  18  26
ATOM     26  O   UNL     1     -34.653  43.886  41.057  1.00  0.00    -0.387 OA
ATOM     27  H   UNL     1     -34.945  44.651  41.601  1.00  0.00     0.211 HD
ENDBRANCH  18  26
ENDBRANCH  12  13
ENDBRANCH   7  12
BRANCH   4  28
ATOM     28  O   UNL     1     -36.581  35.035  46.254  1.00  0.00    -0.365 OA
ATOM     29  H   UNL     1     -37.569  34.961  46.285  1.00  0.00     0.214 HD
ENDBRANCH   4  28
BRANCH   8  30
ATOM     30  C   UNL     1     -38.530  39.107  45.231  1.00  0.00     0.249 C 
BRANCH  30  31
ATOM     31  O   UNL     1     -39.073  39.147  46.555  1.00  0.00    -0.461 OA
BRANCH  31  32
ATOM     32  C   UNL     1     -40.299  38.523  46.819  1.00  0.00     0.338 C 
ATOM     33  O   UNL     1     -41.290  38.767  46.081  1.00  0.00    -0.246 OA
BRANCH  32  34
ATOM     34  C   UNL     1     -40.400  37.580  47.950  1.00  0.00     0.060 A 
ATOM     35  C   UNL     1     -41.087  37.957  49.128  1.00  0.00     0.015 A 
ATOM     36  C   UNL     1     -39.923  36.256  47.833  1.00  0.00     0.015 A 
ATOM     37  C   UNL     1     -41.375  37.007  50.127  1.00  0.00     0.001 A 
ATOM     38  C   UNL     1     -40.180  35.327  48.845  1.00  0.00     0.001 A 
ATOM     39  C   UNL     1     -40.940  35.690  49.971  1.00  0.00     0.000 A 
ENDBRANCH  32  34
ENDBRANCH  31  32
ENDBRANCH  30  31
ENDBRANCH   8  30
TORSDOF 12
ENDMDL
