MODEL 1
REMARK VINA RESULT:    -3.377      0.000      0.000
REMARK INTER + INTRA:          -5.031
REMARK INTER:                  -4.562
REMARK INTRA:                  -0.469
REMARK UNBOUND:                -0.469
REMARK SMILES CCCCCCCC(=O)[O-]
REMARK SMILES IDX 5 1 6 2 7 3 8 4 9 5 10 6 4 7 3 8 2 9 1 10
REMARK H PARENT
REMARK Flexibility Score: inf
ROOT
ATOM      1  C   UNL     1       6.553   1.996  47.536  1.00  0.00     0.000 C 
ENDROOT
BRANCH   1   2
ATOM      2  C   UNL     1       5.701   3.225  47.897  1.00  0.00     0.006 C 
BRANCH   2   3
ATOM      3  C   UNL     1       6.034   3.772  49.292  1.00  0.00     0.053 C 
BRANCH   3   4
ATOM      4  C   UNL     1       6.929   4.971  49.221  1.00  0.00     0.041 C 
ATOM      5  O   UNL     1       7.259   5.450  48.105  1.00  0.00    -0.550 OA
ATOM      6  O   UNL     1       7.372   5.579  50.389  1.00  0.00    -0.550 OA
ENDBRANCH   3   4
ENDBRANCH   2   3
ENDBRANCH   1   2
BRANCH   1   7
ATOM      7  C   UNL     1       6.926   1.146  48.763  1.00  0.00     0.000 C 
BRANCH   7   8
ATOM      8  C   UNL     1       5.912   0.043  49.130  1.00  0.00    -0.000 C 
BRANCH   8   9
ATOM      9  C   UNL     1       5.411   0.079  50.584  1.00  0.00    -0.003 C 
ATOM     10  C   UNL     1       6.408   0.729  51.542  1.00  0.00     0.004 C 
ENDBRANCH   8   9
ENDBRANCH   7   8
ENDBRANCH   1   7
TORSDOF 6
ENDMDL
MODEL 2
REMARK VINA RESULT:    -3.344      1.405      1.944
REMARK INTER + INTRA:          -4.986
REMARK INTER:                  -4.442
REMARK INTRA:                  -0.544
REMARK UNBOUND:                -0.469
REMARK SMILES CCCCCCCC(=O)[O-]
REMARK SMILES IDX 5 1 6 2 7 3 8 4 9 5 10 6 4 7 3 8 2 9 1 10
REMARK H PARENT
REMARK Flexibility Score: inf
ROOT
ATOM      1  C   UNL     1       6.978   1.259  48.744  1.00  0.00     0.000 C 
ENDROOT
BRANCH   1   2
ATOM      2  C   UNL     1       6.576   1.992  47.453  1.00  0.00     0.006 C 
BRANCH   2   3
ATOM      3  C   UNL     1       5.642   3.179  47.728  1.00  0.00     0.053 C 
BRANCH   3   4
ATOM      4  C   UNL     1       6.288   4.207  48.605  1.00  0.00     0.041 C 
ATOM      5  O   UNL     1       7.145   4.997  48.128  1.00  0.00    -0.550 OA
ATOM      6  O   UNL     1       5.922   4.313  49.940  1.00  0.00    -0.550 OA
ENDBRANCH   3   4
ENDBRANCH   2   3
ENDBRANCH   1   2
BRANCH   1   7
ATOM      7  C   UNL     1       5.922   0.240  49.207  1.00  0.00     0.000 C 
BRANCH   7   8
ATOM      8  C   UNL     1       5.074   0.680  50.419  1.00  0.00    -0.000 C 
BRANCH   8   9
ATOM      9  C   UNL     1       3.555   0.696  50.177  1.00  0.00    -0.003 C 
ATOM     10  C   UNL     1       2.991   2.107  50.018  1.00  0.00     0.004 C 
ENDBRANCH   8   9
ENDBRANCH   7   8
ENDBRANCH   1   7
TORSDOF 6
ENDMDL
MODEL 3
REMARK VINA RESULT:    -3.316      1.001      1.638
REMARK INTER + INTRA:          -4.948
REMARK INTER:                  -4.582
REMARK INTRA:                  -0.366
REMARK UNBOUND:                -0.469
REMARK SMILES CCCCCCCC(=O)[O-]
REMARK SMILES IDX 5 1 6 2 7 3 8 4 9 5 10 6 4 7 3 8 2 9 1 10
REMARK H PARENT
REMARK Flexibility Score: inf
ROOT
ATOM      1  C   UNL     1       5.313   3.205  48.202  1.00  0.00     0.000 C 
ENDROOT
BRANCH   1   2
ATOM      2  C   UNL     1       5.938   4.267  49.122  1.00  0.00     0.006 C 
BRANCH   2   3
ATOM      3  C   UNL     1       7.020   5.088  48.407  1.00  0.00     0.053 C 
BRANCH   3   4
ATOM      4  C   UNL     1       7.251   6.409  49.074  1.00  0.00     0.041 C 
ATOM      5  O   UNL     1       6.921   7.477  48.495  1.00  0.00    -0.550 OA
ATOM      6  O   UNL     1       7.804   6.459  50.347  1.00  0.00    -0.550 OA
ENDBRANCH   3   4
ENDBRANCH   2   3
ENDBRANCH   1   2
BRANCH   1   7
ATOM      7  C   UNL     1       6.364   2.349  47.475  1.00  0.00     0.000 C 
BRANCH   7   8
ATOM      8  C   UNL     1       7.003   1.233  48.328  1.00  0.00    -0.000 C 
BRANCH   8   9
ATOM      9  C   UNL     1       6.022   0.461  49.227  1.00  0.00    -0.003 C 
ATOM     10  C   UNL     1       6.346   0.592  50.714  1.00  0.00     0.004 C 
ENDBRANCH   8   9
ENDBRANCH   7   8
ENDBRANCH   1   7
TORSDOF 6
ENDMDL
MODEL 4
REMARK VINA RESULT:    -3.314      2.874      4.087
REMARK INTER + INTRA:          -4.945
REMARK INTER:                  -4.405
REMARK INTRA:                  -0.540
REMARK UNBOUND:                -0.469
REMARK SMILES CCCCCCCC(=O)[O-]
REMARK SMILES IDX 5 1 6 2 7 3 8 4 9 5 10 6 4 7 3 8 2 9 1 10
REMARK H PARENT
REMARK Flexibility Score: inf
ROOT
ATOM      1  C   UNL     1       5.718   3.315  48.279  1.00  0.00     0.000 C 
ENDROOT
BRANCH   1   2
ATOM      2  C   UNL     1       6.380   2.083  47.640  1.00  0.00     0.006 C 
BRANCH   2   3
ATOM      3  C   UNL     1       7.024   1.163  48.687  1.00  0.00     0.053 C 
BRANCH   3   4
ATOM      4  C   UNL     1       6.010   0.298  49.369  1.00  0.00     0.041 C 
ATOM      5  O   UNL     1       5.578  -0.739  48.799  1.00  0.00    -0.550 OA
ATOM      6  O   UNL     1       5.565   0.618  50.645  1.00  0.00    -0.550 OA
ENDBRANCH   3   4
ENDBRANCH   2   3
ENDBRANCH   1   2
BRANCH   1   7
ATOM      7  C   UNL     1       6.675   4.514  48.401  1.00  0.00     0.000 C 
BRANCH   7   8
ATOM      8  C   UNL     1       7.030   4.925  49.845  1.00  0.00    -0.000 C 
BRANCH   8   9
ATOM      9  C   UNL     1       6.571   3.937  50.932  1.00  0.00    -0.003 C 
ATOM     10  C   UNL     1       7.735   3.293  51.683  1.00  0.00     0.004 C 
ENDBRANCH   8   9
ENDBRANCH   7   8
ENDBRANCH   1   7
TORSDOF 6
ENDMDL
MODEL 5
REMARK VINA RESULT:    -3.274      2.047      3.339
REMARK INTER + INTRA:          -4.891
REMARK INTER:                  -4.643
REMARK INTRA:                  -0.248
REMARK UNBOUND:                -0.469
REMARK SMILES CCCCCCCC(=O)[O-]
REMARK SMILES IDX 5 1 6 2 7 3 8 4 9 5 10 6 4 7 3 8 2 9 1 10
REMARK H PARENT
REMARK Flexibility Score: inf
ROOT
ATOM      1  C   UNL     1       6.706   4.547  49.545  1.00  0.00     0.000 C 
ENDROOT
BRANCH   1   2
ATOM      2  C   UNL     1       7.179   5.509  48.442  1.00  0.00     0.006 C 
BRANCH   2   3
ATOM      3  C   UNL     1       7.579   6.881  49.002  1.00  0.00     0.053 C 
BRANCH   3   4
ATOM      4  C   UNL     1       7.599   7.935  47.938  1.00  0.00     0.041 C 
ATOM      5  O   UNL     1       6.612   8.703  47.790  1.00  0.00    -0.550 OA
ATOM      6  O   UNL     1       8.718   8.089  47.131  1.00  0.00    -0.550 OA
ENDBRANCH   3   4
ENDBRANCH   2   3
ENDBRANCH   1   2
BRANCH   1   7
ATOM      7  C   UNL     1       5.462   3.738  49.140  1.00  0.00     0.000 C 
BRANCH   7   8
ATOM      8  C   UNL     1       5.569   3.004  47.788  1.00  0.00    -0.000 C 
BRANCH   8   9
ATOM      9  C   UNL     1       6.672   1.933  47.716  1.00  0.00    -0.003 C 
ATOM     10  C   UNL     1       6.559   0.886  48.823  1.00  0.00     0.004 C 
ENDBRANCH   8   9
ENDBRANCH   7   8
ENDBRANCH   1   7
TORSDOF 6
ENDMDL
MODEL 6
REMARK VINA RESULT:    -3.263      2.781      5.246
REMARK INTER + INTRA:          -4.877
REMARK INTER:                  -4.600
REMARK INTRA:                  -0.276
REMARK UNBOUND:                -0.469
REMARK SMILES CCCCCCCC(=O)[O-]
REMARK SMILES IDX 5 1 6 2 7 3 8 4 9 5 10 6 4 7 3 8 2 9 1 10
REMARK H PARENT
REMARK Flexibility Score: inf
ROOT
ATOM      1  C   UNL     1       6.736   4.424  48.173  1.00  0.00     0.000 C 
ENDROOT
BRANCH   1   2
ATOM      2  C   UNL     1       5.754   3.241  48.174  1.00  0.00     0.006 C 
BRANCH   2   3
ATOM      3  C   UNL     1       6.448   1.910  47.855  1.00  0.00     0.053 C 
BRANCH   3   4
ATOM      4  C   UNL     1       6.452   0.986  49.033  1.00  0.00     0.041 C 
ATOM      5  O   UNL     1       7.000   1.337  50.111  1.00  0.00    -0.550 OA
ATOM      6  O   UNL     1       5.824  -0.251  48.951  1.00  0.00    -0.550 OA
ENDBRANCH   3   4
ENDBRANCH   2   3
ENDBRANCH   1   2
BRANCH   1   7
ATOM      7  C   UNL     1       6.905   5.064  49.562  1.00  0.00     0.000 C 
BRANCH   7   8
ATOM      8  C   UNL     1       7.439   6.511  49.557  1.00  0.00    -0.000 C 
BRANCH   8   9
ATOM      9  C   UNL     1       7.569   7.149  48.162  1.00  0.00    -0.003 C 
ATOM     10  C   UNL     1       9.010   7.504  47.800  1.00  0.00     0.004 C 
ENDBRANCH   8   9
ENDBRANCH   7   8
ENDBRANCH   1   7
TORSDOF 6
ENDMDL
MODEL 7
REMARK VINA RESULT:    -3.238      1.532      2.107
REMARK INTER + INTRA:          -4.843
REMARK INTER:                  -4.263
REMARK INTRA:                  -0.580
REMARK UNBOUND:                -0.469
REMARK SMILES CCCCCCCC(=O)[O-]
REMARK SMILES IDX 5 1 6 2 7 3 8 4 9 5 10 6 4 7 3 8 2 9 1 10
REMARK H PARENT
REMARK Flexibility Score: inf
ROOT
ATOM      1  C   UNL     1       5.757   3.471  48.140  1.00  0.00     0.000 C 
ENDROOT
BRANCH   1   2
ATOM      2  C   UNL     1       6.757   4.583  48.500  1.00  0.00     0.006 C 
BRANCH   2   3
ATOM      3  C   UNL     1       6.513   5.150  49.905  1.00  0.00     0.053 C 
BRANCH   3   4
ATOM      4  C   UNL     1       6.603   4.090  50.958  1.00  0.00     0.041 C 
ATOM      5  O   UNL     1       5.574   3.739  51.593  1.00  0.00    -0.550 OA
ATOM      6  O   UNL     1       7.818   3.468  51.218  1.00  0.00    -0.550 OA
ENDBRANCH   3   4
ENDBRANCH   2   3
ENDBRANCH   1   2
BRANCH   1   7
ATOM      7  C   UNL     1       6.435   2.232  47.530  1.00  0.00     0.000 C 
BRANCH   7   8
ATOM      8  C   UNL     1       6.957   1.200  48.552  1.00  0.00    -0.000 C 
BRANCH   8   9
ATOM      9  C   UNL     1       5.866   0.500  49.382  1.00  0.00    -0.003 C 
ATOM     10  C   UNL     1       6.251   0.329  50.850  1.00  0.00     0.004 C 
ENDBRANCH   8   9
ENDBRANCH   7   8
ENDBRANCH   1   7
TORSDOF 6
ENDMDL
MODEL 8
REMARK VINA RESULT:    -3.232      2.755      3.773
REMARK INTER + INTRA:          -4.834
REMARK INTER:                  -4.235
REMARK INTRA:                  -0.599
REMARK UNBOUND:                -0.469
REMARK SMILES CCCCCCCC(=O)[O-]
REMARK SMILES IDX 5 1 6 2 7 3 8 4 9 5 10 6 4 7 3 8 2 9 1 10
REMARK H PARENT
REMARK Flexibility Score: inf
ROOT
ATOM      1  C   UNL     1       6.390   4.243  48.484  1.00  0.00     0.000 C 
ENDROOT
BRANCH   1   2
ATOM      2  C   UNL     1       5.807   3.007  47.780  1.00  0.00     0.006 C 
BRANCH   2   3
ATOM      3  C   UNL     1       6.767   1.810  47.820  1.00  0.00     0.053 C 
BRANCH   3   4
ATOM      4  C   UNL     1       6.510   0.927  49.002  1.00  0.00     0.041 C 
ATOM      5  O   UNL     1       5.865  -0.145  48.862  1.00  0.00    -0.550 OA
ATOM      6  O   UNL     1       7.009   1.272  50.251  1.00  0.00    -0.550 OA
ENDBRANCH   3   4
ENDBRANCH   2   3
ENDBRANCH   1   2
BRANCH   1   7
ATOM      7  C   UNL     1       5.757   4.500  49.863  1.00  0.00     0.000 C 
BRANCH   7   8
ATOM      8  C   UNL     1       4.244   4.209  49.954  1.00  0.00    -0.000 C 
BRANCH   8   9
ATOM      9  C   UNL     1       3.870   2.979  50.800  1.00  0.00    -0.003 C 
ATOM     10  C   UNL     1       3.034   1.958  50.030  1.00  0.00     0.004 C 
ENDBRANCH   8   9
ENDBRANCH   7   8
ENDBRANCH   1   7
TORSDOF 6
ENDMDL
MODEL 9
REMARK VINA RESULT:    -3.167      2.735      5.443
REMARK INTER + INTRA:          -4.746
REMARK INTER:                  -4.415
REMARK INTRA:                  -0.331
REMARK UNBOUND:                -0.469
REMARK SMILES CCCCCCCC(=O)[O-]
REMARK SMILES IDX 5 1 6 2 7 3 8 4 9 5 10 6 4 7 3 8 2 9 1 10
REMARK H PARENT
REMARK Flexibility Score: inf
ROOT
ATOM      1  C   UNL     1       7.028   5.012  49.812  1.00  0.00     0.000 C 
ENDROOT
BRANCH   1   2
ATOM      2  C   UNL     1       6.695   4.489  48.405  1.00  0.00     0.006 C 
BRANCH   2   3
ATOM      3  C   UNL     1       5.835   3.218  48.447  1.00  0.00     0.053 C 
BRANCH   3   4
ATOM      4  C   UNL     1       6.570   2.029  47.911  1.00  0.00     0.041 C 
ATOM      5  O   UNL     1       6.955   2.010  46.712  1.00  0.00    -0.550 OA
ATOM      6  O   UNL     1       6.856   0.953  48.742  1.00  0.00    -0.550 OA
ENDBRANCH   3   4
ENDBRANCH   2   3
ENDBRANCH   1   2
BRANCH   1   7
ATOM      7  C   UNL     1       7.533   6.466  49.806  1.00  0.00     0.000 C 
BRANCH   7   8
ATOM      8  C   UNL     1       6.767   7.422  48.867  1.00  0.00    -0.000 C 
BRANCH   8   9
ATOM      9  C   UNL     1       7.613   8.041  47.740  1.00  0.00    -0.003 C 
ATOM     10  C   UNL     1       9.050   7.522  47.720  1.00  0.00     0.004 C 
ENDBRANCH   8   9
ENDBRANCH   7   8
ENDBRANCH   1   7
TORSDOF 6
ENDMDL
