MODEL 1
REMARK VINA RESULT:    12.884      0.000      0.000
REMARK INTER + INTRA:          21.792
REMARK INTER:                  22.675
REMARK INTRA:                  -0.883
REMARK UNBOUND:                -0.883
REMARK SMILES CCCCCCCCCCCCCCC(=O)[O-]
REMARK SMILES IDX 9 1 10 2 11 3 12 4 13 5 14 6 15 7 16 8 17 9 8 10 7 11 6 12
REMARK SMILES IDX 5 13 4 14 3 15 2 16 1 17
REMARK H PARENT
REMARK Flexibility Score: inf
ROOT
ATOM      1  C   UNL     1      -6.626 -17.766  26.998  1.00  0.00     0.000 C 
ENDROOT
BRANCH   1   2
ATOM      2  C   UNL     1      -5.980 -18.606  25.882  1.00  0.00     0.000 C 
BRANCH   2   3
ATOM      3  C   UNL     1      -6.203 -18.011  24.481  1.00  0.00     0.000 C 
BRANCH   3   4
ATOM      4  C   UNL     1      -5.147 -18.480  23.466  1.00  0.00     0.000 C 
BRANCH   4   5
ATOM      5  C   UNL     1      -4.539 -19.845  23.832  1.00  0.00     0.006 C 
BRANCH   5   6
ATOM      6  C   UNL     1      -4.170 -20.665  22.590  1.00  0.00     0.053 C 
BRANCH   6   7
ATOM      7  C   UNL     1      -2.686 -20.776  22.417  1.00  0.00     0.041 C 
ATOM      8  O   UNL     1      -2.032 -21.627  23.076  1.00  0.00    -0.550 OA
ATOM      9  O   UNL     1      -2.029 -19.960  21.505  1.00  0.00    -0.550 OA
ENDBRANCH   6   7
ENDBRANCH   5   6
ENDBRANCH   4   5
ENDBRANCH   3   4
ENDBRANCH   2   3
ENDBRANCH   1   2
BRANCH   1  10
ATOM     10  C   UNL     1      -7.663 -16.727  26.523  1.00  0.00     0.000 C 
BRANCH  10  11
ATOM     11  C   UNL     1      -9.085 -16.914  27.083  1.00  0.00    -0.000 C 
BRANCH  11  12
ATOM     12  C   UNL     1      -9.234 -18.202  27.911  1.00  0.00    -0.000 C 
BRANCH  12  13
ATOM     13  C   UNL     1      -9.643 -17.922  29.367  1.00  0.00    -0.000 C 
BRANCH  13  14
ATOM     14  C   UNL     1      -8.557 -17.163  30.149  1.00  0.00    -0.000 C 
BRANCH  14  15
ATOM     15  C   UNL     1      -8.586 -17.477  31.654  1.00  0.00    -0.000 C 
BRANCH  15  16
ATOM     16  C   UNL     1      -7.340 -18.240  32.125  1.00  0.00    -0.003 C 
ATOM     17  C   UNL     1      -7.584 -19.747  32.121  1.00  0.00     0.004 C 
ENDBRANCH  15  16
ENDBRANCH  14  15
ENDBRANCH  13  14
ENDBRANCH  12  13
ENDBRANCH  11  12
ENDBRANCH  10  11
ENDBRANCH   1  10
TORSDOF 13
ENDMDL
MODEL 2
REMARK VINA RESULT:    13.263      4.118      8.322
REMARK INTER + INTRA:          22.459
REMARK INTER:                  23.290
REMARK INTRA:                  -0.831
REMARK UNBOUND:                -0.883
REMARK SMILES CCCCCCCCCCCCCCC(=O)[O-]
REMARK SMILES IDX 9 1 10 2 11 3 12 4 13 5 14 6 15 7 16 8 17 9 8 10 7 11 6 12
REMARK SMILES IDX 5 13 4 14 3 15 2 16 1 17
REMARK H PARENT
REMARK Flexibility Score: inf
ROOT
ATOM      1  C   UNL     1      -2.780 -17.552  25.945  1.00  0.00     0.000 C 
ENDROOT
BRANCH   1   2
ATOM      2  C   UNL     1      -3.381 -17.948  27.306  1.00  0.00     0.000 C 
BRANCH   2   3
ATOM      3  C   UNL     1      -4.896 -17.690  27.386  1.00  0.00     0.000 C 
BRANCH   3   4
ATOM      4  C   UNL     1      -5.670 -18.365  26.242  1.00  0.00     0.000 C 
BRANCH   4   5
ATOM      5  C   UNL     1      -7.152 -17.954  26.207  1.00  0.00     0.006 C 
BRANCH   5   6
ATOM      6  C   UNL     1      -7.517 -17.007  27.358  1.00  0.00     0.053 C 
BRANCH   6   7
ATOM      7  C   UNL     1      -8.956 -17.140  27.753  1.00  0.00     0.041 C 
ATOM      8  O   UNL     1      -9.789 -16.255  27.421  1.00  0.00    -0.550 OA
ATOM      9  O   UNL     1      -9.383 -18.256  28.461  1.00  0.00    -0.550 OA
ENDBRANCH   6   7
ENDBRANCH   5   6
ENDBRANCH   4   5
ENDBRANCH   3   4
ENDBRANCH   2   3
ENDBRANCH   1   2
BRANCH   1  10
ATOM     10  C   UNL     1      -1.254 -17.743  25.819  1.00  0.00     0.000 C 
BRANCH  10  11
ATOM     11  C   UNL     1      -0.656 -17.366  24.452  1.00  0.00    -0.000 C 
BRANCH  11  12
ATOM     12  C   UNL     1      -0.099 -18.580  23.689  1.00  0.00    -0.000 C 
BRANCH  12  13
ATOM     13  C   UNL     1      -1.042 -19.794  23.743  1.00  0.00    -0.000 C 
BRANCH  13  14
ATOM     14  C   UNL     1      -1.826 -19.991  22.433  1.00  0.00    -0.000 C 
BRANCH  14  15
ATOM     15  C   UNL     1      -2.718 -21.243  22.462  1.00  0.00    -0.000 C 
BRANCH  15  16
ATOM     16  C   UNL     1      -4.216 -20.904  22.475  1.00  0.00    -0.003 C 
ATOM     17  C   UNL     1      -4.475 -19.592  23.211  1.00  0.00     0.004 C 
ENDBRANCH  15  16
ENDBRANCH  14  15
ENDBRANCH  13  14
ENDBRANCH  12  13
ENDBRANCH  11  12
ENDBRANCH  10  11
ENDBRANCH   1  10
TORSDOF 13
ENDMDL
MODEL 3
REMARK VINA RESULT:    13.533      4.213      8.170
REMARK INTER + INTRA:          22.935
REMARK INTER:                  23.875
REMARK INTRA:                  -0.940
REMARK UNBOUND:                -0.883
REMARK SMILES CCCCCCCCCCCCCCC(=O)[O-]
REMARK SMILES IDX 9 1 10 2 11 3 12 4 13 5 14 6 15 7 16 8 17 9 8 10 7 11 6 12
REMARK SMILES IDX 5 13 4 14 3 15 2 16 1 17
REMARK H PARENT
REMARK Flexibility Score: inf
ROOT
ATOM      1  C   UNL     1      -5.080 -18.776  23.232  1.00  0.00     0.000 C 
ENDROOT
BRANCH   1   2
ATOM      2  C   UNL     1      -5.938 -18.142  24.341  1.00  0.00     0.000 C 
BRANCH   2   3
ATOM      3  C   UNL     1      -5.802 -18.870  25.690  1.00  0.00     0.000 C 
BRANCH   3   4
ATOM      4  C   UNL     1      -5.865 -17.909  26.888  1.00  0.00     0.000 C 
BRANCH   4   5
ATOM      5  C   UNL     1      -7.150 -17.063  26.901  1.00  0.00     0.006 C 
BRANCH   5   6
ATOM      6  C   UNL     1      -8.408 -17.924  27.073  1.00  0.00     0.053 C 
BRANCH   6   7
ATOM      7  C   UNL     1      -9.423 -17.258  27.950  1.00  0.00     0.041 C 
ATOM      8  O   UNL     1      -9.727 -17.761  29.065  1.00  0.00    -0.550 OA
ATOM      9  O   UNL     1     -10.012 -16.064  27.552  1.00  0.00    -0.550 OA
ENDBRANCH   6   7
ENDBRANCH   5   6
ENDBRANCH   4   5
ENDBRANCH   3   4
ENDBRANCH   2   3
ENDBRANCH   1   2
BRANCH   1  10
ATOM     10  C   UNL     1      -4.444 -20.136  23.587  1.00  0.00     0.000 C 
BRANCH  10  11
ATOM     11  C   UNL     1      -3.906 -20.942  22.391  1.00  0.00    -0.000 C 
BRANCH  11  12
ATOM     12  C   UNL     1      -2.385 -21.162  22.456  1.00  0.00    -0.000 C 
BRANCH  12  13
ATOM     13  C   UNL     1      -1.597 -19.842  22.428  1.00  0.00    -0.000 C 
BRANCH  13  14
ATOM     14  C   UNL     1      -0.837 -19.582  23.741  1.00  0.00    -0.000 C 
BRANCH  14  15
ATOM     15  C   UNL     1      -0.148 -18.207  23.761  1.00  0.00    -0.000 C 
BRANCH  15  16
ATOM     16  C   UNL     1      -0.856 -17.202  24.679  1.00  0.00    -0.003 C 
ATOM     17  C   UNL     1      -1.487 -17.904  25.879  1.00  0.00     0.004 C 
ENDBRANCH  15  16
ENDBRANCH  14  15
ENDBRANCH  13  14
ENDBRANCH  12  13
ENDBRANCH  11  12
ENDBRANCH  10  11
ENDBRANCH   1  10
TORSDOF 13
ENDMDL
MODEL 4
REMARK VINA RESULT:    13.630      4.431      8.661
REMARK INTER + INTRA:          23.106
REMARK INTER:                  23.756
REMARK INTRA:                  -0.650
REMARK UNBOUND:                -0.883
REMARK SMILES CCCCCCCCCCCCCCC(=O)[O-]
REMARK SMILES IDX 9 1 10 2 11 3 12 4 13 5 14 6 15 7 16 8 17 9 8 10 7 11 6 12
REMARK SMILES IDX 5 13 4 14 3 15 2 16 1 17
REMARK H PARENT
REMARK Flexibility Score: inf
ROOT
ATOM      1  C   UNL     1      -5.951 -18.211  25.238  1.00  0.00     0.000 C 
ENDROOT
BRANCH   1   2
ATOM      2  C   UNL     1      -6.244 -18.264  26.748  1.00  0.00     0.000 C 
BRANCH   2   3
ATOM      3  C   UNL     1      -7.193 -17.144  27.211  1.00  0.00     0.000 C 
BRANCH   3   4
ATOM      4  C   UNL     1      -8.620 -17.651  27.474  1.00  0.00     0.000 C 
BRANCH   4   5
ATOM      5  C   UNL     1      -9.054 -17.466  28.939  1.00  0.00     0.006 C 
BRANCH   5   6
ATOM      6  C   UNL     1      -7.854 -17.382  29.890  1.00  0.00     0.053 C 
BRANCH   6   7
ATOM      7  C   UNL     1      -8.282 -17.348  31.325  1.00  0.00     0.041 C 
ATOM      8  O   UNL     1      -7.764 -16.522  32.123  1.00  0.00    -0.550 OA
ATOM      9  O   UNL     1      -9.276 -18.208  31.776  1.00  0.00    -0.550 OA
ENDBRANCH   6   7
ENDBRANCH   5   6
ENDBRANCH   4   5
ENDBRANCH   3   4
ENDBRANCH   2   3
ENDBRANCH   1   2
BRANCH   1  10
ATOM     10  C   UNL     1      -5.112 -19.384  24.689  1.00  0.00     0.000 C 
BRANCH  10  11
ATOM     11  C   UNL     1      -4.771 -19.303  23.190  1.00  0.00    -0.000 C 
BRANCH  11  12
ATOM     12  C   UNL     1      -4.013 -20.541  22.683  1.00  0.00    -0.000 C 
BRANCH  12  13
ATOM     13  C   UNL     1      -2.527 -20.255  22.414  1.00  0.00    -0.000 C 
BRANCH  13  14
ATOM     14  C   UNL     1      -1.633 -20.592  23.621  1.00  0.00    -0.000 C 
BRANCH  14  15
ATOM     15  C   UNL     1      -0.484 -19.587  23.803  1.00  0.00    -0.000 C 
BRANCH  15  16
ATOM     16  C   UNL     1      -0.899 -18.353  24.617  1.00  0.00    -0.003 C 
ATOM     17  C   UNL     1      -0.313 -17.077  24.018  1.00  0.00     0.004 C 
ENDBRANCH  15  16
ENDBRANCH  14  15
ENDBRANCH  13  14
ENDBRANCH  12  13
ENDBRANCH  11  12
ENDBRANCH  10  11
ENDBRANCH   1  10
TORSDOF 13
ENDMDL
MODEL 5
REMARK VINA RESULT:    13.675      2.584      4.450
REMARK INTER + INTRA:          23.185
REMARK INTER:                  23.809
REMARK INTRA:                  -0.623
REMARK UNBOUND:                -0.883
REMARK SMILES CCCCCCCCCCCCCCC(=O)[O-]
REMARK SMILES IDX 9 1 10 2 11 3 12 4 13 5 14 6 15 7 16 8 17 9 8 10 7 11 6 12
REMARK SMILES IDX 5 13 4 14 3 15 2 16 1 17
REMARK H PARENT
REMARK Flexibility Score: inf
ROOT
ATOM      1  C   UNL     1      -5.086 -18.951  23.447  1.00  0.00     0.000 C 
ENDROOT
BRANCH   1   2
ATOM      2  C   UNL     1      -4.668 -20.400  23.138  1.00  0.00     0.000 C 
BRANCH   2   3
ATOM      3  C   UNL     1      -3.443 -20.483  22.211  1.00  0.00     0.000 C 
BRANCH   3   4
ATOM      4  C   UNL     1      -2.150 -20.821  22.971  1.00  0.00     0.000 C 
BRANCH   4   5
ATOM      5  C   UNL     1      -1.129 -19.670  22.943  1.00  0.00     0.006 C 
BRANCH   5   6
ATOM      6  C   UNL     1      -0.564 -19.365  24.337  1.00  0.00     0.053 C 
BRANCH   6   7
ATOM      7  C   UNL     1      -0.734 -17.922  24.702  1.00  0.00     0.041 C 
ATOM      8  O   UNL     1      -0.234 -17.020  23.977  1.00  0.00    -0.550 OA
ATOM      9  O   UNL     1      -1.470 -17.570  25.826  1.00  0.00    -0.550 OA
ENDBRANCH   6   7
ENDBRANCH   5   6
ENDBRANCH   4   5
ENDBRANCH   3   4
ENDBRANCH   2   3
ENDBRANCH   1   2
BRANCH   1  10
ATOM     10  C   UNL     1      -5.003 -18.544  24.933  1.00  0.00     0.000 C 
BRANCH  10  11
ATOM     11  C   UNL     1      -6.226 -18.925  25.787  1.00  0.00    -0.000 C 
BRANCH  11  12
ATOM     12  C   UNL     1      -7.269 -17.798  25.872  1.00  0.00    -0.000 C 
BRANCH  12  13
ATOM     13  C   UNL     1      -7.337 -17.162  27.270  1.00  0.00    -0.000 C 
BRANCH  13  14
ATOM     14  C   UNL     1      -8.647 -17.495  28.006  1.00  0.00    -0.000 C 
BRANCH  14  15
ATOM     15  C   UNL     1      -9.839 -16.672  27.492  1.00  0.00    -0.000 C 
BRANCH  15  16
ATOM     16  C   UNL     1      -9.413 -15.329  26.881  1.00  0.00    -0.003 C 
ATOM     17  C   UNL     1     -10.611 -14.398  26.711  1.00  0.00     0.004 C 
ENDBRANCH  15  16
ENDBRANCH  14  15
ENDBRANCH  13  14
ENDBRANCH  12  13
ENDBRANCH  11  12
ENDBRANCH  10  11
ENDBRANCH   1  10
TORSDOF 13
ENDMDL
MODEL 6
REMARK VINA RESULT:    13.865      2.316      4.010
REMARK INTER + INTRA:          23.519
REMARK INTER:                  24.279
REMARK INTRA:                  -0.760
REMARK UNBOUND:                -0.883
REMARK SMILES CCCCCCCCCCCCCCC(=O)[O-]
REMARK SMILES IDX 9 1 10 2 11 3 12 4 13 5 14 6 15 7 16 8 17 9 8 10 7 11 6 12
REMARK SMILES IDX 5 13 4 14 3 15 2 16 1 17
REMARK H PARENT
REMARK Flexibility Score: inf
ROOT
ATOM      1  C   UNL     1      -2.627 -17.597  25.928  1.00  0.00     0.000 C 
ENDROOT
BRANCH   1   2
ATOM      2  C   UNL     1      -1.132 -17.943  25.813  1.00  0.00     0.000 C 
BRANCH   2   3
ATOM      3  C   UNL     1      -0.662 -18.077  24.354  1.00  0.00     0.000 C 
BRANCH   3   4
ATOM      4  C   UNL     1      -0.707 -19.529  23.851  1.00  0.00     0.000 C 
BRANCH   4   5
ATOM      5  C   UNL     1      -1.595 -19.697  22.606  1.00  0.00     0.006 C 
BRANCH   5   6
ATOM      6  C   UNL     1      -2.417 -20.992  22.653  1.00  0.00     0.053 C 
BRANCH   6   7
ATOM      7  C   UNL     1      -3.887 -20.723  22.546  1.00  0.00     0.041 C 
ATOM      8  O   UNL     1      -4.635 -21.523  21.925  1.00  0.00    -0.550 OA
ATOM      9  O   UNL     1      -4.436 -19.603  23.160  1.00  0.00    -0.550 OA
ENDBRANCH   6   7
ENDBRANCH   5   6
ENDBRANCH   4   5
ENDBRANCH   3   4
ENDBRANCH   2   3
ENDBRANCH   1   2
BRANCH   1  10
ATOM     10  C   UNL     1      -3.287 -17.967  27.273  1.00  0.00     0.000 C 
BRANCH  10  11
ATOM     11  C   UNL     1      -4.800 -17.696  27.359  1.00  0.00    -0.000 C 
BRANCH  11  12
ATOM     12  C   UNL     1      -5.604 -18.457  26.291  1.00  0.00    -0.000 C 
BRANCH  12  13
ATOM     13  C   UNL     1      -7.008 -17.866  26.078  1.00  0.00    -0.000 C 
BRANCH  13  14
ATOM     14  C   UNL     1      -7.505 -17.070  27.298  1.00  0.00    -0.000 C 
BRANCH  14  15
ATOM     15  C   UNL     1      -8.873 -16.413  27.055  1.00  0.00    -0.000 C 
BRANCH  15  16
ATOM     16  C   UNL     1      -9.949 -16.904  28.034  1.00  0.00    -0.003 C 
ATOM     17  C   UNL     1      -9.553 -18.239  28.660  1.00  0.00     0.004 C 
ENDBRANCH  15  16
ENDBRANCH  14  15
ENDBRANCH  13  14
ENDBRANCH  12  13
ENDBRANCH  11  12
ENDBRANCH  10  11
ENDBRANCH   1  10
TORSDOF 13
ENDMDL
MODEL 7
REMARK VINA RESULT:    15.001      2.023      2.880
REMARK INTER + INTRA:          25.518
REMARK INTER:                  26.243
REMARK INTRA:                  -0.726
REMARK UNBOUND:                -0.883
REMARK SMILES CCCCCCCCCCCCCCC(=O)[O-]
REMARK SMILES IDX 9 1 10 2 11 3 12 4 13 5 14 6 15 7 16 8 17 9 8 10 7 11 6 12
REMARK SMILES IDX 5 13 4 14 3 15 2 16 1 17
REMARK H PARENT
REMARK Flexibility Score: inf
ROOT
ATOM      1  C   UNL     1      -4.056 -17.700  26.359  1.00  0.00     0.000 C 
ENDROOT
BRANCH   1   2
ATOM      2  C   UNL     1      -2.628 -18.069  26.799  1.00  0.00     0.000 C 
BRANCH   2   3
ATOM      3  C   UNL     1      -1.567 -17.710  25.744  1.00  0.00     0.000 C 
BRANCH   3   4
ATOM      4  C   UNL     1      -0.704 -18.917  25.342  1.00  0.00     0.000 C 
BRANCH   4   5
ATOM      5  C   UNL     1      -0.760 -19.209  23.832  1.00  0.00     0.006 C 
BRANCH   5   6
ATOM      6  C   UNL     1      -1.483 -20.526  23.525  1.00  0.00     0.053 C 
BRANCH   6   7
ATOM      7  C   UNL     1      -2.407 -20.393  22.353  1.00  0.00     0.041 C 
ATOM      8  O   UNL     1      -3.634 -20.648  22.480  1.00  0.00    -0.550 OA
ATOM      9  O   UNL     1      -1.918 -19.959  21.127  1.00  0.00    -0.550 OA
ENDBRANCH   6   7
ENDBRANCH   5   6
ENDBRANCH   4   5
ENDBRANCH   3   4
ENDBRANCH   2   3
ENDBRANCH   1   2
BRANCH   1  10
ATOM     10  C   UNL     1      -5.114 -17.705  27.482  1.00  0.00     0.000 C 
BRANCH  10  11
ATOM     11  C   UNL     1      -6.529 -18.129  27.050  1.00  0.00    -0.000 C 
BRANCH  11  12
ATOM     12  C   UNL     1      -7.406 -16.938  26.628  1.00  0.00    -0.000 C 
BRANCH  12  13
ATOM     13  C   UNL     1      -8.562 -16.681  27.609  1.00  0.00    -0.000 C 
BRANCH  13  14
ATOM     14  C   UNL     1      -9.121 -17.980  28.216  1.00  0.00    -0.000 C 
BRANCH  14  15
ATOM     15  C   UNL     1      -9.369 -17.865  29.729  1.00  0.00    -0.000 C 
BRANCH  15  16
ATOM     16  C   UNL     1      -8.114 -17.441  30.505  1.00  0.00    -0.003 C 
ATOM     17  C   UNL     1      -8.380 -17.417  32.008  1.00  0.00     0.004 C 
ENDBRANCH  15  16
ENDBRANCH  14  15
ENDBRANCH  13  14
ENDBRANCH  12  13
ENDBRANCH  11  12
ENDBRANCH  10  11
ENDBRANCH   1  10
TORSDOF 13
ENDMDL
