MODEL 1
REMARK VINA RESULT:    -3.414      0.000      0.000
REMARK INTER + INTRA:          -4.228
REMARK INTER:                  -4.113
REMARK INTRA:                  -0.115
REMARK UNBOUND:                -0.115
REMARK SMILES [NH3+][C@H](Cc1c[nH]c2ccccc12)C(=O)[O-]
REMARK SMILES IDX 3 1 2 2 1 3 13 7 14 8 15 9 4 10 12 11 5 12 7 13 11 14 6 15
REMARK SMILES IDX 8 16 10 17 9 19
REMARK H PARENT 1 4 1 5 1 6 6 18
REMARK Flexibility Score: inf
ROOT
ATOM      1  C   UNL     1      -8.746 -33.093  10.267  1.00  0.00     0.109 C 
ENDROOT
BRANCH   1   2
ATOM      2  C   UNL     1      -9.453 -32.400  11.450  1.00  0.00     0.232 C 
BRANCH   2   3
ATOM      3  N   UNL     1      -9.834 -31.021  11.116  1.00  0.00    -0.350 N 
ATOM      4  H   UNL     1      -8.975 -30.440  10.976  1.00  0.00     0.345 HD
ATOM      5  H   UNL     1     -10.411 -30.599  11.880  1.00  0.00     0.345 HD
ATOM      6  H   UNL     1     -10.378 -31.004  10.223  1.00  0.00     0.345 HD
ENDBRANCH   2   3
BRANCH   2   7
ATOM      7  C   UNL     1     -10.672 -33.192  11.843  1.00  0.00     0.099 C 
ATOM      8  O   UNL     1     -11.767 -33.002  11.252  1.00  0.00    -0.544 OA
ATOM      9  O   UNL     1     -10.600 -34.125  12.871  1.00  0.00    -0.544 OA
ENDBRANCH   2   7
ENDBRANCH   1   2
BRANCH   1  10
ATOM     10  C   UNL     1      -8.390 -34.516  10.587  1.00  0.00    -0.016 A 
ATOM     11  C   UNL     1      -7.441 -34.972  11.483  1.00  0.00     0.003 A 
ATOM     12  C   UNL     1      -9.016 -35.655  10.090  1.00  0.00     0.087 A 
ATOM     13  C   UNL     1      -7.523 -36.342  11.482  1.00  0.00     0.046 A 
ATOM     14  C   UNL     1      -6.536 -34.292  12.298  1.00  0.00     0.010 A 
ATOM     15  N   UNL     1      -8.477 -36.768  10.637  1.00  0.00    -0.361 N 
ATOM     16  C   UNL     1      -6.700 -37.125  12.292  1.00  0.00     0.026 A 
ATOM     17  C   UNL     1      -5.694 -35.057  13.125  1.00  0.00     0.001 A 
ATOM     18  H   UNL     1      -8.757 -37.756  10.447  1.00  0.00     0.166 HD
ATOM     19  C   UNL     1      -5.775 -36.467  13.121  1.00  0.00     0.002 A 
ENDBRANCH   1  10
TORSDOF 4
ENDMDL
MODEL 2
REMARK VINA RESULT:    -2.391      2.668      4.576
REMARK INTER + INTRA:          -2.995
REMARK INTER:                  -2.993
REMARK INTRA:                  -0.002
REMARK UNBOUND:                -0.115
REMARK SMILES [NH3+][C@H](Cc1c[nH]c2ccccc12)C(=O)[O-]
REMARK SMILES IDX 3 1 2 2 1 3 13 7 14 8 15 9 4 10 12 11 5 12 7 13 11 14 6 15
REMARK SMILES IDX 8 16 10 17 9 19
REMARK H PARENT 1 4 1 5 1 6 6 18
REMARK Flexibility Score: inf
ROOT
ATOM      1  C   UNL     1      -7.335 -34.161  10.639  1.00  0.00     0.109 C 
ENDROOT
BRANCH   1   2
ATOM      2  C   UNL     1      -6.547 -34.573  11.898  1.00  0.00     0.232 C 
BRANCH   2   3
ATOM      3  N   UNL     1      -7.221 -34.129  13.125  1.00  0.00    -0.350 N 
ATOM      4  H   UNL     1      -6.512 -33.792  13.817  1.00  0.00     0.345 HD
ATOM      5  H   UNL     1      -7.770 -34.910  13.552  1.00  0.00     0.345 HD
ATOM      6  H   UNL     1      -7.863 -33.331  12.913  1.00  0.00     0.345 HD
ENDBRANCH   2   3
BRANCH   2   7
ATOM      7  C   UNL     1      -6.372 -36.069  11.917  1.00  0.00     0.099 C 
ATOM      8  O   UNL     1      -6.375 -36.720  10.840  1.00  0.00    -0.544 OA
ATOM      9  O   UNL     1      -6.224 -36.742  13.125  1.00  0.00    -0.544 OA
ENDBRANCH   2   7
ENDBRANCH   1   2
BRANCH   1  10
ATOM     10  C   UNL     1      -8.797 -33.979  10.931  1.00  0.00    -0.016 A 
ATOM     11  C   UNL     1      -9.771 -34.956  11.028  1.00  0.00     0.003 A 
ATOM     12  C   UNL     1      -9.433 -32.781  11.242  1.00  0.00     0.087 A 
ATOM     13  C   UNL     1     -10.935 -34.319  11.374  1.00  0.00     0.046 A 
ATOM     14  C   UNL     1      -9.714 -36.339  10.854  1.00  0.00     0.010 A 
ATOM     15  N   UNL     1     -10.742 -32.995  11.506  1.00  0.00    -0.361 N 
ATOM     16  C   UNL     1     -12.125 -35.022  11.566  1.00  0.00     0.026 A 
ATOM     17  C   UNL     1     -10.900 -37.073  11.039  1.00  0.00     0.001 A 
ATOM     18  H   UNL     1     -11.452 -32.276  11.771  1.00  0.00     0.166 HD
ATOM     19  C   UNL     1     -12.099 -36.417  11.393  1.00  0.00     0.002 A 
ENDBRANCH   1  10
TORSDOF 4
ENDMDL
MODEL 3
REMARK VINA RESULT:    -0.790      2.422      3.348
REMARK INTER + INTRA:          -1.066
REMARK INTER:                  -1.384
REMARK INTRA:                   0.318
REMARK UNBOUND:                -0.115
REMARK SMILES [NH3+][C@H](Cc1c[nH]c2ccccc12)C(=O)[O-]
REMARK SMILES IDX 3 1 2 2 1 3 13 7 14 8 15 9 4 10 12 11 5 12 7 13 11 14 6 15
REMARK SMILES IDX 8 16 10 17 9 19
REMARK H PARENT 1 4 1 5 1 6 6 18
REMARK Flexibility Score: inf
ROOT
ATOM      1  C   UNL     1      -8.644 -32.881  10.326  1.00  0.00     0.109 C 
ENDROOT
BRANCH   1   2
ATOM      2  C   UNL     1      -9.780 -31.953  10.800  1.00  0.00     0.232 C 
BRANCH   2   3
ATOM      3  N   UNL     1      -9.926 -31.982  12.261  1.00  0.00    -0.350 N 
ATOM      4  H   UNL     1     -10.871 -31.623  12.531  1.00  0.00     0.345 HD
ATOM      5  H   UNL     1      -9.194 -31.393  12.720  1.00  0.00     0.345 HD
ATOM      6  H   UNL     1      -9.847 -32.965  12.610  1.00  0.00     0.345 HD
ENDBRANCH   2   3
BRANCH   2   7
ATOM      7  C   UNL     1      -9.508 -30.546  10.336  1.00  0.00     0.099 C 
ATOM      8  O   UNL     1      -9.587 -29.586  11.147  1.00  0.00    -0.544 OA
ATOM      9  O   UNL     1      -9.185 -30.297   9.007  1.00  0.00    -0.544 OA
ENDBRANCH   2   7
ENDBRANCH   1   2
BRANCH   1  10
ATOM     10  C   UNL     1      -8.413 -34.013  11.286  1.00  0.00    -0.016 A 
ATOM     11  C   UNL     1      -9.321 -34.965  11.710  1.00  0.00     0.003 A 
ATOM     12  C   UNL     1      -7.200 -34.361  11.874  1.00  0.00     0.087 A 
ATOM     13  C   UNL     1      -8.636 -35.827  12.529  1.00  0.00     0.046 A 
ATOM     14  C   UNL     1     -10.675 -35.143  11.425  1.00  0.00     0.010 A 
ATOM     15  N   UNL     1      -7.345 -35.468  12.636  1.00  0.00    -0.361 N 
ATOM     16  C   UNL     1      -9.261 -36.923  13.125  1.00  0.00     0.026 A 
ATOM     17  C   UNL     1     -11.331 -36.239  12.014  1.00  0.00     0.001 A 
ATOM     18  H   UNL     1      -6.600 -35.950  13.187  1.00  0.00     0.166 HD
ATOM     19  C   UNL     1     -10.628 -37.124  12.860  1.00  0.00     0.002 A 
ENDBRANCH   1  10
TORSDOF 4
ENDMDL
MODEL 4
REMARK VINA RESULT:    -0.739      1.917      2.124
REMARK INTER + INTRA:          -1.004
REMARK INTER:                  -0.699
REMARK INTRA:                  -0.305
REMARK UNBOUND:                -0.115
REMARK SMILES [NH3+][C@H](Cc1c[nH]c2ccccc12)C(=O)[O-]
REMARK SMILES IDX 3 1 2 2 1 3 13 7 14 8 15 9 4 10 12 11 5 12 7 13 11 14 6 15
REMARK SMILES IDX 8 16 10 17 9 19
REMARK H PARENT 1 4 1 5 1 6 6 18
REMARK Flexibility Score: inf
ROOT
ATOM      1  C   UNL     1     -10.243 -33.471  12.620  1.00  0.00     0.109 C 
ENDROOT
BRANCH   1   2
ATOM      2  C   UNL     1     -10.494 -32.927  11.199  1.00  0.00     0.232 C 
BRANCH   2   3
ATOM      3  N   UNL     1     -11.927 -32.725  10.946  1.00  0.00    -0.350 N 
ATOM      4  H   UNL     1     -12.184 -33.132  10.017  1.00  0.00     0.345 HD
ATOM      5  H   UNL     1     -12.166 -31.706  10.950  1.00  0.00     0.345 HD
ATOM      6  H   UNL     1     -12.494 -33.215  11.676  1.00  0.00     0.345 HD
ENDBRANCH   2   3
BRANCH   2   7
ATOM      7  C   UNL     1      -9.749 -31.632  11.015  1.00  0.00     0.099 C 
ATOM      8  O   UNL     1     -10.054 -30.855  10.072  1.00  0.00    -0.544 OA
ATOM      9  O   UNL     1      -8.709 -31.293  11.874  1.00  0.00    -0.544 OA
ENDBRANCH   2   7
ENDBRANCH   1   2
BRANCH   1  10
ATOM     10  C   UNL     1      -9.597 -34.826  12.592  1.00  0.00    -0.016 A 
ATOM     11  C   UNL     1      -8.257 -35.124  12.427  1.00  0.00     0.003 A 
ATOM     12  C   UNL     1     -10.230 -36.046  12.810  1.00  0.00     0.087 A 
ATOM     13  C   UNL     1      -8.139 -36.486  12.538  1.00  0.00     0.046 A 
ATOM     14  C   UNL     1      -7.148 -34.307  12.206  1.00  0.00     0.010 A 
ATOM     15  N   UNL     1      -9.333 -37.058  12.770  1.00  0.00    -0.361 N 
ATOM     16  C   UNL     1      -6.903 -37.125  12.430  1.00  0.00     0.026 A 
ATOM     17  C   UNL     1      -5.890 -34.924  12.092  1.00  0.00     0.001 A 
ATOM     18  H   UNL     1      -9.531 -38.074  12.905  1.00  0.00     0.166 HD
ATOM     19  C   UNL     1      -5.768 -36.327  12.203  1.00  0.00     0.002 A 
ENDBRANCH   1  10
TORSDOF 4
ENDMDL
