MODEL 1
REMARK VINA RESULT:    -3.652      0.000      0.000
REMARK INTER + INTRA:          -4.843
REMARK INTER:                  -4.719
REMARK INTRA:                  -0.124
REMARK UNBOUND:                -0.124
REMARK SMILES CCCCCCC(=O)[O-]
REMARK SMILES IDX 5 1 6 2 7 3 8 4 9 5 4 6 3 7 2 8 1 9
REMARK H PARENT
REMARK Flexibility Score: inf
ROOT
ATOM      1  C   UNL     1      33.874  14.381  -1.964  1.00  0.00     0.006 C 
ENDROOT
BRANCH   1   2
ATOM      2  C   UNL     1      32.780  13.362  -1.618  1.00  0.00     0.053 C 
BRANCH   2   3
ATOM      3  C   UNL     1      31.713  13.963  -0.755  1.00  0.00     0.041 C 
ATOM      4  O   UNL     1      30.856  13.225  -0.202  1.00  0.00    -0.550 OA
ATOM      5  O   UNL     1      31.645  15.341  -0.590  1.00  0.00    -0.550 OA
ENDBRANCH   2   3
ENDBRANCH   1   2
BRANCH   1   6
ATOM      6  C   UNL     1      34.609  14.024  -3.268  1.00  0.00     0.000 C 
BRANCH   6   7
ATOM      7  C   UNL     1      35.668  15.069  -3.655  1.00  0.00    -0.000 C 
BRANCH   7   8
ATOM      8  C   UNL     1      36.138  14.921  -5.108  1.00  0.00    -0.003 C 
ATOM      9  C   UNL     1      35.807  13.535  -5.655  1.00  0.00     0.004 C 
ENDBRANCH   7   8
ENDBRANCH   6   7
ENDBRANCH   1   6
TORSDOF 5
ENDMDL
MODEL 2
REMARK VINA RESULT:    -3.602     21.167     22.131
REMARK INTER + INTRA:          -4.779
REMARK INTER:                  -4.444
REMARK INTRA:                  -0.335
REMARK UNBOUND:                -0.124
REMARK SMILES CCCCCCC(=O)[O-]
REMARK SMILES IDX 5 1 6 2 7 3 8 4 9 5 4 6 3 7 2 8 1 9
REMARK H PARENT
REMARK Flexibility Score: inf
ROOT
ATOM      1  C   UNL     1      26.898  27.571 -17.460  1.00  0.00     0.006 C 
ENDROOT
BRANCH   1   2
ATOM      2  C   UNL     1      25.406  27.619 -17.105  1.00  0.00     0.053 C 
BRANCH   2   3
ATOM      3  C   UNL     1      25.147  28.481 -15.907  1.00  0.00     0.041 C 
ATOM      4  O   UNL     1      24.852  27.956 -14.801  1.00  0.00    -0.550 OA
ATOM      5  O   UNL     1      25.197  29.864 -16.021  1.00  0.00    -0.550 OA
ENDBRANCH   2   3
ENDBRANCH   1   2
BRANCH   1   6
ATOM      6  C   UNL     1      27.141  27.758 -18.968  1.00  0.00     0.000 C 
BRANCH   6   7
ATOM      7  C   UNL     1      27.419  29.222 -19.345  1.00  0.00    -0.000 C 
BRANCH   7   8
ATOM      8  C   UNL     1      28.214  29.969 -18.266  1.00  0.00    -0.003 C 
ATOM      9  C   UNL     1      27.708  31.399 -18.101  1.00  0.00     0.004 C 
ENDBRANCH   7   8
ENDBRANCH   6   7
ENDBRANCH   1   6
TORSDOF 5
ENDMDL
MODEL 3
REMARK VINA RESULT:    -3.601      3.396      5.246
REMARK INTER + INTRA:          -4.778
REMARK INTER:                  -4.588
REMARK INTRA:                  -0.190
REMARK UNBOUND:                -0.124
REMARK SMILES CCCCCCC(=O)[O-]
REMARK SMILES IDX 5 1 6 2 7 3 8 4 9 5 4 6 3 7 2 8 1 9
REMARK H PARENT
REMARK Flexibility Score: inf
ROOT
ATOM      1  C   UNL     1      34.755  14.777  -2.877  1.00  0.00     0.006 C 
ENDROOT
BRANCH   1   2
ATOM      2  C   UNL     1      34.831  13.633  -3.898  1.00  0.00     0.053 C 
BRANCH   2   3
ATOM      3  C   UNL     1      35.629  14.018  -5.105  1.00  0.00     0.041 C 
ATOM      4  O   UNL     1      35.802  13.192  -6.041  1.00  0.00    -0.550 OA
ATOM      5  O   UNL     1      36.212  15.276  -5.183  1.00  0.00    -0.550 OA
ENDBRANCH   2   3
ENDBRANCH   1   2
BRANCH   1   6
ATOM      6  C   UNL     1      34.111  14.331  -1.553  1.00  0.00     0.000 C 
BRANCH   6   7
ATOM      7  C   UNL     1      32.856  13.470  -1.766  1.00  0.00    -0.000 C 
BRANCH   7   8
ATOM      8  C   UNL     1      31.626  14.030  -1.039  1.00  0.00    -0.003 C 
ATOM      9  C   UNL     1      31.964  15.323  -0.302  1.00  0.00     0.004 C 
ENDBRANCH   7   8
ENDBRANCH   6   7
ENDBRANCH   1   6
TORSDOF 5
ENDMDL
MODEL 4
REMARK VINA RESULT:    -3.459     21.619     22.781
REMARK INTER + INTRA:          -4.594
REMARK INTER:                  -4.294
REMARK INTRA:                  -0.300
REMARK UNBOUND:                -0.124
REMARK SMILES CCCCCCC(=O)[O-]
REMARK SMILES IDX 5 1 6 2 7 3 8 4 9 5 4 6 3 7 2 8 1 9
REMARK H PARENT
REMARK Flexibility Score: inf
ROOT
ATOM      1  C   UNL     1      27.607  28.198 -17.883  1.00  0.00     0.006 C 
ENDROOT
BRANCH   1   2
ATOM      2  C   UNL     1      27.645  29.336 -18.913  1.00  0.00     0.053 C 
BRANCH   2   3
ATOM      3  C   UNL     1      28.030  30.641 -18.286  1.00  0.00     0.041 C 
ATOM      4  O   UNL     1      27.157  31.521 -18.067  1.00  0.00    -0.550 OA
ATOM      5  O   UNL     1      29.359  30.898 -17.975  1.00  0.00    -0.550 OA
ENDBRANCH   2   3
ENDBRANCH   1   2
BRANCH   1   6
ATOM      6  C   UNL     1      26.278  27.424 -17.922  1.00  0.00     0.000 C 
BRANCH   6   7
ATOM      7  C   UNL     1      25.079  28.287 -17.500  1.00  0.00    -0.000 C 
BRANCH   7   8
ATOM      8  C   UNL     1      25.281  28.948 -16.130  1.00  0.00    -0.003 C 
ATOM      9  C   UNL     1      25.002  27.962 -14.998  1.00  0.00     0.004 C 
ENDBRANCH   7   8
ENDBRANCH   6   7
ENDBRANCH   1   6
TORSDOF 5
ENDMDL
MODEL 5
REMARK VINA RESULT:    -3.370     21.817     22.604
REMARK INTER + INTRA:          -4.479
REMARK INTER:                  -4.056
REMARK INTRA:                  -0.423
REMARK UNBOUND:                -0.124
REMARK SMILES CCCCCCC(=O)[O-]
REMARK SMILES IDX 5 1 6 2 7 3 8 4 9 5 4 6 3 7 2 8 1 9
REMARK H PARENT
REMARK Flexibility Score: inf
ROOT
ATOM      1  C   UNL     1      25.158  27.679 -16.450  1.00  0.00     0.006 C 
ENDROOT
BRANCH   1   2
ATOM      2  C   UNL     1      24.972  29.097 -15.892  1.00  0.00     0.053 C 
BRANCH   2   3
ATOM      3  C   UNL     1      24.608  30.073 -16.968  1.00  0.00     0.041 C 
ATOM      4  O   UNL     1      25.046  31.253 -16.927  1.00  0.00    -0.550 OA
ATOM      5  O   UNL     1      23.757  29.691 -17.997  1.00  0.00    -0.550 OA
ENDBRANCH   2   3
ENDBRANCH   1   2
BRANCH   1   6
ATOM      6  C   UNL     1      26.522  27.502 -17.140  1.00  0.00     0.000 C 
BRANCH   6   7
ATOM      7  C   UNL     1      26.395  27.313 -18.660  1.00  0.00    -0.000 C 
BRANCH   7   8
ATOM      8  C   UNL     1      27.282  28.284 -19.451  1.00  0.00    -0.003 C 
ATOM      9  C   UNL     1      27.904  29.333 -18.533  1.00  0.00     0.004 C 
ENDBRANCH   7   8
ENDBRANCH   6   7
ENDBRANCH   1   6
TORSDOF 5
ENDMDL
MODEL 6
REMARK VINA RESULT:    -3.352      3.518      5.547
REMARK INTER + INTRA:          -4.456
REMARK INTER:                  -4.325
REMARK INTRA:                  -0.131
REMARK UNBOUND:                -0.124
REMARK SMILES CCCCCCC(=O)[O-]
REMARK SMILES IDX 5 1 6 2 7 3 8 4 9 5 4 6 3 7 2 8 1 9
REMARK H PARENT
REMARK Flexibility Score: inf
ROOT
ATOM      1  C   UNL     1      34.991  14.296  -3.671  1.00  0.00     0.006 C 
ENDROOT
BRANCH   1   2
ATOM      2  C   UNL     1      36.293  14.958  -4.144  1.00  0.00     0.053 C 
BRANCH   2   3
ATOM      3  C   UNL     1      37.496  14.338  -3.503  1.00  0.00     0.041 C 
ATOM      4  O   UNL     1      38.502  15.044  -3.227  1.00  0.00    -0.550 OA
ATOM      5  O   UNL     1      37.521  12.974  -3.242  1.00  0.00    -0.550 OA
ENDBRANCH   2   3
ENDBRANCH   1   2
BRANCH   1   6
ATOM      6  C   UNL     1      34.576  14.770  -2.267  1.00  0.00     0.000 C 
BRANCH   6   7
ATOM      7  C   UNL     1      33.427  13.937  -1.678  1.00  0.00    -0.000 C 
BRANCH   7   8
ATOM      8  C   UNL     1      32.973  14.447  -0.303  1.00  0.00    -0.003 C 
ATOM      9  C   UNL     1      31.735  15.330  -0.426  1.00  0.00     0.004 C 
ENDBRANCH   7   8
ENDBRANCH   6   7
ENDBRANCH   1   6
TORSDOF 5
ENDMDL
MODEL 7
REMARK VINA RESULT:    -3.290     14.475     15.714
REMARK INTER + INTRA:          -4.375
REMARK INTER:                  -4.189
REMARK INTRA:                  -0.187
REMARK UNBOUND:                -0.124
REMARK SMILES CCCCCCC(=O)[O-]
REMARK SMILES IDX 5 1 6 2 7 3 8 4 9 5 4 6 3 7 2 8 1 9
REMARK H PARENT
REMARK Flexibility Score: inf
ROOT
ATOM      1  C   UNL     1      34.280  15.642 -17.935  1.00  0.00     0.006 C 
ENDROOT
BRANCH   1   2
ATOM      2  C   UNL     1      34.609  17.141 -17.903  1.00  0.00     0.053 C 
BRANCH   2   3
ATOM      3  C   UNL     1      33.585  17.949 -18.641  1.00  0.00     0.041 C 
ATOM      4  O   UNL     1      32.996  17.464 -19.642  1.00  0.00    -0.550 OA
ATOM      5  O   UNL     1      33.309  19.251 -18.244  1.00  0.00    -0.550 OA
ENDBRANCH   2   3
ENDBRANCH   1   2
BRANCH   1   6
ATOM      6  C   UNL     1      34.718  14.925 -16.645  1.00  0.00     0.000 C 
BRANCH   6   7
ATOM      7  C   UNL     1      33.611  14.034 -16.060  1.00  0.00    -0.000 C 
BRANCH   7   8
ATOM      8  C   UNL     1      32.249  14.270 -16.727  1.00  0.00    -0.003 C 
ATOM      9  C   UNL     1      31.110  14.110 -15.724  1.00  0.00     0.004 C 
ENDBRANCH   7   8
ENDBRANCH   6   7
ENDBRANCH   1   6
TORSDOF 5
ENDMDL
MODEL 8
REMARK VINA RESULT:    -3.212     21.519     22.555
REMARK INTER + INTRA:          -4.275
REMARK INTER:                  -4.085
REMARK INTRA:                  -0.190
REMARK UNBOUND:                -0.124
REMARK SMILES CCCCCCC(=O)[O-]
REMARK SMILES IDX 5 1 6 2 7 3 8 4 9 5 4 6 3 7 2 8 1 9
REMARK H PARENT
REMARK Flexibility Score: inf
ROOT
ATOM      1  C   UNL     1      27.842  28.395 -18.099  1.00  0.00     0.006 C 
ENDROOT
BRANCH   1   2
ATOM      2  C   UNL     1      26.646  27.520 -18.500  1.00  0.00     0.053 C 
BRANCH   2   3
ATOM      3  C   UNL     1      25.571  27.535 -17.457  1.00  0.00     0.041 C 
ATOM      4  O   UNL     1      25.873  27.463 -16.236  1.00  0.00    -0.550 OA
ATOM      5  O   UNL     1      24.236  27.592 -17.833  1.00  0.00    -0.550 OA
ENDBRANCH   2   3
ENDBRANCH   1   2
BRANCH   1   6
ATOM      6  C   UNL     1      27.870  29.727 -18.868  1.00  0.00     0.000 C 
BRANCH   6   7
ATOM      7  C   UNL     1      27.438  30.920 -18.001  1.00  0.00    -0.000 C 
BRANCH   7   8
ATOM      8  C   UNL     1      28.488  32.039 -17.972  1.00  0.00    -0.003 C 
ATOM      9  C   UNL     1      29.797  31.548 -17.358  1.00  0.00     0.004 C 
ENDBRANCH   7   8
ENDBRANCH   6   7
ENDBRANCH   1   6
TORSDOF 5
ENDMDL
MODEL 9
REMARK VINA RESULT:    -3.095     22.023     23.122
REMARK INTER + INTRA:          -4.124
REMARK INTER:                  -3.829
REMARK INTRA:                  -0.295
REMARK UNBOUND:                -0.124
REMARK SMILES CCCCCCC(=O)[O-]
REMARK SMILES IDX 5 1 6 2 7 3 8 4 9 5 4 6 3 7 2 8 1 9
REMARK H PARENT
REMARK Flexibility Score: inf
ROOT
ATOM      1  C   UNL     1      26.868  28.119 -18.509  1.00  0.00     0.006 C 
ENDROOT
BRANCH   1   2
ATOM      2  C   UNL     1      28.030  29.107 -18.329  1.00  0.00     0.053 C 
BRANCH   2   3
ATOM      3  C   UNL     1      27.601  30.521 -18.574  1.00  0.00     0.041 C 
ATOM      4  O   UNL     1      28.458  31.441 -18.635  1.00  0.00    -0.550 OA
ATOM      5  O   UNL     1      26.252  30.827 -18.698  1.00  0.00    -0.550 OA
ENDBRANCH   2   3
ENDBRANCH   1   2
BRANCH   1   6
ATOM      6  C   UNL     1      26.435  27.483 -17.177  1.00  0.00     0.000 C 
BRANCH   6   7
ATOM      7  C   UNL     1      25.016  27.898 -16.757  1.00  0.00    -0.000 C 
BRANCH   7   8
ATOM      8  C   UNL     1      24.086  28.116 -17.958  1.00  0.00    -0.003 C 
ATOM      9  C   UNL     1      23.399  26.814 -18.365  1.00  0.00     0.004 C 
ENDBRANCH   7   8
ENDBRANCH   6   7
ENDBRANCH   1   6
TORSDOF 5
ENDMDL
