MODEL 1
REMARK VINA RESULT:    -5.373      0.000      0.000
REMARK INTER + INTRA:         -11.472
REMARK INTER:                 -10.398
REMARK INTRA:                  -1.073
REMARK UNBOUND:                -1.073
REMARK SMILES CCCCCCCCCCCCCCCCCC(=O)[O-]
REMARK SMILES IDX 10 1 11 2 12 3 13 4 14 5 15 6 16 7 17 8 18 9 19 10 20 11
REMARK SMILES IDX 9 12 8 13 7 14 6 15 5 16 4 17 3 18 2 19 1 20
REMARK H PARENT
REMARK Flexibility Score: inf
ROOT
ATOM      1  C   UNL     1      47.178  34.251  11.773  1.00  0.00     0.000 C 
ENDROOT
BRANCH   1   2
ATOM      2  C   UNL     1      48.601  34.000  12.297  1.00  0.00     0.000 C 
BRANCH   2   3
ATOM      3  C   UNL     1      48.816  34.559  13.714  1.00  0.00     0.000 C 
BRANCH   3   4
ATOM      4  C   UNL     1      48.489  33.529  14.809  1.00  0.00     0.000 C 
BRANCH   4   5
ATOM      5  C   UNL     1      47.443  34.047  15.809  1.00  0.00     0.000 C 
BRANCH   5   6
ATOM      6  C   UNL     1      47.889  33.871  17.271  1.00  0.00     0.000 C 
BRANCH   6   7
ATOM      7  C   UNL     1      48.693  32.580  17.491  1.00  0.00     0.006 C 
BRANCH   7   8
ATOM      8  C   UNL     1      47.861  31.472  18.150  1.00  0.00     0.053 C 
BRANCH   8   9
ATOM      9  C   UNL     1      47.938  30.214  17.347  1.00  0.00     0.041 C 
ATOM     10  O   UNL     1      47.896  29.091  17.919  1.00  0.00    -0.550 OA
ATOM     11  O   UNL     1      48.002  30.279  15.959  1.00  0.00    -0.550 OA
ENDBRANCH   8   9
ENDBRANCH   7   8
ENDBRANCH   6   7
ENDBRANCH   5   6
ENDBRANCH   4   5
ENDBRANCH   3   4
ENDBRANCH   2   3
ENDBRANCH   1   2
BRANCH   1  12
ATOM     12  C   UNL     1      46.524  35.427  12.509  1.00  0.00     0.000 C 
BRANCH  12  13
ATOM     13  C   UNL     1      44.995  35.324  12.462  1.00  0.00    -0.000 C 
BRANCH  13  14
ATOM     14  C   UNL     1      44.342  36.641  12.907  1.00  0.00    -0.000 C 
BRANCH  14  15
ATOM     15  C   UNL     1      43.290  37.149  11.908  1.00  0.00    -0.000 C 
BRANCH  15  16
ATOM     16  C   UNL     1      42.071  36.219  11.808  1.00  0.00    -0.000 C 
BRANCH  16  17
ATOM     17  C   UNL     1      41.787  35.841  10.349  1.00  0.00    -0.000 C 
BRANCH  17  18
ATOM     18  C   UNL     1      40.640  34.826  10.256  1.00  0.00    -0.000 C 
BRANCH  18  19
ATOM     19  C   UNL     1      39.423  35.296  11.062  1.00  0.00    -0.003 C 
ATOM     20  C   UNL     1      38.955  34.216  12.034  1.00  0.00     0.004 C 
ENDBRANCH  18  19
ENDBRANCH  17  18
ENDBRANCH  16  17
ENDBRANCH  15  16
ENDBRANCH  14  15
ENDBRANCH  13  14
ENDBRANCH  12  13
ENDBRANCH   1  12
TORSDOF 16
ENDMDL
MODEL 2
REMARK VINA RESULT:    -5.346      1.972      2.863
REMARK INTER + INTRA:         -11.419
REMARK INTER:                  -9.990
REMARK INTRA:                  -1.430
REMARK UNBOUND:                -1.073
REMARK SMILES CCCCCCCCCCCCCCCCCC(=O)[O-]
REMARK SMILES IDX 10 1 11 2 12 3 13 4 14 5 15 6 16 7 17 8 18 9 19 10 20 11
REMARK SMILES IDX 9 12 8 13 7 14 6 15 5 16 4 17 3 18 2 19 1 20
REMARK H PARENT
REMARK Flexibility Score: inf
ROOT
ATOM      1  C   UNL     1      45.049  35.407  12.864  1.00  0.00     0.000 C 
ENDROOT
BRANCH   1   2
ATOM      2  C   UNL     1      46.507  35.740  12.509  1.00  0.00     0.000 C 
BRANCH   2   3
ATOM      3  C   UNL     1      47.395  34.487  12.424  1.00  0.00     0.000 C 
BRANCH   3   4
ATOM      4  C   UNL     1      48.571  34.530  13.416  1.00  0.00     0.000 C 
BRANCH   4   5
ATOM      5  C   UNL     1      48.452  33.463  14.515  1.00  0.00     0.000 C 
BRANCH   5   6
ATOM      6  C   UNL     1      47.533  33.904  15.668  1.00  0.00     0.000 C 
BRANCH   6   7
ATOM      7  C   UNL     1      48.279  34.008  17.008  1.00  0.00     0.006 C 
BRANCH   7   8
ATOM      8  C   UNL     1      49.176  32.792  17.278  1.00  0.00     0.053 C 
BRANCH   8   9
ATOM      9  C   UNL     1      48.349  31.613  17.678  1.00  0.00     0.041 C 
ATOM     10  O   UNL     1      47.636  31.661  18.716  1.00  0.00    -0.550 OA
ATOM     11  O   UNL     1      48.321  30.479  16.875  1.00  0.00    -0.550 OA
ENDBRANCH   8   9
ENDBRANCH   7   8
ENDBRANCH   6   7
ENDBRANCH   5   6
ENDBRANCH   4   5
ENDBRANCH   3   4
ENDBRANCH   2   3
ENDBRANCH   1   2
BRANCH   1  12
ATOM     12  C   UNL     1      44.128  36.597  12.566  1.00  0.00     0.000 C 
BRANCH  12  13
ATOM     13  C   UNL     1      42.910  36.157  11.744  1.00  0.00    -0.000 C 
BRANCH  13  14
ATOM     14  C   UNL     1      42.427  37.292  10.829  1.00  0.00    -0.000 C 
BRANCH  14  15
ATOM     15  C   UNL     1      42.998  38.661  11.231  1.00  0.00    -0.000 C 
BRANCH  15  16
ATOM     16  C   UNL     1      41.903  39.711  11.476  1.00  0.00    -0.000 C 
BRANCH  16  17
ATOM     17  C   UNL     1      40.549  39.041  11.738  1.00  0.00    -0.000 C 
BRANCH  17  18
ATOM     18  C   UNL     1      39.876  39.629  12.986  1.00  0.00    -0.000 C 
BRANCH  18  19
ATOM     19  C   UNL     1      40.263  38.840  14.242  1.00  0.00    -0.003 C 
ATOM     20  C   UNL     1      40.340  37.343  13.954  1.00  0.00     0.004 C 
ENDBRANCH  18  19
ENDBRANCH  17  18
ENDBRANCH  16  17
ENDBRANCH  15  16
ENDBRANCH  14  15
ENDBRANCH  13  14
ENDBRANCH  12  13
ENDBRANCH   1  12
TORSDOF 16
ENDMDL
MODEL 3
REMARK VINA RESULT:    -5.252      3.891      8.826
REMARK INTER + INTRA:         -11.239
REMARK INTER:                  -9.820
REMARK INTRA:                  -1.419
REMARK UNBOUND:                -1.073
REMARK SMILES CCCCCCCCCCCCCCCCCC(=O)[O-]
REMARK SMILES IDX 10 1 11 2 12 3 13 4 14 5 15 6 16 7 17 8 18 9 19 10 20 11
REMARK SMILES IDX 9 12 8 13 7 14 6 15 5 16 4 17 3 18 2 19 1 20
REMARK H PARENT
REMARK Flexibility Score: inf
ROOT
ATOM      1  C   UNL     1      43.047  36.449  12.524  1.00  0.00     0.000 C 
ENDROOT
BRANCH   1   2
ATOM      2  C   UNL     1      42.969  37.621  11.532  1.00  0.00     0.000 C 
BRANCH   2   3
ATOM      3  C   UNL     1      42.135  37.285  10.285  1.00  0.00     0.000 C 
BRANCH   3   4
ATOM      4  C   UNL     1      41.822  35.782  10.173  1.00  0.00     0.000 C 
BRANCH   4   5
ATOM      5  C   UNL     1      40.313  35.496  10.156  1.00  0.00     0.000 C 
BRANCH   5   6
ATOM      6  C   UNL     1      39.884  34.532  11.278  1.00  0.00     0.000 C 
BRANCH   6   7
ATOM      7  C   UNL     1      39.603  35.259  12.602  1.00  0.00     0.006 C 
BRANCH   7   8
ATOM      8  C   UNL     1      39.112  36.697  12.392  1.00  0.00     0.053 C 
BRANCH   8   9
ATOM      9  C   UNL     1      39.224  37.477  13.663  1.00  0.00     0.041 C 
ATOM     10  O   UNL     1      40.356  37.709  14.168  1.00  0.00    -0.550 OA
ATOM     11  O   UNL     1      38.082  37.996  14.263  1.00  0.00    -0.550 OA
ENDBRANCH   8   9
ENDBRANCH   7   8
ENDBRANCH   6   7
ENDBRANCH   5   6
ENDBRANCH   4   5
ENDBRANCH   3   4
ENDBRANCH   2   3
ENDBRANCH   1   2
BRANCH   1  12
ATOM     12  C   UNL     1      44.476  36.276  13.055  1.00  0.00     0.000 C 
BRANCH  12  13
ATOM     13  C   UNL     1      45.276  35.307  12.176  1.00  0.00    -0.000 C 
BRANCH  13  14
ATOM     14  C   UNL     1      46.734  35.212  12.651  1.00  0.00    -0.000 C 
BRANCH  14  15
ATOM     15  C   UNL     1      47.574  34.250  11.796  1.00  0.00    -0.000 C 
BRANCH  15  16
ATOM     16  C   UNL     1      48.801  33.709  12.547  1.00  0.00    -0.000 C 
BRANCH  16  17
ATOM     17  C   UNL     1      48.837  34.231  13.988  1.00  0.00    -0.000 C 
BRANCH  17  18
ATOM     18  C   UNL     1      48.467  33.124  14.984  1.00  0.00    -0.000 C 
BRANCH  18  19
ATOM     19  C   UNL     1      47.841  33.712  16.254  1.00  0.00    -0.003 C 
ATOM     20  C   UNL     1      48.915  34.150  17.247  1.00  0.00     0.004 C 
ENDBRANCH  18  19
ENDBRANCH  17  18
ENDBRANCH  16  17
ENDBRANCH  15  16
ENDBRANCH  14  15
ENDBRANCH  13  14
ENDBRANCH  12  13
ENDBRANCH   1  12
TORSDOF 16
ENDMDL
MODEL 4
REMARK VINA RESULT:    -5.242      5.288      8.155
REMARK INTER + INTRA:         -11.218
REMARK INTER:                 -10.042
REMARK INTRA:                  -1.176
REMARK UNBOUND:                -1.073
REMARK SMILES CCCCCCCCCCCCCCCCCC(=O)[O-]
REMARK SMILES IDX 10 1 11 2 12 3 13 4 14 5 15 6 16 7 17 8 18 9 19 10 20 11
REMARK SMILES IDX 9 12 8 13 7 14 6 15 5 16 4 17 3 18 2 19 1 20
REMARK H PARENT
REMARK Flexibility Score: inf
ROOT
ATOM      1  C   UNL     1      49.585  29.946  16.649  1.00  0.00     0.000 C 
ENDROOT
BRANCH   1   2
ATOM      2  C   UNL     1      49.684  28.461  16.268  1.00  0.00     0.000 C 
BRANCH   2   3
ATOM      3  C   UNL     1      48.837  27.559  17.181  1.00  0.00     0.000 C 
BRANCH   3   4
ATOM      4  C   UNL     1      48.820  26.094  16.712  1.00  0.00     0.000 C 
BRANCH   4   5
ATOM      5  C   UNL     1      47.929  25.882  15.479  1.00  0.00     0.000 C 
BRANCH   5   6
ATOM      6  C   UNL     1      48.661  25.149  14.341  1.00  0.00     0.000 C 
BRANCH   6   7
ATOM      7  C   UNL     1      49.369  26.116  13.378  1.00  0.00     0.006 C 
BRANCH   7   8
ATOM      8  C   UNL     1      49.305  25.644  11.919  1.00  0.00     0.053 C 
BRANCH   8   9
ATOM      9  C   UNL     1      50.681  25.551  11.341  1.00  0.00     0.041 C 
ATOM     10  O   UNL     1      50.888  25.867  10.139  1.00  0.00    -0.550 OA
ATOM     11  O   UNL     1      51.748  25.166  12.146  1.00  0.00    -0.550 OA
ENDBRANCH   8   9
ENDBRANCH   7   8
ENDBRANCH   6   7
ENDBRANCH   5   6
ENDBRANCH   4   5
ENDBRANCH   3   4
ENDBRANCH   2   3
ENDBRANCH   1   2
BRANCH   1  12
ATOM     12  C   UNL     1      48.125  30.355  16.883  1.00  0.00     0.000 C 
BRANCH  12  13
ATOM     13  C   UNL     1      48.033  31.537  17.855  1.00  0.00    -0.000 C 
BRANCH  13  14
ATOM     14  C   UNL     1      48.950  32.686  17.410  1.00  0.00    -0.000 C 
BRANCH  14  15
ATOM     15  C   UNL     1      48.168  33.926  16.952  1.00  0.00    -0.000 C 
BRANCH  15  16
ATOM     16  C   UNL     1      47.492  33.729  15.585  1.00  0.00    -0.000 C 
BRANCH  16  17
ATOM     17  C   UNL     1      48.503  33.249  14.537  1.00  0.00    -0.000 C 
BRANCH  17  18
ATOM     18  C   UNL     1      48.828  34.365  13.535  1.00  0.00    -0.000 C 
BRANCH  18  19
ATOM     19  C   UNL     1      48.713  33.860  12.092  1.00  0.00    -0.003 C 
ATOM     20  C   UNL     1      50.091  33.618  11.481  1.00  0.00     0.004 C 
ENDBRANCH  18  19
ENDBRANCH  17  18
ENDBRANCH  16  17
ENDBRANCH  15  16
ENDBRANCH  14  15
ENDBRANCH  13  14
ENDBRANCH  12  13
ENDBRANCH   1  12
TORSDOF 16
ENDMDL
MODEL 5
REMARK VINA RESULT:    -5.239      4.960      9.775
REMARK INTER + INTRA:         -11.213
REMARK INTER:                  -9.966
REMARK INTRA:                  -1.247
REMARK UNBOUND:                -1.073
REMARK SMILES CCCCCCCCCCCCCCCCCC(=O)[O-]
REMARK SMILES IDX 10 1 11 2 12 3 13 4 14 5 15 6 16 7 17 8 18 9 19 10 20 11
REMARK SMILES IDX 9 12 8 13 7 14 6 15 5 16 4 17 3 18 2 19 1 20
REMARK H PARENT
REMARK Flexibility Score: inf
ROOT
ATOM      1  C   UNL     1      48.256  30.527  17.351  1.00  0.00     0.000 C 
ENDROOT
BRANCH   1   2
ATOM      2  C   UNL     1      48.163  31.901  18.035  1.00  0.00     0.000 C 
BRANCH   2   3
ATOM      3  C   UNL     1      49.320  32.835  17.642  1.00  0.00     0.000 C 
BRANCH   3   4
ATOM      4  C   UNL     1      48.829  34.136  16.982  1.00  0.00     0.000 C 
BRANCH   4   5
ATOM      5  C   UNL     1      47.744  33.884  15.924  1.00  0.00     0.000 C 
BRANCH   5   6
ATOM      6  C   UNL     1      48.306  33.241  14.644  1.00  0.00     0.000 C 
BRANCH   6   7
ATOM      7  C   UNL     1      48.880  34.279  13.667  1.00  0.00     0.006 C 
BRANCH   7   8
ATOM      8  C   UNL     1      48.140  34.294  12.323  1.00  0.00     0.053 C 
BRANCH   8   9
ATOM      9  C   UNL     1      49.001  33.712  11.248  1.00  0.00     0.041 C 
ATOM     10  O   UNL     1      48.478  33.221  10.211  1.00  0.00    -0.550 OA
ATOM     11  O   UNL     1      50.386  33.761  11.364  1.00  0.00    -0.550 OA
ENDBRANCH   8   9
ENDBRANCH   7   8
ENDBRANCH   6   7
ENDBRANCH   5   6
ENDBRANCH   4   5
ENDBRANCH   3   4
ENDBRANCH   2   3
ENDBRANCH   1   2
BRANCH   1  12
ATOM     12  C   UNL     1      49.604  30.361  16.638  1.00  0.00     0.000 C 
BRANCH  12  13
ATOM     13  C   UNL     1      49.790  28.922  16.141  1.00  0.00    -0.000 C 
BRANCH  13  14
ATOM     14  C   UNL     1      48.746  27.986  16.767  1.00  0.00    -0.000 C 
BRANCH  14  15
ATOM     15  C   UNL     1      48.816  26.559  16.202  1.00  0.00    -0.000 C 
BRANCH  15  16
ATOM     16  C   UNL     1      49.360  25.544  17.220  1.00  0.00    -0.000 C 
BRANCH  16  17
ATOM     17  C   UNL     1      48.346  25.298  18.344  1.00  0.00    -0.000 C 
BRANCH  17  18
ATOM     18  C   UNL     1      49.017  25.395  19.721  1.00  0.00    -0.000 C 
BRANCH  18  19
ATOM     19  C   UNL     1      48.358  26.479  20.580  1.00  0.00    -0.003 C 
ATOM     20  C   UNL     1      48.828  26.398  22.030  1.00  0.00     0.004 C 
ENDBRANCH  18  19
ENDBRANCH  17  18
ENDBRANCH  16  17
ENDBRANCH  15  16
ENDBRANCH  14  15
ENDBRANCH  13  14
ENDBRANCH  12  13
ENDBRANCH   1  12
TORSDOF 16
ENDMDL
MODEL 6
REMARK VINA RESULT:    -5.233      1.828      3.369
REMARK INTER + INTRA:         -11.200
REMARK INTER:                  -9.944
REMARK INTRA:                  -1.256
REMARK UNBOUND:                -1.073
REMARK SMILES CCCCCCCCCCCCCCCCCC(=O)[O-]
REMARK SMILES IDX 10 1 11 2 12 3 13 4 14 5 15 6 16 7 17 8 18 9 19 10 20 11
REMARK SMILES IDX 9 12 8 13 7 14 6 15 5 16 4 17 3 18 2 19 1 20
REMARK H PARENT
REMARK Flexibility Score: inf
ROOT
ATOM      1  C   UNL     1      48.533  33.326  14.487  1.00  0.00     0.000 C 
ENDROOT
BRANCH   1   2
ATOM      2  C   UNL     1      47.851  33.905  15.736  1.00  0.00     0.000 C 
BRANCH   2   3
ATOM      3  C   UNL     1      48.747  33.833  16.984  1.00  0.00     0.000 C 
BRANCH   3   4
ATOM      4  C   UNL     1      49.086  32.386  17.384  1.00  0.00     0.000 C 
BRANCH   4   5
ATOM      5  C   UNL     1      47.863  31.620  17.909  1.00  0.00     0.000 C 
BRANCH   5   6
ATOM      6  C   UNL     1      47.884  30.133  17.513  1.00  0.00     0.000 C 
BRANCH   6   7
ATOM      7  C   UNL     1      47.274  29.884  16.125  1.00  0.00     0.006 C 
BRANCH   7   8
ATOM      8  C   UNL     1      48.340  29.718  15.033  1.00  0.00     0.053 C 
BRANCH   8   9
ATOM      9  C   UNL     1      49.427  28.805  15.502  1.00  0.00     0.041 C 
ATOM     10  O   UNL     1      49.258  27.557  15.489  1.00  0.00    -0.550 OA
ATOM     11  O   UNL     1      50.651  29.331  15.902  1.00  0.00    -0.550 OA
ENDBRANCH   8   9
ENDBRANCH   7   8
ENDBRANCH   6   7
ENDBRANCH   5   6
ENDBRANCH   4   5
ENDBRANCH   3   4
ENDBRANCH   2   3
ENDBRANCH   1   2
BRANCH   1  12
ATOM     12  C   UNL     1      48.733  34.410  13.420  1.00  0.00     0.000 C 
BRANCH  12  13
ATOM     13  C   UNL     1      47.533  34.471  12.466  1.00  0.00    -0.000 C 
BRANCH  13  14
ATOM     14  C   UNL     1      46.684  35.723  12.732  1.00  0.00    -0.000 C 
BRANCH  14  15
ATOM     15  C   UNL     1      45.181  35.415  12.809  1.00  0.00    -0.000 C 
BRANCH  15  16
ATOM     16  C   UNL     1      44.307  36.636  12.481  1.00  0.00    -0.000 C 
BRANCH  16  17
ATOM     17  C   UNL     1      42.888  36.206  12.089  1.00  0.00    -0.000 C 
BRANCH  17  18
ATOM     18  C   UNL     1      42.259  37.209  11.113  1.00  0.00    -0.000 C 
BRANCH  18  19
ATOM     19  C   UNL     1      43.031  38.533  11.111  1.00  0.00    -0.003 C 
ATOM     20  C   UNL     1      42.112  39.708  11.436  1.00  0.00     0.004 C 
ENDBRANCH  18  19
ENDBRANCH  17  18
ENDBRANCH  16  17
ENDBRANCH  15  16
ENDBRANCH  14  15
ENDBRANCH  13  14
ENDBRANCH  12  13
ENDBRANCH   1  12
TORSDOF 16
ENDMDL
MODEL 7
REMARK VINA RESULT:    -5.193      6.800     12.177
REMARK INTER + INTRA:         -11.124
REMARK INTER:                  -8.749
REMARK INTRA:                  -2.375
REMARK UNBOUND:                -1.073
REMARK SMILES CCCCCCCCCCCCCCCCCC(=O)[O-]
REMARK SMILES IDX 10 1 11 2 12 3 13 4 14 5 15 6 16 7 17 8 18 9 19 10 20 11
REMARK SMILES IDX 9 12 8 13 7 14 6 15 5 16 4 17 3 18 2 19 1 20
REMARK H PARENT
REMARK Flexibility Score: inf
ROOT
ATOM      1  C   UNL     1      48.500  26.594  19.353  1.00  0.00     0.000 C 
ENDROOT
BRANCH   1   2
ATOM      2  C   UNL     1      48.901  25.265  18.692  1.00  0.00     0.000 C 
BRANCH   2   3
ATOM      3  C   UNL     1      48.906  25.348  17.156  1.00  0.00     0.000 C 
BRANCH   3   4
ATOM      4  C   UNL     1      48.714  26.786  16.643  1.00  0.00     0.000 C 
BRANCH   4   5
ATOM      5  C   UNL     1      49.877  27.253  15.755  1.00  0.00     0.000 C 
BRANCH   5   6
ATOM      6  C   UNL     1      50.306  28.699  16.058  1.00  0.00     0.000 C 
BRANCH   6   7
ATOM      7  C   UNL     1      49.110  29.620  16.346  1.00  0.00     0.006 C 
BRANCH   7   8
ATOM      8  C   UNL     1      49.530  30.944  16.999  1.00  0.00     0.053 C 
BRANCH   8   9
ATOM      9  C   UNL     1      48.327  31.778  17.306  1.00  0.00     0.041 C 
ATOM     10  O   UNL     1      47.724  31.642  18.404  1.00  0.00    -0.550 OA
ATOM     11  O   UNL     1      47.903  32.745  16.402  1.00  0.00    -0.550 OA
ENDBRANCH   8   9
ENDBRANCH   7   8
ENDBRANCH   6   7
ENDBRANCH   5   6
ENDBRANCH   4   5
ENDBRANCH   3   4
ENDBRANCH   2   3
ENDBRANCH   1   2
BRANCH   1  12
ATOM     12  C   UNL     1      48.382  26.434  20.874  1.00  0.00     0.000 C 
BRANCH  12  13
ATOM     13  C   UNL     1      49.154  25.202  21.360  1.00  0.00    -0.000 C 
BRANCH  13  14
ATOM     14  C   UNL     1      49.954  25.522  22.632  1.00  0.00    -0.000 C 
BRANCH  14  15
ATOM     15  C   UNL     1      50.322  27.010  22.742  1.00  0.00    -0.000 C 
BRANCH  15  16
ATOM     16  C   UNL     1      51.803  27.279  22.431  1.00  0.00    -0.000 C 
BRANCH  16  17
ATOM     17  C   UNL     1      52.556  25.968  22.174  1.00  0.00    -0.000 C 
BRANCH  17  18
ATOM     18  C   UNL     1      53.296  26.012  20.830  1.00  0.00    -0.000 C 
BRANCH  18  19
ATOM     19  C   UNL     1      52.334  25.763  19.663  1.00  0.00    -0.003 C 
ATOM     20  C   UNL     1      52.231  26.990  18.761  1.00  0.00     0.004 C 
ENDBRANCH  18  19
ENDBRANCH  17  18
ENDBRANCH  16  17
ENDBRANCH  15  16
ENDBRANCH  14  15
ENDBRANCH  13  14
ENDBRANCH  12  13
ENDBRANCH   1  12
TORSDOF 16
ENDMDL
MODEL 8
REMARK VINA RESULT:    -5.191      7.091     12.098
REMARK INTER + INTRA:         -11.119
REMARK INTER:                  -8.470
REMARK INTRA:                  -2.649
REMARK UNBOUND:                -1.073
REMARK SMILES CCCCCCCCCCCCCCCCCC(=O)[O-]
REMARK SMILES IDX 10 1 11 2 12 3 13 4 14 5 15 6 16 7 17 8 18 9 19 10 20 11
REMARK SMILES IDX 9 12 8 13 7 14 6 15 5 16 4 17 3 18 2 19 1 20
REMARK H PARENT
REMARK Flexibility Score: inf
ROOT
ATOM      1  C   UNL     1      48.473  26.643  19.882  1.00  0.00     0.000 C 
ENDROOT
BRANCH   1   2
ATOM      2  C   UNL     1      48.992  25.210  19.681  1.00  0.00     0.000 C 
BRANCH   2   3
ATOM      3  C   UNL     1      49.420  24.936  18.229  1.00  0.00     0.000 C 
BRANCH   3   4
ATOM      4  C   UNL     1      48.472  25.581  17.203  1.00  0.00     0.000 C 
BRANCH   4   5
ATOM      5  C   UNL     1      49.208  26.060  15.943  1.00  0.00     0.000 C 
BRANCH   5   6
ATOM      6  C   UNL     1      48.954  27.547  15.641  1.00  0.00     0.000 C 
BRANCH   6   7
ATOM      7  C   UNL     1      49.246  28.451  16.849  1.00  0.00     0.006 C 
BRANCH   7   8
ATOM      8  C   UNL     1      48.115  29.451  17.123  1.00  0.00     0.053 C 
BRANCH   8   9
ATOM      9  C   UNL     1      48.593  30.851  16.907  1.00  0.00     0.041 C 
ATOM     10  O   UNL     1      47.781  31.755  16.573  1.00  0.00    -0.550 OA
ATOM     11  O   UNL     1      49.928  31.171  17.129  1.00  0.00    -0.550 OA
ENDBRANCH   8   9
ENDBRANCH   7   8
ENDBRANCH   6   7
ENDBRANCH   5   6
ENDBRANCH   4   5
ENDBRANCH   3   4
ENDBRANCH   2   3
ENDBRANCH   1   2
BRANCH   1  12
ATOM     12  C   UNL     1      48.136  26.902  21.356  1.00  0.00     0.000 C 
BRANCH  12  13
ATOM     13  C   UNL     1      49.155  26.224  22.280  1.00  0.00    -0.000 C 
BRANCH  13  14
ATOM     14  C   UNL     1      50.078  27.262  22.935  1.00  0.00    -0.000 C 
BRANCH  14  15
ATOM     15  C   UNL     1      51.531  27.157  22.444  1.00  0.00    -0.000 C 
BRANCH  15  16
ATOM     16  C   UNL     1      51.918  25.725  22.041  1.00  0.00    -0.000 C 
BRANCH  16  17
ATOM     17  C   UNL     1      52.600  25.707  20.668  1.00  0.00    -0.000 C 
BRANCH  17  18
ATOM     18  C   UNL     1      52.732  27.127  20.100  1.00  0.00    -0.000 C 
BRANCH  18  19
ATOM     19  C   UNL     1      52.217  27.193  18.658  1.00  0.00    -0.003 C 
ATOM     20  C   UNL     1      52.806  28.390  17.916  1.00  0.00     0.004 C 
ENDBRANCH  18  19
ENDBRANCH  17  18
ENDBRANCH  16  17
ENDBRANCH  15  16
ENDBRANCH  14  15
ENDBRANCH  13  14
ENDBRANCH  12  13
ENDBRANCH   1  12
TORSDOF 16
ENDMDL
MODEL 9
REMARK VINA RESULT:    -5.186      1.595      3.211
REMARK INTER + INTRA:         -11.109
REMARK INTER:                  -9.473
REMARK INTRA:                  -1.636
REMARK UNBOUND:                -1.073
REMARK SMILES CCCCCCCCCCCCCCCCCC(=O)[O-]
REMARK SMILES IDX 10 1 11 2 12 3 13 4 14 5 15 6 16 7 17 8 18 9 19 10 20 11
REMARK SMILES IDX 9 12 8 13 7 14 6 15 5 16 4 17 3 18 2 19 1 20
REMARK H PARENT
REMARK Flexibility Score: inf
ROOT
ATOM      1  C   UNL     1      44.404  36.620  12.767  1.00  0.00     0.000 C 
ENDROOT
BRANCH   1   2
ATOM      2  C   UNL     1      45.217  35.407  13.245  1.00  0.00     0.000 C 
BRANCH   2   3
ATOM      3  C   UNL     1      46.308  34.995  12.242  1.00  0.00     0.000 C 
BRANCH   3   4
ATOM      4  C   UNL     1      47.719  35.042  12.854  1.00  0.00     0.000 C 
BRANCH   4   5
ATOM      5  C   UNL     1      48.309  33.641  13.077  1.00  0.00     0.000 C 
BRANCH   5   6
ATOM      6  C   UNL     1      48.791  33.429  14.523  1.00  0.00     0.000 C 
BRANCH   6   7
ATOM      7  C   UNL     1      47.656  33.576  15.549  1.00  0.00     0.006 C 
BRANCH   7   8
ATOM      8  C   UNL     1      48.172  33.924  16.952  1.00  0.00     0.053 C 
BRANCH   8   9
ATOM      9  C   UNL     1      48.646  32.691  17.653  1.00  0.00     0.041 C 
ATOM     10  O   UNL     1      47.816  31.845  18.081  1.00  0.00    -0.550 OA
ATOM     11  O   UNL     1      50.009  32.448  17.785  1.00  0.00    -0.550 OA
ENDBRANCH   8   9
ENDBRANCH   7   8
ENDBRANCH   6   7
ENDBRANCH   5   6
ENDBRANCH   4   5
ENDBRANCH   3   4
ENDBRANCH   2   3
ENDBRANCH   1   2
BRANCH   1  12
ATOM     12  C   UNL     1      43.227  36.177  11.888  1.00  0.00     0.000 C 
BRANCH  12  13
ATOM     13  C   UNL     1      42.758  37.320  10.979  1.00  0.00    -0.000 C 
BRANCH  13  14
ATOM     14  C   UNL     1      41.614  36.859  10.064  1.00  0.00    -0.000 C 
BRANCH  14  15
ATOM     15  C   UNL     1      41.322  35.355  10.191  1.00  0.00    -0.000 C 
BRANCH  15  16
ATOM     16  C   UNL     1      39.868  35.066  10.595  1.00  0.00    -0.000 C 
BRANCH  16  17
ATOM     17  C   UNL     1      39.732  34.960  12.119  1.00  0.00    -0.000 C 
BRANCH  17  18
ATOM     18  C   UNL     1      39.103  36.231  12.705  1.00  0.00    -0.000 C 
BRANCH  18  19
ATOM     19  C   UNL     1      40.065  36.925  13.675  1.00  0.00    -0.003 C 
ATOM     20  C   UNL     1      40.222  38.405  13.334  1.00  0.00     0.004 C 
ENDBRANCH  18  19
ENDBRANCH  17  18
ENDBRANCH  16  17
ENDBRANCH  15  16
ENDBRANCH  14  15
ENDBRANCH  13  14
ENDBRANCH  12  13
ENDBRANCH   1  12
TORSDOF 16
ENDMDL
