MODEL 1
REMARK VINA RESULT:    -5.992      0.000      0.000
REMARK INTER + INTRA:         -10.006
REMARK INTER:                  -9.145
REMARK INTRA:                  -0.861
REMARK UNBOUND:                -0.861
REMARK SMILES CC(=O)CCC=C(C)CCC=C(C)CCC=C(C)C
REMARK SMILES IDX 10 1 11 2 12 3 13 4 14 5 15 6 16 7 18 8 17 9 19 10 9 11 7 12
REMARK SMILES IDX 6 13 8 14 5 15 4 16 2 17 3 18 1 19
REMARK H PARENT
REMARK Flexibility Score: inf
ROOT
ATOM      1  C   UNL     1     -25.394  17.224 -30.699  1.00  0.00     0.032 C 
ENDROOT
BRANCH   1   2
ATOM      2  C   UNL     1     -25.466  15.777 -30.276  1.00  0.00    -0.028 C 
ATOM      3  C   UNL     1     -24.523  14.849 -30.561  1.00  0.00    -0.077 C 
ATOM      4  C   UNL     1     -23.301  15.183 -31.387  1.00  0.00     0.039 C 
BRANCH   3   5
ATOM      5  C   UNL     1     -24.700  13.441 -30.037  1.00  0.00     0.034 C 
BRANCH   5   6
ATOM      6  C   UNL     1     -26.185  13.102 -29.868  1.00  0.00     0.032 C 
BRANCH   6   7
ATOM      7  C   UNL     1     -26.361  11.896 -28.979  1.00  0.00    -0.028 C 
ATOM      8  C   UNL     1     -28.688  12.532 -28.307  1.00  0.00     0.039 C 
ATOM      9  C   UNL     1     -27.470  11.639 -28.253  1.00  0.00    -0.080 C 
ATOM     10  C   UNL     1     -27.487  10.413 -27.376  1.00  0.00     0.039 C 
ENDBRANCH   6   7
ENDBRANCH   5   6
ENDBRANCH   3   5
ENDBRANCH   1   2
BRANCH   1  11
ATOM     11  C   UNL     1     -26.739  17.693 -31.262  1.00  0.00     0.034 C 
BRANCH  11  12
ATOM     12  C   UNL     1     -26.536  18.690 -32.382  1.00  0.00    -0.077 C 
ATOM     13  C   UNL     1     -25.278  19.072 -32.701  1.00  0.00    -0.028 C 
ATOM     14  C   UNL     1     -27.745  19.245 -33.100  1.00  0.00     0.039 C 
BRANCH  13  15
ATOM     15  C   UNL     1     -24.929  20.024 -33.820  1.00  0.00     0.035 C 
BRANCH  15  16
ATOM     16  C   UNL     1     -23.449  19.929 -34.215  1.00  0.00     0.079 C 
BRANCH  16  17
ATOM     17  C   UNL     1     -22.548  20.475 -33.136  1.00  0.00     0.130 C 
ATOM     18  O   UNL     1     -21.468  19.944 -32.926  1.00  0.00    -0.300 OA
ATOM     19  C   UNL     1     -22.946  21.666 -32.316  1.00  0.00     0.087 C 
ENDBRANCH  16  17
ENDBRANCH  15  16
ENDBRANCH  13  15
ENDBRANCH  11  12
ENDBRANCH   1  11
TORSDOF 9
ENDMDL
MODEL 2
REMARK VINA RESULT:    -5.960      2.490      7.820
REMARK INTER + INTRA:          -9.957
REMARK INTER:                  -8.824
REMARK INTRA:                  -1.132
REMARK UNBOUND:                -0.861
REMARK SMILES CC(=O)CCC=C(C)CCC=C(C)CCC=C(C)C
REMARK SMILES IDX 10 1 11 2 12 3 13 4 14 5 15 6 16 7 18 8 17 9 19 10 9 11 7 12
REMARK SMILES IDX 6 13 8 14 5 15 4 16 2 17 3 18 1 19
REMARK H PARENT
REMARK Flexibility Score: inf
ROOT
ATOM      1  C   UNL     1     -24.207  17.914 -30.865  1.00  0.00     0.032 C 
ENDROOT
BRANCH   1   2
ATOM      2  C   UNL     1     -24.295  18.523 -32.242  1.00  0.00    -0.028 C 
ATOM      3  C   UNL     1     -23.539  19.560 -32.670  1.00  0.00    -0.077 C 
ATOM      4  C   UNL     1     -22.541  20.245 -31.764  1.00  0.00     0.039 C 
BRANCH   3   5
ATOM      5  C   UNL     1     -23.699  20.045 -34.094  1.00  0.00     0.034 C 
BRANCH   5   6
ATOM      6  C   UNL     1     -25.121  19.784 -34.604  1.00  0.00     0.032 C 
BRANCH   6   7
ATOM      7  C   UNL     1     -26.076  20.829 -34.082  1.00  0.00    -0.028 C 
ATOM      8  C   UNL     1     -27.651  19.136 -33.120  1.00  0.00     0.039 C 
ATOM      9  C   UNL     1     -27.229  20.552 -33.435  1.00  0.00    -0.080 C 
ATOM     10  C   UNL     1     -28.106  21.701 -33.006  1.00  0.00     0.039 C 
ENDBRANCH   6   7
ENDBRANCH   5   6
ENDBRANCH   3   5
ENDBRANCH   1   2
BRANCH   1  11
ATOM     11  C   UNL     1     -25.456  17.082 -30.558  1.00  0.00     0.034 C 
BRANCH  11  12
ATOM     12  C   UNL     1     -25.121  15.607 -30.503  1.00  0.00    -0.077 C 
ATOM     13  C   UNL     1     -25.990  14.759 -29.906  1.00  0.00    -0.028 C 
ATOM     14  C   UNL     1     -23.819  15.127 -31.099  1.00  0.00     0.039 C 
BRANCH  13  15
ATOM     15  C   UNL     1     -25.804  13.263 -29.818  1.00  0.00     0.035 C 
BRANCH  15  16
ATOM     16  C   UNL     1     -26.984  12.499 -30.432  1.00  0.00     0.079 C 
BRANCH  16  17
ATOM     17  C   UNL     1     -26.699  12.080 -31.852  1.00  0.00     0.130 C 
ATOM     18  O   UNL     1     -26.408  12.927 -32.684  1.00  0.00    -0.300 OA
ATOM     19  C   UNL     1     -26.755  10.640 -32.268  1.00  0.00     0.087 C 
ENDBRANCH  16  17
ENDBRANCH  15  16
ENDBRANCH  13  15
ENDBRANCH  11  12
ENDBRANCH   1  11
TORSDOF 9
ENDMDL
MODEL 3
REMARK VINA RESULT:    -5.909      9.837     12.257
REMARK INTER + INTRA:          -9.879
REMARK INTER:                  -7.814
REMARK INTRA:                  -2.064
REMARK UNBOUND:                -0.861
REMARK SMILES CC(=O)CCC=C(C)CCC=C(C)CCC=C(C)C
REMARK SMILES IDX 10 1 11 2 12 3 13 4 14 5 15 6 16 7 18 8 17 9 19 10 9 11 7 12
REMARK SMILES IDX 6 13 8 14 5 15 4 16 2 17 3 18 1 19
REMARK H PARENT
REMARK Flexibility Score: inf
ROOT
ATOM      1  C   UNL     1     -15.892  13.954 -31.810  1.00  0.00     0.032 C 
ENDROOT
BRANCH   1   2
ATOM      2  C   UNL     1     -16.881  12.973 -31.232  1.00  0.00    -0.028 C 
ATOM      3  C   UNL     1     -17.376  13.036 -29.974  1.00  0.00    -0.077 C 
ATOM      4  C   UNL     1     -16.935  14.103 -28.998  1.00  0.00     0.039 C 
BRANCH   3   5
ATOM      5  C   UNL     1     -18.397  12.009 -29.536  1.00  0.00     0.034 C 
BRANCH   5   6
ATOM      6  C   UNL     1     -17.743  10.638 -29.336  1.00  0.00     0.032 C 
BRANCH   6   7
ATOM      7  C   UNL     1     -17.033  10.572 -28.006  1.00  0.00    -0.028 C 
ATOM      8  C   UNL     1     -14.753  10.645 -29.040  1.00  0.00     0.039 C 
ATOM      9  C   UNL     1     -15.691  10.550 -27.859  1.00  0.00    -0.080 C 
ATOM     10  C   UNL     1     -15.123  10.442 -26.467  1.00  0.00     0.039 C 
ENDBRANCH   6   7
ENDBRANCH   5   6
ENDBRANCH   3   5
ENDBRANCH   1   2
BRANCH   1  11
ATOM     11  C   UNL     1     -14.619  13.236 -32.271  1.00  0.00     0.034 C 
BRANCH  11  12
ATOM     12  C   UNL     1     -13.396  13.821 -31.598  1.00  0.00    -0.077 C 
ATOM     13  C   UNL     1     -13.344  13.855 -30.247  1.00  0.00    -0.028 C 
ATOM     14  C   UNL     1     -12.278  14.367 -32.455  1.00  0.00     0.039 C 
BRANCH  13  15
ATOM     15  C   UNL     1     -12.171  14.371 -29.447  1.00  0.00     0.035 C 
BRANCH  15  16
ATOM     16  C   UNL     1     -11.373  13.233 -28.798  1.00  0.00     0.079 C 
BRANCH  16  17
ATOM     17  C   UNL     1     -11.638  13.141 -27.316  1.00  0.00     0.130 C 
ATOM     18  O   UNL     1     -11.844  14.161 -26.676  1.00  0.00    -0.300 OA
ATOM     19  C   UNL     1     -11.662  11.819 -26.608  1.00  0.00     0.087 C 
ENDBRANCH  16  17
ENDBRANCH  15  16
ENDBRANCH  13  15
ENDBRANCH  11  12
ENDBRANCH   1  11
TORSDOF 9
ENDMDL
MODEL 4
REMARK VINA RESULT:    -5.902     10.059     12.576
REMARK INTER + INTRA:          -9.869
REMARK INTER:                  -7.669
REMARK INTRA:                  -2.200
REMARK UNBOUND:                -0.861
REMARK SMILES CC(=O)CCC=C(C)CCC=C(C)CCC=C(C)C
REMARK SMILES IDX 10 1 11 2 12 3 13 4 14 5 15 6 16 7 18 8 17 9 19 10 9 11 7 12
REMARK SMILES IDX 6 13 8 14 5 15 4 16 2 17 3 18 1 19
REMARK H PARENT
REMARK Flexibility Score: inf
ROOT
ATOM      1  C   UNL     1     -11.675  12.625 -26.909  1.00  0.00     0.032 C 
ENDROOT
BRANCH   1   2
ATOM      2  C   UNL     1     -13.086  12.096 -26.980  1.00  0.00    -0.028 C 
ATOM      3  C   UNL     1     -13.474  11.054 -27.752  1.00  0.00    -0.077 C 
ATOM      4  C   UNL     1     -12.508  10.336 -28.667  1.00  0.00     0.039 C 
BRANCH   3   5
ATOM      5  C   UNL     1     -14.916  10.598 -27.695  1.00  0.00     0.034 C 
BRANCH   5   6
ATOM      6  C   UNL     1     -15.861  11.792 -27.524  1.00  0.00     0.032 C 
BRANCH   6   7
ATOM      7  C   UNL     1     -16.985  11.732 -28.528  1.00  0.00    -0.028 C 
ATOM      8  C   UNL     1     -16.958  14.202 -28.942  1.00  0.00     0.039 C 
ATOM      9  C   UNL     1     -17.505  12.810 -29.155  1.00  0.00    -0.080 C 
ATOM     10  C   UNL     1     -18.656  12.602 -30.106  1.00  0.00     0.039 C 
ENDBRANCH   6   7
ENDBRANCH   5   6
ENDBRANCH   3   5
ENDBRANCH   1   2
BRANCH   1  11
ATOM     11  C   UNL     1     -11.587  14.023 -27.530  1.00  0.00     0.034 C 
BRANCH  11  12
ATOM     12  C   UNL     1     -11.657  13.947 -29.039  1.00  0.00    -0.077 C 
ATOM     13  C   UNL     1     -12.774  14.384 -29.666  1.00  0.00    -0.028 C 
ATOM     14  C   UNL     1     -10.487  13.370 -29.802  1.00  0.00     0.039 C 
BRANCH  13  15
ATOM     15  C   UNL     1     -12.962  14.407 -31.165  1.00  0.00     0.035 C 
BRANCH  15  16
ATOM     16  C   UNL     1     -14.399  14.771 -31.558  1.00  0.00     0.079 C 
BRANCH  16  17
ATOM     17  C   UNL     1     -15.182  13.557 -31.993  1.00  0.00     0.130 C 
ATOM     18  O   UNL     1     -16.157  13.696 -32.716  1.00  0.00    -0.300 OA
ATOM     19  C   UNL     1     -14.784  12.177 -31.563  1.00  0.00     0.087 C 
ENDBRANCH  16  17
ENDBRANCH  15  16
ENDBRANCH  13  15
ENDBRANCH  11  12
ENDBRANCH   1  11
TORSDOF 9
ENDMDL
MODEL 5
REMARK VINA RESULT:    -5.766      9.814     13.079
REMARK INTER + INTRA:          -9.660
REMARK INTER:                  -7.164
REMARK INTRA:                  -2.496
REMARK UNBOUND:                -0.861
REMARK SMILES CC(=O)CCC=C(C)CCC=C(C)CCC=C(C)C
REMARK SMILES IDX 10 1 11 2 12 3 13 4 14 5 15 6 16 7 18 8 17 9 19 10 9 11 7 12
REMARK SMILES IDX 6 13 8 14 5 15 4 16 2 17 3 18 1 19
REMARK H PARENT
REMARK Flexibility Score: inf
ROOT
ATOM      1  C   UNL     1     -18.226  11.380 -29.340  1.00  0.00     0.032 C 
ENDROOT
BRANCH   1   2
ATOM      2  C   UNL     1     -17.658  12.164 -30.496  1.00  0.00    -0.028 C 
ATOM      3  C   UNL     1     -16.975  13.325 -30.372  1.00  0.00    -0.077 C 
ATOM      4  C   UNL     1     -16.752  13.977 -29.026  1.00  0.00     0.039 C 
BRANCH   3   5
ATOM      5  C   UNL     1     -16.421  13.987 -31.615  1.00  0.00     0.034 C 
BRANCH   5   6
ATOM      6  C   UNL     1     -14.936  14.323 -31.440  1.00  0.00     0.032 C 
BRANCH   6   7
ATOM      7  C   UNL     1     -14.110  13.064 -31.351  1.00  0.00    -0.028 C 
ATOM      8  C   UNL     1     -12.229  14.194 -30.144  1.00  0.00     0.039 C 
ATOM      9  C   UNL     1     -12.881  12.996 -30.793  1.00  0.00    -0.080 C 
ATOM     10  C   UNL     1     -12.155  11.675 -30.812  1.00  0.00     0.039 C 
ENDBRANCH   6   7
ENDBRANCH   5   6
ENDBRANCH   3   5
ENDBRANCH   1   2
BRANCH   1  11
ATOM     11  C   UNL     1     -17.464  10.064 -29.149  1.00  0.00     0.034 C 
BRANCH  11  12
ATOM     12  C   UNL     1     -16.335  10.235 -28.156  1.00  0.00    -0.077 C 
ATOM     13  C   UNL     1     -15.092  10.509 -28.616  1.00  0.00    -0.028 C 
ATOM     14  C   UNL     1     -16.624  10.075 -26.681  1.00  0.00     0.039 C 
BRANCH  13  15
ATOM     15  C   UNL     1     -13.887  10.744 -27.737  1.00  0.00     0.035 C 
BRANCH  15  16
ATOM     16  C   UNL     1     -13.753  12.217 -27.327  1.00  0.00     0.079 C 
BRANCH  16  17
ATOM     17  C   UNL     1     -12.348  12.548 -26.889  1.00  0.00     0.130 C 
ATOM     18  O   UNL     1     -12.105  13.652 -26.426  1.00  0.00    -0.300 OA
ATOM     19  C   UNL     1     -11.239  11.545 -27.002  1.00  0.00     0.087 C 
ENDBRANCH  16  17
ENDBRANCH  15  16
ENDBRANCH  13  15
ENDBRANCH  11  12
ENDBRANCH   1  11
TORSDOF 9
ENDMDL
MODEL 6
REMARK VINA RESULT:    -5.668     10.308     13.209
REMARK INTER + INTRA:          -9.510
REMARK INTER:                  -7.301
REMARK INTRA:                  -2.209
REMARK UNBOUND:                -0.861
REMARK SMILES CC(=O)CCC=C(C)CCC=C(C)CCC=C(C)C
REMARK SMILES IDX 10 1 11 2 12 3 13 4 14 5 15 6 16 7 18 8 17 9 19 10 9 11 7 12
REMARK SMILES IDX 6 13 8 14 5 15 4 16 2 17 3 18 1 19
REMARK H PARENT
REMARK Flexibility Score: inf
ROOT
ATOM      1  C   UNL     1     -11.790  14.600 -32.646  1.00  0.00     0.032 C 
ENDROOT
BRANCH   1   2
ATOM      2  C   UNL     1     -13.051  13.774 -32.684  1.00  0.00    -0.028 C 
ATOM      3  C   UNL     1     -14.150  14.020 -31.934  1.00  0.00    -0.077 C 
ATOM      4  C   UNL     1     -14.194  15.153 -30.933  1.00  0.00     0.039 C 
BRANCH   3   5
ATOM      5  C   UNL     1     -15.366  13.135 -32.103  1.00  0.00     0.034 C 
BRANCH   5   6
ATOM      6  C   UNL     1     -16.657  13.929 -31.872  1.00  0.00     0.032 C 
BRANCH   6   7
ATOM      7  C   UNL     1     -17.719  13.055 -31.252  1.00  0.00    -0.028 C 
ATOM      8  C   UNL     1     -17.038  13.615 -28.908  1.00  0.00     0.039 C 
ATOM      9  C   UNL     1     -17.886  12.884 -29.923  1.00  0.00    -0.080 C 
ATOM     10  C   UNL     1     -18.966  11.945 -29.449  1.00  0.00     0.039 C 
ENDBRANCH   6   7
ENDBRANCH   5   6
ENDBRANCH   3   5
ENDBRANCH   1   2
BRANCH   1  11
ATOM     11  C   UNL     1     -10.582  13.732 -32.277  1.00  0.00     0.034 C 
BRANCH  11  12
ATOM     12  C   UNL     1     -10.846  12.954 -31.006  1.00  0.00    -0.077 C 
ATOM     13  C   UNL     1     -11.057  13.632 -29.854  1.00  0.00    -0.028 C 
ATOM     14  C   UNL     1     -10.846  11.444 -31.055  1.00  0.00     0.039 C 
BRANCH  13  15
ATOM     15  C   UNL     1     -11.373  12.987 -28.526  1.00  0.00     0.035 C 
BRANCH  15  16
ATOM     16  C   UNL     1     -12.884  12.866 -28.289  1.00  0.00     0.079 C 
BRANCH  16  17
ATOM     17  C   UNL     1     -13.349  11.434 -28.372  1.00  0.00     0.130 C 
ATOM     18  O   UNL     1     -12.909  10.610 -27.584  1.00  0.00    -0.300 OA
ATOM     19  C   UNL     1     -14.349  10.997 -29.400  1.00  0.00     0.087 C 
ENDBRANCH  16  17
ENDBRANCH  15  16
ENDBRANCH  13  15
ENDBRANCH  11  12
ENDBRANCH   1  11
TORSDOF 9
ENDMDL
MODEL 7
REMARK VINA RESULT:    -5.619     10.659     13.375
REMARK INTER + INTRA:          -9.436
REMARK INTER:                  -7.501
REMARK INTRA:                  -1.935
REMARK UNBOUND:                -0.861
REMARK SMILES CC(=O)CCC=C(C)CCC=C(C)CCC=C(C)C
REMARK SMILES IDX 10 1 11 2 12 3 13 4 14 5 15 6 16 7 18 8 17 9 19 10 9 11 7 12
REMARK SMILES IDX 6 13 8 14 5 15 4 16 2 17 3 18 1 19
REMARK H PARENT
REMARK Flexibility Score: inf
ROOT
ATOM      1  C   UNL     1     -12.744  14.488 -32.371  1.00  0.00     0.032 C 
ENDROOT
BRANCH   1   2
ATOM      2  C   UNL     1     -14.023  14.199 -31.626  1.00  0.00    -0.028 C 
ATOM      3  C   UNL     1     -14.647  15.077 -30.807  1.00  0.00    -0.077 C 
ATOM      4  C   UNL     1     -14.076  16.449 -30.527  1.00  0.00     0.039 C 
BRANCH   3   5
ATOM      5  C   UNL     1     -15.950  14.672 -30.154  1.00  0.00     0.034 C 
BRANCH   5   6
ATOM      6  C   UNL     1     -16.204  13.170 -30.326  1.00  0.00     0.032 C 
BRANCH   6   7
ATOM      7  C   UNL     1     -16.381  12.500 -28.986  1.00  0.00    -0.028 C 
ATOM      8  C   UNL     1     -15.466  10.309 -29.781  1.00  0.00     0.039 C 
ATOM      9  C   UNL     1     -16.077  11.209 -28.732  1.00  0.00    -0.080 C 
ATOM     10  C   UNL     1     -16.346  10.665 -27.353  1.00  0.00     0.039 C 
ENDBRANCH   6   7
ENDBRANCH   5   6
ENDBRANCH   3   5
ENDBRANCH   1   2
BRANCH   1  11
ATOM     11  C   UNL     1     -11.773  13.308 -32.262  1.00  0.00     0.034 C 
BRANCH  11  12
ATOM     12  C   UNL     1     -11.474  12.987 -30.813  1.00  0.00    -0.077 C 
ATOM     13  C   UNL     1     -12.214  12.045 -30.184  1.00  0.00    -0.028 C 
ATOM     14  C   UNL     1     -10.372  13.741 -30.106  1.00  0.00     0.039 C 
BRANCH  13  15
ATOM     15  C   UNL     1     -11.999  11.598 -28.758  1.00  0.00     0.035 C 
BRANCH  15  16
ATOM     16  C   UNL     1     -12.778  12.464 -27.759  1.00  0.00     0.079 C 
BRANCH  16  17
ATOM     17  C   UNL     1     -11.864  13.100 -26.742  1.00  0.00     0.130 C 
ATOM     18  O   UNL     1     -11.701  14.311 -26.752  1.00  0.00    -0.300 OA
ATOM     19  C   UNL     1     -11.155  12.277 -25.708  1.00  0.00     0.087 C 
ENDBRANCH  16  17
ENDBRANCH  15  16
ENDBRANCH  13  15
ENDBRANCH  11  12
ENDBRANCH   1  11
TORSDOF 9
ENDMDL
MODEL 8
REMARK VINA RESULT:    -5.619     10.228     13.423
REMARK INTER + INTRA:          -9.435
REMARK INTER:                  -7.967
REMARK INTRA:                  -1.469
REMARK UNBOUND:                -0.861
REMARK SMILES CC(=O)CCC=C(C)CCC=C(C)CCC=C(C)C
REMARK SMILES IDX 10 1 11 2 12 3 13 4 14 5 15 6 16 7 18 8 17 9 19 10 9 11 7 12
REMARK SMILES IDX 6 13 8 14 5 15 4 16 2 17 3 18 1 19
REMARK H PARENT
REMARK Flexibility Score: inf
ROOT
ATOM      1  C   UNL     1     -13.881  11.150 -26.728  1.00  0.00     0.032 C 
ENDROOT
BRANCH   1   2
ATOM      2  C   UNL     1     -13.242  12.398 -27.285  1.00  0.00    -0.028 C 
ATOM      3  C   UNL     1     -11.963  12.474 -27.720  1.00  0.00    -0.077 C 
ATOM      4  C   UNL     1     -11.025  11.291 -27.644  1.00  0.00     0.039 C 
BRANCH   3   5
ATOM      5  C   UNL     1     -11.462  13.780 -28.297  1.00  0.00     0.034 C 
BRANCH   5   6
ATOM      6  C   UNL     1     -12.231  14.146 -29.571  1.00  0.00     0.032 C 
BRANCH   6   7
ATOM      7  C   UNL     1     -11.500  13.654 -30.796  1.00  0.00    -0.028 C 
ATOM      8  C   UNL     1     -12.760  15.163 -32.348  1.00  0.00     0.039 C 
ATOM      9  C   UNL     1     -11.745  14.083 -32.053  1.00  0.00    -0.080 C 
ATOM     10  C   UNL     1     -10.962  13.470 -33.187  1.00  0.00     0.039 C 
ENDBRANCH   6   7
ENDBRANCH   5   6
ENDBRANCH   3   5
ENDBRANCH   1   2
BRANCH   1  11
ATOM     11  C   UNL     1     -15.408  11.275 -26.728  1.00  0.00     0.034 C 
BRANCH  11  12
ATOM     12  C   UNL     1     -15.952  11.247 -28.140  1.00  0.00    -0.077 C 
ATOM     13  C   UNL     1     -16.952  12.094 -28.475  1.00  0.00    -0.028 C 
ATOM     14  C   UNL     1     -15.375  10.262 -29.130  1.00  0.00     0.039 C 
BRANCH  13  15
ATOM     15  C   UNL     1     -17.558  12.203 -29.854  1.00  0.00     0.035 C 
BRANCH  15  16
ATOM     16  C   UNL     1     -17.397  13.610 -30.444  1.00  0.00     0.079 C 
BRANCH  16  17
ATOM     17  C   UNL     1     -16.658  13.582 -31.759  1.00  0.00     0.130 C 
ATOM     18  O   UNL     1     -17.105  14.199 -32.714  1.00  0.00    -0.300 OA
ATOM     19  C   UNL     1     -15.378  12.818 -31.918  1.00  0.00     0.087 C 
ENDBRANCH  16  17
ENDBRANCH  15  16
ENDBRANCH  13  15
ENDBRANCH  11  12
ENDBRANCH   1  11
TORSDOF 9
ENDMDL
MODEL 9
REMARK VINA RESULT:    -5.616     10.621     13.443
REMARK INTER + INTRA:          -9.431
REMARK INTER:                  -7.204
REMARK INTRA:                  -2.227
REMARK UNBOUND:                -0.861
REMARK SMILES CC(=O)CCC=C(C)CCC=C(C)CCC=C(C)C
REMARK SMILES IDX 10 1 11 2 12 3 13 4 14 5 15 6 16 7 18 8 17 9 19 10 9 11 7 12
REMARK SMILES IDX 6 13 8 14 5 15 4 16 2 17 3 18 1 19
REMARK H PARENT
REMARK Flexibility Score: inf
ROOT
ATOM      1  C   UNL     1     -13.219  11.253 -27.354  1.00  0.00     0.032 C 
ENDROOT
BRANCH   1   2
ATOM      2  C   UNL     1     -14.504  12.043 -27.374  1.00  0.00    -0.028 C 
ATOM      3  C   UNL     1     -15.480  11.894 -28.299  1.00  0.00    -0.077 C 
ATOM      4  C   UNL     1     -15.344  10.924 -29.451  1.00  0.00     0.039 C 
BRANCH   3   5
ATOM      5  C   UNL     1     -16.741  12.722 -28.175  1.00  0.00     0.034 C 
BRANCH   5   6
ATOM      6  C   UNL     1     -17.022  13.489 -29.471  1.00  0.00     0.032 C 
BRANCH   6   7
ATOM      7  C   UNL     1     -15.933  14.498 -29.743  1.00  0.00    -0.028 C 
ATOM      8  C   UNL     1     -15.434  13.584 -32.020  1.00  0.00     0.039 C 
ATOM      9  C   UNL     1     -15.194  14.537 -30.873  1.00  0.00    -0.080 C 
ATOM     10  C   UNL     1     -14.111  15.579 -30.987  1.00  0.00     0.039 C 
ENDBRANCH   6   7
ENDBRANCH   5   6
ENDBRANCH   3   5
ENDBRANCH   1   2
BRANCH   1  11
ATOM     11  C   UNL     1     -12.022  12.171 -27.088  1.00  0.00     0.034 C 
BRANCH  11  12
ATOM     12  C   UNL     1     -11.581  12.865 -28.359  1.00  0.00    -0.077 C 
ATOM     13  C   UNL     1     -11.192  12.114 -29.415  1.00  0.00    -0.028 C 
ATOM     14  C   UNL     1     -11.570  14.375 -28.405  1.00  0.00     0.039 C 
BRANCH  13  15
ATOM     15  C   UNL     1     -10.770  12.672 -30.753  1.00  0.00     0.035 C 
BRANCH  15  16
ATOM     16  C   UNL     1     -11.932  12.705 -31.755  1.00  0.00     0.079 C 
BRANCH  16  17
ATOM     17  C   UNL     1     -11.539  13.388 -33.041  1.00  0.00     0.130 C 
ATOM     18  O   UNL     1     -11.989  12.981 -34.101  1.00  0.00    -0.300 OA
ATOM     19  C   UNL     1     -10.612  14.566 -33.047  1.00  0.00     0.087 C 
ENDBRANCH  16  17
ENDBRANCH  15  16
ENDBRANCH  13  15
ENDBRANCH  11  12
ENDBRANCH   1  11
TORSDOF 9
ENDMDL
