MODEL 1
REMARK VINA RESULT:    -4.714      0.000      0.000
REMARK INTER + INTRA:          -7.381
REMARK INTER:                  -6.642
REMARK INTRA:                  -0.738
REMARK UNBOUND:                -0.738
REMARK SMILES CCCCCCCCC(=O)[O-]
REMARK SMILES IDX 6 1 7 2 8 3 9 4 10 5 11 6 5 7 4 8 3 9 2 10 1 11
REMARK H PARENT
REMARK Flexibility Score: inf
ROOT
ATOM      1  C   UNL     1      -6.584   8.229 -11.075  1.00  0.00     0.000 C 
ENDROOT
BRANCH   1   2
ATOM      2  C   UNL     1      -6.626   9.746 -10.837  1.00  0.00     0.006 C 
BRANCH   2   3
ATOM      3  C   UNL     1      -5.301  10.283 -10.278  1.00  0.00     0.053 C 
BRANCH   3   4
ATOM      4  C   UNL     1      -5.524  11.307  -9.207  1.00  0.00     0.041 C 
ATOM      5  O   UNL     1      -5.132  12.491  -9.372  1.00  0.00    -0.550 OA
ATOM      6  O   UNL     1      -6.194  10.959  -8.040  1.00  0.00    -0.550 OA
ENDBRANCH   3   4
ENDBRANCH   2   3
ENDBRANCH   1   2
BRANCH   1   7
ATOM      7  C   UNL     1      -7.102   7.465  -9.849  1.00  0.00     0.000 C 
BRANCH   7   8
ATOM      8  C   UNL     1      -5.998   6.599  -9.233  1.00  0.00    -0.000 C 
BRANCH   8   9
ATOM      9  C   UNL     1      -5.400   7.273  -7.989  1.00  0.00    -0.000 C 
BRANCH   9  10
ATOM     10  C   UNL     1      -3.924   7.658  -8.179  1.00  0.00    -0.003 C 
ATOM     11  C   UNL     1      -3.474   8.768  -7.230  1.00  0.00     0.004 C 
ENDBRANCH   9  10
ENDBRANCH   8   9
ENDBRANCH   7   8
ENDBRANCH   1   7
TORSDOF 7
ENDMDL
MODEL 2
REMARK VINA RESULT:    -4.597      1.410      3.021
REMARK INTER + INTRA:          -7.216
REMARK INTER:                  -6.520
REMARK INTRA:                  -0.697
REMARK UNBOUND:                -0.738
REMARK SMILES CCCCCCCCC(=O)[O-]
REMARK SMILES IDX 6 1 7 2 8 3 9 4 10 5 11 6 5 7 4 8 3 9 2 10 1 11
REMARK H PARENT
REMARK Flexibility Score: inf
ROOT
ATOM      1  C   UNL     1      -4.008   9.300  -7.553  1.00  0.00     0.000 C 
ENDROOT
BRANCH   1   2
ATOM      2  C   UNL     1      -5.364  10.013  -7.677  1.00  0.00     0.006 C 
BRANCH   2   3
ATOM      3  C   UNL     1      -5.438  10.908  -8.922  1.00  0.00     0.053 C 
BRANCH   3   4
ATOM      4  C   UNL     1      -6.766  11.591  -9.037  1.00  0.00     0.041 C 
ATOM      5  O   UNL     1      -7.660  11.117  -9.785  1.00  0.00    -0.550 OA
ATOM      6  O   UNL     1      -7.027  12.735  -8.292  1.00  0.00    -0.550 OA
ENDBRANCH   3   4
ENDBRANCH   2   3
ENDBRANCH   1   2
BRANCH   1   7
ATOM      7  C   UNL     1      -3.970   8.037  -8.422  1.00  0.00     0.000 C 
BRANCH   7   8
ATOM      8  C   UNL     1      -4.910   6.959  -7.870  1.00  0.00    -0.000 C 
BRANCH   8   9
ATOM      9  C   UNL     1      -5.701   6.288  -9.003  1.00  0.00    -0.000 C 
BRANCH   9  10
ATOM     10  C   UNL     1      -6.380   7.307  -9.932  1.00  0.00    -0.003 C 
ATOM     11  C   UNL     1      -7.828   7.597  -9.535  1.00  0.00     0.004 C 
ENDBRANCH   9  10
ENDBRANCH   8   9
ENDBRANCH   7   8
ENDBRANCH   1   7
TORSDOF 7
ENDMDL
MODEL 3
REMARK VINA RESULT:    -4.585      2.221      4.511
REMARK INTER + INTRA:          -7.199
REMARK INTER:                  -6.263
REMARK INTRA:                  -0.936
REMARK UNBOUND:                -0.738
REMARK SMILES CCCCCCCCC(=O)[O-]
REMARK SMILES IDX 6 1 7 2 8 3 9 4 10 5 11 6 5 7 4 8 3 9 2 10 1 11
REMARK H PARENT
REMARK Flexibility Score: inf
ROOT
ATOM      1  C   UNL     1      -4.061   8.436  -8.701  1.00  0.00     0.000 C 
ENDROOT
BRANCH   1   2
ATOM      2  C   UNL     1      -4.874   7.271  -8.115  1.00  0.00     0.006 C 
BRANCH   2   3
ATOM      3  C   UNL     1      -5.871   6.692  -9.128  1.00  0.00     0.053 C 
BRANCH   3   4
ATOM      4  C   UNL     1      -7.290   6.946  -8.718  1.00  0.00     0.041 C 
ATOM      5  O   UNL     1      -7.540   7.641  -7.700  1.00  0.00    -0.550 OA
ATOM      6  O   UNL     1      -8.336   6.440  -9.481  1.00  0.00    -0.550 OA
ENDBRANCH   3   4
ENDBRANCH   2   3
ENDBRANCH   1   2
BRANCH   1   7
ATOM      7  C   UNL     1      -4.702   9.785  -8.353  1.00  0.00     0.000 C 
BRANCH   7   8
ATOM      8  C   UNL     1      -5.246  10.477  -9.607  1.00  0.00    -0.000 C 
BRANCH   8   9
ATOM      9  C   UNL     1      -6.775  10.613  -9.540  1.00  0.00    -0.000 C 
BRANCH   9  10
ATOM     10  C   UNL     1      -7.475  10.022 -10.775  1.00  0.00    -0.003 C 
ATOM     11  C   UNL     1      -6.510   9.295 -11.711  1.00  0.00     0.004 C 
ENDBRANCH   9  10
ENDBRANCH   8   9
ENDBRANCH   7   8
ENDBRANCH   1   7
TORSDOF 7
ENDMDL
MODEL 4
REMARK VINA RESULT:    -4.572      1.279      1.828
REMARK INTER + INTRA:          -7.181
REMARK INTER:                  -6.495
REMARK INTRA:                  -0.686
REMARK UNBOUND:                -0.738
REMARK SMILES CCCCCCCCC(=O)[O-]
REMARK SMILES IDX 6 1 7 2 8 3 9 4 10 5 11 6 5 7 4 8 3 9 2 10 1 11
REMARK H PARENT
REMARK Flexibility Score: inf
ROOT
ATOM      1  C   UNL     1      -6.891   7.828  -9.386  1.00  0.00     0.000 C 
ENDROOT
BRANCH   1   2
ATOM      2  C   UNL     1      -6.634   8.587 -10.697  1.00  0.00     0.006 C 
BRANCH   2   3
ATOM      3  C   UNL     1      -6.131  10.016 -10.452  1.00  0.00     0.053 C 
BRANCH   3   4
ATOM      4  C   UNL     1      -7.190  10.880  -9.836  1.00  0.00     0.041 C 
ATOM      5  O   UNL     1      -8.376  10.821 -10.253  1.00  0.00    -0.550 OA
ATOM      6  O   UNL     1      -6.871  11.725  -8.781  1.00  0.00    -0.550 OA
ENDBRANCH   3   4
ENDBRANCH   2   3
ENDBRANCH   1   2
BRANCH   1   7
ATOM      7  C   UNL     1      -5.934   6.639  -9.242  1.00  0.00     0.000 C 
BRANCH   7   8
ATOM      8  C   UNL     1      -5.016   6.814  -8.028  1.00  0.00    -0.000 C 
BRANCH   8   9
ATOM      9  C   UNL     1      -3.852   7.763  -8.352  1.00  0.00    -0.000 C 
BRANCH   9  10
ATOM     10  C   UNL     1      -3.572   8.762  -7.219  1.00  0.00    -0.003 C 
ATOM     11  C   UNL     1      -4.682   9.800  -7.057  1.00  0.00     0.004 C 
ENDBRANCH   9  10
ENDBRANCH   8   9
ENDBRANCH   7   8
ENDBRANCH   1   7
TORSDOF 7
ENDMDL
MODEL 5
REMARK VINA RESULT:    -4.564      2.555      4.314
REMARK INTER + INTRA:          -7.170
REMARK INTER:                  -6.487
REMARK INTRA:                  -0.683
REMARK UNBOUND:                -0.738
REMARK SMILES CCCCCCCCC(=O)[O-]
REMARK SMILES IDX 6 1 7 2 8 3 9 4 10 5 11 6 5 7 4 8 3 9 2 10 1 11
REMARK H PARENT
REMARK Flexibility Score: inf
ROOT
ATOM      1  C   UNL     1      -5.525  10.504  -8.295  1.00  0.00     0.000 C 
ENDROOT
BRANCH   1   2
ATOM      2  C   UNL     1      -4.621   9.799  -7.273  1.00  0.00     0.006 C 
BRANCH   2   3
ATOM      3  C   UNL     1      -3.856   8.620  -7.891  1.00  0.00     0.053 C 
BRANCH   3   4
ATOM      4  C   UNL     1      -3.116   7.833  -6.853  1.00  0.00     0.041 C 
ATOM      5  O   UNL     1      -3.527   6.693  -6.512  1.00  0.00    -0.550 OA
ATOM      6  O   UNL     1      -1.955   8.345  -6.287  1.00  0.00    -0.550 OA
ENDBRANCH   3   4
ENDBRANCH   2   3
ENDBRANCH   1   2
BRANCH   1   7
ATOM      7  C   UNL     1      -5.109  10.158  -9.730  1.00  0.00     0.000 C 
BRANCH   7   8
ATOM      8  C   UNL     1      -6.334   9.877 -10.607  1.00  0.00    -0.000 C 
BRANCH   8   9
ATOM      9  C   UNL     1      -6.465   8.375 -10.902  1.00  0.00    -0.000 C 
BRANCH   9  10
ATOM     10  C   UNL     1      -7.359   7.650  -9.883  1.00  0.00    -0.003 C 
ATOM     11  C   UNL     1      -6.613   6.567  -9.105  1.00  0.00     0.004 C 
ENDBRANCH   9  10
ENDBRANCH   8   9
ENDBRANCH   7   8
ENDBRANCH   1   7
TORSDOF 7
ENDMDL
MODEL 6
REMARK VINA RESULT:    -4.526      1.736      3.097
REMARK INTER + INTRA:          -7.117
REMARK INTER:                  -6.224
REMARK INTRA:                  -0.893
REMARK UNBOUND:                -0.738
REMARK SMILES CCCCCCCCC(=O)[O-]
REMARK SMILES IDX 6 1 7 2 8 3 9 4 10 5 11 6 5 7 4 8 3 9 2 10 1 11
REMARK H PARENT
REMARK Flexibility Score: inf
ROOT
ATOM      1  C   UNL     1      -4.304   9.567  -7.743  1.00  0.00     0.000 C 
ENDROOT
BRANCH   1   2
ATOM      2  C   UNL     1      -5.128  10.541  -8.598  1.00  0.00     0.006 C 
BRANCH   2   3
ATOM      3  C   UNL     1      -5.076  10.190 -10.092  1.00  0.00     0.053 C 
BRANCH   3   4
ATOM      4  C   UNL     1      -6.447  10.002 -10.667  1.00  0.00     0.041 C 
ATOM      5  O   UNL     1      -7.459  10.399 -10.032  1.00  0.00    -0.550 OA
ATOM      6  O   UNL     1      -6.603   9.418 -11.918  1.00  0.00    -0.550 OA
ENDBRANCH   3   4
ENDBRANCH   2   3
ENDBRANCH   1   2
BRANCH   1   7
ATOM      7  C   UNL     1      -3.980   8.287  -8.525  1.00  0.00     0.000 C 
BRANCH   7   8
ATOM      8  C   UNL     1      -4.843   7.115  -8.045  1.00  0.00    -0.000 C 
BRANCH   8   9
ATOM      9  C   UNL     1      -5.720   6.576  -9.185  1.00  0.00    -0.000 C 
BRANCH   9  10
ATOM     10  C   UNL     1      -7.217   6.829  -8.947  1.00  0.00    -0.003 C 
ATOM     11  C   UNL     1      -7.489   7.609  -7.661  1.00  0.00     0.004 C 
ENDBRANCH   9  10
ENDBRANCH   8   9
ENDBRANCH   7   8
ENDBRANCH   1   7
TORSDOF 7
ENDMDL
MODEL 7
REMARK VINA RESULT:    -4.471      1.779      3.647
REMARK INTER + INTRA:          -7.039
REMARK INTER:                  -6.331
REMARK INTRA:                  -0.708
REMARK UNBOUND:                -0.738
REMARK SMILES CCCCCCCCC(=O)[O-]
REMARK SMILES IDX 6 1 7 2 8 3 9 4 10 5 11 6 5 7 4 8 3 9 2 10 1 11
REMARK H PARENT
REMARK Flexibility Score: inf
ROOT
ATOM      1  C   UNL     1      -6.519   7.345  -9.834  1.00  0.00     0.000 C 
ENDROOT
BRANCH   1   2
ATOM      2  C   UNL     1      -5.926   7.700  -8.462  1.00  0.00     0.006 C 
BRANCH   2   3
ATOM      3  C   UNL     1      -4.446   8.098  -8.554  1.00  0.00     0.053 C 
BRANCH   3   4
ATOM      4  C   UNL     1      -3.975   8.781  -7.306  1.00  0.00     0.041 C 
ATOM      5  O   UNL     1      -4.674   9.684  -6.777  1.00  0.00    -0.550 OA
ATOM      6  O   UNL     1      -2.780   8.395  -6.711  1.00  0.00    -0.550 OA
ENDBRANCH   3   4
ENDBRANCH   2   3
ENDBRANCH   1   2
BRANCH   1   7
ATOM      7  C   UNL     1      -6.713   8.602 -10.690  1.00  0.00     0.000 C 
BRANCH   7   8
ATOM      8  C   UNL     1      -7.962   9.377 -10.257  1.00  0.00    -0.000 C 
BRANCH   8   9
ATOM      9  C   UNL     1      -7.677  10.885 -10.189  1.00  0.00    -0.000 C 
BRANCH   9  10
ATOM     10  C   UNL     1      -6.795  11.265  -8.989  1.00  0.00    -0.003 C 
ATOM     11  C   UNL     1      -5.452  11.863  -9.405  1.00  0.00     0.004 C 
ENDBRANCH   9  10
ENDBRANCH   8   9
ENDBRANCH   7   8
ENDBRANCH   1   7
TORSDOF 7
ENDMDL
MODEL 8
REMARK VINA RESULT:    -4.464      2.291      3.639
REMARK INTER + INTRA:          -7.029
REMARK INTER:                  -6.254
REMARK INTRA:                  -0.775
REMARK UNBOUND:                -0.738
REMARK SMILES CCCCCCCCC(=O)[O-]
REMARK SMILES IDX 6 1 7 2 8 3 9 4 10 5 11 6 5 7 4 8 3 9 2 10 1 11
REMARK H PARENT
REMARK Flexibility Score: inf
ROOT
ATOM      1  C   UNL     1      -6.655   9.555 -10.237  1.00  0.00     0.000 C 
ENDROOT
BRANCH   1   2
ATOM      2  C   UNL     1      -6.533   8.151 -10.849  1.00  0.00     0.006 C 
BRANCH   2   3
ATOM      3  C   UNL     1      -6.503   7.051  -9.779  1.00  0.00     0.053 C 
BRANCH   3   4
ATOM      4  C   UNL     1      -7.730   7.079  -8.920  1.00  0.00     0.041 C 
ATOM      5  O   UNL     1      -8.854   6.801  -9.413  1.00  0.00    -0.550 OA
ATOM      6  O   UNL     1      -7.626   7.379  -7.567  1.00  0.00    -0.550 OA
ENDBRANCH   3   4
ENDBRANCH   2   3
ENDBRANCH   1   2
BRANCH   1   7
ATOM      7  C   UNL     1      -5.313  10.295 -10.285  1.00  0.00     0.000 C 
BRANCH   7   8
ATOM      8  C   UNL     1      -5.017  10.986  -8.949  1.00  0.00    -0.000 C 
BRANCH   8   9
ATOM      9  C   UNL     1      -5.270  10.034  -7.770  1.00  0.00    -0.000 C 
BRANCH   9  10
ATOM     10  C   UNL     1      -3.969   9.454  -7.191  1.00  0.00    -0.003 C 
ATOM     11  C   UNL     1      -3.665   8.049  -7.709  1.00  0.00     0.004 C 
ENDBRANCH   9  10
ENDBRANCH   8   9
ENDBRANCH   7   8
ENDBRANCH   1   7
TORSDOF 7
ENDMDL
MODEL 9
REMARK VINA RESULT:    -4.356      2.009      3.289
REMARK INTER + INTRA:          -6.876
REMARK INTER:                  -6.147
REMARK INTRA:                  -0.729
REMARK UNBOUND:                -0.738
REMARK SMILES CCCCCCCCC(=O)[O-]
REMARK SMILES IDX 6 1 7 2 8 3 9 4 10 5 11 6 5 7 4 8 3 9 2 10 1 11
REMARK H PARENT
REMARK Flexibility Score: inf
ROOT
ATOM      1  C   UNL     1      -4.779  11.040  -8.588  1.00  0.00     0.000 C 
ENDROOT
BRANCH   1   2
ATOM      2  C   UNL     1      -5.552  10.791  -9.892  1.00  0.00     0.006 C 
BRANCH   2   3
ATOM      3  C   UNL     1      -7.019  10.419  -9.635  1.00  0.00     0.053 C 
BRANCH   3   4
ATOM      4  C   UNL     1      -7.663   9.827 -10.851  1.00  0.00     0.041 C 
ATOM      5  O   UNL     1      -6.962   9.506 -11.846  1.00  0.00    -0.550 OA
ATOM      6  O   UNL     1      -9.034   9.600 -10.872  1.00  0.00    -0.550 OA
ENDBRANCH   3   4
ENDBRANCH   2   3
ENDBRANCH   1   2
BRANCH   1   7
ATOM      7  C   UNL     1      -5.089   9.957  -7.548  1.00  0.00     0.000 C 
BRANCH   7   8
ATOM      8  C   UNL     1      -3.897   9.012  -7.364  1.00  0.00    -0.000 C 
BRANCH   8   9
ATOM      9  C   UNL     1      -3.986   7.820  -8.330  1.00  0.00    -0.000 C 
BRANCH   9  10
ATOM     10  C   UNL     1      -5.286   7.019  -8.159  1.00  0.00    -0.003 C 
ATOM     11  C   UNL     1      -6.034   6.814  -9.476  1.00  0.00     0.004 C 
ENDBRANCH   9  10
ENDBRANCH   8   9
ENDBRANCH   7   8
ENDBRANCH   1   7
TORSDOF 7
ENDMDL
