MODEL 1
REMARK VINA RESULT:    -3.054      0.000      0.000
REMARK INTER + INTRA:          -3.885
REMARK INTER:                  -3.768
REMARK INTRA:                  -0.117
REMARK UNBOUND:                -0.117
REMARK SMILES CCCCCC=O
REMARK SMILES IDX 4 1 3 2 2 3 1 4 5 5 6 6 7 7
REMARK H PARENT
REMARK Flexibility Score: inf
ROOT
ATOM      1  C   UNL     1     -12.807  82.234 -10.233  1.00  0.00     0.008 C 
ENDROOT
BRANCH   1   2
ATOM      2  C   UNL     1     -11.528  81.812 -10.975  1.00  0.00     0.000 C 
BRANCH   2   3
ATOM      3  C   UNL     1     -11.717  81.770 -12.499  1.00  0.00    -0.003 C 
ATOM      4  C   UNL     1     -13.185  81.655 -12.911  1.00  0.00     0.004 C 
ENDBRANCH   2   3
ENDBRANCH   1   2
BRANCH   1   5
ATOM      5  C   UNL     1     -12.835  83.736  -9.911  1.00  0.00     0.072 C 
BRANCH   5   6
ATOM      6  C   UNL     1     -14.138  84.377 -10.289  1.00  0.00     0.224 C 
ATOM      7  O   UNL     1     -14.249  85.592 -10.321  1.00  0.00    -0.303 OA
ENDBRANCH   5   6
ENDBRANCH   1   5
TORSDOF 4
ENDMDL
MODEL 2
REMARK VINA RESULT:    -3.019      1.973      3.472
REMARK INTER + INTRA:          -3.842
REMARK INTER:                  -3.655
REMARK INTRA:                  -0.187
REMARK UNBOUND:                -0.117
REMARK SMILES CCCCCC=O
REMARK SMILES IDX 4 1 3 2 2 3 1 4 5 5 6 6 7 7
REMARK H PARENT
REMARK Flexibility Score: inf
ROOT
ATOM      1  C   UNL     1     -11.766  82.147 -10.901  1.00  0.00     0.008 C 
ENDROOT
BRANCH   1   2
ATOM      2  C   UNL     1     -12.984  81.645 -10.106  1.00  0.00     0.000 C 
BRANCH   2   3
ATOM      3  C   UNL     1     -13.690  82.771  -9.337  1.00  0.00    -0.003 C 
ATOM      4  C   UNL     1     -13.909  84.024 -10.186  1.00  0.00     0.004 C 
ENDBRANCH   2   3
ENDBRANCH   1   2
BRANCH   1   5
ATOM      5  C   UNL     1     -11.807  81.719 -12.376  1.00  0.00     0.072 C 
BRANCH   5   6
ATOM      6  C   UNL     1     -13.208  81.513 -12.873  1.00  0.00     0.224 C 
ATOM      7  O   UNL     1     -13.631  82.145 -13.827  1.00  0.00    -0.303 OA
ENDBRANCH   5   6
ENDBRANCH   1   5
TORSDOF 4
ENDMDL
MODEL 3
REMARK VINA RESULT:    -3.002      2.024      2.306
REMARK INTER + INTRA:          -3.821
REMARK INTER:                  -3.753
REMARK INTRA:                  -0.068
REMARK UNBOUND:                -0.117
REMARK SMILES CCCCCC=O
REMARK SMILES IDX 4 1 3 2 2 3 1 4 5 5 6 6 7 7
REMARK H PARENT
REMARK Flexibility Score: inf
ROOT
ATOM      1  C   UNL     1     -13.143  81.774 -10.270  1.00  0.00     0.008 C 
ENDROOT
BRANCH   1   2
ATOM      2  C   UNL     1     -11.750  81.897 -10.909  1.00  0.00     0.000 C 
BRANCH   2   3
ATOM      3  C   UNL     1     -11.782  81.704 -12.433  1.00  0.00    -0.003 C 
ATOM      4  C   UNL     1     -13.199  81.734 -13.005  1.00  0.00     0.004 C 
ENDBRANCH   2   3
ENDBRANCH   1   2
BRANCH   1   5
ATOM      5  C   UNL     1     -13.078  81.428  -8.774  1.00  0.00     0.072 C 
BRANCH   5   6
ATOM      6  C   UNL     1     -14.437  81.377  -8.140  1.00  0.00     0.224 C 
ATOM      7  O   UNL     1     -15.087  82.396  -7.974  1.00  0.00    -0.303 OA
ENDBRANCH   5   6
ENDBRANCH   1   5
TORSDOF 4
ENDMDL
MODEL 4
REMARK VINA RESULT:    -2.923      2.263      3.668
REMARK INTER + INTRA:          -3.724
REMARK INTER:                  -3.633
REMARK INTRA:                  -0.091
REMARK UNBOUND:                -0.117
REMARK SMILES CCCCCC=O
REMARK SMILES IDX 4 1 3 2 2 3 1 4 5 5 6 6 7 7
REMARK H PARENT
REMARK Flexibility Score: inf
ROOT
ATOM      1  C   UNL     1     -11.572  81.967 -10.876  1.00  0.00     0.008 C 
ENDROOT
BRANCH   1   2
ATOM      2  C   UNL     1     -12.855  82.284 -10.089  1.00  0.00     0.000 C 
BRANCH   2   3
ATOM      3  C   UNL     1     -13.079  81.322  -8.914  1.00  0.00    -0.003 C 
ATOM      4  C   UNL     1     -14.373  81.608  -8.151  1.00  0.00     0.004 C 
ENDBRANCH   2   3
ENDBRANCH   1   2
BRANCH   1   5
ATOM      5  C   UNL     1     -11.846  81.670 -12.358  1.00  0.00     0.072 C 
BRANCH   5   6
ATOM      6  C   UNL     1     -13.305  81.760 -12.698  1.00  0.00     0.224 C 
ATOM      7  O   UNL     1     -13.667  81.976 -13.844  1.00  0.00    -0.303 OA
ENDBRANCH   5   6
ENDBRANCH   1   5
TORSDOF 4
ENDMDL
MODEL 5
REMARK VINA RESULT:    -2.896      2.228      2.601
REMARK INTER + INTRA:          -3.690
REMARK INTER:                  -3.563
REMARK INTRA:                  -0.127
REMARK UNBOUND:                -0.117
REMARK SMILES CCCCCC=O
REMARK SMILES IDX 4 1 3 2 2 3 1 4 5 5 6 6 7 7
REMARK H PARENT
REMARK Flexibility Score: inf
ROOT
ATOM      1  C   UNL     1     -13.079  82.741 -10.458  1.00  0.00     0.008 C 
ENDROOT
BRANCH   1   2
ATOM      2  C   UNL     1     -12.001  81.815 -11.046  1.00  0.00     0.000 C 
BRANCH   2   3
ATOM      3  C   UNL     1     -12.019  81.792 -12.582  1.00  0.00    -0.003 C 
ATOM      4  C   UNL     1     -13.435  81.776 -13.159  1.00  0.00     0.004 C 
ENDBRANCH   2   3
ENDBRANCH   1   2
BRANCH   1   5
ATOM      5  C   UNL     1     -13.712  82.171  -9.179  1.00  0.00     0.072 C 
BRANCH   5   6
ATOM      6  C   UNL     1     -12.775  81.270  -8.430  1.00  0.00     0.224 C 
ATOM      7  O   UNL     1     -12.131  81.688  -7.482  1.00  0.00    -0.303 OA
ENDBRANCH   5   6
ENDBRANCH   1   5
TORSDOF 4
ENDMDL
MODEL 6
REMARK VINA RESULT:    -2.795      2.802      3.278
REMARK INTER + INTRA:          -3.566
REMARK INTER:                  -3.482
REMARK INTRA:                  -0.084
REMARK UNBOUND:                -0.117
REMARK SMILES CCCCCC=O
REMARK SMILES IDX 4 1 3 2 2 3 1 4 5 5 6 6 7 7
REMARK H PARENT
REMARK Flexibility Score: inf
ROOT
ATOM      1  C   UNL     1     -11.875  82.201  -9.421  1.00  0.00     0.008 C 
ENDROOT
BRANCH   1   2
ATOM      2  C   UNL     1     -12.782  81.608 -10.512  1.00  0.00     0.000 C 
BRANCH   2   3
ATOM      3  C   UNL     1     -12.217  81.818 -11.925  1.00  0.00    -0.003 C 
ATOM      4  C   UNL     1     -13.291  81.743 -13.011  1.00  0.00     0.004 C 
ENDBRANCH   2   3
ENDBRANCH   1   2
BRANCH   1   5
ATOM      5  C   UNL     1     -10.391  82.196  -9.819  1.00  0.00     0.072 C 
BRANCH   5   6
ATOM      6  C   UNL     1      -9.594  83.221  -9.066  1.00  0.00     0.224 C 
ATOM      7  O   UNL     1      -8.429  83.440  -9.354  1.00  0.00    -0.303 OA
ENDBRANCH   5   6
ENDBRANCH   1   5
TORSDOF 4
ENDMDL
MODEL 7
REMARK VINA RESULT:    -2.708      2.472      3.680
REMARK INTER + INTRA:          -3.459
REMARK INTER:                  -3.265
REMARK INTRA:                  -0.194
REMARK UNBOUND:                -0.117
REMARK SMILES CCCCCC=O
REMARK SMILES IDX 4 1 3 2 2 3 1 4 5 5 6 6 7 7
REMARK H PARENT
REMARK Flexibility Score: inf
ROOT
ATOM      1  C   UNL     1     -13.186  83.238 -10.583  1.00  0.00     0.008 C 
ENDROOT
BRANCH   1   2
ATOM      2  C   UNL     1     -12.203  83.586  -9.453  1.00  0.00     0.000 C 
BRANCH   2   3
ATOM      3  C   UNL     1     -11.361  82.379  -9.011  1.00  0.00    -0.003 C 
ATOM      4  C   UNL     1      -9.872  82.552  -9.313  1.00  0.00     0.004 C 
ENDBRANCH   2   3
ENDBRANCH   1   2
BRANCH   1   5
ATOM      5  C   UNL     1     -12.999  81.807 -11.108  1.00  0.00     0.072 C 
BRANCH   5   6
ATOM      6  C   UNL     1     -12.331  81.774 -12.451  1.00  0.00     0.224 C 
ATOM      7  O   UNL     1     -11.121  81.645 -12.544  1.00  0.00    -0.303 OA
ENDBRANCH   5   6
ENDBRANCH   1   5
TORSDOF 4
ENDMDL
MODEL 8
REMARK VINA RESULT:    -2.649      2.332      4.059
REMARK INTER + INTRA:          -3.385
REMARK INTER:                  -3.315
REMARK INTRA:                  -0.070
REMARK UNBOUND:                -0.117
REMARK SMILES CCCCCC=O
REMARK SMILES IDX 4 1 3 2 2 3 1 4 5 5 6 6 7 7
REMARK H PARENT
REMARK Flexibility Score: inf
ROOT
ATOM      1  C   UNL     1     -12.754  83.316 -10.328  1.00  0.00     0.008 C 
ENDROOT
BRANCH   1   2
ATOM      2  C   UNL     1     -14.103  84.053 -10.371  1.00  0.00     0.000 C 
BRANCH   2   3
ATOM      3  C   UNL     1     -13.962  85.557 -10.091  1.00  0.00    -0.003 C 
ATOM      4  C   UNL     1     -12.511  85.988  -9.880  1.00  0.00     0.004 C 
ENDBRANCH   2   3
ENDBRANCH   1   2
BRANCH   1   5
ATOM      5  C   UNL     1     -12.864  81.857 -10.795  1.00  0.00     0.072 C 
BRANCH   5   6
ATOM      6  C   UNL     1     -12.339  81.661 -12.188  1.00  0.00     0.224 C 
ATOM      7  O   UNL     1     -11.139  81.590 -12.398  1.00  0.00    -0.303 OA
ENDBRANCH   5   6
ENDBRANCH   1   5
TORSDOF 4
ENDMDL
MODEL 9
REMARK VINA RESULT:    -2.561      8.309      9.116
REMARK INTER + INTRA:          -3.277
REMARK INTER:                  -3.046
REMARK INTRA:                  -0.231
REMARK UNBOUND:                -0.117
REMARK SMILES CCCCCC=O
REMARK SMILES IDX 4 1 3 2 2 3 1 4 5 5 6 6 7 7
REMARK H PARENT
REMARK Flexibility Score: inf
ROOT
ATOM      1  C   UNL     1      -5.389  84.715 -10.204  1.00  0.00     0.008 C 
ENDROOT
BRANCH   1   2
ATOM      2  C   UNL     1      -5.487  83.211  -9.900  1.00  0.00     0.000 C 
BRANCH   2   3
ATOM      3  C   UNL     1      -4.109  82.545  -9.770  1.00  0.00    -0.003 C 
ATOM      4  C   UNL     1      -3.772  82.155  -8.330  1.00  0.00     0.004 C 
ENDBRANCH   2   3
ENDBRANCH   1   2
BRANCH   1   5
ATOM      5  C   UNL     1      -5.222  85.565  -8.935  1.00  0.00     0.072 C 
BRANCH   5   6
ATOM      6  C   UNL     1      -3.879  86.230  -8.865  1.00  0.00     0.224 C 
ATOM      7  O   UNL     1      -2.906  85.629  -8.440  1.00  0.00    -0.303 OA
ENDBRANCH   5   6
ENDBRANCH   1   5
TORSDOF 4
ENDMDL
