MODEL 1
REMARK VINA RESULT:    -3.642      0.000      0.000
REMARK INTER + INTRA:          -6.522
REMARK INTER:                  -5.558
REMARK INTRA:                  -0.965
REMARK UNBOUND:                -0.965
REMARK SMILES CCCCCCCCCCC(=O)[O-]
REMARK SMILES IDX 7 1 8 2 9 3 10 4 11 5 12 6 13 7 6 8 5 9 4 10 3 11 2 12 1 13
REMARK H PARENT
REMARK Flexibility Score: inf
ROOT
ATOM      1  C   UNL     1     -23.107  -5.600 -15.313  1.00  0.00     0.000 C 
ENDROOT
BRANCH   1   2
ATOM      2  C   UNL     1     -22.452  -4.397 -14.623  1.00  0.00     0.000 C 
BRANCH   2   3
ATOM      3  C   UNL     1     -22.935  -4.264 -13.172  1.00  0.00     0.006 C 
BRANCH   3   4
ATOM      4  C   UNL     1     -21.890  -3.593 -12.271  1.00  0.00     0.053 C 
BRANCH   4   5
ATOM      5  C   UNL     1     -22.201  -2.146 -12.039  1.00  0.00     0.041 C 
ATOM      6  O   UNL     1     -22.419  -1.724 -10.872  1.00  0.00    -0.550 OA
ATOM      7  O   UNL     1     -22.218  -1.257 -13.107  1.00  0.00    -0.550 OA
ENDBRANCH   4   5
ENDBRANCH   3   4
ENDBRANCH   2   3
ENDBRANCH   1   2
BRANCH   1   8
ATOM      8  C   UNL     1     -22.125  -6.771 -15.429  1.00  0.00     0.000 C 
BRANCH   8   9
ATOM      9  C   UNL     1     -20.677  -6.292 -15.244  1.00  0.00    -0.000 C 
BRANCH   9  10
ATOM     10  C   UNL     1     -19.892  -7.151 -14.240  1.00  0.00    -0.000 C 
BRANCH  10  11
ATOM     11  C   UNL     1     -20.416  -7.010 -12.802  1.00  0.00    -0.000 C 
BRANCH  11  12
ATOM     12  C   UNL     1     -20.707  -8.384 -12.187  1.00  0.00    -0.003 C 
ATOM     13  C   UNL     1     -20.137  -9.507 -13.049  1.00  0.00     0.004 C 
ENDBRANCH  11  12
ENDBRANCH  10  11
ENDBRANCH   9  10
ENDBRANCH   8   9
ENDBRANCH   1   8
TORSDOF 9
ENDMDL
MODEL 2
REMARK VINA RESULT:    -3.603     19.663     21.158
REMARK INTER + INTRA:          -6.463
REMARK INTER:                  -5.749
REMARK INTRA:                  -0.713
REMARK UNBOUND:                -0.965
REMARK SMILES CCCCCCCCCCC(=O)[O-]
REMARK SMILES IDX 7 1 8 2 9 3 10 4 11 5 12 6 13 7 6 8 5 9 4 10 3 11 2 12 1 13
REMARK H PARENT
REMARK Flexibility Score: inf
ROOT
ATOM      1  C   UNL     1      -7.510  -9.661   0.123  1.00  0.00     0.000 C 
ENDROOT
BRANCH   1   2
ATOM      2  C   UNL     1      -7.462  -8.200  -0.339  1.00  0.00     0.000 C 
BRANCH   2   3
ATOM      3  C   UNL     1      -6.396  -7.411   0.435  1.00  0.00     0.006 C 
BRANCH   3   4
ATOM      4  C   UNL     1      -6.900  -6.030   0.876  1.00  0.00     0.053 C 
BRANCH   4   5
ATOM      5  C   UNL     1      -7.965  -6.135   1.923  1.00  0.00     0.041 C 
ATOM      6  O   UNL     1      -7.845  -6.958   2.869  1.00  0.00    -0.550 OA
ATOM      7  O   UNL     1      -9.074  -5.299   1.875  1.00  0.00    -0.550 OA
ENDBRANCH   4   5
ENDBRANCH   3   4
ENDBRANCH   2   3
ENDBRANCH   1   2
BRANCH   1   8
ATOM      8  C   UNL     1      -6.422 -10.492  -0.566  1.00  0.00     0.000 C 
BRANCH   8   9
ATOM      9  C   UNL     1      -5.413 -11.033   0.459  1.00  0.00    -0.000 C 
BRANCH   9  10
ATOM     10  C   UNL     1      -6.014 -11.172   1.866  1.00  0.00    -0.000 C 
BRANCH  10  11
ATOM     11  C   UNL     1      -6.389 -12.621   2.210  1.00  0.00    -0.000 C 
BRANCH  11  12
ATOM     12  C   UNL     1      -5.574 -13.613   1.373  1.00  0.00    -0.003 C 
ATOM     13  C   UNL     1      -6.465 -14.706   0.789  1.00  0.00     0.004 C 
ENDBRANCH  11  12
ENDBRANCH  10  11
ENDBRANCH   9  10
ENDBRANCH   8   9
ENDBRANCH   1   8
TORSDOF 9
ENDMDL
MODEL 3
REMARK VINA RESULT:    -3.576     18.613     20.023
REMARK INTER + INTRA:          -6.422
REMARK INTER:                  -5.656
REMARK INTRA:                  -0.766
REMARK UNBOUND:                -0.965
REMARK SMILES CCCCCCCCCCC(=O)[O-]
REMARK SMILES IDX 7 1 8 2 9 3 10 4 11 5 12 6 13 7 6 8 5 9 4 10 3 11 2 12 1 13
REMARK H PARENT
REMARK Flexibility Score: inf
ROOT
ATOM      1  C   UNL     1      -7.320  -4.521   2.494  1.00  0.00     0.000 C 
ENDROOT
BRANCH   1   2
ATOM      2  C   UNL     1      -8.001  -5.783   3.037  1.00  0.00     0.000 C 
BRANCH   2   3
ATOM      3  C   UNL     1      -9.527  -5.618   3.063  1.00  0.00     0.006 C 
BRANCH   3   4
ATOM      4  C   UNL     1      -9.974  -4.256   2.515  1.00  0.00     0.053 C 
BRANCH   4   5
ATOM      5  C   UNL     1     -11.277  -4.351   1.781  1.00  0.00     0.041 C 
ATOM      6  O   UNL     1     -11.303  -4.747   0.586  1.00  0.00    -0.550 OA
ATOM      7  O   UNL     1     -12.465  -4.036   2.428  1.00  0.00    -0.550 OA
ENDBRANCH   4   5
ENDBRANCH   3   4
ENDBRANCH   2   3
ENDBRANCH   1   2
BRANCH   1   8
ATOM      8  C   UNL     1      -6.465  -4.844   1.263  1.00  0.00     0.000 C 
BRANCH   8   9
ATOM      9  C   UNL     1      -6.107  -6.337   1.220  1.00  0.00    -0.000 C 
BRANCH   9  10
ATOM     10  C   UNL     1      -6.389  -6.975  -0.149  1.00  0.00    -0.000 C 
BRANCH  10  11
ATOM     11  C   UNL     1      -7.692  -7.788  -0.167  1.00  0.00    -0.000 C 
BRANCH  11  12
ATOM     12  C   UNL     1      -7.479  -9.180   0.439  1.00  0.00    -0.003 C 
ATOM     13  C   UNL     1      -6.573 -10.033  -0.443  1.00  0.00     0.004 C 
ENDBRANCH  11  12
ENDBRANCH  10  11
ENDBRANCH   9  10
ENDBRANCH   8   9
ENDBRANCH   1   8
TORSDOF 9
ENDMDL
MODEL 4
REMARK VINA RESULT:    -3.516     18.766     20.128
REMARK INTER + INTRA:          -6.330
REMARK INTER:                  -5.827
REMARK INTRA:                  -0.503
REMARK UNBOUND:                -0.965
REMARK SMILES CCCCCCCCCCC(=O)[O-]
REMARK SMILES IDX 7 1 8 2 9 3 10 4 11 5 12 6 13 7 6 8 5 9 4 10 3 11 2 12 1 13
REMARK H PARENT
REMARK Flexibility Score: inf
ROOT
ATOM      1  C   UNL     1      -7.931  -6.518   0.477  1.00  0.00     0.000 C 
ENDROOT
BRANCH   1   2
ATOM      2  C   UNL     1      -7.646  -5.723   1.757  1.00  0.00     0.000 C 
BRANCH   2   3
ATOM      3  C   UNL     1      -8.912  -5.593   2.617  1.00  0.00     0.006 C 
BRANCH   3   4
ATOM      4  C   UNL     1      -9.615  -4.244   2.416  1.00  0.00     0.053 C 
BRANCH   4   5
ATOM      5  C   UNL     1     -11.016  -4.416   1.914  1.00  0.00     0.041 C 
ATOM      6  O   UNL     1     -11.223  -4.769   0.723  1.00  0.00    -0.550 OA
ATOM      7  O   UNL     1     -12.092  -4.220   2.770  1.00  0.00    -0.550 OA
ENDBRANCH   4   5
ENDBRANCH   3   4
ENDBRANCH   2   3
ENDBRANCH   1   2
BRANCH   1   8
ATOM      8  C   UNL     1      -6.966  -7.701   0.337  1.00  0.00     0.000 C 
BRANCH   8   9
ATOM      9  C   UNL     1      -7.005  -8.591   1.588  1.00  0.00    -0.000 C 
BRANCH   9  10
ATOM     10  C   UNL     1      -6.668 -10.059   1.282  1.00  0.00    -0.000 C 
BRANCH  10  11
ATOM     11  C   UNL     1      -6.400 -10.307  -0.210  1.00  0.00    -0.000 C 
BRANCH  11  12
ATOM     12  C   UNL     1      -5.668 -11.637  -0.423  1.00  0.00    -0.003 C 
ATOM     13  C   UNL     1      -5.840 -12.560   0.781  1.00  0.00     0.004 C 
ENDBRANCH  11  12
ENDBRANCH  10  11
ENDBRANCH   9  10
ENDBRANCH   8   9
ENDBRANCH   1   8
TORSDOF 9
ENDMDL
MODEL 5
REMARK VINA RESULT:    -3.503     19.586     21.405
REMARK INTER + INTRA:          -6.310
REMARK INTER:                  -5.849
REMARK INTRA:                  -0.461
REMARK UNBOUND:                -0.965
REMARK SMILES CCCCCCCCCCC(=O)[O-]
REMARK SMILES IDX 7 1 8 2 9 3 10 4 11 5 12 6 13 7 6 8 5 9 4 10 3 11 2 12 1 13
REMARK H PARENT
REMARK Flexibility Score: inf
ROOT
ATOM      1  C   UNL     1      -7.514  -7.613  -0.193  1.00  0.00     0.000 C 
ENDROOT
BRANCH   1   2
ATOM      2  C   UNL     1      -7.617  -9.139  -0.288  1.00  0.00     0.000 C 
BRANCH   2   3
ATOM      3  C   UNL     1      -6.439  -9.817   0.427  1.00  0.00     0.006 C 
BRANCH   3   4
ATOM      4  C   UNL     1      -5.961 -11.078  -0.306  1.00  0.00     0.053 C 
BRANCH   4   5
ATOM      5  C   UNL     1      -6.063 -12.297   0.558  1.00  0.00     0.041 C 
ATOM      6  O   UNL     1      -5.815 -13.435   0.080  1.00  0.00    -0.550 OA
ATOM      7  O   UNL     1      -6.399 -12.173   1.901  1.00  0.00    -0.550 OA
ENDBRANCH   4   5
ENDBRANCH   3   4
ENDBRANCH   2   3
ENDBRANCH   1   2
BRANCH   1   8
ATOM      8  C   UNL     1      -6.810  -7.189   1.102  1.00  0.00     0.000 C 
BRANCH   8   9
ATOM      9  C   UNL     1      -7.776  -6.439   2.031  1.00  0.00    -0.000 C 
BRANCH   9  10
ATOM     10  C   UNL     1      -7.608  -4.914   1.956  1.00  0.00    -0.000 C 
BRANCH  10  11
ATOM     11  C   UNL     1      -8.748  -4.156   2.654  1.00  0.00    -0.000 C 
BRANCH  11  12
ATOM     12  C   UNL     1     -10.036  -4.986   2.658  1.00  0.00    -0.003 C 
ATOM     13  C   UNL     1     -11.000  -4.515   1.572  1.00  0.00     0.004 C 
ENDBRANCH  11  12
ENDBRANCH  10  11
ENDBRANCH   9  10
ENDBRANCH   8   9
ENDBRANCH   1   8
TORSDOF 9
ENDMDL
MODEL 6
REMARK VINA RESULT:    -3.502     20.346     22.250
REMARK INTER + INTRA:          -6.309
REMARK INTER:                  -5.862
REMARK INTRA:                  -0.447
REMARK UNBOUND:                -0.965
REMARK SMILES CCCCCCCCCCC(=O)[O-]
REMARK SMILES IDX 7 1 8 2 9 3 10 4 11 5 12 6 13 7 6 8 5 9 4 10 3 11 2 12 1 13
REMARK H PARENT
REMARK Flexibility Score: inf
ROOT
ATOM      1  C   UNL     1      -6.362 -10.582  -0.647  1.00  0.00     0.000 C 
ENDROOT
BRANCH   1   2
ATOM      2  C   UNL     1      -5.294 -11.444   0.037  1.00  0.00     0.000 C 
BRANCH   2   3
ATOM      3  C   UNL     1      -5.763 -12.900   0.168  1.00  0.00     0.006 C 
BRANCH   3   4
ATOM      4  C   UNL     1      -6.104 -13.272   1.618  1.00  0.00     0.053 C 
BRANCH   4   5
ATOM      5  C   UNL     1      -6.454 -14.723   1.753  1.00  0.00     0.041 C 
ATOM      6  O   UNL     1      -6.965 -15.344   0.784  1.00  0.00    -0.550 OA
ATOM      7  O   UNL     1      -6.183 -15.397   2.937  1.00  0.00    -0.550 OA
ENDBRANCH   4   5
ENDBRANCH   3   4
ENDBRANCH   2   3
ENDBRANCH   1   2
BRANCH   1   8
ATOM      8  C   UNL     1      -7.025  -9.629   0.355  1.00  0.00     0.000 C 
BRANCH   8   9
ATOM      9  C   UNL     1      -7.680  -8.442  -0.368  1.00  0.00    -0.000 C 
BRANCH   9  10
ATOM     10  C   UNL     1      -6.817  -7.171  -0.322  1.00  0.00    -0.000 C 
BRANCH  10  11
ATOM     11  C   UNL     1      -6.377  -6.804   1.103  1.00  0.00    -0.000 C 
BRANCH  11  12
ATOM     12  C   UNL     1      -6.975  -5.459   1.532  1.00  0.00    -0.003 C 
ATOM     13  C   UNL     1      -8.393  -5.631   2.067  1.00  0.00     0.004 C 
ENDBRANCH  11  12
ENDBRANCH  10  11
ENDBRANCH   9  10
ENDBRANCH   8   9
ENDBRANCH   1   8
TORSDOF 9
ENDMDL
MODEL 7
REMARK VINA RESULT:    -3.470      1.699      2.415
REMARK INTER + INTRA:          -6.260
REMARK INTER:                  -5.179
REMARK INTRA:                  -1.081
REMARK UNBOUND:                -0.965
REMARK SMILES CCCCCCCCCCC(=O)[O-]
REMARK SMILES IDX 7 1 8 2 9 3 10 4 11 5 12 6 13 7 6 8 5 9 4 10 3 11 2 12 1 13
REMARK H PARENT
REMARK Flexibility Score: inf
ROOT
ATOM      1  C   UNL     1     -21.534  -6.507 -16.309  1.00  0.00     0.000 C 
ENDROOT
BRANCH   1   2
ATOM      2  C   UNL     1     -23.011  -6.443 -15.902  1.00  0.00     0.000 C 
BRANCH   2   3
ATOM      3  C   UNL     1     -23.528  -4.997 -15.931  1.00  0.00     0.006 C 
BRANCH   3   4
ATOM      4  C   UNL     1     -24.393  -4.664 -14.708  1.00  0.00     0.053 C 
BRANCH   4   5
ATOM      5  C   UNL     1     -23.589  -4.034 -13.613  1.00  0.00     0.041 C 
ATOM      6  O   UNL     1     -22.934  -2.982 -13.833  1.00  0.00    -0.550 OA
ATOM      7  O   UNL     1     -23.591  -4.590 -12.339  1.00  0.00    -0.550 OA
ENDBRANCH   4   5
ENDBRANCH   3   4
ENDBRANCH   2   3
ENDBRANCH   1   2
BRANCH   1   8
ATOM      8  C   UNL     1     -20.760  -5.302 -15.761  1.00  0.00     0.000 C 
BRANCH   8   9
ATOM      9  C   UNL     1     -19.770  -5.737 -14.669  1.00  0.00    -0.000 C 
BRANCH   9  10
ATOM     10  C   UNL     1     -20.390  -5.713 -13.263  1.00  0.00    -0.000 C 
BRANCH  10  11
ATOM     11  C   UNL     1     -20.695  -7.120 -12.726  1.00  0.00    -0.000 C 
BRANCH  11  12
ATOM     12  C   UNL     1     -19.887  -8.182 -13.480  1.00  0.00    -0.003 C 
ATOM     13  C   UNL     1     -20.248  -9.588 -13.008  1.00  0.00     0.004 C 
ENDBRANCH  11  12
ENDBRANCH  10  11
ENDBRANCH   9  10
ENDBRANCH   8   9
ENDBRANCH   1   8
TORSDOF 9
ENDMDL
MODEL 8
REMARK VINA RESULT:    -3.434      2.678      3.794
REMARK INTER + INTRA:          -6.205
REMARK INTER:                  -5.252
REMARK INTRA:                  -0.953
REMARK UNBOUND:                -0.965
REMARK SMILES CCCCCCCCCCC(=O)[O-]
REMARK SMILES IDX 7 1 8 2 9 3 10 4 11 5 12 6 13 7 6 8 5 9 4 10 3 11 2 12 1 13
REMARK H PARENT
REMARK Flexibility Score: inf
ROOT
ATOM      1  C   UNL     1     -22.133  -4.229 -12.651  1.00  0.00     0.000 C 
ENDROOT
BRANCH   1   2
ATOM      2  C   UNL     1     -23.542  -4.278 -13.253  1.00  0.00     0.000 C 
BRANCH   2   3
ATOM      3  C   UNL     1     -23.493  -4.140 -14.782  1.00  0.00     0.006 C 
BRANCH   3   4
ATOM      4  C   UNL     1     -23.951  -5.420 -15.496  1.00  0.00     0.053 C 
BRANCH   4   5
ATOM      5  C   UNL     1     -22.808  -6.127 -16.156  1.00  0.00     0.041 C 
ATOM      6  O   UNL     1     -21.886  -5.468 -16.704  1.00  0.00    -0.550 OA
ATOM      7  O   UNL     1     -22.743  -7.515 -16.137  1.00  0.00    -0.550 OA
ENDBRANCH   4   5
ENDBRANCH   3   4
ENDBRANCH   2   3
ENDBRANCH   1   2
BRANCH   1   8
ATOM      8  C   UNL     1     -21.120  -3.684 -13.665  1.00  0.00     0.000 C 
BRANCH   8   9
ATOM      9  C   UNL     1     -19.965  -4.675 -13.874  1.00  0.00    -0.000 C 
BRANCH   9  10
ATOM     10  C   UNL     1     -20.034  -5.876 -12.918  1.00  0.00    -0.000 C 
BRANCH  10  11
ATOM     11  C   UNL     1     -20.253  -7.207 -13.653  1.00  0.00    -0.000 C 
BRANCH  11  12
ATOM     12  C   UNL     1     -20.719  -8.299 -12.683  1.00  0.00    -0.003 C 
ATOM     13  C   UNL     1     -20.113  -9.653 -13.044  1.00  0.00     0.004 C 
ENDBRANCH  11  12
ENDBRANCH  10  11
ENDBRANCH   9  10
ENDBRANCH   8   9
ENDBRANCH   1   8
TORSDOF 9
ENDMDL
MODEL 9
REMARK VINA RESULT:    -3.428      3.133      4.384
REMARK INTER + INTRA:          -6.196
REMARK INTER:                  -5.107
REMARK INTRA:                  -1.088
REMARK UNBOUND:                -0.965
REMARK SMILES CCCCCCCCCCC(=O)[O-]
REMARK SMILES IDX 7 1 8 2 9 3 10 4 11 5 12 6 13 7 6 8 5 9 4 10 3 11 2 12 1 13
REMARK H PARENT
REMARK Flexibility Score: inf
ROOT
ATOM      1  C   UNL     1     -19.849  -3.822 -15.144  1.00  0.00     0.000 C 
ENDROOT
BRANCH   1   2
ATOM      2  C   UNL     1     -20.064  -4.331 -16.574  1.00  0.00     0.000 C 
BRANCH   2   3
ATOM      3  C   UNL     1     -21.473  -4.919 -16.743  1.00  0.00     0.006 C 
BRANCH   3   4
ATOM      4  C   UNL     1     -21.450  -6.444 -16.916  1.00  0.00     0.053 C 
BRANCH   4   5
ATOM      5  C   UNL     1     -22.672  -7.088 -16.338  1.00  0.00     0.041 C 
ATOM      6  O   UNL     1     -23.548  -6.387 -15.767  1.00  0.00    -0.550 OA
ATOM      7  O   UNL     1     -22.861  -8.460 -16.461  1.00  0.00    -0.550 OA
ENDBRANCH   4   5
ENDBRANCH   3   4
ENDBRANCH   2   3
ENDBRANCH   1   2
BRANCH   1   8
ATOM      8  C   UNL     1     -21.169  -3.798 -14.364  1.00  0.00     0.000 C 
BRANCH   8   9
ATOM      9  C   UNL     1     -20.974  -4.339 -12.939  1.00  0.00    -0.000 C 
BRANCH   9  10
ATOM     10  C   UNL     1     -20.111  -5.610 -12.901  1.00  0.00    -0.000 C 
BRANCH  10  11
ATOM     11  C   UNL     1     -20.934  -6.892 -13.099  1.00  0.00    -0.000 C 
BRANCH  11  12
ATOM     12  C   UNL     1     -20.086  -7.995 -13.742  1.00  0.00    -0.003 C 
ATOM     13  C   UNL     1     -20.240  -9.317 -12.995  1.00  0.00     0.004 C 
ENDBRANCH  11  12
ENDBRANCH  10  11
ENDBRANCH   9  10
ENDBRANCH   8   9
ENDBRANCH   1   8
TORSDOF 9
ENDMDL
