MODEL 1
REMARK VINA RESULT:    -4.676      0.000      0.000
REMARK INTER + INTRA:          -8.938
REMARK INTER:                  -6.316
REMARK INTRA:                  -2.622
REMARK UNBOUND:                -2.622
REMARK SMILES CC[C@@H](CC[C@@H](C)[C@H]1CC[C@@H]2[C@H]3CC(=O)C4=CC(=O)CC[C@@]4(C)[C@H]3CC[C@@]21C)C(C)C
REMARK SMILES IDX 4 1 3 2 2 3 1 4 29 5 30 6 31 7 5 8 6 9 7 10 8 11 9 12 27 13
REMARK SMILES IDX 10 14 11 15 26 16 28 17 12 18 25 19 24 20 13 21 22 22 14 23
REMARK SMILES IDX 16 24 21 25 23 26 15 27 17 28 20 29 18 30 19 31
REMARK H PARENT
REMARK Flexibility Score: inf
ROOT
ATOM      1  C   UNL     1      70.688  -1.738  37.831  1.00  0.00     0.004 C 
ENDROOT
BRANCH   1   2
ATOM      2  C   UNL     1      71.019  -0.927  39.127  1.00  0.00    -0.009 C 
BRANCH   2   3
ATOM      3  C   UNL     1      69.683  -0.404  39.746  1.00  0.00     0.000 C 
ATOM      4  C   UNL     1      69.528  -0.831  41.207  1.00  0.00     0.004 C 
ENDBRANCH   2   3
BRANCH   2   5
ATOM      5  C   UNL     1      72.029   0.255  38.893  1.00  0.00    -0.014 C 
ATOM      6  C   UNL     1      72.755   0.128  37.539  1.00  0.00     0.007 C 
ATOM      7  C   UNL     1      71.364   1.644  38.931  1.00  0.00     0.007 C 
ENDBRANCH   2   5
ENDBRANCH   1   2
BRANCH   1   8
ATOM      8  C   UNL     1      69.177  -1.863  37.556  1.00  0.00     0.004 C 
BRANCH   8   9
ATOM      9  C   UNL     1      68.882  -1.977  36.020  1.00  0.00    -0.011 C 
ATOM     10  C   UNL     1      67.811  -3.084  35.839  1.00  0.00     0.008 C 
BRANCH   9  11
ATOM     11  C   UNL     1      68.479  -0.580  35.386  1.00  0.00    -0.002 C 
ATOM     12  C   UNL     1      67.886   0.342  36.484  1.00  0.00     0.005 C 
ATOM     13  C   UNL     1      69.587   0.312  34.666  1.00  0.00    -0.026 C 
ATOM     14  C   UNL     1      68.517   1.705  36.352  1.00  0.00     0.005 C 
ATOM     15  C   UNL     1      69.858   1.467  35.673  1.00  0.00    -0.001 C 
ATOM     16  C   UNL     1      68.995   0.888  33.345  1.00  0.00     0.007 C 
ATOM     17  C   UNL     1      70.882  -0.458  34.318  1.00  0.00     0.012 C 
ATOM     18  C   UNL     1      70.442   2.811  35.119  1.00  0.00     0.004 C 
ATOM     19  C   UNL     1      69.771   2.086  32.774  1.00  0.00     0.005 C 
ATOM     20  C   UNL     1      69.786   3.265  33.778  1.00  0.00     0.003 C 
ATOM     21  C   UNL     1      71.984   2.785  35.065  1.00  0.00     0.085 C 
ATOM     22  C   UNL     1      70.377   4.638  33.234  1.00  0.00    -0.000 C 
ATOM     23  C   UNL     1      72.559   4.035  34.496  1.00  0.00     0.159 C 
ATOM     24  C   UNL     1      71.899   4.701  33.353  1.00  0.00     0.005 C 
ATOM     25  C   UNL     1      69.961   4.878  31.744  1.00  0.00     0.020 C 
ATOM     26  C   UNL     1      69.800   5.794  34.099  1.00  0.00     0.017 C 
ATOM     27  O   UNL     1      73.659   4.465  34.941  1.00  0.00    -0.295 OA
ATOM     28  C   UNL     1      72.631   5.487  32.536  1.00  0.00     0.055 C 
ATOM     29  C   UNL     1      70.549   6.164  31.155  1.00  0.00     0.081 C 
ATOM     30  C   UNL     1      72.025   6.231  31.418  1.00  0.00     0.156 C 
ATOM     31  O   UNL     1      72.754   6.956  30.688  1.00  0.00    -0.295 OA
ENDBRANCH   9  11
ENDBRANCH   8   9
ENDBRANCH   1   8
TORSDOF 6
ENDMDL
MODEL 2
REMARK VINA RESULT:    -4.658      3.448      7.355
REMARK INTER + INTRA:          -8.913
REMARK INTER:                  -6.391
REMARK INTRA:                  -2.522
REMARK UNBOUND:                -2.622
REMARK SMILES CC[C@@H](CC[C@@H](C)[C@H]1CC[C@@H]2[C@H]3CC(=O)C4=CC(=O)CC[C@@]4(C)[C@H]3CC[C@@]21C)C(C)C
REMARK SMILES IDX 4 1 3 2 2 3 1 4 29 5 30 6 31 7 5 8 6 9 7 10 8 11 9 12 27 13
REMARK SMILES IDX 10 14 11 15 26 16 28 17 12 18 25 19 24 20 13 21 22 22 14 23
REMARK SMILES IDX 16 24 21 25 23 26 15 27 17 28 20 29 18 30 19 31
REMARK H PARENT
REMARK Flexibility Score: inf
ROOT
ATOM      1  C   UNL     1      72.058   3.895  33.242  1.00  0.00     0.004 C 
ENDROOT
BRANCH   1   2
ATOM      2  C   UNL     1      71.850   3.059  34.547  1.00  0.00    -0.009 C 
BRANCH   2   3
ATOM      3  C   UNL     1      71.273   3.995  35.657  1.00  0.00     0.000 C 
ATOM      4  C   UNL     1      71.077   5.425  35.148  1.00  0.00     0.004 C 
ENDBRANCH   2   3
BRANCH   2   5
ATOM      5  C   UNL     1      73.152   2.333  35.048  1.00  0.00    -0.014 C 
ATOM      6  C   UNL     1      73.321   0.947  34.393  1.00  0.00     0.007 C 
ATOM      7  C   UNL     1      74.440   3.131  34.777  1.00  0.00     0.007 C 
ENDBRANCH   2   5
ENDBRANCH   1   2
BRANCH   1   8
ATOM      8  C   UNL     1      71.638   3.146  31.962  1.00  0.00     0.004 C 
BRANCH   8   9
ATOM      9  C   UNL     1      70.121   3.376  31.636  1.00  0.00    -0.011 C 
ATOM     10  C   UNL     1      70.033   3.835  30.158  1.00  0.00     0.008 C 
BRANCH   9  11
ATOM     11  C   UNL     1      69.240   2.099  31.969  1.00  0.00    -0.002 C 
ATOM     12  C   UNL     1      70.157   0.857  32.124  1.00  0.00     0.005 C 
ATOM     13  C   UNL     1      68.323   2.088  33.273  1.00  0.00    -0.026 C 
ATOM     14  C   UNL     1      69.740   0.111  33.366  1.00  0.00     0.005 C 
ATOM     15  C   UNL     1      69.075   1.148  34.259  1.00  0.00    -0.001 C 
ATOM     16  C   UNL     1      66.936   1.477  32.911  1.00  0.00     0.007 C 
ATOM     17  C   UNL     1      68.087   3.488  33.885  1.00  0.00     0.012 C 
ATOM     18  C   UNL     1      68.249   0.452  35.393  1.00  0.00     0.004 C 
ATOM     19  C   UNL     1      66.115   1.009  34.124  1.00  0.00     0.005 C 
ATOM     20  C   UNL     1      66.868  -0.092  34.910  1.00  0.00     0.003 C 
ATOM     21  C   UNL     1      68.148   1.338  36.653  1.00  0.00     0.085 C 
ATOM     22  C   UNL     1      66.047  -0.810  36.068  1.00  0.00    -0.000 C 
ATOM     23  C   UNL     1      67.326   0.715  37.728  1.00  0.00     0.159 C 
ATOM     24  C   UNL     1      66.099  -0.032  37.383  1.00  0.00     0.005 C 
ATOM     25  C   UNL     1      64.554  -1.024  35.648  1.00  0.00     0.020 C 
ATOM     26  C   UNL     1      66.689  -2.201  36.331  1.00  0.00     0.017 C 
ATOM     27  O   UNL     1      67.641   0.911  38.934  1.00  0.00    -0.295 OA
ATOM     28  C   UNL     1      65.119  -0.152  38.303  1.00  0.00     0.055 C 
ATOM     29  C   UNL     1      63.705  -1.665  36.751  1.00  0.00     0.081 C 
ATOM     30  C   UNL     1      63.899  -0.938  38.049  1.00  0.00     0.156 C 
ATOM     31  O   UNL     1      63.017  -1.021  38.946  1.00  0.00    -0.295 OA
ENDBRANCH   9  11
ENDBRANCH   8   9
ENDBRANCH   1   8
TORSDOF 6
ENDMDL
MODEL 3
REMARK VINA RESULT:    -4.557     14.360     16.783
REMARK INTER + INTRA:          -8.778
REMARK INTER:                  -6.223
REMARK INTRA:                  -2.555
REMARK UNBOUND:                -2.622
REMARK SMILES CC[C@@H](CC[C@@H](C)[C@H]1CC[C@@H]2[C@H]3CC(=O)C4=CC(=O)CC[C@@]4(C)[C@H]3CC[C@@]21C)C(C)C
REMARK SMILES IDX 4 1 3 2 2 3 1 4 29 5 30 6 31 7 5 8 6 9 7 10 8 11 9 12 27 13
REMARK SMILES IDX 10 14 11 15 26 16 28 17 12 18 25 19 24 20 13 21 22 22 14 23
REMARK SMILES IDX 16 24 21 25 23 26 15 27 17 28 20 29 18 30 19 31
REMARK H PARENT
REMARK Flexibility Score: inf
ROOT
ATOM      1  C   UNL     1      68.736  13.385  47.792  1.00  0.00     0.004 C 
ENDROOT
BRANCH   1   2
ATOM      2  C   UNL     1      69.463  12.003  47.691  1.00  0.00    -0.009 C 
BRANCH   2   3
ATOM      3  C   UNL     1      70.333  11.987  46.394  1.00  0.00     0.000 C 
ATOM      4  C   UNL     1      71.806  11.708  46.699  1.00  0.00     0.004 C 
ENDBRANCH   2   3
BRANCH   2   5
ATOM      5  C   UNL     1      68.488  10.770  47.728  1.00  0.00    -0.014 C 
ATOM      6  C   UNL     1      67.120  11.141  48.336  1.00  0.00     0.007 C 
ATOM      7  C   UNL     1      68.225  10.158  46.339  1.00  0.00     0.007 C 
ENDBRANCH   2   5
ENDBRANCH   1   2
BRANCH   1   8
ATOM      8  C   UNL     1      69.160  14.381  46.696  1.00  0.00     0.004 C 
BRANCH   8   9
ATOM      9  C   UNL     1      68.033  15.434  46.413  1.00  0.00    -0.011 C 
ATOM     10  C   UNL     1      68.730  16.793  46.148  1.00  0.00     0.008 C 
BRANCH   9  11
ATOM     11  C   UNL     1      67.062  14.969  45.248  1.00  0.00    -0.002 C 
ATOM     12  C   UNL     1      67.801  13.972  44.318  1.00  0.00     0.005 C 
ATOM     13  C   UNL     1      65.688  14.244  45.606  1.00  0.00    -0.026 C 
ATOM     14  C   UNL     1      66.889  12.800  44.058  1.00  0.00     0.005 C 
ATOM     15  C   UNL     1      65.941  12.751  45.247  1.00  0.00    -0.001 C 
ATOM     16  C   UNL     1      64.559  14.823  44.700  1.00  0.00     0.007 C 
ATOM     17  C   UNL     1      65.256  14.412  47.080  1.00  0.00     0.012 C 
ATOM     18  C   UNL     1      64.703  11.846  44.929  1.00  0.00     0.004 C 
ATOM     19  C   UNL     1      63.299  13.945  44.622  1.00  0.00     0.005 C 
ATOM     20  C   UNL     1      63.632  12.550  44.039  1.00  0.00     0.003 C 
ATOM     21  C   UNL     1      64.113  11.215  46.208  1.00  0.00     0.085 C 
ATOM     22  C   UNL     1      62.388  11.615  43.711  1.00  0.00    -0.000 C 
ATOM     23  C   UNL     1      62.906  10.387  45.934  1.00  0.00     0.159 C 
ATOM     24  C   UNL     1      61.912  10.834  44.936  1.00  0.00     0.005 C 
ATOM     25  C   UNL     1      61.197  12.447  43.129  1.00  0.00     0.020 C 
ATOM     26  C   UNL     1      62.829  10.573  42.645  1.00  0.00     0.017 C 
ATOM     27  O   UNL     1      62.699   9.353  46.628  1.00  0.00    -0.295 OA
ATOM     28  C   UNL     1      60.637  10.403  45.036  1.00  0.00     0.055 C 
ATOM     29  C   UNL     1      59.953  11.599  42.845  1.00  0.00     0.081 C 
ATOM     30  C   UNL     1      59.611  10.757  44.039  1.00  0.00     0.156 C 
ATOM     31  O   UNL     1      58.436  10.324  44.178  1.00  0.00    -0.295 OA
ENDBRANCH   9  11
ENDBRANCH   8   9
ENDBRANCH   1   8
TORSDOF 6
ENDMDL
MODEL 4
REMARK VINA RESULT:    -4.557      4.242      8.095
REMARK INTER + INTRA:          -8.777
REMARK INTER:                  -5.957
REMARK INTRA:                  -2.819
REMARK UNBOUND:                -2.622
REMARK SMILES CC[C@@H](CC[C@@H](C)[C@H]1CC[C@@H]2[C@H]3CC(=O)C4=CC(=O)CC[C@@]4(C)[C@H]3CC[C@@]21C)C(C)C
REMARK SMILES IDX 4 1 3 2 2 3 1 4 29 5 30 6 31 7 5 8 6 9 7 10 8 11 9 12 27 13
REMARK SMILES IDX 10 14 11 15 26 16 28 17 12 18 25 19 24 20 13 21 22 22 14 23
REMARK SMILES IDX 16 24 21 25 23 26 15 27 17 28 20 29 18 30 19 31
REMARK H PARENT
REMARK Flexibility Score: inf
ROOT
ATOM      1  C   UNL     1      71.798   2.753  34.443  1.00  0.00     0.004 C 
ENDROOT
BRANCH   1   2
ATOM      2  C   UNL     1      70.631   2.410  33.459  1.00  0.00    -0.009 C 
BRANCH   2   3
ATOM      3  C   UNL     1      71.202   2.345  32.007  1.00  0.00     0.000 C 
ATOM      4  C   UNL     1      70.967   0.977  31.363  1.00  0.00     0.004 C 
ENDBRANCH   2   3
BRANCH   2   5
ATOM      5  C   UNL     1      69.420   3.409  33.541  1.00  0.00    -0.014 C 
ATOM      6  C   UNL     1      68.127   2.787  32.975  1.00  0.00     0.007 C 
ATOM      7  C   UNL     1      69.114   3.883  34.974  1.00  0.00     0.007 C 
ENDBRANCH   2   5
ENDBRANCH   1   2
BRANCH   1   8
ATOM      8  C   UNL     1      72.001   1.694  35.544  1.00  0.00     0.004 C 
BRANCH   8   9
ATOM      9  C   UNL     1      71.440   0.296  35.104  1.00  0.00    -0.011 C 
ATOM     10  C   UNL     1      72.656  -0.645  34.905  1.00  0.00     0.008 C 
BRANCH   9  11
ATOM     11  C   UNL     1      70.356  -0.256  36.121  1.00  0.00    -0.002 C 
ATOM     12  C   UNL     1      70.170   0.750  37.286  1.00  0.00     0.005 C 
ATOM     13  C   UNL     1      68.876  -0.561  35.611  1.00  0.00    -0.026 C 
ATOM     14  C   UNL     1      68.692   0.941  37.519  1.00  0.00     0.005 C 
ATOM     15  C   UNL     1      68.026   0.607  36.192  1.00  0.00    -0.001 C 
ATOM     16  C   UNL     1      68.400  -1.915  36.217  1.00  0.00     0.007 C 
ATOM     17  C   UNL     1      68.748  -0.650  34.073  1.00  0.00     0.012 C 
ATOM     18  C   UNL     1      66.489   0.377  36.388  1.00  0.00     0.004 C 
ATOM     19  C   UNL     1      66.877  -2.128  36.173  1.00  0.00     0.005 C 
ATOM     20  C   UNL     1      66.142  -1.026  36.974  1.00  0.00     0.003 C 
ATOM     21  C   UNL     1      65.693   0.719  35.111  1.00  0.00     0.085 C 
ATOM     22  C   UNL     1      64.580  -1.240  37.183  1.00  0.00    -0.000 C 
ATOM     23  C   UNL     1      64.233   0.463  35.261  1.00  0.00     0.159 C 
ATOM     24  C   UNL     1      63.761  -0.727  35.998  1.00  0.00     0.005 C 
ATOM     25  C   UNL     1      64.246  -2.750  37.431  1.00  0.00     0.020 C 
ATOM     26  C   UNL     1      64.138  -0.426  38.432  1.00  0.00     0.017 C 
ATOM     27  O   UNL     1      63.412   1.222  34.674  1.00  0.00    -0.295 OA
ATOM     28  C   UNL     1      62.541  -1.234  35.721  1.00  0.00     0.055 C 
ATOM     29  C   UNL     1      62.746  -3.017  37.586  1.00  0.00     0.081 C 
ATOM     30  C   UNL     1      61.983  -2.378  36.463  1.00  0.00     0.156 C 
ATOM     31  O   UNL     1      60.836  -2.809  36.167  1.00  0.00    -0.295 OA
ENDBRANCH   9  11
ENDBRANCH   8   9
ENDBRANCH   1   8
TORSDOF 6
ENDMDL
MODEL 5
REMARK VINA RESULT:    -4.460     14.176     16.219
REMARK INTER + INTRA:          -8.645
REMARK INTER:                  -6.219
REMARK INTRA:                  -2.427
REMARK UNBOUND:                -2.622
REMARK SMILES CC[C@@H](CC[C@@H](C)[C@H]1CC[C@@H]2[C@H]3CC(=O)C4=CC(=O)CC[C@@]4(C)[C@H]3CC[C@@]21C)C(C)C
REMARK SMILES IDX 4 1 3 2 2 3 1 4 29 5 30 6 31 7 5 8 6 9 7 10 8 11 9 12 27 13
REMARK SMILES IDX 10 14 11 15 26 16 28 17 12 18 25 19 24 20 13 21 22 22 14 23
REMARK SMILES IDX 16 24 21 25 23 26 15 27 17 28 20 29 18 30 19 31
REMARK H PARENT
REMARK Flexibility Score: inf
ROOT
ATOM      1  C   UNL     1      62.159  11.728  46.097  1.00  0.00     0.004 C 
ENDROOT
BRANCH   1   2
ATOM      2  C   UNL     1      63.597  11.602  46.701  1.00  0.00    -0.009 C 
BRANCH   2   3
ATOM      3  C   UNL     1      64.231  10.261  46.212  1.00  0.00     0.000 C 
ATOM      4  C   UNL     1      65.471  10.499  45.348  1.00  0.00     0.004 C 
ENDBRANCH   2   3
BRANCH   2   5
ATOM      5  C   UNL     1      63.635  11.701  48.270  1.00  0.00    -0.014 C 
ATOM      6  C   UNL     1      64.275  10.450  48.906  1.00  0.00     0.007 C 
ATOM      7  C   UNL     1      64.409  12.927  48.786  1.00  0.00     0.007 C 
ENDBRANCH   2   5
ENDBRANCH   1   2
BRANCH   1   8
ATOM      8  C   UNL     1      61.661  13.184  46.001  1.00  0.00     0.004 C 
BRANCH   8   9
ATOM      9  C   UNL     1      61.820  13.748  44.546  1.00  0.00    -0.011 C 
ATOM     10  C   UNL     1      60.427  14.261  44.098  1.00  0.00     0.008 C 
BRANCH   9  11
ATOM     11  C   UNL     1      62.970  14.836  44.451  1.00  0.00    -0.002 C 
ATOM     12  C   UNL     1      63.418  15.249  45.878  1.00  0.00     0.005 C 
ATOM     13  C   UNL     1      64.326  14.490  43.687  1.00  0.00    -0.026 C 
ATOM     14  C   UNL     1      64.925  15.253  45.920  1.00  0.00     0.005 C 
ATOM     15  C   UNL     1      65.364  14.288  44.828  1.00  0.00    -0.001 C 
ATOM     16  C   UNL     1      64.736  15.709  42.807  1.00  0.00     0.007 C 
ATOM     17  C   UNL     1      64.231  13.247  42.774  1.00  0.00     0.012 C 
ATOM     18  C   UNL     1      66.881  14.488  44.493  1.00  0.00     0.004 C 
ATOM     19  C   UNL     1      66.207  15.699  42.360  1.00  0.00     0.005 C 
ATOM     20  C   UNL     1      67.157  15.724  43.582  1.00  0.00     0.003 C 
ATOM     21  C   UNL     1      67.526  13.188  43.968  1.00  0.00     0.085 C 
ATOM     22  C   UNL     1      68.702  15.924  43.261  1.00  0.00    -0.000 C 
ATOM     23  C   UNL     1      68.958  13.367  43.597  1.00  0.00     0.159 C 
ATOM     24  C   UNL     1      69.399  14.607  42.924  1.00  0.00     0.005 C 
ATOM     25  C   UNL     1      68.906  16.937  42.085  1.00  0.00     0.020 C 
ATOM     26  C   UNL     1      69.393  16.498  44.531  1.00  0.00     0.017 C 
ATOM     27  O   UNL     1      69.765  12.415  43.783  1.00  0.00    -0.295 OA
ATOM     28  C   UNL     1      70.510  14.581  42.157  1.00  0.00     0.055 C 
ATOM     29  C   UNL     1      70.377  17.125  41.701  1.00  0.00     0.081 C 
ATOM     30  C   UNL     1      71.042  15.794  41.511  1.00  0.00     0.156 C 
ATOM     31  O   UNL     1      72.086  15.714  40.809  1.00  0.00    -0.295 OA
ENDBRANCH   9  11
ENDBRANCH   8   9
ENDBRANCH   1   8
TORSDOF 6
ENDMDL
MODEL 6
REMARK VINA RESULT:    -4.442      3.118      5.361
REMARK INTER + INTRA:          -8.622
REMARK INTER:                  -6.319
REMARK INTRA:                  -2.303
REMARK UNBOUND:                -2.622
REMARK SMILES CC[C@@H](CC[C@@H](C)[C@H]1CC[C@@H]2[C@H]3CC(=O)C4=CC(=O)CC[C@@]4(C)[C@H]3CC[C@@]21C)C(C)C
REMARK SMILES IDX 4 1 3 2 2 3 1 4 29 5 30 6 31 7 5 8 6 9 7 10 8 11 9 12 27 13
REMARK SMILES IDX 10 14 11 15 26 16 28 17 12 18 25 19 24 20 13 21 22 22 14 23
REMARK SMILES IDX 16 24 21 25 23 26 15 27 17 28 20 29 18 30 19 31
REMARK H PARENT
REMARK Flexibility Score: inf
ROOT
ATOM      1  C   UNL     1      71.049  -1.487  34.296  1.00  0.00     0.004 C 
ENDROOT
BRANCH   1   2
ATOM      2  C   UNL     1      70.284  -1.618  35.654  1.00  0.00    -0.009 C 
BRANCH   2   3
ATOM      3  C   UNL     1      68.751  -1.492  35.381  1.00  0.00     0.000 C 
ATOM      4  C   UNL     1      67.986  -2.732  35.852  1.00  0.00     0.004 C 
ENDBRANCH   2   3
BRANCH   2   5
ATOM      5  C   UNL     1      70.745  -0.582  36.743  1.00  0.00    -0.014 C 
ATOM      6  C   UNL     1      69.582   0.319  37.205  1.00  0.00     0.007 C 
ATOM      7  C   UNL     1      71.344  -1.242  37.999  1.00  0.00     0.007 C 
ENDBRANCH   2   5
ENDBRANCH   1   2
BRANCH   1   8
ATOM      8  C   UNL     1      70.554  -0.315  33.426  1.00  0.00     0.004 C 
BRANCH   8   9
ATOM      9  C   UNL     1      71.742   0.375  32.668  1.00  0.00    -0.011 C 
ATOM     10  C   UNL     1      71.468   0.221  31.150  1.00  0.00     0.008 C 
BRANCH   9  11
ATOM     11  C   UNL     1      71.956   1.875  33.136  1.00  0.00    -0.002 C 
ATOM     12  C   UNL     1      70.584   2.524  33.457  1.00  0.00     0.005 C 
ATOM     13  C   UNL     1      72.857   2.185  34.414  1.00  0.00    -0.026 C 
ATOM     14  C   UNL     1      70.699   3.253  34.772  1.00  0.00     0.005 C 
ATOM     15  C   UNL     1      71.830   2.563  35.520  1.00  0.00    -0.001 C 
ATOM     16  C   UNL     1      73.775   3.404  34.103  1.00  0.00     0.007 C 
ATOM     17  C   UNL     1      73.756   1.004  34.848  1.00  0.00     0.012 C 
ATOM     18  C   UNL     1      72.322   3.449  36.715  1.00  0.00     0.004 C 
ATOM     19  C   UNL     1      74.374   4.079  35.348  1.00  0.00     0.005 C 
ATOM     20  C   UNL     1      73.257   4.618  36.275  1.00  0.00     0.003 C 
ATOM     21  C   UNL     1      72.912   2.593  37.856  1.00  0.00     0.085 C 
ATOM     22  C   UNL     1      73.737   5.519  37.495  1.00  0.00    -0.000 C 
ATOM     23  C   UNL     1      73.429   3.419  38.982  1.00  0.00     0.159 C 
ATOM     24  C   UNL     1      74.145   4.682  38.708  1.00  0.00     0.005 C 
ATOM     25  C   UNL     1      74.929   6.445  37.077  1.00  0.00     0.020 C 
ATOM     26  C   UNL     1      72.547   6.417  37.937  1.00  0.00     0.017 C 
ATOM     27  O   UNL     1      73.329   2.982  40.162  1.00  0.00    -0.295 OA
ATOM     28  C   UNL     1      75.023   5.154  39.617  1.00  0.00     0.055 C 
ATOM     29  C   UNL     1      75.463   7.296  38.233  1.00  0.00     0.081 C 
ATOM     30  C   UNL     1      75.722   6.439  39.437  1.00  0.00     0.156 C 
ATOM     31  O   UNL     1      76.529   6.835  40.321  1.00  0.00    -0.295 OA
ENDBRANCH   9  11
ENDBRANCH   8   9
ENDBRANCH   1   8
TORSDOF 6
ENDMDL
MODEL 7
REMARK VINA RESULT:    -4.351     13.745     15.678
REMARK INTER + INTRA:          -8.499
REMARK INTER:                  -5.945
REMARK INTRA:                  -2.554
REMARK UNBOUND:                -2.622
REMARK SMILES CC[C@@H](CC[C@@H](C)[C@H]1CC[C@@H]2[C@H]3CC(=O)C4=CC(=O)CC[C@@]4(C)[C@H]3CC[C@@]21C)C(C)C
REMARK SMILES IDX 4 1 3 2 2 3 1 4 29 5 30 6 31 7 5 8 6 9 7 10 8 11 9 12 27 13
REMARK SMILES IDX 10 14 11 15 26 16 28 17 12 18 25 19 24 20 13 21 22 22 14 23
REMARK SMILES IDX 16 24 21 25 23 26 15 27 17 28 20 29 18 30 19 31
REMARK H PARENT
REMARK Flexibility Score: inf
ROOT
ATOM      1  C   UNL     1      60.683   9.631  44.653  1.00  0.00     0.004 C 
ENDROOT
BRANCH   1   2
ATOM      2  C   UNL     1      62.134   9.839  45.200  1.00  0.00    -0.009 C 
BRANCH   2   3
ATOM      3  C   UNL     1      63.089   8.834  44.482  1.00  0.00     0.000 C 
ATOM      4  C   UNL     1      62.475   8.288  43.191  1.00  0.00     0.004 C 
ENDBRANCH   2   3
BRANCH   2   5
ATOM      5  C   UNL     1      62.247   9.701  46.762  1.00  0.00    -0.014 C 
ATOM      6  C   UNL     1      62.897   8.364  47.172  1.00  0.00     0.007 C 
ATOM      7  C   UNL     1      63.063  10.830  47.418  1.00  0.00     0.007 C 
ENDBRANCH   2   5
ENDBRANCH   1   2
BRANCH   1   8
ATOM      8  C   UNL     1      59.934  10.952  44.388  1.00  0.00     0.004 C 
BRANCH   8   9
ATOM      9  C   UNL     1      60.378  11.598  43.029  1.00  0.00    -0.011 C 
ATOM     10  C   UNL     1      59.098  11.802  42.178  1.00  0.00     0.008 C 
BRANCH   9  11
ATOM     11  C   UNL     1      61.226  12.920  43.247  1.00  0.00    -0.002 C 
ATOM     12  C   UNL     1      61.104  13.383  44.723  1.00  0.00     0.005 C 
ATOM     13  C   UNL     1      62.793  12.913  42.955  1.00  0.00    -0.026 C 
ATOM     14  C   UNL     1      62.482  13.726  45.229  1.00  0.00     0.005 C 
ATOM     15  C   UNL     1      63.443  12.917  44.369  1.00  0.00    -0.001 C 
ATOM     16  C   UNL     1      63.173  14.217  42.193  1.00  0.00     0.007 C 
ATOM     17  C   UNL     1      63.268  11.707  42.113  1.00  0.00     0.012 C 
ATOM     18  C   UNL     1      64.904  13.465  44.511  1.00  0.00     0.004 C 
ATOM     19  C   UNL     1      64.673  14.554  42.223  1.00  0.00     0.005 C 
ATOM     20  C   UNL     1      65.165  14.757  43.677  1.00  0.00     0.003 C 
ATOM     21  C   UNL     1      65.954  12.360  44.268  1.00  0.00     0.085 C 
ATOM     22  C   UNL     1      66.647  15.311  43.841  1.00  0.00    -0.000 C 
ATOM     23  C   UNL     1      67.351  12.870  44.351  1.00  0.00     0.159 C 
ATOM     24  C   UNL     1      67.691  14.195  43.794  1.00  0.00     0.005 C 
ATOM     25  C   UNL     1      66.974  16.377  42.742  1.00  0.00     0.020 C 
ATOM     26  C   UNL     1      66.762  15.989  45.236  1.00  0.00     0.017 C 
ATOM     27  O   UNL     1      68.252  12.120  44.819  1.00  0.00    -0.295 OA
ATOM     28  C   UNL     1      68.961  14.444  43.410  1.00  0.00     0.055 C 
ATOM     29  C   UNL     1      68.411  16.904  42.825  1.00  0.00     0.081 C 
ATOM     30  C   UNL     1      69.382  15.764  42.908  1.00  0.00     0.156 C 
ATOM     31  O   UNL     1      70.582  15.943  42.567  1.00  0.00    -0.295 OA
ENDBRANCH   9  11
ENDBRANCH   8   9
ENDBRANCH   1   8
TORSDOF 6
ENDMDL
MODEL 8
REMARK VINA RESULT:    -4.322      3.440      6.263
REMARK INTER + INTRA:          -8.459
REMARK INTER:                  -5.567
REMARK INTRA:                  -2.893
REMARK UNBOUND:                -2.622
REMARK SMILES CC[C@@H](CC[C@@H](C)[C@H]1CC[C@@H]2[C@H]3CC(=O)C4=CC(=O)CC[C@@]4(C)[C@H]3CC[C@@]21C)C(C)C
REMARK SMILES IDX 4 1 3 2 2 3 1 4 29 5 30 6 31 7 5 8 6 9 7 10 8 11 9 12 27 13
REMARK SMILES IDX 10 14 11 15 26 16 28 17 12 18 25 19 24 20 13 21 22 22 14 23
REMARK SMILES IDX 16 24 21 25 23 26 15 27 17 28 20 29 18 30 19 31
REMARK H PARENT
REMARK Flexibility Score: inf
ROOT
ATOM      1  C   UNL     1      67.869   2.611  32.029  1.00  0.00     0.004 C 
ENDROOT
BRANCH   1   2
ATOM      2  C   UNL     1      68.259   2.310  33.514  1.00  0.00    -0.009 C 
BRANCH   2   3
ATOM      3  C   UNL     1      67.780   0.869  33.877  1.00  0.00     0.000 C 
ATOM      4  C   UNL     1      68.947  -0.119  33.941  1.00  0.00     0.004 C 
ENDBRANCH   2   3
BRANCH   2   5
ATOM      5  C   UNL     1      67.699   3.362  34.540  1.00  0.00    -0.014 C 
ATOM      6  C   UNL     1      68.550   3.415  35.825  1.00  0.00     0.007 C 
ATOM      7  C   UNL     1      67.629   4.792  33.974  1.00  0.00     0.007 C 
ENDBRANCH   2   5
ENDBRANCH   1   2
BRANCH   1   8
ATOM      8  C   UNL     1      69.078   2.959  31.138  1.00  0.00     0.004 C 
BRANCH   8   9
ATOM      9  C   UNL     1      70.418   2.432  31.760  1.00  0.00    -0.011 C 
ATOM     10  C   UNL     1      70.962   1.332  30.813  1.00  0.00     0.008 C 
BRANCH   9  11
ATOM     11  C   UNL     1      71.445   3.607  32.042  1.00  0.00    -0.002 C 
ATOM     12  C   UNL     1      70.772   4.973  31.746  1.00  0.00     0.005 C 
ATOM     13  C   UNL     1      72.076   3.774  33.497  1.00  0.00    -0.026 C 
ATOM     14  C   UNL     1      71.075   5.909  32.889  1.00  0.00     0.005 C 
ATOM     15  C   UNL     1      71.341   5.012  34.089  1.00  0.00    -0.001 C 
ATOM     16  C   UNL     1      73.598   4.078  33.357  1.00  0.00     0.007 C 
ATOM     17  C   UNL     1      71.914   2.528  34.397  1.00  0.00     0.012 C 
ATOM     18  C   UNL     1      72.049   5.815  35.232  1.00  0.00     0.004 C 
ATOM     19  C   UNL     1      74.241   4.680  34.617  1.00  0.00     0.005 C 
ATOM     20  C   UNL     1      73.576   6.027  34.988  1.00  0.00     0.003 C 
ATOM     21  C   UNL     1      71.730   5.229  36.624  1.00  0.00     0.085 C 
ATOM     22  C   UNL     1      74.278   6.857  36.148  1.00  0.00    -0.000 C 
ATOM     23  C   UNL     1      72.431   5.949  37.723  1.00  0.00     0.159 C 
ATOM     24  C   UNL     1      73.823   6.411  37.538  1.00  0.00     0.005 C 
ATOM     25  C   UNL     1      75.838   6.749  36.053  1.00  0.00     0.020 C 
ATOM     26  C   UNL     1      73.878   8.351  35.991  1.00  0.00     0.017 C 
ATOM     27  O   UNL     1      71.856   6.078  38.840  1.00  0.00    -0.295 OA
ATOM     28  C   UNL     1      74.609   6.589  38.620  1.00  0.00     0.055 C 
ATOM     29  C   UNL     1      76.562   7.489  37.182  1.00  0.00     0.081 C 
ATOM     30  C   UNL     1      75.983   7.109  38.512  1.00  0.00     0.156 C 
ATOM     31  O   UNL     1      76.673   7.260  39.556  1.00  0.00    -0.295 OA
ENDBRANCH   9  11
ENDBRANCH   8   9
ENDBRANCH   1   8
TORSDOF 6
ENDMDL
MODEL 9
REMARK VINA RESULT:    -4.294     14.368     16.647
REMARK INTER + INTRA:          -8.422
REMARK INTER:                  -5.958
REMARK INTRA:                  -2.464
REMARK UNBOUND:                -2.622
REMARK SMILES CC[C@@H](CC[C@@H](C)[C@H]1CC[C@@H]2[C@H]3CC(=O)C4=CC(=O)CC[C@@]4(C)[C@H]3CC[C@@]21C)C(C)C
REMARK SMILES IDX 4 1 3 2 2 3 1 4 29 5 30 6 31 7 5 8 6 9 7 10 8 11 9 12 27 13
REMARK SMILES IDX 10 14 11 15 26 16 28 17 12 18 25 19 24 20 13 21 22 22 14 23
REMARK SMILES IDX 16 24 21 25 23 26 15 27 17 28 20 29 18 30 19 31
REMARK H PARENT
REMARK Flexibility Score: inf
ROOT
ATOM      1  C   UNL     1      69.359  13.194  46.966  1.00  0.00     0.004 C 
ENDROOT
BRANCH   1   2
ATOM      2  C   UNL     1      68.564  14.084  45.954  1.00  0.00    -0.009 C 
BRANCH   2   3
ATOM      3  C   UNL     1      69.108  13.816  44.515  1.00  0.00     0.000 C 
ATOM      4  C   UNL     1      68.060  13.144  43.625  1.00  0.00     0.004 C 
ENDBRANCH   2   3
BRANCH   2   5
ATOM      5  C   UNL     1      68.605  15.619  46.292  1.00  0.00    -0.014 C 
ATOM      6  C   UNL     1      69.089  16.456  45.090  1.00  0.00     0.007 C 
ATOM      7  C   UNL     1      67.242  16.186  46.730  1.00  0.00     0.007 C 
ENDBRANCH   2   5
ENDBRANCH   1   2
BRANCH   1   8
ATOM      8  C   UNL     1      68.572  12.880  48.253  1.00  0.00     0.004 C 
BRANCH   8   9
ATOM      9  C   UNL     1      67.863  11.483  48.164  1.00  0.00    -0.011 C 
ATOM     10  C   UNL     1      68.332  10.652  49.385  1.00  0.00     0.008 C 
BRANCH   9  11
ATOM     11  C   UNL     1      66.288  11.621  48.043  1.00  0.00    -0.002 C 
ATOM     12  C   UNL     1      65.866  13.082  48.348  1.00  0.00     0.005 C 
ATOM     13  C   UNL     1      65.566  11.272  46.665  1.00  0.00    -0.026 C 
ATOM     14  C   UNL     1      64.885  13.524  47.291  1.00  0.00     0.005 C 
ATOM     15  C   UNL     1      65.183  12.660  46.074  1.00  0.00    -0.001 C 
ATOM     16  C   UNL     1      64.277  10.448  46.963  1.00  0.00     0.007 C 
ATOM     17  C   UNL     1      66.443  10.457  45.687  1.00  0.00     0.012 C 
ATOM     18  C   UNL     1      64.002  12.727  45.048  1.00  0.00     0.004 C 
ATOM     19  C   UNL     1      63.269  10.411  45.803  1.00  0.00     0.005 C 
ATOM     20  C   UNL     1      62.784  11.836  45.445  1.00  0.00     0.003 C 
ATOM     21  C   UNL     1      64.487  12.486  43.602  1.00  0.00     0.085 C 
ATOM     22  C   UNL     1      61.586  11.926  44.402  1.00  0.00    -0.000 C 
ATOM     23  C   UNL     1      63.373  12.498  42.614  1.00  0.00     0.159 C 
ATOM     24  C   UNL     1      62.074  11.880  42.954  1.00  0.00     0.005 C 
ATOM     25  C   UNL     1      60.548  10.777  44.637  1.00  0.00     0.020 C 
ATOM     26  C   UNL     1      60.866  13.289  44.602  1.00  0.00     0.017 C 
ATOM     27  O   UNL     1      63.581  12.959  41.458  1.00  0.00    -0.295 OA
ATOM     28  C   UNL     1      61.272  11.441  41.961  1.00  0.00     0.055 C 
ATOM     29  C   UNL     1      59.400  10.787  43.623  1.00  0.00     0.081 C 
ATOM     30  C   UNL     1      59.938  10.875  42.226  1.00  0.00     0.156 C 
ATOM     31  O   UNL     1      59.228  10.484  41.260  1.00  0.00    -0.295 OA
ENDBRANCH   9  11
ENDBRANCH   8   9
ENDBRANCH   1   8
TORSDOF 6
ENDMDL
