MODEL 1
REMARK VINA RESULT:    -3.461      0.000      0.000
REMARK INTER + INTRA:          -3.562
REMARK INTER:                  -3.562
REMARK INTRA:                   0.000
REMARK UNBOUND:                 0.000
REMARK SMILES C[C@@H]1CC[C@H]2C(C)(C)[C@@H]3C[C@]12CC[C@@]3(C)O
REMARK SMILES IDX 1 1 2 2 3 3 4 4 5 5 11 6 12 7 13 8 14 9 9 10 10 11 6 12 7 13
REMARK SMILES IDX 8 14 15 15 16 16
REMARK H PARENT 16 17
REMARK Flexibility Score: inf
ROOT
ATOM      1  C   UNL     1     135.283 143.448 139.273  1.00  0.00     0.008 C 
ATOM      2  C   UNL     1     134.552 144.637 139.918  1.00  0.00    -0.008 C 
ATOM      3  C   UNL     1     134.352 144.460 141.462  1.00  0.00     0.004 C 
ATOM      4  C   UNL     1     132.829 144.286 141.718  1.00  0.00     0.005 C 
ATOM      5  C   UNL     1     132.331 143.941 140.333  1.00  0.00     0.001 C 
ATOM      6  C   UNL     1     133.108 144.861 139.408  1.00  0.00    -0.023 C 
ATOM      7  C   UNL     1     132.818 146.411 139.511  1.00  0.00     0.010 C 
ATOM      8  C   UNL     1     131.399 146.906 139.145  1.00  0.00     0.036 C 
ATOM      9  C   UNL     1     130.632 145.987 138.143  1.00  0.00     0.065 C 
ATOM     10  C   UNL     1     131.043 144.485 138.337  1.00  0.00     0.027 C 
ATOM     11  C   UNL     1     132.578 144.378 138.068  1.00  0.00     0.014 C 
ATOM     12  C   UNL     1     130.882 143.853 139.792  1.00  0.00    -0.026 C 
ATOM     13  C   UNL     1     130.464 142.367 139.608  1.00  0.00     0.012 C 
ATOM     14  C   UNL     1     129.862 144.448 140.789  1.00  0.00     0.012 C 
ATOM     15  C   UNL     1     129.109 146.201 138.286  1.00  0.00     0.042 C 
ENDROOT
BRANCH   9  16
ATOM     16  O   UNL     1     130.926 146.346 136.804  1.00  0.00    -0.390 OA
ATOM     17  H   UNL     1     131.862 146.110 136.577  1.00  0.00     0.211 HD
ENDBRANCH   9  16
TORSDOF 1
ENDMDL
MODEL 2
REMARK VINA RESULT:    -3.371      1.636      3.735
REMARK INTER + INTRA:          -3.469
REMARK INTER:                  -3.469
REMARK INTRA:                   0.000
REMARK UNBOUND:                 0.000
REMARK SMILES C[C@@H]1CC[C@H]2C(C)(C)[C@@H]3C[C@]12CC[C@@]3(C)O
REMARK SMILES IDX 1 1 2 2 3 3 4 4 5 5 11 6 12 7 13 8 14 9 9 10 10 11 6 12 7 13
REMARK SMILES IDX 8 14 15 15 16 16
REMARK H PARENT 16 17
REMARK Flexibility Score: inf
ROOT
ATOM      1  C   UNL     1     127.883 141.931 138.671  1.00  0.00     0.008 C 
ATOM      2  C   UNL     1     129.421 141.977 138.668  1.00  0.00    -0.008 C 
ATOM      3  C   UNL     1     130.055 141.089 139.791  1.00  0.00     0.004 C 
ATOM      4  C   UNL     1     130.725 142.045 140.818  1.00  0.00     0.005 C 
ATOM      5  C   UNL     1     130.074 143.362 140.469  1.00  0.00     0.001 C 
ATOM      6  C   UNL     1     130.024 143.373 138.951  1.00  0.00    -0.023 C 
ATOM      7  C   UNL     1     131.401 143.446 138.178  1.00  0.00     0.010 C 
ATOM      8  C   UNL     1     132.267 144.714 138.363  1.00  0.00     0.036 C 
ATOM      9  C   UNL     1     131.462 145.998 138.738  1.00  0.00     0.065 C 
ATOM     10  C   UNL     1     130.199 145.634 139.594  1.00  0.00     0.027 C 
ATOM     11  C   UNL     1     129.300 144.691 138.731  1.00  0.00     0.014 C 
ATOM     12  C   UNL     1     130.425 144.799 140.933  1.00  0.00    -0.026 C 
ATOM     13  C   UNL     1     129.383 145.299 141.974  1.00  0.00     0.012 C 
ATOM     14  C   UNL     1     131.789 144.847 141.658  1.00  0.00     0.012 C 
ATOM     15  C   UNL     1     132.382 147.012 139.452  1.00  0.00     0.042 C 
ENDROOT
BRANCH   9  16
ATOM     16  O   UNL     1     131.015 146.670 137.573  1.00  0.00    -0.390 OA
ATOM     17  H   UNL     1     130.915 146.033 136.819  1.00  0.00     0.211 HD
ENDBRANCH   9  16
TORSDOF 1
ENDMDL
MODEL 3
REMARK VINA RESULT:    -3.345      1.645      2.905
REMARK INTER + INTRA:          -3.443
REMARK INTER:                  -3.443
REMARK INTRA:                   0.000
REMARK UNBOUND:                 0.000
REMARK SMILES C[C@@H]1CC[C@H]2C(C)(C)[C@@H]3C[C@]12CC[C@@]3(C)O
REMARK SMILES IDX 1 1 2 2 3 3 4 4 5 5 11 6 12 7 13 8 14 9 9 10 10 11 6 12 7 13
REMARK SMILES IDX 8 14 15 15 16 16
REMARK H PARENT 16 17
REMARK Flexibility Score: inf
ROOT
ATOM      1  C   UNL     1     132.333 143.119 136.794  1.00  0.00     0.008 C 
ATOM      2  C   UNL     1     132.525 143.229 138.316  1.00  0.00    -0.008 C 
ATOM      3  C   UNL     1     131.707 142.154 139.109  1.00  0.00     0.004 C 
ATOM      4  C   UNL     1     130.597 142.901 139.899  1.00  0.00     0.005 C 
ATOM      5  C   UNL     1     130.571 144.234 139.188  1.00  0.00     0.001 C 
ATOM      6  C   UNL     1     132.033 144.560 138.934  1.00  0.00    -0.023 C 
ATOM      7  C   UNL     1     132.944 144.849 140.193  1.00  0.00     0.010 C 
ATOM      8  C   UNL     1     132.608 146.085 141.059  1.00  0.00     0.036 C 
ATOM      9  C   UNL     1     131.869 147.228 140.295  1.00  0.00     0.065 C 
ATOM     10  C   UNL     1     130.953 146.641 139.164  1.00  0.00     0.027 C 
ATOM     11  C   UNL     1     131.873 145.863 138.170  1.00  0.00     0.014 C 
ATOM     12  C   UNL     1     129.863 145.556 139.580  1.00  0.00    -0.026 C 
ATOM     13  C   UNL     1     128.614 145.784 138.682  1.00  0.00     0.012 C 
ATOM     14  C   UNL     1     129.326 145.508 141.029  1.00  0.00     0.012 C 
ATOM     15  C   UNL     1     131.081 148.108 141.290  1.00  0.00     0.042 C 
ENDROOT
BRANCH   9  16
ATOM     16  O   UNL     1     132.797 148.109 139.686  1.00  0.00    -0.390 OA
ATOM     17  H   UNL     1     132.334 148.906 139.321  1.00  0.00     0.211 HD
ENDBRANCH   9  16
TORSDOF 1
ENDMDL
MODEL 4
REMARK VINA RESULT:    -3.285      7.383      9.237
REMARK INTER + INTRA:          -3.381
REMARK INTER:                  -3.381
REMARK INTRA:                   0.000
REMARK UNBOUND:                 0.000
REMARK SMILES C[C@@H]1CC[C@H]2C(C)(C)[C@@H]3C[C@]12CC[C@@]3(C)O
REMARK SMILES IDX 1 1 2 2 3 3 4 4 5 5 11 6 12 7 13 8 14 9 9 10 10 11 6 12 7 13
REMARK SMILES IDX 8 14 15 15 16 16
REMARK H PARENT 16 17
REMARK Flexibility Score: inf
ROOT
ATOM      1  C   UNL     1     144.163 146.078 138.859  1.00  0.00     0.008 C 
ATOM      2  C   UNL     1     142.717 146.157 139.379  1.00  0.00    -0.008 C 
ATOM      3  C   UNL     1     142.549 145.519 140.799  1.00  0.00     0.004 C 
ATOM      4  C   UNL     1     141.680 144.240 140.637  1.00  0.00     0.005 C 
ATOM      5  C   UNL     1     141.782 143.997 139.149  1.00  0.00     0.001 C 
ATOM      6  C   UNL     1     141.683 145.381 138.529  1.00  0.00    -0.023 C 
ATOM      7  C   UNL     1     140.306 146.143 138.667  1.00  0.00     0.010 C 
ATOM      8  C   UNL     1     139.065 145.524 137.983  1.00  0.00     0.036 C 
ATOM      9  C   UNL     1     139.389 144.622 136.750  1.00  0.00     0.065 C 
ATOM     10  C   UNL     1     140.773 143.905 136.933  1.00  0.00     0.027 C 
ATOM     11  C   UNL     1     141.865 145.014 137.065  1.00  0.00     0.014 C 
ATOM     12  C   UNL     1     140.985 143.024 138.244  1.00  0.00    -0.026 C 
ATOM     13  C   UNL     1     141.871 141.809 137.848  1.00  0.00     0.012 C 
ATOM     14  C   UNL     1     139.769 142.424 138.983  1.00  0.00     0.012 C 
ATOM     15  C   UNL     1     138.238 143.621 136.508  1.00  0.00     0.042 C 
ENDROOT
BRANCH   9  16
ATOM     16  O   UNL     1     139.456 145.395 135.565  1.00  0.00    -0.390 OA
ATOM     17  H   UNL     1     140.398 145.598 135.333  1.00  0.00     0.211 HD
ENDBRANCH   9  16
TORSDOF 1
ENDMDL
MODEL 5
REMARK VINA RESULT:    -3.265      2.329      4.176
REMARK INTER + INTRA:          -3.360
REMARK INTER:                  -3.360
REMARK INTRA:                   0.000
REMARK UNBOUND:                 0.000
REMARK SMILES C[C@@H]1CC[C@H]2C(C)(C)[C@@H]3C[C@]12CC[C@@]3(C)O
REMARK SMILES IDX 1 1 2 2 3 3 4 4 5 5 11 6 12 7 13 8 14 9 9 10 10 11 6 12 7 13
REMARK SMILES IDX 8 14 15 15 16 16
REMARK H PARENT 16 17
REMARK Flexibility Score: inf
ROOT
ATOM      1  C   UNL     1     131.983 146.317 138.990  1.00  0.00     0.008 C 
ATOM      2  C   UNL     1     131.516 144.946 139.507  1.00  0.00    -0.008 C 
ATOM      3  C   UNL     1     132.197 144.544 140.858  1.00  0.00     0.004 C 
ATOM      4  C   UNL     1     133.131 143.335 140.568  1.00  0.00     0.005 C 
ATOM      5  C   UNL     1     133.258 143.411 139.065  1.00  0.00     0.001 C 
ATOM      6  C   UNL     1     131.861 143.756 138.580  1.00  0.00    -0.023 C 
ATOM      7  C   UNL     1     130.731 142.669 138.783  1.00  0.00     0.010 C 
ATOM      8  C   UNL     1     130.880 141.324 138.035  1.00  0.00     0.036 C 
ATOM      9  C   UNL     1     131.723 141.402 136.724  1.00  0.00     0.065 C 
ATOM     10  C   UNL     1     132.840 142.498 136.845  1.00  0.00     0.027 C 
ATOM     11  C   UNL     1     132.132 143.869 137.089  1.00  0.00     0.014 C 
ATOM     12  C   UNL     1     133.858 142.389 138.066  1.00  0.00    -0.026 C 
ATOM     13  C   UNL     1     135.244 142.879 137.560  1.00  0.00     0.012 C 
ATOM     14  C   UNL     1     134.124 141.023 138.737  1.00  0.00     0.012 C 
ATOM     15  C   UNL     1     132.300 140.012 136.379  1.00  0.00     0.042 C 
ENDROOT
BRANCH   9  16
ATOM     16  O   UNL     1     130.904 141.741 135.618  1.00  0.00    -0.390 OA
ATOM     17  H   UNL     1     130.710 142.714 135.612  1.00  0.00     0.211 HD
ENDBRANCH   9  16
TORSDOF 1
ENDMDL
MODEL 6
REMARK VINA RESULT:    -3.255     13.388     15.539
REMARK INTER + INTRA:          -3.350
REMARK INTER:                  -3.350
REMARK INTRA:                   0.000
REMARK UNBOUND:                 0.000
REMARK SMILES C[C@@H]1CC[C@H]2C(C)(C)[C@@H]3C[C@]12CC[C@@]3(C)O
REMARK SMILES IDX 1 1 2 2 3 3 4 4 5 5 11 6 12 7 13 8 14 9 9 10 10 11 6 12 7 13
REMARK SMILES IDX 8 14 15 15 16 16
REMARK H PARENT 16 17
REMARK Flexibility Score: inf
ROOT
ATOM      1  C   UNL     1     147.636 134.260 138.950  1.00  0.00     0.008 C 
ATOM      2  C   UNL     1     147.241 135.656 139.463  1.00  0.00    -0.008 C 
ATOM      3  C   UNL     1     146.553 135.612 140.869  1.00  0.00     0.004 C 
ATOM      4  C   UNL     1     145.069 136.032 140.675  1.00  0.00     0.005 C 
ATOM      5  C   UNL     1     144.903 135.859 139.183  1.00  0.00     0.001 C 
ATOM      6  C   UNL     1     146.196 136.391 138.590  1.00  0.00    -0.023 C 
ATOM      7  C   UNL     1     146.480 137.939 138.736  1.00  0.00     0.010 C 
ATOM      8  C   UNL     1     145.514 138.920 138.031  1.00  0.00     0.036 C 
ATOM      9  C   UNL     1     144.788 138.328 136.783  1.00  0.00     0.065 C 
ATOM     10  C   UNL     1     144.542 136.788 136.960  1.00  0.00     0.027 C 
ATOM     11  C   UNL     1     145.937 136.103 137.121  1.00  0.00     0.014 C 
ATOM     12  C   UNL     1     143.746 136.307 138.254  1.00  0.00    -0.026 C 
ATOM     13  C   UNL     1     142.883 135.082 137.839  1.00  0.00     0.012 C 
ATOM     14  C   UNL     1     142.776 137.270 138.974  1.00  0.00     0.012 C 
ATOM     15  C   UNL     1     143.479 139.103 136.513  1.00  0.00     0.042 C 
ENDROOT
BRANCH   9  16
ATOM     16  O   UNL     1     145.567 138.510 135.613  1.00  0.00    -0.390 OA
ATOM     17  H   UNL     1     145.030 138.316 134.802  1.00  0.00     0.211 HD
ENDBRANCH   9  16
TORSDOF 1
ENDMDL
MODEL 7
REMARK VINA RESULT:    -3.219      9.143     11.423
REMARK INTER + INTRA:          -3.313
REMARK INTER:                  -3.313
REMARK INTRA:                   0.000
REMARK UNBOUND:                 0.000
REMARK SMILES C[C@@H]1CC[C@H]2C(C)(C)[C@@H]3C[C@]12CC[C@@]3(C)O
REMARK SMILES IDX 1 1 2 2 3 3 4 4 5 5 11 6 12 7 13 8 14 9 9 10 10 11 6 12 7 13
REMARK SMILES IDX 8 14 15 15 16 16
REMARK H PARENT 16 17
REMARK Flexibility Score: inf
ROOT
ATOM      1  C   UNL     1     143.839 141.559 140.165  1.00  0.00     0.008 C 
ATOM      2  C   UNL     1     144.591 142.874 140.433  1.00  0.00    -0.008 C 
ATOM      3  C   UNL     1     144.779 143.163 141.961  1.00  0.00     0.004 C 
ATOM      4  C   UNL     1     143.910 144.404 142.311  1.00  0.00     0.005 C 
ATOM      5  C   UNL     1     142.982 144.463 141.120  1.00  0.00     0.001 C 
ATOM      6  C   UNL     1     143.868 144.145 139.928  1.00  0.00    -0.023 C 
ATOM      7  C   UNL     1     144.989 145.195 139.554  1.00  0.00     0.010 C 
ATOM      8  C   UNL     1     144.537 146.604 139.101  1.00  0.00     0.036 C 
ATOM      9  C   UNL     1     143.113 146.651 138.462  1.00  0.00     0.065 C 
ATOM     10  C   UNL     1     142.179 145.564 139.100  1.00  0.00     0.027 C 
ATOM     11  C   UNL     1     142.824 144.168 138.825  1.00  0.00     0.014 C 
ATOM     12  C   UNL     1     141.997 145.577 140.683  1.00  0.00    -0.026 C 
ATOM     13  C   UNL     1     140.533 145.150 140.986  1.00  0.00     0.012 C 
ATOM     14  C   UNL     1     142.220 146.882 141.480  1.00  0.00     0.012 C 
ATOM     15  C   UNL     1     142.524 148.074 138.584  1.00  0.00     0.042 C 
ENDROOT
BRANCH   9  16
ATOM     16  O   UNL     1     143.178 146.402 137.068  1.00  0.00    -0.390 OA
ATOM     17  H   UNL     1     143.093 145.431 136.883  1.00  0.00     0.211 HD
ENDBRANCH   9  16
TORSDOF 1
ENDMDL
MODEL 8
REMARK VINA RESULT:    -3.183      9.447     11.829
REMARK INTER + INTRA:          -3.276
REMARK INTER:                  -3.276
REMARK INTRA:                   0.000
REMARK UNBOUND:                 0.000
REMARK SMILES C[C@@H]1CC[C@H]2C(C)(C)[C@@H]3C[C@]12CC[C@@]3(C)O
REMARK SMILES IDX 1 1 2 2 3 3 4 4 5 5 11 6 12 7 13 8 14 9 9 10 10 11 6 12 7 13
REMARK SMILES IDX 8 14 15 15 16 16
REMARK H PARENT 16 17
REMARK Flexibility Score: inf
ROOT
ATOM      1  C   UNL     1     141.347 144.745 136.874  1.00  0.00     0.008 C 
ATOM      2  C   UNL     1     141.787 144.026 138.161  1.00  0.00    -0.008 C 
ATOM      3  C   UNL     1     140.594 143.739 139.133  1.00  0.00     0.004 C 
ATOM      4  C   UNL     1     140.794 144.627 140.393  1.00  0.00     0.005 C 
ATOM      5  C   UNL     1     141.793 145.641 139.887  1.00  0.00     0.001 C 
ATOM      6  C   UNL     1     142.766 144.833 139.047  1.00  0.00    -0.023 C 
ATOM      7  C   UNL     1     143.680 143.784 139.798  1.00  0.00     0.010 C 
ATOM      8  C   UNL     1     144.699 144.322 140.830  1.00  0.00     0.036 C 
ATOM      9  C   UNL     1     145.166 145.789 140.573  1.00  0.00     0.065 C 
ATOM     10  C   UNL     1     144.019 146.632 139.912  1.00  0.00     0.027 C 
ATOM     11  C   UNL     1     143.662 145.955 138.550  1.00  0.00     0.014 C 
ATOM     12  C   UNL     1     142.617 146.698 140.666  1.00  0.00    -0.026 C 
ATOM     13  C   UNL     1     142.030 148.119 140.431  1.00  0.00     0.012 C 
ATOM     14  C   UNL     1     142.543 146.468 142.192  1.00  0.00     0.012 C 
ATOM     15  C   UNL     1     145.676 146.422 141.887  1.00  0.00     0.042 C 
ENDROOT
BRANCH   9  16
ATOM     16  O   UNL     1     146.282 145.816 139.699  1.00  0.00    -0.390 OA
ATOM     17  H   UNL     1     146.004 145.601 138.772  1.00  0.00     0.211 HD
ENDBRANCH   9  16
TORSDOF 1
ENDMDL
MODEL 9
REMARK VINA RESULT:    -3.121      1.821      2.935
REMARK INTER + INTRA:          -3.213
REMARK INTER:                  -3.213
REMARK INTRA:                   0.000
REMARK UNBOUND:                 0.000
REMARK SMILES C[C@@H]1CC[C@H]2C(C)(C)[C@@H]3C[C@]12CC[C@@]3(C)O
REMARK SMILES IDX 1 1 2 2 3 3 4 4 5 5 11 6 12 7 13 8 14 9 9 10 10 11 6 12 7 13
REMARK SMILES IDX 8 14 15 15 16 16
REMARK H PARENT 16 17
REMARK Flexibility Score: inf
ROOT
ATOM      1  C   UNL     1     134.228 146.202 140.127  1.00  0.00     0.008 C 
ATOM      2  C   UNL     1     132.961 146.777 139.472  1.00  0.00    -0.008 C 
ATOM      3  C   UNL     1     132.499 148.123 140.127  1.00  0.00     0.004 C 
ATOM      4  C   UNL     1     131.152 147.849 140.854  1.00  0.00     0.005 C 
ATOM      5  C   UNL     1     131.163 146.341 140.944  1.00  0.00     0.001 C 
ATOM      6  C   UNL     1     131.705 145.882 139.601  1.00  0.00    -0.023 C 
ATOM      7  C   UNL     1     130.813 146.153 138.325  1.00  0.00     0.010 C 
ATOM      8  C   UNL     1     129.439 145.448 138.241  1.00  0.00     0.036 C 
ATOM      9  C   UNL     1     129.348 144.112 139.044  1.00  0.00     0.065 C 
ATOM     10  C   UNL     1     130.261 144.165 140.319  1.00  0.00     0.027 C 
ATOM     11  C   UNL     1     131.731 144.382 139.838  1.00  0.00     0.014 C 
ATOM     12  C   UNL     1     130.032 145.362 141.347  1.00  0.00    -0.026 C 
ATOM     13  C   UNL     1     130.288 144.802 142.775  1.00  0.00     0.012 C 
ATOM     14  C   UNL     1     128.661 146.071 141.421  1.00  0.00     0.012 C 
ATOM     15  C   UNL     1     127.876 143.799 139.390  1.00  0.00     0.042 C 
ENDROOT
BRANCH   9  16
ATOM     16  O   UNL     1     129.776 143.018 138.251  1.00  0.00    -0.390 OA
ATOM     17  H   UNL     1     130.709 142.768 138.476  1.00  0.00     0.211 HD
ENDBRANCH   9  16
TORSDOF 1
ENDMDL
