MODEL 1
REMARK VINA RESULT:    -3.736      0.000      0.000
REMARK INTER + INTRA:          -4.509
REMARK INTER:                  -4.391
REMARK INTRA:                  -0.117
REMARK UNBOUND:                -0.117
REMARK SMILES O=C([O-])CCC(=O)[O-]
REMARK SMILES IDX 4 1 2 2 1 3 3 4 5 5 6 6 7 7 8 8
REMARK H PARENT
REMARK Flexibility Score: inf
ROOT
ATOM      1  C   UNL     1      43.948 -49.214 164.319  1.00  0.00     0.059 C 
ENDROOT
BRANCH   1   2
ATOM      2  C   UNL     1      43.574 -48.050 165.181  1.00  0.00     0.042 C 
ATOM      3  O   UNL     1      44.311 -47.030 165.224  1.00  0.00    -0.550 OA
ATOM      4  O   UNL     1      42.386 -48.070 165.901  1.00  0.00    -0.550 OA
ENDBRANCH   1   2
BRANCH   1   5
ATOM      5  C   UNL     1      45.462 -49.424 164.333  1.00  0.00     0.059 C 
BRANCH   5   6
ATOM      6  C   UNL     1      46.038 -49.174 162.975  1.00  0.00     0.042 C 
ATOM      7  O   UNL     1      45.411 -48.467 162.142  1.00  0.00    -0.550 OA
ATOM      8  O   UNL     1      47.243 -49.760 162.610  1.00  0.00    -0.550 OA
ENDBRANCH   5   6
ENDBRANCH   1   5
TORSDOF 3
ENDMDL
MODEL 2
REMARK VINA RESULT:    -3.729      0.050      4.021
REMARK INTER + INTRA:          -4.501
REMARK INTER:                  -4.383
REMARK INTRA:                  -0.118
REMARK UNBOUND:                -0.117
REMARK SMILES O=C([O-])CCC(=O)[O-]
REMARK SMILES IDX 4 1 2 2 1 3 3 4 5 5 6 6 7 7 8 8
REMARK H PARENT
REMARK Flexibility Score: inf
ROOT
ATOM      1  C   UNL     1      45.526 -49.347 164.363  1.00  0.00     0.059 C 
ENDROOT
BRANCH   1   2
ATOM      2  C   UNL     1      46.040 -49.180 162.968  1.00  0.00     0.042 C 
ATOM      3  O   UNL     1      45.408 -48.470 162.141  1.00  0.00    -0.550 OA
ATOM      4  O   UNL     1      47.241 -49.768 162.592  1.00  0.00    -0.550 OA
ENDBRANCH   1   2
BRANCH   1   5
ATOM      5  C   UNL     1      44.002 -49.242 164.387  1.00  0.00     0.059 C 
BRANCH   5   6
ATOM      6  C   UNL     1      43.573 -48.044 165.176  1.00  0.00     0.042 C 
ATOM      7  O   UNL     1      44.309 -47.023 165.228  1.00  0.00    -0.550 OA
ATOM      8  O   UNL     1      42.384 -48.072 165.893  1.00  0.00    -0.550 OA
ENDBRANCH   5   6
ENDBRANCH   1   5
TORSDOF 3
ENDMDL
MODEL 3
REMARK VINA RESULT:    -3.644      2.494      3.028
REMARK INTER + INTRA:          -4.401
REMARK INTER:                  -4.277
REMARK INTRA:                  -0.124
REMARK UNBOUND:                -0.117
REMARK SMILES O=C([O-])CCC(=O)[O-]
REMARK SMILES IDX 4 1 2 2 1 3 3 4 5 5 6 6 7 7 8 8
REMARK H PARENT
REMARK Flexibility Score: inf
ROOT
ATOM      1  C   UNL     1      45.044 -46.380 163.109  1.00  0.00     0.059 C 
ENDROOT
BRANCH   1   2
ATOM      2  C   UNL     1      44.883 -46.504 164.592  1.00  0.00     0.042 C 
ATOM      3  O   UNL     1      44.106 -47.370 165.074  1.00  0.00    -0.550 OA
ATOM      4  O   UNL     1      45.626 -45.697 165.443  1.00  0.00    -0.550 OA
ENDBRANCH   1   2
BRANCH   1   5
ATOM      5  C   UNL     1      45.024 -47.760 162.452  1.00  0.00     0.059 C 
BRANCH   5   6
ATOM      6  C   UNL     1      43.845 -47.887 161.540  1.00  0.00     0.042 C 
ATOM      7  O   UNL     1      42.676 -47.778 161.995  1.00  0.00    -0.550 OA
ATOM      8  O   UNL     1      44.034 -48.173 160.193  1.00  0.00    -0.550 OA
ENDBRANCH   5   6
ENDBRANCH   1   5
TORSDOF 3
ENDMDL
MODEL 4
REMARK VINA RESULT:    -3.639      2.504      4.036
REMARK INTER + INTRA:          -4.395
REMARK INTER:                  -4.274
REMARK INTRA:                  -0.121
REMARK UNBOUND:                -0.117
REMARK SMILES O=C([O-])CCC(=O)[O-]
REMARK SMILES IDX 4 1 2 2 1 3 3 4 5 5 6 6 7 7 8 8
REMARK H PARENT
REMARK Flexibility Score: inf
ROOT
ATOM      1  C   UNL     1      45.009 -47.805 162.462  1.00  0.00     0.059 C 
ENDROOT
BRANCH   1   2
ATOM      2  C   UNL     1      43.830 -47.912 161.548  1.00  0.00     0.042 C 
ATOM      3  O   UNL     1      42.660 -47.856 162.013  1.00  0.00    -0.550 OA
ATOM      4  O   UNL     1      44.019 -48.026 160.177  1.00  0.00    -0.550 OA
ENDBRANCH   1   2
BRANCH   1   5
ATOM      5  C   UNL     1      45.079 -46.409 163.082  1.00  0.00     0.059 C 
BRANCH   5   6
ATOM      6  C   UNL     1      44.871 -46.484 164.562  1.00  0.00     0.042 C 
ATOM      7  O   UNL     1      44.034 -47.293 165.044  1.00  0.00    -0.550 OA
ATOM      8  O   UNL     1      45.564 -45.627 165.407  1.00  0.00    -0.550 OA
ENDBRANCH   5   6
ENDBRANCH   1   5
TORSDOF 3
ENDMDL
MODEL 5
REMARK VINA RESULT:    -3.626      2.581      3.090
REMARK INTER + INTRA:          -4.379
REMARK INTER:                  -4.255
REMARK INTRA:                  -0.123
REMARK UNBOUND:                -0.117
REMARK SMILES O=C([O-])CCC(=O)[O-]
REMARK SMILES IDX 4 1 2 2 1 3 3 4 5 5 6 6 7 7 8 8
REMARK H PARENT
REMARK Flexibility Score: inf
ROOT
ATOM      1  C   UNL     1      44.897 -46.665 164.438  1.00  0.00     0.059 C 
ENDROOT
BRANCH   1   2
ATOM      2  C   UNL     1      46.131 -46.144 165.104  1.00  0.00     0.042 C 
ATOM      3  O   UNL     1      47.269 -46.429 164.643  1.00  0.00    -0.550 OA
ATOM      4  O   UNL     1      46.027 -45.303 166.204  1.00  0.00    -0.550 OA
ENDBRANCH   1   2
BRANCH   1   5
ATOM      5  C   UNL     1      45.008 -46.522 162.920  1.00  0.00     0.059 C 
BRANCH   5   6
ATOM      6  C   UNL     1      45.008 -47.868 162.267  1.00  0.00     0.042 C 
ATOM      7  O   UNL     1      45.696 -48.807 162.749  1.00  0.00    -0.550 OA
ATOM      8  O   UNL     1      44.287 -48.075 161.098  1.00  0.00    -0.550 OA
ENDBRANCH   5   6
ENDBRANCH   1   5
TORSDOF 3
ENDMDL
MODEL 6
REMARK VINA RESULT:    -3.622      2.569      4.048
REMARK INTER + INTRA:          -4.374
REMARK INTER:                  -4.251
REMARK INTRA:                  -0.124
REMARK UNBOUND:                -0.117
REMARK SMILES O=C([O-])CCC(=O)[O-]
REMARK SMILES IDX 4 1 2 2 1 3 3 4 5 5 6 6 7 7 8 8
REMARK H PARENT
REMARK Flexibility Score: inf
ROOT
ATOM      1  C   UNL     1      45.007 -46.491 162.896  1.00  0.00     0.059 C 
ENDROOT
BRANCH   1   2
ATOM      2  C   UNL     1      45.019 -47.819 162.207  1.00  0.00     0.042 C 
ATOM      3  O   UNL     1      44.343 -47.995 161.159  1.00  0.00    -0.550 OA
ATOM      4  O   UNL     1      45.813 -48.849 162.693  1.00  0.00    -0.550 OA
ENDBRANCH   1   2
BRANCH   1   5
ATOM      5  C   UNL     1      44.884 -46.675 164.408  1.00  0.00     0.059 C 
BRANCH   5   6
ATOM      6  C   UNL     1      46.106 -46.157 165.099  1.00  0.00     0.042 C 
ATOM      7  O   UNL     1      47.252 -46.482 164.690  1.00  0.00    -0.550 OA
ATOM      8  O   UNL     1      45.981 -45.353 166.225  1.00  0.00    -0.550 OA
ENDBRANCH   5   6
ENDBRANCH   1   5
TORSDOF 3
ENDMDL
MODEL 7
REMARK VINA RESULT:    -3.581      0.974      1.250
REMARK INTER + INTRA:          -4.326
REMARK INTER:                  -4.203
REMARK INTRA:                  -0.123
REMARK UNBOUND:                -0.117
REMARK SMILES O=C([O-])CCC(=O)[O-]
REMARK SMILES IDX 4 1 2 2 1 3 3 4 5 5 6 6 7 7 8 8
REMARK H PARENT
REMARK Flexibility Score: inf
ROOT
ATOM      1  C   UNL     1      44.525 -48.105 164.817  1.00  0.00     0.059 C 
ENDROOT
BRANCH   1   2
ATOM      2  C   UNL     1      43.046 -48.304 164.927  1.00  0.00     0.042 C 
ATOM      3  O   UNL     1      42.469 -48.166 166.038  1.00  0.00    -0.550 OA
ATOM      4  O   UNL     1      42.296 -48.595 163.794  1.00  0.00    -0.550 OA
ENDBRANCH   1   2
BRANCH   1   5
ATOM      5  C   UNL     1      45.196 -49.373 164.288  1.00  0.00     0.059 C 
BRANCH   5   6
ATOM      6  C   UNL     1      45.824 -49.114 162.954  1.00  0.00     0.042 C 
ATOM      7  O   UNL     1      45.220 -48.420 162.094  1.00  0.00    -0.550 OA
ATOM      8  O   UNL     1      47.054 -49.678 162.642  1.00  0.00    -0.550 OA
ENDBRANCH   5   6
ENDBRANCH   1   5
TORSDOF 3
ENDMDL
MODEL 8
REMARK VINA RESULT:    -3.502      2.323      3.058
REMARK INTER + INTRA:          -4.234
REMARK INTER:                  -4.060
REMARK INTRA:                  -0.173
REMARK UNBOUND:                -0.117
REMARK SMILES O=C([O-])CCC(=O)[O-]
REMARK SMILES IDX 4 1 2 2 1 3 3 4 5 5 6 6 7 7 8 8
REMARK H PARENT
REMARK Flexibility Score: inf
ROOT
ATOM      1  C   UNL     1      44.942 -47.027 164.373  1.00  0.00     0.059 C 
ENDROOT
BRANCH   1   2
ATOM      2  C   UNL     1      45.841 -48.222 164.333  1.00  0.00     0.042 C 
ATOM      3  O   UNL     1      47.048 -48.096 163.994  1.00  0.00    -0.550 OA
ATOM      4  O   UNL     1      45.361 -49.468 164.715  1.00  0.00    -0.550 OA
ENDBRANCH   1   2
BRANCH   1   5
ATOM      5  C   UNL     1      44.641 -46.537 162.957  1.00  0.00     0.059 C 
BRANCH   5   6
ATOM      6  C   UNL     1      43.826 -47.550 162.215  1.00  0.00     0.042 C 
ATOM      7  O   UNL     1      42.734 -47.957 162.692  1.00  0.00    -0.550 OA
ATOM      8  O   UNL     1      44.294 -48.081 161.020  1.00  0.00    -0.550 OA
ENDBRANCH   5   6
ENDBRANCH   1   5
TORSDOF 3
ENDMDL
MODEL 9
REMARK VINA RESULT:    -3.502      2.336      2.971
REMARK INTER + INTRA:          -4.233
REMARK INTER:                  -4.055
REMARK INTRA:                  -0.178
REMARK UNBOUND:                -0.117
REMARK SMILES O=C([O-])CCC(=O)[O-]
REMARK SMILES IDX 4 1 2 2 1 3 3 4 5 5 6 6 7 7 8 8
REMARK H PARENT
REMARK Flexibility Score: inf
ROOT
ATOM      1  C   UNL     1      44.674 -46.480 162.957  1.00  0.00     0.059 C 
ENDROOT
BRANCH   1   2
ATOM      2  C   UNL     1      43.871 -47.501 162.213  1.00  0.00     0.042 C 
ATOM      3  O   UNL     1      44.309 -47.992 161.140  1.00  0.00    -0.550 OA
ATOM      4  O   UNL     1      42.660 -47.945 162.729  1.00  0.00    -0.550 OA
ENDBRANCH   1   2
BRANCH   1   5
ATOM      5  C   UNL     1      44.956 -46.958 164.382  1.00  0.00     0.059 C 
BRANCH   5   6
ATOM      6  C   UNL     1      45.822 -48.178 164.362  1.00  0.00     0.042 C 
ATOM      7  O   UNL     1      47.021 -48.098 163.985  1.00  0.00    -0.550 OA
ATOM      8  O   UNL     1      45.293 -49.413 164.715  1.00  0.00    -0.550 OA
ENDBRANCH   5   6
ENDBRANCH   1   5
TORSDOF 3
ENDMDL
