MODEL 1
REMARK VINA RESULT:    -3.211      0.000      0.000
REMARK INTER + INTRA:          -4.295
REMARK INTER:                  -3.962
REMARK INTRA:                  -0.333
REMARK UNBOUND:                -0.333
REMARK SMILES O=c1c(O)c(-c2cc(O)c(O)c(O)c2)oc2cc(O)cc(O)c12
REMARK SMILES IDX 5 1 3 2 2 3 1 4 23 5 21 6 20 7 18 8 17 9 16 10 15 11 6 12
REMARK SMILES IDX 7 13 8 14 14 15 10 16 12 17 9 18 11 20 13 22 4 24 22 26
REMARK SMILES IDX 19 28
REMARK H PARENT 9 19 11 21 13 23 4 25 22 27 19 29
REMARK Flexibility Score: inf
ROOT
ATOM      1  C   UNL     1      19.602  -6.173  18.606  1.00  0.00     0.180 A 
ATOM      2  C   UNL     1      18.559  -6.721  19.373  1.00  0.00     0.208 A 
ATOM      3  C   UNL     1      18.344  -8.108  19.338  1.00  0.00     0.238 A 
ATOM      4  O   UNL     1      17.374  -8.585  19.984  1.00  0.00    -0.285 OA
ATOM      5  C   UNL     1      19.185  -8.932  18.553  1.00  0.00     0.111 A 
ATOM      6  C   UNL     1      19.083 -10.353  18.475  1.00  0.00     0.134 A 
ATOM      7  C   UNL     1      19.884 -11.054  17.564  1.00  0.00     0.093 A 
ATOM      8  C   UNL     1      20.826 -10.395  16.777  1.00  0.00     0.123 A 
ATOM      9  C   UNL     1      20.974  -9.010  16.887  1.00  0.00     0.094 A 
ATOM     10  C   UNL     1      20.166  -8.280  17.760  1.00  0.00     0.146 A 
ATOM     11  O   UNL     1      20.332  -6.965  17.828  1.00  0.00    -0.452 OA
ENDROOT
BRANCH   1  12
ATOM     12  C   UNL     1      19.906  -4.724  18.609  1.00  0.00     0.029 A 
ATOM     13  C   UNL     1      20.957  -4.200  19.380  1.00  0.00     0.062 A 
ATOM     14  C   UNL     1      21.244  -2.830  19.352  1.00  0.00     0.162 A 
ATOM     15  C   UNL     1      19.170  -3.862  17.784  1.00  0.00     0.062 A 
ATOM     16  C   UNL     1      20.491  -1.965  18.543  1.00  0.00     0.200 A 
ATOM     17  C   UNL     1      19.445  -2.490  17.747  1.00  0.00     0.162 A 
BRANCH  14  18
ATOM     18  O   UNL     1      22.284  -2.316  20.125  1.00  0.00    -0.504 OA
ATOM     19  H   UNL     1      22.451  -1.319  20.194  1.00  0.00     0.293 HD
ENDBRANCH  14  18
BRANCH  16  20
ATOM     20  O   UNL     1      20.814  -0.606  18.558  1.00  0.00    -0.502 OA
ATOM     21  H   UNL     1      21.728  -0.240  18.333  1.00  0.00     0.293 HD
ENDBRANCH  16  20
BRANCH  17  22
ATOM     22  O   UNL     1      18.662  -1.692  16.909  1.00  0.00    -0.504 OA
ATOM     23  H   UNL     1      17.929  -1.079  17.235  1.00  0.00     0.293 HD
ENDBRANCH  17  22
ENDBRANCH   1  12
BRANCH   2  24
ATOM     24  O   UNL     1      17.728  -5.887  20.125  1.00  0.00    -0.502 OA
ATOM     25  H   UNL     1      17.600  -6.003  21.124  1.00  0.00     0.293 HD
ENDBRANCH   2  24
BRANCH   6  26
ATOM     26  O   UNL     1      18.239 -11.121  19.283  1.00  0.00    -0.507 OA
ATOM     27  H   UNL     1      17.947 -10.866  20.214  1.00  0.00     0.293 HD
ENDBRANCH   6  26
BRANCH   8  28
ATOM     28  O   UNL     1      21.616 -11.125  15.892  1.00  0.00    -0.508 OA
ATOM     29  H   UNL     1      21.381 -11.201  14.910  1.00  0.00     0.293 HD
ENDBRANCH   8  28
TORSDOF 7
ENDMDL
MODEL 2
REMARK VINA RESULT:    -2.863      9.206     12.358
REMARK INTER + INTRA:          -3.865
REMARK INTER:                  -3.976
REMARK INTRA:                   0.111
REMARK UNBOUND:                -0.333
REMARK SMILES O=c1c(O)c(-c2cc(O)c(O)c(O)c2)oc2cc(O)cc(O)c12
REMARK SMILES IDX 5 1 3 2 2 3 1 4 23 5 21 6 20 7 18 8 17 9 16 10 15 11 6 12
REMARK SMILES IDX 7 13 8 14 14 15 10 16 12 17 9 18 11 20 13 22 4 24 22 26
REMARK SMILES IDX 19 28
REMARK H PARENT 9 19 11 21 13 23 4 25 22 27 19 29
REMARK Flexibility Score: inf
ROOT
ATOM      1  C   UNL     1      11.180  -0.529  18.778  1.00  0.00     0.180 A 
ATOM      2  C   UNL     1      10.190  -1.179  18.021  1.00  0.00     0.208 A 
ATOM      3  C   UNL     1       8.977  -0.516  17.772  1.00  0.00     0.238 A 
ATOM      4  O   UNL     1       8.075  -1.124  17.140  1.00  0.00    -0.285 OA
ATOM      5  C   UNL     1       8.776   0.794  18.269  1.00  0.00     0.111 A 
ATOM      6  C   UNL     1       7.603   1.574  18.045  1.00  0.00     0.134 A 
ATOM      7  C   UNL     1       7.458   2.807  18.694  1.00  0.00     0.093 A 
ATOM      8  C   UNL     1       8.470   3.316  19.506  1.00  0.00     0.123 A 
ATOM      9  C   UNL     1       9.647   2.587  19.687  1.00  0.00     0.094 A 
ATOM     10  C   UNL     1       9.805   1.339  19.082  1.00  0.00     0.146 A 
ATOM     11  O   UNL     1      10.935   0.674  19.286  1.00  0.00    -0.452 OA
ENDROOT
BRANCH   1  12
ATOM     12  C   UNL     1      12.493  -1.153  19.061  1.00  0.00     0.029 A 
ATOM     13  C   UNL     1      13.683  -0.410  18.999  1.00  0.00     0.062 A 
ATOM     14  C   UNL     1      14.912  -1.012  19.292  1.00  0.00     0.162 A 
ATOM     15  C   UNL     1      12.548  -2.497  19.455  1.00  0.00     0.062 A 
ATOM     16  C   UNL     1      14.968  -2.364  19.664  1.00  0.00     0.200 A 
ATOM     17  C   UNL     1      13.770  -3.113  19.750  1.00  0.00     0.162 A 
BRANCH  14  18
ATOM     18  O   UNL     1      16.090  -0.270  19.222  1.00  0.00    -0.504 OA
ATOM     19  H   UNL     1      16.959  -0.682  18.902  1.00  0.00     0.293 HD
ENDBRANCH  14  18
BRANCH  16  20
ATOM     20  O   UNL     1      16.221  -2.916  19.939  1.00  0.00    -0.502 OA
ATOM     21  H   UNL     1      16.589  -3.050  20.870  1.00  0.00     0.293 HD
ENDBRANCH  16  20
BRANCH  17  22
ATOM     22  O   UNL     1      13.748  -4.458  20.124  1.00  0.00    -0.504 OA
ATOM     23  H   UNL     1      14.414  -5.146  19.804  1.00  0.00     0.293 HD
ENDBRANCH  17  22
ENDBRANCH   1  12
BRANCH   2  24
ATOM     24  O   UNL     1      10.401  -2.480  17.557  1.00  0.00    -0.502 OA
ATOM     25  H   UNL     1      10.081  -3.297  18.064  1.00  0.00     0.293 HD
ENDBRANCH   2  24
BRANCH   6  26
ATOM     26  O   UNL     1       6.571   1.201  17.178  1.00  0.00    -0.507 OA
ATOM     27  H   UNL     1       6.702   0.719  16.302  1.00  0.00     0.293 HD
ENDBRANCH   6  26
BRANCH   8  28
ATOM     28  O   UNL     1       8.299   4.553  20.125  1.00  0.00    -0.508 OA
ATOM     29  H   UNL     1       7.431   4.801  20.584  1.00  0.00     0.293 HD
ENDBRANCH   8  28
TORSDOF 7
ENDMDL
MODEL 3
REMARK VINA RESULT:    -2.128      9.050     11.138
REMARK INTER + INTRA:          -2.959
REMARK INTER:                  -3.357
REMARK INTRA:                   0.398
REMARK UNBOUND:                -0.333
REMARK SMILES O=c1c(O)c(-c2cc(O)c(O)c(O)c2)oc2cc(O)cc(O)c12
REMARK SMILES IDX 5 1 3 2 2 3 1 4 23 5 21 6 20 7 18 8 17 9 16 10 15 11 6 12
REMARK SMILES IDX 7 13 8 14 14 15 10 16 12 17 9 18 11 20 13 22 4 24 22 26
REMARK SMILES IDX 19 28
REMARK H PARENT 9 19 11 21 13 23 4 25 22 27 19 29
REMARK Flexibility Score: inf
ROOT
ATOM      1  C   UNL     1      10.903  -1.926  18.893  1.00  0.00     0.180 A 
ATOM      2  C   UNL     1      10.263  -0.946  18.115  1.00  0.00     0.208 A 
ATOM      3  C   UNL     1       8.877  -1.038  17.908  1.00  0.00     0.238 A 
ATOM      4  O   UNL     1       8.320  -0.188  17.165  1.00  0.00    -0.285 OA
ATOM      5  C   UNL     1       8.146  -2.097  18.496  1.00  0.00     0.111 A 
ATOM      6  C   UNL     1       6.733  -2.265  18.386  1.00  0.00     0.134 A 
ATOM      7  C   UNL     1       6.132  -3.422  18.899  1.00  0.00     0.093 A 
ATOM      8  C   UNL     1       6.882  -4.383  19.574  1.00  0.00     0.123 A 
ATOM      9  C   UNL     1       8.257  -4.201  19.738  1.00  0.00     0.094 A 
ATOM     10  C   UNL     1       8.889  -3.075  19.207  1.00  0.00     0.146 A 
ATOM     11  O   UNL     1      10.199  -2.945  19.377  1.00  0.00    -0.452 OA
ENDROOT
BRANCH   1  12
ATOM     12  C   UNL     1      12.355  -1.884  19.176  1.00  0.00     0.029 A 
ATOM     13  C   UNL     1      13.064  -3.045  19.528  1.00  0.00     0.062 A 
ATOM     14  C   UNL     1      14.442  -2.990  19.769  1.00  0.00     0.162 A 
ATOM     15  C   UNL     1      13.053  -0.677  19.035  1.00  0.00     0.062 A 
ATOM     16  C   UNL     1      15.134  -1.775  19.650  1.00  0.00     0.200 A 
ATOM     17  C   UNL     1      14.430  -0.606  19.274  1.00  0.00     0.162 A 
BRANCH  14  18
ATOM     18  O   UNL     1      15.138  -4.145  20.125  1.00  0.00    -0.504 OA
ATOM     19  H   UNL     1      14.975  -4.611  21.010  1.00  0.00     0.293 HD
ENDBRANCH  14  18
BRANCH  16  20
ATOM     20  O   UNL     1      16.507  -1.775  19.909  1.00  0.00    -0.502 OA
ATOM     21  H   UNL     1      17.105  -0.971  19.787  1.00  0.00     0.293 HD
ENDBRANCH  16  20
BRANCH  17  22
ATOM     22  O   UNL     1      15.054   0.634  19.125  1.00  0.00    -0.504 OA
ATOM     23  H   UNL     1      14.883   1.429  19.724  1.00  0.00     0.293 HD
ENDBRANCH  17  22
ENDBRANCH   1  12
BRANCH   2  24
ATOM     24  O   UNL     1      11.008   0.079  17.527  1.00  0.00    -0.502 OA
ATOM     25  H   UNL     1      10.949   1.043  17.837  1.00  0.00     0.293 HD
ENDBRANCH   2  24
BRANCH   6  26
ATOM     26  O   UNL     1       5.877  -1.320  17.812  1.00  0.00    -0.507 OA
ATOM     27  H   UNL     1       4.892  -1.239  18.015  1.00  0.00     0.293 HD
ENDBRANCH   6  26
BRANCH   8  28
ATOM     28  O   UNL     1       6.250  -5.515  20.085  1.00  0.00    -0.508 OA
ATOM     29  H   UNL     1       5.851  -6.220  19.477  1.00  0.00     0.293 HD
ENDBRANCH   8  28
TORSDOF 7
ENDMDL
MODEL 4
REMARK VINA RESULT:    -1.566      9.221     12.198
REMARK INTER + INTRA:          -2.265
REMARK INTER:                  -2.208
REMARK INTRA:                  -0.057
REMARK UNBOUND:                -0.333
REMARK SMILES O=c1c(O)c(-c2cc(O)c(O)c(O)c2)oc2cc(O)cc(O)c12
REMARK SMILES IDX 5 1 3 2 2 3 1 4 23 5 21 6 20 7 18 8 17 9 16 10 15 11 6 12
REMARK SMILES IDX 7 13 8 14 14 15 10 16 12 17 9 18 11 20 13 22 4 24 22 26
REMARK SMILES IDX 19 28
REMARK H PARENT 9 19 11 21 13 23 4 25 22 27 19 29
REMARK Flexibility Score: inf
ROOT
ATOM      1  C   UNL     1      10.393  -1.378  17.007  1.00  0.00     0.180 A 
ATOM      2  C   UNL     1       9.796  -0.194  17.471  1.00  0.00     0.208 A 
ATOM      3  C   UNL     1      10.501   0.615  18.378  1.00  0.00     0.238 A 
ATOM      4  O   UNL     1       9.938   1.645  18.832  1.00  0.00    -0.285 OA
ATOM      5  C   UNL     1      11.800   0.238  18.794  1.00  0.00     0.111 A 
ATOM      6  C   UNL     1      12.620   1.002  19.678  1.00  0.00     0.134 A 
ATOM      7  C   UNL     1      13.836   0.469  20.125  1.00  0.00     0.093 A 
ATOM      8  C   UNL     1      14.291  -0.768  19.671  1.00  0.00     0.123 A 
ATOM      9  C   UNL     1      13.523  -1.497  18.761  1.00  0.00     0.094 A 
ATOM     10  C   UNL     1      12.290  -1.009  18.325  1.00  0.00     0.146 A 
ATOM     11  O   UNL     1      11.586  -1.738  17.468  1.00  0.00    -0.452 OA
ENDROOT
BRANCH   1  12
ATOM     12  C   UNL     1       9.723  -2.270  16.033  1.00  0.00     0.029 A 
ATOM     13  C   UNL     1       8.427  -2.761  16.263  1.00  0.00     0.062 A 
ATOM     14  C   UNL     1       7.802  -3.584  15.320  1.00  0.00     0.162 A 
ATOM     15  C   UNL     1      10.368  -2.586  14.829  1.00  0.00     0.062 A 
ATOM     16  C   UNL     1       8.458  -3.919  14.126  1.00  0.00     0.200 A 
ATOM     17  C   UNL     1       9.754  -3.409  13.876  1.00  0.00     0.162 A 
BRANCH  14  18
ATOM     18  O   UNL     1       6.518  -4.074  15.559  1.00  0.00    -0.504 OA
ATOM     19  H   UNL     1       6.226  -4.368  16.484  1.00  0.00     0.293 HD
ENDBRANCH  14  18
BRANCH  16  20
ATOM     20  O   UNL     1       7.791  -4.750  13.222  1.00  0.00    -0.502 OA
ATOM     21  H   UNL     1       7.993  -5.732  13.101  1.00  0.00     0.293 HD
ENDBRANCH  16  20
BRANCH  17  22
ATOM     22  O   UNL     1      10.463  -3.690  12.706  1.00  0.00    -0.504 OA
ATOM     23  H   UNL     1      10.208  -4.414  12.050  1.00  0.00     0.293 HD
ENDBRANCH  17  22
ENDBRANCH   1  12
BRANCH   2  24
ATOM     24  O   UNL     1       8.504   0.148  17.064  1.00  0.00    -0.502 OA
ATOM     25  H   UNL     1       8.112   1.071  17.210  1.00  0.00     0.293 HD
ENDBRANCH   2  24
BRANCH   6  26
ATOM     26  O   UNL     1      12.304   2.290  20.120  1.00  0.00    -0.507 OA
ATOM     27  H   UNL     1      11.554   2.856  19.751  1.00  0.00     0.293 HD
ENDBRANCH   6  26
BRANCH   8  28
ATOM     28  O   UNL     1      15.512  -1.261  20.125  1.00  0.00    -0.508 OA
ATOM     29  H   UNL     1      16.335  -1.265  19.534  1.00  0.00     0.293 HD
ENDBRANCH   8  28
TORSDOF 7
ENDMDL
MODEL 5
REMARK VINA RESULT:    -1.172     10.538     12.399
REMARK INTER + INTRA:          -1.780
REMARK INTER:                  -1.534
REMARK INTRA:                  -0.246
REMARK UNBOUND:                -0.333
REMARK SMILES O=c1c(O)c(-c2cc(O)c(O)c(O)c2)oc2cc(O)cc(O)c12
REMARK SMILES IDX 5 1 3 2 2 3 1 4 23 5 21 6 20 7 18 8 17 9 16 10 15 11 6 12
REMARK SMILES IDX 7 13 8 14 14 15 10 16 12 17 9 18 11 20 13 22 4 24 22 26
REMARK SMILES IDX 19 28
REMARK H PARENT 9 19 11 21 13 23 4 25 22 27 19 29
REMARK Flexibility Score: inf
ROOT
ATOM      1  C   UNL     1       9.848  -1.951  14.920  1.00  0.00     0.180 A 
ATOM      2  C   UNL     1       8.804  -2.762  15.396  1.00  0.00     0.208 A 
ATOM      3  C   UNL     1       8.619  -2.892  16.782  1.00  0.00     0.238 A 
ATOM      4  O   UNL     1       7.717  -3.663  17.201  1.00  0.00    -0.285 OA
ATOM      5  C   UNL     1       9.469  -2.197  17.674  1.00  0.00     0.111 A 
ATOM      6  C   UNL     1       9.349  -2.224  19.096  1.00  0.00     0.134 A 
ATOM      7  C   UNL     1      10.326  -1.603  19.884  1.00  0.00     0.093 A 
ATOM      8  C   UNL     1      11.381  -0.902  19.303  1.00  0.00     0.123 A 
ATOM      9  C   UNL     1      11.477  -0.819  17.912  1.00  0.00     0.094 A 
ATOM     10  C   UNL     1      10.538  -1.459  17.101  1.00  0.00     0.146 A 
ATOM     11  O   UNL     1      10.670  -1.364  15.783  1.00  0.00    -0.452 OA
ENDROOT
BRANCH   1  12
ATOM     12  C   UNL     1      10.090  -1.746  13.474  1.00  0.00     0.029 A 
ATOM     13  C   UNL     1      10.574  -2.783  12.660  1.00  0.00     0.062 A 
ATOM     14  C   UNL     1      10.775  -2.576  11.290  1.00  0.00     0.162 A 
ATOM     15  C   UNL     1       9.778  -0.510  12.890  1.00  0.00     0.062 A 
ATOM     16  C   UNL     1      10.484  -1.331  10.712  1.00  0.00     0.200 A 
ATOM     17  C   UNL     1       9.975  -0.288  11.522  1.00  0.00     0.162 A 
BRANCH  14  18
ATOM     18  O   UNL     1      11.262  -3.608  10.490  1.00  0.00    -0.504 OA
ATOM     19  H   UNL     1      10.799  -4.509  10.444  1.00  0.00     0.293 HD
ENDBRANCH  14  18
BRANCH  16  20
ATOM     20  O   UNL     1      10.710  -1.176   9.342  1.00  0.00    -0.502 OA
ATOM     21  H   UNL     1      11.600  -0.916   8.941  1.00  0.00     0.293 HD
ENDBRANCH  16  20
BRANCH  17  22
ATOM     22  O   UNL     1       9.652   0.972  11.014  1.00  0.00    -0.504 OA
ATOM     23  H   UNL     1       9.294   1.733  11.573  1.00  0.00     0.293 HD
ENDBRANCH  17  22
ENDBRANCH   1  12
BRANCH   2  24
ATOM     24  O   UNL     1       7.989  -3.457  14.498  1.00  0.00    -0.502 OA
ATOM     25  H   UNL     1       7.284  -2.997  13.934  1.00  0.00     0.293 HD
ENDBRANCH   2  24
BRANCH   6  26
ATOM     26  O   UNL     1       8.283  -2.818  19.778  1.00  0.00    -0.507 OA
ATOM     27  H   UNL     1       8.235  -2.937  20.778  1.00  0.00     0.293 HD
ENDBRANCH   6  26
BRANCH   8  28
ATOM     28  O   UNL     1      12.327  -0.283  20.117  1.00  0.00    -0.508 OA
ATOM     29  H   UNL     1      12.250   0.695  20.371  1.00  0.00     0.293 HD
ENDBRANCH   8  28
TORSDOF 7
ENDMDL
MODEL 6
REMARK VINA RESULT:    -1.121     10.446     12.402
REMARK INTER + INTRA:          -1.717
REMARK INTER:                  -1.446
REMARK INTRA:                  -0.271
REMARK UNBOUND:                -0.333
REMARK SMILES O=c1c(O)c(-c2cc(O)c(O)c(O)c2)oc2cc(O)cc(O)c12
REMARK SMILES IDX 5 1 3 2 2 3 1 4 23 5 21 6 20 7 18 8 17 9 16 10 15 11 6 12
REMARK SMILES IDX 7 13 8 14 14 15 10 16 12 17 9 18 11 20 13 22 4 24 22 26
REMARK SMILES IDX 19 28
REMARK H PARENT 9 19 11 21 13 23 4 25 22 27 19 29
REMARK Flexibility Score: inf
ROOT
ATOM      1  C   UNL     1       9.822  -1.922  14.977  1.00  0.00     0.180 A 
ATOM      2  C   UNL     1       8.772  -2.712  15.475  1.00  0.00     0.208 A 
ATOM      3  C   UNL     1       8.618  -2.845  16.864  1.00  0.00     0.238 A 
ATOM      4  O   UNL     1       7.710  -3.599  17.302  1.00  0.00    -0.285 OA
ATOM      5  C   UNL     1       9.505  -2.173  17.738  1.00  0.00     0.111 A 
ATOM      6  C   UNL     1       9.418  -2.205  19.163  1.00  0.00     0.134 A 
ATOM      7  C   UNL     1      10.428  -1.609  19.930  1.00  0.00     0.093 A 
ATOM      8  C   UNL     1      11.483  -0.928  19.327  1.00  0.00     0.123 A 
ATOM      9  C   UNL     1      11.547  -0.841  17.934  1.00  0.00     0.094 A 
ATOM     10  C   UNL     1      10.575  -1.455  17.143  1.00  0.00     0.146 A 
ATOM     11  O   UNL     1      10.677  -1.357  15.823  1.00  0.00    -0.452 OA
ENDROOT
BRANCH   1  12
ATOM     12  C   UNL     1      10.034  -1.714  13.527  1.00  0.00     0.029 A 
ATOM     13  C   UNL     1       9.766  -0.476  12.920  1.00  0.00     0.062 A 
ATOM     14  C   UNL     1       9.995  -0.292  11.551  1.00  0.00     0.162 A 
ATOM     15  C   UNL     1      10.566  -2.753  12.750  1.00  0.00     0.062 A 
ATOM     16  C   UNL     1      10.505  -1.340  10.771  1.00  0.00     0.200 A 
ATOM     17  C   UNL     1      10.798  -2.583  11.380  1.00  0.00     0.162 A 
BRANCH  14  18
ATOM     18  O   UNL     1       9.720   0.938  10.954  1.00  0.00    -0.504 OA
ATOM     19  H   UNL     1      10.144   1.207  10.073  1.00  0.00     0.293 HD
ENDBRANCH  14  18
BRANCH  16  20
ATOM     20  O   UNL     1      10.707  -1.105   9.408  1.00  0.00    -0.502 OA
ATOM     21  H   UNL     1      10.515  -0.225   8.952  1.00  0.00     0.293 HD
ENDBRANCH  16  20
BRANCH  17  22
ATOM     22  O   UNL     1      11.319  -3.667  10.670  1.00  0.00    -0.504 OA
ATOM     23  H   UNL     1      11.673  -4.509  11.101  1.00  0.00     0.293 HD
ENDBRANCH  17  22
ENDBRANCH   1  12
BRANCH   2  24
ATOM     24  O   UNL     1       7.921  -3.384  14.594  1.00  0.00    -0.502 OA
ATOM     25  H   UNL     1       7.091  -2.953  14.201  1.00  0.00     0.293 HD
ENDBRANCH   2  24
BRANCH   6  26
ATOM     26  O   UNL     1       8.356  -2.779  19.867  1.00  0.00    -0.507 OA
ATOM     27  H   UNL     1       7.673  -3.405  19.468  1.00  0.00     0.293 HD
ENDBRANCH   6  26
BRANCH   8  28
ATOM     28  O   UNL     1      12.462  -0.334  20.120  1.00  0.00    -0.508 OA
ATOM     29  H   UNL     1      12.892  -0.830  20.892  1.00  0.00     0.293 HD
ENDBRANCH   8  28
TORSDOF 7
ENDMDL
MODEL 7
REMARK VINA RESULT:    -0.878     10.708     13.732
REMARK INTER + INTRA:          -1.416
REMARK INTER:                  -1.465
REMARK INTRA:                   0.049
REMARK UNBOUND:                -0.333
REMARK SMILES O=c1c(O)c(-c2cc(O)c(O)c(O)c2)oc2cc(O)cc(O)c12
REMARK SMILES IDX 5 1 3 2 2 3 1 4 23 5 21 6 20 7 18 8 17 9 16 10 15 11 6 12
REMARK SMILES IDX 7 13 8 14 14 15 10 16 12 17 9 18 11 20 13 22 4 24 22 26
REMARK SMILES IDX 19 28
REMARK H PARENT 9 19 11 21 13 23 4 25 22 27 19 29
REMARK Flexibility Score: inf
ROOT
ATOM      1  C   UNL     1       9.756  -1.009  16.622  1.00  0.00     0.180 A 
ATOM      2  C   UNL     1      11.076  -0.733  17.018  1.00  0.00     0.208 A 
ATOM      3  C   UNL     1      11.307   0.294  17.948  1.00  0.00     0.238 A 
ATOM      4  O   UNL     1      12.496   0.572  18.256  1.00  0.00    -0.285 OA
ATOM      5  C   UNL     1      10.216   1.018  18.484  1.00  0.00     0.111 A 
ATOM      6  C   UNL     1      10.331   2.050  19.463  1.00  0.00     0.134 A 
ATOM      7  C   UNL     1       9.197   2.788  19.825  1.00  0.00     0.093 A 
ATOM      8  C   UNL     1       7.944   2.489  19.294  1.00  0.00     0.123 A 
ATOM      9  C   UNL     1       7.810   1.443  18.379  1.00  0.00     0.094 A 
ATOM     10  C   UNL     1       8.928   0.712  17.972  1.00  0.00     0.146 A 
ATOM     11  O   UNL     1       8.759  -0.268  17.093  1.00  0.00    -0.452 OA
ENDROOT
BRANCH   1  12
ATOM     12  C   UNL     1       9.430  -2.091  15.665  1.00  0.00     0.029 A 
ATOM     13  C   UNL     1       8.379  -2.990  15.909  1.00  0.00     0.062 A 
ATOM     14  C   UNL     1       8.071  -3.992  14.981  1.00  0.00     0.162 A 
ATOM     15  C   UNL     1      10.145  -2.188  14.462  1.00  0.00     0.062 A 
ATOM     16  C   UNL     1       8.803  -4.102  13.789  1.00  0.00     0.200 A 
ATOM     17  C   UNL     1       9.849  -3.185  13.526  1.00  0.00     0.162 A 
BRANCH  14  18
ATOM     18  O   UNL     1       7.031  -4.885  15.233  1.00  0.00    -0.504 OA
ATOM     19  H   UNL     1       7.124  -5.629  15.915  1.00  0.00     0.293 HD
ENDBRANCH  14  18
BRANCH  16  20
ATOM     20  O   UNL     1       8.459  -5.124  12.901  1.00  0.00    -0.502 OA
ATOM     21  H   UNL     1       9.128  -5.736  12.456  1.00  0.00     0.293 HD
ENDBRANCH  16  20
BRANCH  17  22
ATOM     22  O   UNL     1      10.611  -3.226  12.356  1.00  0.00    -0.504 OA
ATOM     23  H   UNL     1      11.022  -4.067  11.978  1.00  0.00     0.293 HD
ENDBRANCH  17  22
ENDBRANCH   1  12
BRANCH   2  24
ATOM     24  O   UNL     1      12.140  -1.445  16.460  1.00  0.00    -0.502 OA
ATOM     25  H   UNL     1      12.747  -1.052  15.750  1.00  0.00     0.293 HD
ENDBRANCH   2  24
BRANCH   6  26
ATOM     26  O   UNL     1      11.521   2.369  20.125  1.00  0.00    -0.507 OA
ATOM     27  H   UNL     1      12.443   2.272  19.728  1.00  0.00     0.293 HD
ENDBRANCH   6  26
BRANCH   8  28
ATOM     28  O   UNL     1       6.834   3.234  19.688  1.00  0.00    -0.508 OA
ATOM     29  H   UNL     1       6.234   3.690  19.011  1.00  0.00     0.293 HD
ENDBRANCH   8  28
TORSDOF 7
ENDMDL
MODEL 8
REMARK VINA RESULT:    -0.739      1.939      7.036
REMARK INTER + INTRA:          -1.245
REMARK INTER:                  -1.017
REMARK INTRA:                  -0.227
REMARK UNBOUND:                -0.333
REMARK SMILES O=c1c(O)c(-c2cc(O)c(O)c(O)c2)oc2cc(O)cc(O)c12
REMARK SMILES IDX 5 1 3 2 2 3 1 4 23 5 21 6 20 7 18 8 17 9 16 10 15 11 6 12
REMARK SMILES IDX 7 13 8 14 14 15 10 16 12 17 9 18 11 20 13 22 4 24 22 26
REMARK SMILES IDX 19 28
REMARK H PARENT 9 19 11 21 13 23 4 25 22 27 19 29
REMARK Flexibility Score: inf
ROOT
ATOM      1  C   UNL     1      19.777  -5.802  19.074  1.00  0.00     0.180 A 
ATOM      2  C   UNL     1      18.469  -5.486  19.478  1.00  0.00     0.208 A 
ATOM      3  C   UNL     1      18.134  -4.142  19.711  1.00  0.00     0.238 A 
ATOM      4  O   UNL     1      16.977  -3.872  20.125  1.00  0.00    -0.285 OA
ATOM      5  C   UNL     1      19.105  -3.131  19.519  1.00  0.00     0.111 A 
ATOM      6  C   UNL     1      18.864  -1.734  19.687  1.00  0.00     0.134 A 
ATOM      7  C   UNL     1      19.933  -0.833  19.598  1.00  0.00     0.093 A 
ATOM      8  C   UNL     1      21.219  -1.270  19.285  1.00  0.00     0.123 A 
ATOM      9  C   UNL     1      21.455  -2.628  19.061  1.00  0.00     0.094 A 
ATOM     10  C   UNL     1      20.417  -3.554  19.178  1.00  0.00     0.146 A 
ATOM     11  O   UNL     1      20.684  -4.837  18.968  1.00  0.00    -0.452 OA
ENDROOT
BRANCH   1  12
ATOM     12  C   UNL     1      20.200  -7.192  18.787  1.00  0.00     0.029 A 
ATOM     13  C   UNL     1      19.649  -7.916  17.717  1.00  0.00     0.062 A 
ATOM     14  C   UNL     1      20.078  -9.221  17.447  1.00  0.00     0.162 A 
ATOM     15  C   UNL     1      21.210  -7.781  19.560  1.00  0.00     0.062 A 
ATOM     16  C   UNL     1      21.072  -9.818  18.237  1.00  0.00     0.200 A 
ATOM     17  C   UNL     1      21.647  -9.086  19.303  1.00  0.00     0.162 A 
BRANCH  14  18
ATOM     18  O   UNL     1      19.522  -9.936  16.387  1.00  0.00    -0.504 OA
ATOM     19  H   UNL     1      20.101 -10.365  15.674  1.00  0.00     0.293 HD
ENDBRANCH  14  18
BRANCH  16  20
ATOM     20  O   UNL     1      21.458 -11.125  17.929  1.00  0.00    -0.502 OA
ATOM     21  H   UNL     1      22.406 -11.399  17.714  1.00  0.00     0.293 HD
ENDBRANCH  16  20
BRANCH  17  22
ATOM     22  O   UNL     1      22.649  -9.610  20.123  1.00  0.00    -0.504 OA
ATOM     23  H   UNL     1      22.512  -9.865  21.091  1.00  0.00     0.293 HD
ENDBRANCH  17  22
ENDBRANCH   1  12
BRANCH   2  24
ATOM     24  O   UNL     1      17.532  -6.502  19.682  1.00  0.00    -0.502 OA
ATOM     25  H   UNL     1      16.839  -6.751  18.985  1.00  0.00     0.293 HD
ENDBRANCH   2  24
BRANCH   6  26
ATOM     26  O   UNL     1      17.600  -1.181  19.911  1.00  0.00    -0.507 OA
ATOM     27  H   UNL     1      17.419  -0.199  20.054  1.00  0.00     0.293 HD
ENDBRANCH   6  26
BRANCH   8  28
ATOM     28  O   UNL     1      22.256  -0.345  19.189  1.00  0.00    -0.508 OA
ATOM     29  H   UNL     1      23.181  -0.545  19.552  1.00  0.00     0.293 HD
ENDBRANCH   8  28
TORSDOF 7
ENDMDL
