MODEL 1
REMARK VINA RESULT:    19.157      0.000      0.000
REMARK INTER + INTRA:          24.154
REMARK INTER:                  24.197
REMARK INTRA:                  -0.042
REMARK UNBOUND:                -0.042
REMARK SMILES O=C(C=Cc1ccc(O)cc1)c1ccc(O)cc1O
REMARK SMILES IDX 4 1 3 2 5 3 6 4 7 5 8 6 11 7 10 8 9 9 2 11 1 12 12 13 18 14
REMARK SMILES IDX 13 15 17 16 14 17 15 18 19 19 16 21
REMARK H PARENT 9 10 19 20 16 22
REMARK Flexibility Score: inf
ROOT
ATOM      1  C   UNL     1      -3.018  -1.022   2.147  1.00  0.00     0.012 C 
ATOM      2  C   UNL     1      -3.197  -0.097   3.101  1.00  0.00     0.053 C 
ENDROOT
BRANCH   1   3
ATOM      3  C   UNL     1      -4.120  -1.582   1.326  1.00  0.00    -0.025 A 
ATOM      4  C   UNL     1      -4.254  -1.151  -0.005  1.00  0.00     0.012 A 
ATOM      5  C   UNL     1      -5.272  -1.657  -0.818  1.00  0.00     0.047 A 
ATOM      6  C   UNL     1      -6.164  -2.612  -0.316  1.00  0.00     0.115 A 
ATOM      7  C   UNL     1      -5.015  -2.555   1.818  1.00  0.00     0.012 A 
ATOM      8  C   UNL     1      -6.030  -3.060   1.001  1.00  0.00     0.047 A 
BRANCH   6   9
ATOM      9  O   UNL     1      -7.182  -3.125  -1.117  1.00  0.00    -0.508 OA
ATOM     10  H   UNL     1      -8.158  -2.965  -0.900  1.00  0.00     0.293 HD
ENDBRANCH   6   9
ENDBRANCH   1   3
BRANCH   2  11
ATOM     11  C   UNL     1      -2.072   0.449   3.891  1.00  0.00     0.189 C 
ATOM     12  O   UNL     1      -2.291   1.264   4.827  1.00  0.00    -0.289 OA
BRANCH  11  13
ATOM     13  C   UNL     1      -0.679   0.066   3.569  1.00  0.00     0.064 A 
ATOM     14  C   UNL     1      -0.102   0.335   2.303  1.00  0.00     0.130 A 
ATOM     15  C   UNL     1       0.081  -0.620   4.534  1.00  0.00     0.020 A 
ATOM     16  C   UNL     1       1.194  -0.113   2.022  1.00  0.00     0.093 A 
ATOM     17  C   UNL     1       1.378  -1.048   4.244  1.00  0.00     0.047 A 
ATOM     18  C   UNL     1       1.937  -0.800   2.985  1.00  0.00     0.119 A 
BRANCH  14  19
ATOM     19  O   UNL     1      -0.772   1.064   1.318  1.00  0.00    -0.507 OA
ATOM     20  H   UNL     1      -1.770   1.225   1.329  1.00  0.00     0.293 HD
ENDBRANCH  14  19
BRANCH  18  21
ATOM     21  O   UNL     1       3.227  -1.229   2.683  1.00  0.00    -0.508 OA
ATOM     22  H   UNL     1       4.043  -0.711   2.988  1.00  0.00     0.293 HD
ENDBRANCH  18  21
ENDBRANCH  11  13
ENDBRANCH   2  11
TORSDOF 6
ENDMDL
MODEL 2
REMARK VINA RESULT:    20.224      1.567      6.977
REMARK INTER + INTRA:          25.503
REMARK INTER:                  26.039
REMARK INTRA:                  -0.537
REMARK UNBOUND:                -0.042
REMARK SMILES O=C(C=Cc1ccc(O)cc1)c1ccc(O)cc1O
REMARK SMILES IDX 4 1 3 2 5 3 6 4 7 5 8 6 11 7 10 8 9 9 2 11 1 12 12 13 18 14
REMARK SMILES IDX 13 15 17 16 14 17 15 18 19 19 16 21
REMARK H PARENT 9 10 19 20 16 22
REMARK Flexibility Score: inf
ROOT
ATOM      1  C   UNL     1      -1.728  -0.049   2.784  1.00  0.00     0.012 C 
ATOM      2  C   UNL     1      -2.675  -0.523   3.606  1.00  0.00     0.053 C 
ENDROOT
BRANCH   1   3
ATOM      3  C   UNL     1      -0.273  -0.204   3.028  1.00  0.00    -0.025 A 
ATOM      4  C   UNL     1       0.603  -0.161   1.930  1.00  0.00     0.012 A 
ATOM      5  C   UNL     1       1.982  -0.294   2.112  1.00  0.00     0.047 A 
ATOM      6  C   UNL     1       2.508  -0.460   3.399  1.00  0.00     0.115 A 
ATOM      7  C   UNL     1       0.268  -0.357   4.322  1.00  0.00     0.012 A 
ATOM      8  C   UNL     1       1.648  -0.488   4.500  1.00  0.00     0.047 A 
BRANCH   6   9
ATOM      9  O   UNL     1       3.881  -0.593   3.594  1.00  0.00    -0.508 OA
ATOM     10  H   UNL     1       4.490   0.216   3.643  1.00  0.00     0.293 HD
ENDBRANCH   6   9
ENDBRANCH   1   3
BRANCH   2  11
ATOM     11  C   UNL     1      -4.118  -0.361   3.323  1.00  0.00     0.189 C 
ATOM     12  O   UNL     1      -4.829   0.376   4.058  1.00  0.00    -0.289 OA
BRANCH  11  13
ATOM     13  C   UNL     1      -4.743  -1.086   2.195  1.00  0.00     0.064 A 
ATOM     14  C   UNL     1      -5.177  -2.430   2.316  1.00  0.00     0.130 A 
ATOM     15  C   UNL     1      -4.875  -0.436   0.954  1.00  0.00     0.020 A 
ATOM     16  C   UNL     1      -5.694  -3.095   1.198  1.00  0.00     0.093 A 
ATOM     17  C   UNL     1      -5.407  -1.108  -0.148  1.00  0.00     0.047 A 
ATOM     18  C   UNL     1      -5.813  -2.442  -0.030  1.00  0.00     0.119 A 
BRANCH  14  19
ATOM     19  O   UNL     1      -5.135  -3.120   3.530  1.00  0.00    -0.507 OA
ATOM     20  H   UNL     1      -5.901  -3.130   4.189  1.00  0.00     0.293 HD
ENDBRANCH  14  19
BRANCH  18  21
ATOM     21  O   UNL     1      -6.338  -3.125  -1.125  1.00  0.00    -0.508 OA
ATOM     22  H   UNL     1      -7.183  -3.680  -1.047  1.00  0.00     0.293 HD
ENDBRANCH  18  21
ENDBRANCH  11  13
ENDBRANCH   2  11
TORSDOF 6
ENDMDL
MODEL 3
REMARK VINA RESULT:    21.834      1.446      6.746
REMARK INTER + INTRA:          27.535
REMARK INTER:                  28.135
REMARK INTRA:                  -0.600
REMARK UNBOUND:                -0.042
REMARK SMILES O=C(C=Cc1ccc(O)cc1)c1ccc(O)cc1O
REMARK SMILES IDX 4 1 3 2 5 3 6 4 7 5 8 6 11 7 10 8 9 9 2 11 1 12 12 13 18 14
REMARK SMILES IDX 13 15 17 16 14 17 15 18 19 19 16 21
REMARK H PARENT 9 10 19 20 16 22
REMARK Flexibility Score: inf
ROOT
ATOM      1  C   UNL     1      -1.764  -0.452   2.757  1.00  0.00     0.012 C 
ATOM      2  C   UNL     1      -2.703  -0.184   3.677  1.00  0.00     0.053 C 
ENDROOT
BRANCH   1   3
ATOM      3  C   UNL     1      -0.307  -0.397   3.028  1.00  0.00    -0.025 A 
ATOM      4  C   UNL     1       0.562  -0.067   1.974  1.00  0.00     0.012 A 
ATOM      5  C   UNL     1       1.942   0.005   2.184  1.00  0.00     0.047 A 
ATOM      6  C   UNL     1       2.473  -0.239   3.456  1.00  0.00     0.115 A 
ATOM      7  C   UNL     1       0.236  -0.627   4.309  1.00  0.00     0.012 A 
ATOM      8  C   UNL     1       1.617  -0.552   4.515  1.00  0.00     0.047 A 
BRANCH   6   9
ATOM      9  O   UNL     1       3.847  -0.169   3.679  1.00  0.00    -0.508 OA
ATOM     10  H   UNL     1       4.369  -0.967   4.022  1.00  0.00     0.293 HD
ENDBRANCH   6   9
ENDBRANCH   1   3
BRANCH   2  11
ATOM     11  C   UNL     1      -4.148  -0.262   3.373  1.00  0.00     0.189 C 
ATOM     12  O   UNL     1      -4.988   0.271   4.149  1.00  0.00    -0.289 OA
BRANCH  11  13
ATOM     13  C   UNL     1      -4.622  -0.992   2.176  1.00  0.00     0.064 A 
ATOM     14  C   UNL     1      -4.907  -0.326   0.958  1.00  0.00     0.130 A 
ATOM     15  C   UNL     1      -4.835  -2.380   2.262  1.00  0.00     0.020 A 
ATOM     16  C   UNL     1      -5.424  -1.050  -0.123  1.00  0.00     0.093 A 
ATOM     17  C   UNL     1      -5.337  -3.091   1.170  1.00  0.00     0.047 A 
ATOM     18  C   UNL     1      -5.637  -2.427  -0.024  1.00  0.00     0.119 A 
BRANCH  14  19
ATOM     19  O   UNL     1      -4.664   1.037   0.778  1.00  0.00    -0.507 OA
ATOM     20  H   UNL     1      -5.384   1.700   0.523  1.00  0.00     0.293 HD
ENDBRANCH  14  19
BRANCH  18  21
ATOM     21  O   UNL     1      -6.146  -3.125  -1.117  1.00  0.00    -0.508 OA
ATOM     22  H   UNL     1      -5.551  -3.406  -1.889  1.00  0.00     0.293 HD
ENDBRANCH  18  21
ENDBRANCH  11  13
ENDBRANCH   2  11
TORSDOF 6
ENDMDL
