MODEL 1
REMARK VINA RESULT:    -4.345      0.000      0.000
REMARK INTER + INTRA:          -4.753
REMARK INTER:                  -4.726
REMARK INTRA:                  -0.027
REMARK UNBOUND:                -0.027
REMARK SMILES O=C([O-])c1ccc(O)cc1
REMARK SMILES IDX 4 1 5 2 10 3 6 4 9 5 7 6 2 7 1 8 3 9 8 10
REMARK H PARENT 8 11
REMARK Flexibility Score: inf
ROOT
ATOM      1  C   UNL     1     147.201 159.475 161.248  1.00  0.00    -0.003 A 
ATOM      2  C   UNL     1     146.727 160.784 161.452  1.00  0.00     0.014 A 
ATOM      3  C   UNL     1     148.502 159.293 160.743  1.00  0.00     0.014 A 
ATOM      4  C   UNL     1     147.536 161.885 161.156  1.00  0.00     0.047 A 
ATOM      5  C   UNL     1     149.308 160.396 160.449  1.00  0.00     0.047 A 
ATOM      6  C   UNL     1     148.830 161.693 160.654  1.00  0.00     0.115 A 
ENDROOT
BRANCH   1   7
ATOM      7  C   UNL     1     146.349 158.305 161.558  1.00  0.00     0.071 C 
ATOM      8  O   UNL     1     145.621 157.790 160.669  1.00  0.00    -0.545 OA
ATOM      9  O   UNL     1     146.341 157.760 162.836  1.00  0.00    -0.545 OA
ENDBRANCH   1   7
BRANCH   6  10
ATOM     10  O   UNL     1     149.645 162.783 160.357  1.00  0.00    -0.508 OA
ATOM     11  H   UNL     1     150.530 162.667 159.878  1.00  0.00     0.293 HD
ENDBRANCH   6  10
TORSDOF 2
ENDMDL
MODEL 2
REMARK VINA RESULT:    -4.159     20.392     21.423
REMARK INTER + INTRA:          -4.550
REMARK INTER:                  -4.523
REMARK INTRA:                  -0.028
REMARK UNBOUND:                -0.027
REMARK SMILES O=C([O-])c1ccc(O)cc1
REMARK SMILES IDX 4 1 5 2 10 3 6 4 9 5 7 6 2 7 1 8 3 9 8 10
REMARK H PARENT 8 11
REMARK Flexibility Score: inf
ROOT
ATOM      1  C   UNL     1     159.353 145.599 170.507  1.00  0.00    -0.003 A 
ATOM      2  C   UNL     1     159.900 146.877 170.731  1.00  0.00     0.014 A 
ATOM      3  C   UNL     1     159.734 144.538 171.348  1.00  0.00     0.014 A 
ATOM      4  C   UNL     1     160.808 147.086 171.773  1.00  0.00     0.047 A 
ATOM      5  C   UNL     1     160.643 144.751 172.389  1.00  0.00     0.047 A 
ATOM      6  C   UNL     1     161.182 146.022 172.605  1.00  0.00     0.115 A 
ENDROOT
BRANCH   1   7
ATOM      7  C   UNL     1     158.391 145.371 169.406  1.00  0.00     0.071 C 
ATOM      8  O   UNL     1     157.185 145.108 169.653  1.00  0.00    -0.545 OA
ATOM      9  O   UNL     1     158.807 145.445 168.082  1.00  0.00    -0.545 OA
ENDBRANCH   1   7
BRANCH   6  10
ATOM     10  O   UNL     1     162.085 146.219 173.647  1.00  0.00    -0.508 OA
ATOM     11  H   UNL     1     162.239 145.512 174.355  1.00  0.00     0.293 HD
ENDBRANCH   6  10
TORSDOF 2
ENDMDL
MODEL 3
REMARK VINA RESULT:    -3.848      1.135      4.234
REMARK INTER + INTRA:          -4.212
REMARK INTER:                  -4.180
REMARK INTRA:                  -0.032
REMARK UNBOUND:                -0.027
REMARK SMILES O=C([O-])c1ccc(O)cc1
REMARK SMILES IDX 4 1 5 2 10 3 6 4 9 5 7 6 2 7 1 8 3 9 8 10
REMARK H PARENT 8 11
REMARK Flexibility Score: inf
ROOT
ATOM      1  C   UNL     1     147.588 161.218 160.919  1.00  0.00    -0.003 A 
ATOM      2  C   UNL     1     146.385 161.122 161.644  1.00  0.00     0.014 A 
ATOM      3  C   UNL     1     148.230 160.037 160.506  1.00  0.00     0.014 A 
ATOM      4  C   UNL     1     145.839 159.872 161.949  1.00  0.00     0.047 A 
ATOM      5  C   UNL     1     147.681 158.788 160.813  1.00  0.00     0.047 A 
ATOM      6  C   UNL     1     146.487 158.701 161.534  1.00  0.00     0.115 A 
ENDROOT
BRANCH   1   7
ATOM      7  C   UNL     1     148.171 162.539 160.594  1.00  0.00     0.071 C 
ATOM      8  O   UNL     1     149.419 162.707 160.602  1.00  0.00    -0.545 OA
ATOM      9  O   UNL     1     147.348 163.612 160.275  1.00  0.00    -0.545 OA
ENDBRANCH   1   7
BRANCH   6  10
ATOM     10  O   UNL     1     145.952 157.450 161.831  1.00  0.00    -0.508 OA
ATOM     11  H   UNL     1     146.491 156.601 161.711  1.00  0.00     0.293 HD
ENDBRANCH   6  10
TORSDOF 2
ENDMDL
MODEL 4
REMARK VINA RESULT:    -3.281     19.447     20.629
REMARK INTER + INTRA:          -3.596
REMARK INTER:                  -3.569
REMARK INTRA:                  -0.027
REMARK UNBOUND:                -0.027
REMARK SMILES O=C([O-])c1ccc(O)cc1
REMARK SMILES IDX 4 1 5 2 10 3 6 4 9 5 7 6 2 7 1 8 3 9 8 10
REMARK H PARENT 8 11
REMARK Flexibility Score: inf
ROOT
ATOM      1  C   UNL     1     159.511 147.808 170.993  1.00  0.00    -0.003 A 
ATOM      2  C   UNL     1     160.657 147.487 171.743  1.00  0.00     0.014 A 
ATOM      3  C   UNL     1     158.875 146.795 170.252  1.00  0.00     0.014 A 
ATOM      4  C   UNL     1     161.156 146.182 171.750  1.00  0.00     0.047 A 
ATOM      5  C   UNL     1     159.378 145.490 170.262  1.00  0.00     0.047 A 
ATOM      6  C   UNL     1     160.517 145.179 171.009  1.00  0.00     0.115 A 
ENDROOT
BRANCH   1   7
ATOM      7  C   UNL     1     158.977 149.189 170.980  1.00  0.00     0.071 C 
ATOM      8  O   UNL     1     158.041 149.520 171.754  1.00  0.00    -0.545 OA
ATOM      9  O   UNL     1     159.503 150.138 170.113  1.00  0.00    -0.545 OA
ENDBRANCH   1   7
BRANCH   6  10
ATOM     10  O   UNL     1     161.005 143.875 171.010  1.00  0.00    -0.508 OA
ATOM     11  H   UNL     1     161.690 143.566 171.690  1.00  0.00     0.293 HD
ENDBRANCH   6  10
TORSDOF 2
ENDMDL
MODEL 5
REMARK VINA RESULT:    -3.246     21.640     22.716
REMARK INTER + INTRA:          -3.558
REMARK INTER:                  -3.523
REMARK INTRA:                  -0.035
REMARK UNBOUND:                -0.027
REMARK SMILES O=C([O-])c1ccc(O)cc1
REMARK SMILES IDX 4 1 5 2 10 3 6 4 9 5 7 6 2 7 1 8 3 9 8 10
REMARK H PARENT 8 11
REMARK Flexibility Score: inf
ROOT
ATOM      1  C   UNL     1     160.796 145.410 172.997  1.00  0.00    -0.003 A 
ATOM      2  C   UNL     1     161.323 146.414 172.163  1.00  0.00     0.014 A 
ATOM      3  C   UNL     1     159.855 144.508 172.466  1.00  0.00     0.014 A 
ATOM      4  C   UNL     1     160.917 146.512 170.830  1.00  0.00     0.047 A 
ATOM      5  C   UNL     1     159.452 144.610 171.132  1.00  0.00     0.047 A 
ATOM      6  C   UNL     1     159.979 145.610 170.310  1.00  0.00     0.115 A 
ENDROOT
BRANCH   1   7
ATOM      7  C   UNL     1     161.221 145.300 174.410  1.00  0.00     0.071 C 
ATOM      8  O   UNL     1     162.315 145.796 174.790  1.00  0.00    -0.545 OA
ATOM      9  O   UNL     1     160.419 144.648 175.338  1.00  0.00    -0.545 OA
ENDBRANCH   1   7
BRANCH   6  10
ATOM     10  O   UNL     1     159.568 145.698 168.983  1.00  0.00    -0.508 OA
ATOM     11  H   UNL     1     160.003 146.346 168.336  1.00  0.00     0.293 HD
ENDBRANCH   6  10
TORSDOF 2
ENDMDL
MODEL 6
REMARK VINA RESULT:    -3.179     14.034     14.997
REMARK INTER + INTRA:          -3.485
REMARK INTER:                  -3.458
REMARK INTRA:                  -0.027
REMARK UNBOUND:                -0.027
REMARK SMILES O=C([O-])c1ccc(O)cc1
REMARK SMILES IDX 4 1 5 2 10 3 6 4 9 5 7 6 2 7 1 8 3 9 8 10
REMARK H PARENT 8 11
REMARK Flexibility Score: inf
ROOT
ATOM      1  C   UNL     1     161.414 163.003 164.523  1.00  0.00    -0.003 A 
ATOM      2  C   UNL     1     160.667 161.854 164.839  1.00  0.00     0.014 A 
ATOM      3  C   UNL     1     161.759 163.897 165.553  1.00  0.00     0.014 A 
ATOM      4  C   UNL     1     160.274 161.605 166.157  1.00  0.00     0.047 A 
ATOM      5  C   UNL     1     161.363 163.645 166.870  1.00  0.00     0.047 A 
ATOM      6  C   UNL     1     160.622 162.501 167.177  1.00  0.00     0.115 A 
ENDROOT
BRANCH   1   7
ATOM      7  C   UNL     1     161.833 163.273 163.129  1.00  0.00     0.071 C 
ATOM      8  O   UNL     1     161.223 164.125 162.430  1.00  0.00    -0.545 OA
ATOM      9  O   UNL     1     162.906 162.589 162.572  1.00  0.00    -0.545 OA
ENDBRANCH   1   7
BRANCH   6  10
ATOM     10  O   UNL     1     160.236 162.263 168.494  1.00  0.00    -0.508 OA
ATOM     11  H   UNL     1     160.914 162.228 169.246  1.00  0.00     0.293 HD
ENDBRANCH   6  10
TORSDOF 2
ENDMDL
MODEL 7
REMARK VINA RESULT:    -3.174     14.024     14.973
REMARK INTER + INTRA:          -3.480
REMARK INTER:                  -3.452
REMARK INTRA:                  -0.027
REMARK UNBOUND:                -0.027
REMARK SMILES O=C([O-])c1ccc(O)cc1
REMARK SMILES IDX 4 1 5 2 10 3 6 4 9 5 7 6 2 7 1 8 3 9 8 10
REMARK H PARENT 8 11
REMARK Flexibility Score: inf
ROOT
ATOM      1  C   UNL     1     161.412 163.017 164.525  1.00  0.00    -0.003 A 
ATOM      2  C   UNL     1     161.769 163.905 165.558  1.00  0.00     0.014 A 
ATOM      3  C   UNL     1     160.654 161.875 164.841  1.00  0.00     0.014 A 
ATOM      4  C   UNL     1     161.376 163.654 166.875  1.00  0.00     0.047 A 
ATOM      5  C   UNL     1     160.263 161.627 166.160  1.00  0.00     0.047 A 
ATOM      6  C   UNL     1     160.621 162.513 167.180  1.00  0.00     0.115 A 
ENDROOT
BRANCH   1   7
ATOM      7  C   UNL     1     161.826 163.277 163.129  1.00  0.00     0.071 C 
ATOM      8  O   UNL     1     161.213 164.124 162.426  1.00  0.00    -0.545 OA
ATOM      9  O   UNL     1     162.897 162.589 162.572  1.00  0.00    -0.545 OA
ENDBRANCH   1   7
BRANCH   6  10
ATOM     10  O   UNL     1     160.223 162.254 168.489  1.00  0.00    -0.508 OA
ATOM     11  H   UNL     1     159.626 161.467 168.715  1.00  0.00     0.293 HD
ENDBRANCH   6  10
TORSDOF 2
ENDMDL
MODEL 8
REMARK VINA RESULT:    -3.093     14.115     15.055
REMARK INTER + INTRA:          -3.391
REMARK INTER:                  -3.356
REMARK INTRA:                  -0.035
REMARK UNBOUND:                -0.027
REMARK SMILES O=C([O-])c1ccc(O)cc1
REMARK SMILES IDX 4 1 5 2 10 3 6 4 9 5 7 6 2 7 1 8 3 9 8 10
REMARK H PARENT 8 11
REMARK Flexibility Score: inf
ROOT
ATOM      1  C   UNL     1     147.617 145.512 161.203  1.00  0.00    -0.003 A 
ATOM      2  C   UNL     1     147.136 145.744 159.900  1.00  0.00     0.014 A 
ATOM      3  C   UNL     1     148.788 144.752 161.372  1.00  0.00     0.014 A 
ATOM      4  C   UNL     1     147.814 145.227 158.793  1.00  0.00     0.047 A 
ATOM      5  C   UNL     1     149.464 144.236 160.261  1.00  0.00     0.047 A 
ATOM      6  C   UNL     1     148.981 144.471 158.971  1.00  0.00     0.115 A 
ENDROOT
BRANCH   1   7
ATOM      7  C   UNL     1     146.903 146.056 162.379  1.00  0.00     0.071 C 
ATOM      8  O   UNL     1     147.475 146.125 163.500  1.00  0.00    -0.545 OA
ATOM      9  O   UNL     1     145.591 146.500 162.264  1.00  0.00    -0.545 OA
ENDBRANCH   1   7
BRANCH   6  10
ATOM     10  O   UNL     1     149.665 143.952 157.875  1.00  0.00    -0.508 OA
ATOM     11  H   UNL     1     149.979 142.989 157.854  1.00  0.00     0.293 HD
ENDBRANCH   6  10
TORSDOF 2
ENDMDL
MODEL 9
REMARK VINA RESULT:    -2.881     21.024     21.756
REMARK INTER + INTRA:          -3.160
REMARK INTER:                  -3.133
REMARK INTRA:                  -0.027
REMARK UNBOUND:                -0.027
REMARK SMILES O=C([O-])c1ccc(O)cc1
REMARK SMILES IDX 4 1 5 2 10 3 6 4 9 5 7 6 2 7 1 8 3 9 8 10
REMARK H PARENT 8 11
REMARK Flexibility Score: inf
ROOT
ATOM      1  C   UNL     1     148.939 145.610 177.254  1.00  0.00    -0.003 A 
ATOM      2  C   UNL     1     148.305 146.608 178.018  1.00  0.00     0.014 A 
ATOM      3  C   UNL     1     148.192 144.920 176.281  1.00  0.00     0.014 A 
ATOM      4  C   UNL     1     146.956 146.907 177.813  1.00  0.00     0.047 A 
ATOM      5  C   UNL     1     146.842 145.222 176.080  1.00  0.00     0.047 A 
ATOM      6  C   UNL     1     146.220 146.215 176.842  1.00  0.00     0.115 A 
ENDROOT
BRANCH   1   7
ATOM      7  C   UNL     1     150.367 145.288 177.466  1.00  0.00     0.071 C 
ATOM      8  O   UNL     1     150.703 144.254 178.103  1.00  0.00    -0.545 OA
ATOM      9  O   UNL     1     151.359 146.122 176.966  1.00  0.00    -0.545 OA
ENDBRANCH   1   7
BRANCH   6  10
ATOM     10  O   UNL     1     144.875 146.505 176.629  1.00  0.00    -0.508 OA
ATOM     11  H   UNL     1     144.319 146.984 177.328  1.00  0.00     0.293 HD
ENDBRANCH   6  10
TORSDOF 2
ENDMDL
