MODEL 1
REMARK VINA RESULT:    -2.963      0.000      0.000
REMARK INTER + INTRA:          -3.778
REMARK INTER:                  -4.176
REMARK INTRA:                   0.398
REMARK UNBOUND:                 0.398
REMARK SMILES CC1=CCC(=C(C)C)C(=O)CC(C)=CCC1
REMARK SMILES IDX 12 1 14 2 13 3 15 4 16 5 2 6 1 7 3 8 11 10 9 11 10 12 5 13
REMARK SMILES IDX 6 14 7 15 8 16 4 17
REMARK H PARENT
REMARK Flexibility Score: 60.00
ROOT
ATOM      1  C   UNL     1      17.466  39.347  94.211  1.00  0.00    -0.070 C 
ATOM      2  C   UNL     1      18.104  40.313  94.914  1.00  0.00    -0.027 C 
ATOM      3  C   UNL     1      15.968  39.244  94.372  1.00  0.00     0.039 C 
ENDROOT
BRANCH   2   4
ATOM      4  C   UNL     1      19.570  40.661  94.826  1.00  0.00     0.032 C 
BRANCH   4   5
ATOM      5  C   UNL     1      19.863  41.719  93.746  1.00  0.00     0.034 C 
BRANCH   5   6
ATOM      6  C   UNL     1      20.989  41.296  92.822  1.00  0.00    -0.077 C 
ATOM      7  C   UNL     1      22.408  41.428  93.315  1.00  0.00     0.039 C 
ATOM      8  C   UNL     1      20.795  40.829  91.568  1.00  0.00    -0.023 CG0
ATOM      9  G   UNL     1      19.457  40.659  90.886  1.00  0.00     0.000 G0
ENDBRANCH   5   6
ENDBRANCH   4   5
ENDBRANCH   2   4
BRANCH   1  10
ATOM     10  C   UNL     1      18.160  38.418  93.229  1.00  0.00     0.111 C 
BRANCH  10  11
ATOM     11  C   UNL     1      17.904  38.829  91.800  1.00  0.00     0.163 C 
ATOM     12  O   UNL     1      16.716  38.805  91.380  1.00  0.00    -0.294 OA
BRANCH  11  13
ATOM     13  C   UNL     1      19.018  39.205  90.873  1.00  0.00    -0.002 C 
ATOM     14  C   UNL     1      19.582  38.296  90.022  1.00  0.00    -0.069 C 
ATOM     15  C   UNL     1      20.733  38.675  89.114  1.00  0.00     0.039 C 
ATOM     16  C   UNL     1      19.062  36.880  89.917  1.00  0.00     0.039 C 
BRANCH  13  17
ATOM     17  C   UNL     1      19.446  40.661  90.864  1.00  0.00     0.066 CG0
ATOM     18  G   UNL     1      20.772  40.809  91.573  1.00  0.00     0.000 G0
ENDBRANCH  13  17
ENDBRANCH  11  13
ENDBRANCH  10  11
ENDBRANCH   1  10
TORSDOF 0
ENDMDL
MODEL 2
REMARK VINA RESULT:    -2.917      1.721      3.558
REMARK INTER + INTRA:          -3.713
REMARK INTER:                  -4.051
REMARK INTRA:                   0.338
REMARK UNBOUND:                 0.398
REMARK SMILES CC1=CCC(=C(C)C)C(=O)CC(C)=CCC1
REMARK SMILES IDX 12 1 14 2 13 3 15 4 16 5 2 6 1 7 3 8 11 10 9 11 10 12 5 13
REMARK SMILES IDX 6 14 7 15 8 16 4 17
REMARK H PARENT
REMARK Flexibility Score: 60.00
ROOT
ATOM      1  C   UNL     1      20.934  42.154  93.426  1.00  0.00    -0.070 C 
ATOM      2  C   UNL     1      20.131  41.995  94.505  1.00  0.00    -0.027 C 
ATOM      3  C   UNL     1      21.505  43.530  93.181  1.00  0.00     0.039 C 
ENDROOT
BRANCH   2   4
ATOM      4  C   UNL     1      19.541  40.695  94.996  1.00  0.00     0.032 C 
BRANCH   4   5
ATOM      5  C   UNL     1      18.250  40.312  94.250  1.00  0.00     0.034 C 
BRANCH   5   6
ATOM      6  C   UNL     1      18.338  38.932  93.625  1.00  0.00    -0.077 C 
ATOM      7  C   UNL     1      18.378  37.734  94.539  1.00  0.00     0.039 C 
ATOM      8  C   UNL     1      18.409  38.716  92.293  1.00  0.00    -0.023 CG0
ATOM      9  G   UNL     1      18.419  39.783  91.224  1.00  0.00     0.000 G0
ENDBRANCH   5   6
ENDBRANCH   4   5
ENDBRANCH   2   4
BRANCH   1  10
ATOM     10  C   UNL     1      21.340  41.019  92.499  1.00  0.00     0.111 C 
BRANCH  10  11
ATOM     11  C   UNL     1      20.611  41.093  91.180  1.00  0.00     0.163 C 
ATOM     12  O   UNL     1      20.646  42.181  90.544  1.00  0.00    -0.294 OA
BRANCH  11  13
ATOM     13  C   UNL     1      19.819  39.940  90.647  1.00  0.00    -0.002 C 
ATOM     14  C   UNL     1      20.355  39.051  89.758  1.00  0.00    -0.069 C 
ATOM     15  C   UNL     1      19.535  37.910  89.194  1.00  0.00     0.039 C 
ATOM     16  C   UNL     1      21.800  39.140  89.320  1.00  0.00     0.039 C 
BRANCH  13  17
ATOM     17  C   UNL     1      18.415  39.756  91.194  1.00  0.00     0.066 CG0
ATOM     18  G   UNL     1      18.421  38.704  92.277  1.00  0.00     0.000 G0
ENDBRANCH  13  17
ENDBRANCH  11  13
ENDBRANCH  10  11
ENDBRANCH   1  10
TORSDOF 0
ENDMDL
MODEL 3
REMARK VINA RESULT:    -2.847      1.993      4.578
REMARK INTER + INTRA:          -3.615
REMARK INTER:                  -4.008
REMARK INTRA:                   0.393
REMARK UNBOUND:                 0.398
REMARK SMILES CC1=CCC(=C(C)C)C(=O)CC(C)=CCC1
REMARK SMILES IDX 12 1 14 2 13 3 15 4 16 5 2 6 1 7 3 8 11 10 9 11 10 12 5 13
REMARK SMILES IDX 6 14 7 15 8 16 4 17
REMARK H PARENT
REMARK Flexibility Score: 60.00
ROOT
ATOM      1  C   UNL     1      16.663  36.344  89.687  1.00  0.00    -0.070 C 
ATOM      2  C   UNL     1      17.819  36.190  88.998  1.00  0.00    -0.027 C 
ATOM      3  C   UNL     1      15.372  36.219  88.914  1.00  0.00     0.039 C 
ENDROOT
BRANCH   2   4
ATOM      4  C   UNL     1      19.211  36.169  89.583  1.00  0.00     0.032 C 
BRANCH   4   5
ATOM      5  C   UNL     1      19.799  37.582  89.761  1.00  0.00     0.034 C 
BRANCH   5   6
ATOM      6  C   UNL     1      20.189  37.861  91.200  1.00  0.00    -0.077 C 
ATOM      7  C   UNL     1      21.385  37.140  91.770  1.00  0.00     0.039 C 
ATOM      8  C   UNL     1      19.511  38.703  92.011  1.00  0.00    -0.023 CG0
ATOM      9  G   UNL     1      18.274  39.486  91.637  1.00  0.00     0.000 G0
ENDBRANCH   5   6
ENDBRANCH   4   5
ENDBRANCH   2   4
BRANCH   1  10
ATOM     10  C   UNL     1      16.596  36.567  91.189  1.00  0.00     0.111 C 
BRANCH  10  11
ATOM     11  C   UNL     1      16.186  37.980  91.522  1.00  0.00     0.163 C 
ATOM     12  O   UNL     1      15.101  38.410  91.046  1.00  0.00    -0.294 OA
BRANCH  11  13
ATOM     13  C   UNL     1      17.050  38.882  92.348  1.00  0.00    -0.002 C 
ATOM     14  C   UNL     1      16.798  39.101  93.674  1.00  0.00    -0.069 C 
ATOM     15  C   UNL     1      17.654  40.044  94.493  1.00  0.00     0.039 C 
ATOM     16  C   UNL     1      15.678  38.388  94.397  1.00  0.00     0.039 C 
BRANCH  13  17
ATOM     17  C   UNL     1      18.265  39.486  91.668  1.00  0.00     0.066 CG0
ATOM     18  G   UNL     1      19.500  38.693  92.026  1.00  0.00     0.000 G0
ENDBRANCH  13  17
ENDBRANCH  11  13
ENDBRANCH  10  11
ENDBRANCH   1  10
TORSDOF 0
ENDMDL
MODEL 4
REMARK VINA RESULT:    -2.840      2.267      4.009
REMARK INTER + INTRA:          -3.605
REMARK INTER:                  -4.150
REMARK INTRA:                   0.545
REMARK UNBOUND:                 0.398
REMARK SMILES CC1=CCC(=C(C)C)C(=O)CC(C)=CCC1
REMARK SMILES IDX 12 1 14 2 13 3 15 4 16 5 2 6 1 7 3 8 11 10 9 11 10 12 5 13
REMARK SMILES IDX 6 14 7 15 8 16 4 17
REMARK H PARENT
REMARK Flexibility Score: 60.00
ROOT
ATOM      1  C   UNL     1      21.243  43.266  94.072  1.00  0.00    -0.070 C 
ATOM      2  C   UNL     1      22.205  43.968  93.427  1.00  0.00    -0.027 C 
ATOM      3  C   UNL     1      21.341  43.173  95.576  1.00  0.00     0.039 C 
ENDROOT
BRANCH   2   4
ATOM      4  C   UNL     1      22.247  44.277  91.950  1.00  0.00     0.032 C 
BRANCH   4   5
ATOM      5  C   UNL     1      22.801  43.107  91.116  1.00  0.00     0.034 C 
BRANCH   5   6
ATOM      6  C   UNL     1      21.777  42.567  90.137  1.00  0.00    -0.077 C 
ATOM      7  C   UNL     1      21.390  43.425  88.958  1.00  0.00     0.039 C 
ATOM      8  C   UNL     1      21.169  41.367  90.273  1.00  0.00    -0.023 CG0
ATOM      9  G   UNL     1      21.395  40.385  91.398  1.00  0.00     0.000 G0
ENDBRANCH   5   6
ENDBRANCH   4   5
ENDBRANCH   2   4
BRANCH   1  10
ATOM     10  C   UNL     1      20.048  42.634  93.377  1.00  0.00     0.111 C 
BRANCH  10  11
ATOM     11  C   UNL     1      20.084  41.129  93.472  1.00  0.00     0.163 C 
ATOM     12  O   UNL     1      20.112  40.608  94.619  1.00  0.00    -0.294 OA
BRANCH  11  13
ATOM     13  C   UNL     1      20.138  40.260  92.254  1.00  0.00    -0.002 C 
ATOM     14  C   UNL     1      19.088  39.462  91.894  1.00  0.00    -0.069 C 
ATOM     15  C   UNL     1      19.166  38.558  90.682  1.00  0.00     0.039 C 
ATOM     16  C   UNL     1      17.786  39.469  92.663  1.00  0.00     0.039 C 
BRANCH  13  17
ATOM     17  C   UNL     1      21.383  40.357  91.392  1.00  0.00     0.066 CG0
ATOM     18  G   UNL     1      21.166  41.368  90.291  1.00  0.00     0.000 G0
ENDBRANCH  13  17
ENDBRANCH  11  13
ENDBRANCH  10  11
ENDBRANCH   1  10
TORSDOF 0
ENDMDL
MODEL 5
REMARK VINA RESULT:    -2.722      2.324      5.297
REMARK INTER + INTRA:          -3.438
REMARK INTER:                  -3.896
REMARK INTRA:                   0.458
REMARK UNBOUND:                 0.398
REMARK SMILES CC1=CCC(=C(C)C)C(=O)CC(C)=CCC1
REMARK SMILES IDX 12 1 14 2 13 3 15 4 16 5 2 6 1 7 3 8 11 10 9 11 10 12 5 13
REMARK SMILES IDX 6 14 7 15 8 16 4 17
REMARK H PARENT
REMARK Flexibility Score: 60.00
ROOT
ATOM      1  C   UNL     1      20.441  40.427  90.169  1.00  0.00    -0.070 C 
ATOM      2  C   UNL     1      19.586  39.407  90.421  1.00  0.00    -0.027 C 
ATOM      3  C   UNL     1      21.377  40.276  88.994  1.00  0.00     0.039 C 
ENDROOT
BRANCH   2   4
ATOM      4  C   UNL     1      18.501  39.389  91.470  1.00  0.00     0.032 C 
BRANCH   4   5
ATOM      5  C   UNL     1      18.985  38.811  92.813  1.00  0.00     0.034 C 
BRANCH   5   6
ATOM      6  C   UNL     1      18.807  39.791  93.956  1.00  0.00    -0.077 C 
ATOM      7  C   UNL     1      17.426  39.969  94.537  1.00  0.00     0.039 C 
ATOM      8  C   UNL     1      19.811  40.535  94.470  1.00  0.00    -0.023 CG0
ATOM      9  G   UNL     1      21.247  40.524  94.001  1.00  0.00     0.000 G0
ENDBRANCH   5   6
ENDBRANCH   4   5
ENDBRANCH   2   4
BRANCH   1  10
ATOM     10  C   UNL     1      20.461  41.727  90.956  1.00  0.00     0.111 C 
BRANCH  10  11
ATOM     11  C   UNL     1      21.689  41.829  91.828  1.00  0.00     0.163 C 
ATOM     12  O   UNL     1      22.816  41.861  91.264  1.00  0.00    -0.294 OA
BRANCH  11  13
ATOM     13  C   UNL     1      21.600  41.838  93.323  1.00  0.00    -0.002 C 
ATOM     14  C   UNL     1      21.748  42.990  94.044  1.00  0.00    -0.069 C 
ATOM     15  C   UNL     1      21.694  42.985  95.557  1.00  0.00     0.039 C 
ATOM     16  C   UNL     1      21.935  44.330  93.368  1.00  0.00     0.039 C 
BRANCH  13  17
ATOM     17  C   UNL     1      21.264  40.523  94.002  1.00  0.00     0.066 CG0
ATOM     18  G   UNL     1      19.829  40.543  94.476  1.00  0.00     0.000 G0
ENDBRANCH  13  17
ENDBRANCH  11  13
ENDBRANCH  10  11
ENDBRANCH   1  10
TORSDOF 0
ENDMDL
MODEL 6
REMARK VINA RESULT:    -2.646      1.930      2.598
REMARK INTER + INTRA:          -3.332
REMARK INTER:                  -3.688
REMARK INTRA:                   0.356
REMARK UNBOUND:                 0.398
REMARK SMILES CC1=CCC(=C(C)C)C(=O)CC(C)=CCC1
REMARK SMILES IDX 12 1 14 2 13 3 15 4 16 5 2 6 1 7 3 8 11 10 9 11 10 12 5 13
REMARK SMILES IDX 6 14 7 15 8 16 4 17
REMARK H PARENT
REMARK Flexibility Score: 60.00
ROOT
ATOM      1  C   UNL     1      16.377  38.992  94.035  1.00  0.00    -0.070 C 
ATOM      2  C   UNL     1      17.387  39.704  94.590  1.00  0.00    -0.027 C 
ATOM      3  C   UNL     1      15.288  38.497  94.956  1.00  0.00     0.039 C 
ENDROOT
BRANCH   2   4
ATOM      4  C   UNL     1      18.515  40.380  93.850  1.00  0.00     0.032 C 
BRANCH   4   5
ATOM      5  C   UNL     1      19.617  39.393  93.421  1.00  0.00     0.034 C 
BRANCH   5   6
ATOM      6  C   UNL     1      19.887  39.450  91.929  1.00  0.00    -0.077 C 
ATOM      7  C   UNL     1      20.425  40.733  91.348  1.00  0.00     0.039 C 
ATOM      8  C   UNL     1      19.650  38.422  91.085  1.00  0.00    -0.023 CG0
ATOM      9  G   UNL     1      19.082  37.076  91.469  1.00  0.00     0.000 G0
ENDBRANCH   5   6
ENDBRANCH   4   5
ENDBRANCH   2   4
BRANCH   1  10
ATOM     10  C   UNL     1      16.250  38.727  92.544  1.00  0.00     0.111 C 
BRANCH  10  11
ATOM     11  C   UNL     1      16.637  37.310  92.198  1.00  0.00     0.163 C 
ATOM     12  O   UNL     1      16.151  36.376  92.891  1.00  0.00    -0.294 OA
BRANCH  11  13
ATOM     13  C   UNL     1      17.609  37.000  91.103  1.00  0.00    -0.002 C 
ATOM     14  C   UNL     1      17.195  36.743  89.826  1.00  0.00    -0.069 C 
ATOM     15  C   UNL     1      18.181  36.393  88.732  1.00  0.00     0.039 C 
ATOM     16  C   UNL     1      15.737  36.830  89.433  1.00  0.00     0.039 C 
BRANCH  13  17
ATOM     17  C   UNL     1      19.085  37.057  91.453  1.00  0.00     0.066 CG0
ATOM     18  G   UNL     1      19.644  38.414  91.098  1.00  0.00     0.000 G0
ENDBRANCH  13  17
ENDBRANCH  11  13
ENDBRANCH  10  11
ENDBRANCH   1  10
TORSDOF 0
ENDMDL
MODEL 7
REMARK VINA RESULT:    -2.580      2.234      4.120
REMARK INTER + INTRA:          -3.239
REMARK INTER:                  -3.651
REMARK INTRA:                   0.413
REMARK UNBOUND:                 0.398
REMARK SMILES CC1=CCC(=C(C)C)C(=O)CC(C)=CCC1
REMARK SMILES IDX 12 1 14 2 13 3 15 4 16 5 2 6 1 7 3 8 11 10 9 11 10 12 5 13
REMARK SMILES IDX 6 14 7 15 8 16 4 17
REMARK H PARENT
REMARK Flexibility Score: 60.00
ROOT
ATOM      1  C   UNL     1      21.744  42.421  91.148  1.00  0.00    -0.070 C 
ATOM      2  C   UNL     1      21.908  43.364  92.106  1.00  0.00    -0.027 C 
ATOM      3  C   UNL     1      21.695  42.888  89.714  1.00  0.00     0.039 C 
ENDROOT
BRANCH   2   4
ATOM      4  C   UNL     1      22.089  43.115  93.584  1.00  0.00     0.032 C 
BRANCH   4   5
ATOM      5  C   UNL     1      20.753  43.115  94.352  1.00  0.00     0.034 C 
BRANCH   5   6
ATOM      6  C   UNL     1      20.619  41.913  95.267  1.00  0.00    -0.077 C 
ATOM      7  C   UNL     1      21.421  41.892  96.544  1.00  0.00     0.039 C 
ATOM      8  C   UNL     1      19.839  40.844  94.991  1.00  0.00    -0.023 CG0
ATOM      9  G   UNL     1      18.993  40.665  93.753  1.00  0.00     0.000 G0
ENDBRANCH   5   6
ENDBRANCH   4   5
ENDBRANCH   2   4
BRANCH   1  10
ATOM     10  C   UNL     1      21.675  40.930  91.433  1.00  0.00     0.111 C 
BRANCH  10  11
ATOM     11  C   UNL     1      20.248  40.446  91.519  1.00  0.00     0.163 C 
ATOM     12  O   UNL     1      19.488  40.667  90.538  1.00  0.00    -0.294 OA
BRANCH  11  13
ATOM     13  C   UNL     1      19.713  39.770  92.742  1.00  0.00    -0.002 C 
ATOM     14  C   UNL     1      19.927  38.441  92.979  1.00  0.00    -0.069 C 
ATOM     15  C   UNL     1      19.350  37.755  94.200  1.00  0.00     0.039 C 
ATOM     16  C   UNL     1      20.778  37.597  92.057  1.00  0.00     0.039 C 
BRANCH  13  17
ATOM     17  C   UNL     1      18.984  40.640  93.749  1.00  0.00     0.066 CG0
ATOM     18  G   UNL     1      19.842  40.832  94.977  1.00  0.00     0.000 G0
ENDBRANCH  13  17
ENDBRANCH  11  13
ENDBRANCH  10  11
ENDBRANCH   1  10
TORSDOF 0
ENDMDL
MODEL 8
REMARK VINA RESULT:    -2.468      2.377      5.181
REMARK INTER + INTRA:          -3.080
REMARK INTER:                  -3.488
REMARK INTRA:                   0.408
REMARK UNBOUND:                 0.398
REMARK SMILES CC1=CCC(=C(C)C)C(=O)CC(C)=CCC1
REMARK SMILES IDX 12 1 14 2 13 3 15 4 16 5 2 6 1 7 3 8 11 10 9 11 10 12 5 13
REMARK SMILES IDX 6 14 7 15 8 16 4 17
REMARK H PARENT
REMARK Flexibility Score: 60.00
ROOT
ATOM      1  C   UNL     1      21.944  43.069  92.478  1.00  0.00    -0.070 C 
ATOM      2  C   UNL     1      21.659  42.817  91.178  1.00  0.00    -0.027 C 
ATOM      3  C   UNL     1      22.054  44.515  92.898  1.00  0.00     0.039 C 
ENDROOT
BRANCH   2   4
ATOM      4  C   UNL     1      21.402  41.461  90.567  1.00  0.00     0.032 C 
BRANCH   4   5
ATOM      5  C   UNL     1      19.944  40.998  90.745  1.00  0.00     0.034 C 
BRANCH   5   6
ATOM      6  C   UNL     1      19.854  39.606  91.341  1.00  0.00    -0.077 C 
ATOM      7  C   UNL     1      20.218  38.430  90.470  1.00  0.00     0.039 C 
ATOM      8  C   UNL     1      19.442  39.355  92.603  1.00  0.00    -0.023 CG0
ATOM      9  G   UNL     1      19.004  40.391  93.612  1.00  0.00     0.000 G0
ENDBRANCH   5   6
ENDBRANCH   4   5
ENDBRANCH   2   4
BRANCH   1  10
ATOM     10  C   UNL     1      22.091  41.988  93.536  1.00  0.00     0.111 C 
BRANCH  10  11
ATOM     11  C   UNL     1      20.880  41.924  94.435  1.00  0.00     0.163 C 
ATOM     12  O   UNL     1      20.560  42.962  95.073  1.00  0.00    -0.294 OA
BRANCH  11  13
ATOM     13  C   UNL     1      20.097  40.661  94.620  1.00  0.00    -0.002 C 
ATOM     14  C   UNL     1      20.323  39.825  95.677  1.00  0.00    -0.069 C 
ATOM     15  C   UNL     1      19.554  38.531  95.837  1.00  0.00     0.039 C 
ATOM     16  C   UNL     1      21.325  40.166  96.758  1.00  0.00     0.039 C 
BRANCH  13  17
ATOM     17  C   UNL     1      18.988  40.384  93.622  1.00  0.00     0.066 CG0
ATOM     18  G   UNL     1      19.449  39.355  92.616  1.00  0.00     0.000 G0
ENDBRANCH  13  17
ENDBRANCH  11  13
ENDBRANCH  10  11
ENDBRANCH   1  10
TORSDOF 0
ENDMDL
MODEL 9
REMARK VINA RESULT:    -2.412      2.379      3.712
REMARK INTER + INTRA:          -3.002
REMARK INTER:                  -3.726
REMARK INTRA:                   0.724
REMARK UNBOUND:                 0.398
REMARK SMILES CC1=CCC(=C(C)C)C(=O)CC(C)=CCC1
REMARK SMILES IDX 12 1 14 2 13 3 15 4 16 5 2 6 1 7 3 8 11 10 9 11 10 12 5 13
REMARK SMILES IDX 6 14 7 15 8 16 4 17
REMARK H PARENT
REMARK Flexibility Score: 60.00
ROOT
ATOM      1  C   UNL     1      20.618  42.709  93.759  1.00  0.00    -0.070 C 
ATOM      2  C   UNL     1      19.977  41.915  94.650  1.00  0.00    -0.027 C 
ATOM      3  C   UNL     1      21.649  43.670  94.301  1.00  0.00     0.039 C 
ENDROOT
BRANCH   2   4
ATOM      4  C   UNL     1      18.995  40.817  94.322  1.00  0.00     0.032 C 
BRANCH   4   5
ATOM      5  C   UNL     1      19.487  39.428  94.770  1.00  0.00     0.034 C 
BRANCH   5   6
ATOM      6  C   UNL     1      20.895  39.137  94.288  1.00  0.00    -0.077 C 
ATOM      7  C   UNL     1      21.975  38.926  95.319  1.00  0.00     0.039 C 
ATOM      8  C   UNL     1      21.244  39.080  92.984  1.00  0.00    -0.023 CG0
ATOM      9  G   UNL     1      20.317  39.297  91.811  1.00  0.00     0.000 G0
ENDBRANCH   5   6
ENDBRANCH   4   5
ENDBRANCH   2   4
BRANCH   1  10
ATOM     10  C   UNL     1      20.407  42.636  92.256  1.00  0.00     0.111 C 
BRANCH  10  11
ATOM     11  C   UNL     1      21.353  41.654  91.610  1.00  0.00     0.163 C 
ATOM     12  O   UNL     1      22.585  41.920  91.626  1.00  0.00    -0.294 OA
BRANCH  11  13
ATOM     13  C   UNL     1      20.862  40.422  90.916  1.00  0.00    -0.002 C 
ATOM     14  C   UNL     1      20.956  40.275  89.560  1.00  0.00    -0.069 C 
ATOM     15  C   UNL     1      20.423  39.042  88.863  1.00  0.00     0.039 C 
ATOM     16  C   UNL     1      21.628  41.317  88.695  1.00  0.00     0.039 C 
BRANCH  13  17
ATOM     17  C   UNL     1      20.322  39.306  91.792  1.00  0.00     0.066 CG0
ATOM     18  G   UNL     1      21.240  39.090  92.972  1.00  0.00     0.000 G0
ENDBRANCH  13  17
ENDBRANCH  11  13
ENDBRANCH  10  11
ENDBRANCH   1  10
TORSDOF 0
ENDMDL
