MODEL 1
REMARK VINA RESULT:    -6.157      0.000      0.000
REMARK INTER + INTRA:          -7.239
REMARK INTER:                  -7.057
REMARK INTRA:                  -0.182
REMARK UNBOUND:                -0.182
REMARK SMILES CC=Cc1ccc(O)c(OC)c1
REMARK SMILES IDX 4 1 12 2 9 3 7 4 6 5 5 6 3 7 1 8 2 9 10 10 11 11 8 12
REMARK H PARENT 8 13
REMARK Flexibility Score: inf
ROOT
ATOM      1  C   UNL     1     -14.183  61.428  39.055  1.00  0.00    -0.022 A 
ATOM      2  C   UNL     1     -13.125  62.352  39.001  1.00  0.00     0.058 A 
ATOM      3  C   UNL     1     -11.849  62.020  39.497  1.00  0.00     0.161 A 
ATOM      4  C   UNL     1     -11.640  60.754  40.060  1.00  0.00     0.157 A 
ATOM      5  C   UNL     1     -12.692  59.834  40.131  1.00  0.00     0.051 A 
ATOM      6  C   UNL     1     -13.955  60.167  39.639  1.00  0.00     0.012 A 
ENDROOT
BRANCH   1   7
ATOM      7  C   UNL     1     -15.508  61.834  38.526  1.00  0.00     0.003 C 
ATOM      8  C   UNL     1     -17.862  61.495  37.877  1.00  0.00     0.035 C 
ATOM      9  C   UNL     1     -16.561  61.013  38.437  1.00  0.00    -0.030 C 
ENDBRANCH   1   7
BRANCH   3  10
ATOM     10  O   UNL     1     -10.770  62.917  39.450  1.00  0.00    -0.493 OA
ATOM     11  C   UNL     1     -10.170  63.392  38.250  1.00  0.00     0.278 C 
ENDBRANCH   3  10
BRANCH   4  12
ATOM     12  O   UNL     1     -10.379  60.419  40.553  1.00  0.00    -0.504 OA
ATOM     13  H   UNL     1      -9.532  60.793  40.141  1.00  0.00     0.293 HD
ENDBRANCH   4  12
TORSDOF 3
ENDMDL
MODEL 2
REMARK VINA RESULT:    -5.903     14.850     16.630
REMARK INTER + INTRA:          -6.948
REMARK INTER:                  -6.800
REMARK INTRA:                  -0.148
REMARK UNBOUND:                -0.182
REMARK SMILES CC=Cc1ccc(O)c(OC)c1
REMARK SMILES IDX 4 1 12 2 9 3 7 4 6 5 5 6 3 7 1 8 2 9 10 10 11 11 8 12
REMARK H PARENT 8 13
REMARK Flexibility Score: inf
ROOT
ATOM      1  C   UNL     1      -6.175  61.544  54.326  1.00  0.00    -0.022 A 
ATOM      2  C   UNL     1      -5.776  62.248  53.177  1.00  0.00     0.058 A 
ATOM      3  C   UNL     1      -6.541  63.324  52.687  1.00  0.00     0.161 A 
ATOM      4  C   UNL     1      -7.721  63.687  53.351  1.00  0.00     0.157 A 
ATOM      5  C   UNL     1      -8.133  62.980  54.487  1.00  0.00     0.051 A 
ATOM      6  C   UNL     1      -7.372  61.914  54.970  1.00  0.00     0.012 A 
ENDROOT
BRANCH   1   7
ATOM      7  C   UNL     1      -5.336  60.412  54.793  1.00  0.00     0.003 C 
ATOM      8  C   UNL     1      -4.371  58.879  56.463  1.00  0.00     0.035 C 
ATOM      9  C   UNL     1      -5.253  60.021  56.070  1.00  0.00    -0.030 C 
ENDBRANCH   1   7
BRANCH   3  10
ATOM     10  O   UNL     1      -6.165  64.053  51.548  1.00  0.00    -0.493 OA
ATOM     11  C   UNL     1      -6.566  63.737  50.219  1.00  0.00     0.278 C 
ENDBRANCH   3  10
BRANCH   4  12
ATOM     12  O   UNL     1      -8.482  64.752  52.872  1.00  0.00    -0.504 OA
ATOM     13  H   UNL     1      -8.673  65.567  53.442  1.00  0.00     0.293 HD
ENDBRANCH   4  12
TORSDOF 3
ENDMDL
MODEL 3
REMARK VINA RESULT:    -5.695     18.205     20.360
REMARK INTER + INTRA:          -6.709
REMARK INTER:                  -6.553
REMARK INTRA:                  -0.156
REMARK UNBOUND:                -0.182
REMARK SMILES CC=Cc1ccc(O)c(OC)c1
REMARK SMILES IDX 4 1 12 2 9 3 7 4 6 5 5 6 3 7 1 8 2 9 10 10 11 11 8 12
REMARK H PARENT 8 13
REMARK Flexibility Score: inf
ROOT
ATOM      1  C   UNL     1     -10.283  48.992  55.083  1.00  0.00    -0.022 A 
ATOM      2  C   UNL     1     -11.639  48.893  54.726  1.00  0.00     0.058 A 
ATOM      3  C   UNL     1     -12.264  49.906  53.973  1.00  0.00     0.161 A 
ATOM      4  C   UNL     1     -11.523  51.031  53.586  1.00  0.00     0.157 A 
ATOM      5  C   UNL     1     -10.176  51.144  53.952  1.00  0.00     0.051 A 
ATOM      6  C   UNL     1      -9.560  50.138  54.698  1.00  0.00     0.012 A 
ENDROOT
BRANCH   1   7
ATOM      7  C   UNL     1      -9.679  47.900  55.885  1.00  0.00     0.003 C 
ATOM      8  C   UNL     1      -8.681  46.886  57.898  1.00  0.00     0.035 C 
ATOM      9  C   UNL     1      -9.297  48.033  57.161  1.00  0.00    -0.030 C 
ENDBRANCH   1   7
BRANCH   3  10
ATOM     10  O   UNL     1     -13.613  49.832  53.592  1.00  0.00    -0.493 OA
ATOM     11  C   UNL     1     -14.290  48.627  53.251  1.00  0.00     0.278 C 
ENDBRANCH   3  10
BRANCH   4  12
ATOM     12  O   UNL     1     -12.135  52.037  52.840  1.00  0.00    -0.504 OA
ATOM     13  H   UNL     1     -11.600  52.651  52.237  1.00  0.00     0.293 HD
ENDBRANCH   4  12
TORSDOF 3
ENDMDL
MODEL 4
REMARK VINA RESULT:    -5.656     17.937     19.323
REMARK INTER + INTRA:          -6.665
REMARK INTER:                  -6.496
REMARK INTRA:                  -0.169
REMARK UNBOUND:                -0.182
REMARK SMILES CC=Cc1ccc(O)c(OC)c1
REMARK SMILES IDX 4 1 12 2 9 3 7 4 6 5 5 6 3 7 1 8 2 9 10 10 11 11 8 12
REMARK H PARENT 8 13
REMARK Flexibility Score: inf
ROOT
ATOM      1  C   UNL     1     -12.658  49.869  53.376  1.00  0.00    -0.022 A 
ATOM      2  C   UNL     1     -12.151  49.001  54.359  1.00  0.00     0.058 A 
ATOM      3  C   UNL     1     -10.950  49.295  55.032  1.00  0.00     0.161 A 
ATOM      4  C   UNL     1     -10.249  50.464  54.707  1.00  0.00     0.157 A 
ATOM      5  C   UNL     1     -10.739  51.325  53.718  1.00  0.00     0.051 A 
ATOM      6  C   UNL     1     -11.931  51.030  53.053  1.00  0.00     0.012 A 
ENDROOT
BRANCH   1   7
ATOM      7  C   UNL     1     -13.924  49.504  52.691  1.00  0.00     0.003 C 
ATOM      8  C   UNL     1     -16.247  48.694  52.560  1.00  0.00     0.035 C 
ATOM      9  C   UNL     1     -15.013  49.054  53.325  1.00  0.00    -0.030 C 
ENDBRANCH   1   7
BRANCH   3  10
ATOM     10  O   UNL     1     -10.423  48.454  56.025  1.00  0.00    -0.493 OA
ATOM     11  C   UNL     1      -9.672  47.273  55.767  1.00  0.00     0.278 C 
ENDBRANCH   3  10
BRANCH   4  12
ATOM     12  O   UNL     1      -9.060  50.762  55.371  1.00  0.00    -0.504 OA
ATOM     13  H   UNL     1      -8.978  51.569  55.979  1.00  0.00     0.293 HD
ENDBRANCH   4  12
TORSDOF 3
ENDMDL
MODEL 5
REMARK VINA RESULT:    -5.396      1.959      5.180
REMARK INTER + INTRA:          -6.366
REMARK INTER:                  -6.205
REMARK INTRA:                  -0.162
REMARK UNBOUND:                -0.182
REMARK SMILES CC=Cc1ccc(O)c(OC)c1
REMARK SMILES IDX 4 1 12 2 9 3 7 4 6 5 5 6 3 7 1 8 2 9 10 10 11 11 8 12
REMARK H PARENT 8 13
REMARK Flexibility Score: inf
ROOT
ATOM      1  C   UNL     1     -10.344  63.040  38.942  1.00  0.00    -0.022 A 
ATOM      2  C   UNL     1     -11.717  62.858  38.700  1.00  0.00     0.058 A 
ATOM      3  C   UNL     1     -12.436  61.835  39.348  1.00  0.00     0.161 A 
ATOM      4  C   UNL     1     -11.767  60.983  40.237  1.00  0.00     0.157 A 
ATOM      5  C   UNL     1     -10.397  61.147  40.471  1.00  0.00     0.051 A 
ATOM      6  C   UNL     1      -9.688  62.163  39.827  1.00  0.00     0.012 A 
ENDROOT
BRANCH   1   7
ATOM      7  C   UNL     1      -9.634  64.128  38.225  1.00  0.00     0.003 C 
ATOM      8  C   UNL     1      -7.941  65.897  37.950  1.00  0.00     0.035 C 
ATOM      9  C   UNL     1      -8.595  64.802  38.731  1.00  0.00    -0.030 C 
ENDBRANCH   1   7
BRANCH   3  10
ATOM     10  O   UNL     1     -13.809  61.634  39.135  1.00  0.00    -0.493 OA
ATOM     11  C   UNL     1     -14.692  62.611  38.595  1.00  0.00     0.278 C 
ENDBRANCH   3  10
BRANCH   4  12
ATOM     12  O   UNL     1     -12.473  59.969  40.882  1.00  0.00    -0.504 OA
ATOM     13  H   UNL     1     -12.665  60.005  41.877  1.00  0.00     0.293 HD
ENDBRANCH   4  12
TORSDOF 3
ENDMDL
MODEL 6
REMARK VINA RESULT:    -5.342     18.099     20.343
REMARK INTER + INTRA:          -6.305
REMARK INTER:                  -6.222
REMARK INTRA:                  -0.083
REMARK UNBOUND:                -0.182
REMARK SMILES CC=Cc1ccc(O)c(OC)c1
REMARK SMILES IDX 4 1 12 2 9 3 7 4 6 5 5 6 3 7 1 8 2 9 10 10 11 11 8 12
REMARK H PARENT 8 13
REMARK Flexibility Score: inf
ROOT
ATOM      1  C   UNL     1      -9.750  49.762  54.724  1.00  0.00    -0.022 A 
ATOM      2  C   UNL     1     -10.714  48.765  54.951  1.00  0.00     0.058 A 
ATOM      3  C   UNL     1     -12.028  48.906  54.463  1.00  0.00     0.161 A 
ATOM      4  C   UNL     1     -12.376  50.062  53.752  1.00  0.00     0.157 A 
ATOM      5  C   UNL     1     -11.425  51.066  53.536  1.00  0.00     0.051 A 
ATOM      6  C   UNL     1     -10.124  50.923  54.021  1.00  0.00     0.012 A 
ENDROOT
BRANCH   1   7
ATOM      7  C   UNL     1      -8.383  49.566  55.269  1.00  0.00     0.003 C 
ATOM      8  C   UNL     1      -6.171  48.494  55.437  1.00  0.00     0.035 C 
ATOM      9  C   UNL     1      -7.528  48.638  54.824  1.00  0.00    -0.030 C 
ENDBRANCH   1   7
BRANCH   3  10
ATOM     10  O   UNL     1     -13.011  47.924  54.664  1.00  0.00    -0.493 OA
ATOM     11  C   UNL     1     -13.386  46.948  53.698  1.00  0.00     0.278 C 
ENDBRANCH   3  10
BRANCH   4  12
ATOM     12  O   UNL     1     -13.674  50.207  53.265  1.00  0.00    -0.504 OA
ATOM     13  H   UNL     1     -14.406  49.547  53.502  1.00  0.00     0.293 HD
ENDBRANCH   4  12
TORSDOF 3
ENDMDL
MODEL 7
REMARK VINA RESULT:    -5.336     14.973     16.594
REMARK INTER + INTRA:          -6.298
REMARK INTER:                  -6.129
REMARK INTRA:                  -0.169
REMARK UNBOUND:                -0.182
REMARK SMILES CC=Cc1ccc(O)c(OC)c1
REMARK SMILES IDX 4 1 12 2 9 3 7 4 6 5 5 6 3 7 1 8 2 9 10 10 11 11 8 12
REMARK H PARENT 8 13
REMARK Flexibility Score: inf
ROOT
ATOM      1  C   UNL     1      -6.568  62.894  52.981  1.00  0.00    -0.022 A 
ATOM      2  C   UNL     1      -5.495  62.024  53.243  1.00  0.00     0.058 A 
ATOM      3  C   UNL     1      -5.497  61.198  54.384  1.00  0.00     0.161 A 
ATOM      4  C   UNL     1      -6.579  61.257  55.273  1.00  0.00     0.157 A 
ATOM      5  C   UNL     1      -7.642  62.133  55.027  1.00  0.00     0.051 A 
ATOM      6  C   UNL     1      -7.637  62.949  53.895  1.00  0.00     0.012 A 
ENDROOT
BRANCH   1   7
ATOM      7  C   UNL     1      -6.509  63.748  51.769  1.00  0.00     0.003 C 
ATOM      8  C   UNL     1      -6.217  65.855  50.524  1.00  0.00     0.035 C 
ATOM      9  C   UNL     1      -6.243  65.059  51.791  1.00  0.00    -0.030 C 
ENDBRANCH   1   7
BRANCH   3  10
ATOM     10  O   UNL     1      -4.446  60.311  54.668  1.00  0.00    -0.493 OA
ATOM     11  C   UNL     1      -3.220  60.685  55.286  1.00  0.00     0.278 C 
ENDBRANCH   3  10
BRANCH   4  12
ATOM     12  O   UNL     1      -6.586  60.442  56.403  1.00  0.00    -0.504 OA
ATOM     13  H   UNL     1      -7.066  59.549  56.411  1.00  0.00     0.293 HD
ENDBRANCH   4  12
TORSDOF 3
ENDMDL
MODEL 8
REMARK VINA RESULT:    -5.237      4.147      6.375
REMARK INTER + INTRA:          -6.184
REMARK INTER:                  -6.031
REMARK INTRA:                  -0.154
REMARK UNBOUND:                -0.182
REMARK SMILES CC=Cc1ccc(O)c(OC)c1
REMARK SMILES IDX 4 1 12 2 9 3 7 4 6 5 5 6 3 7 1 8 2 9 10 10 11 11 8 12
REMARK H PARENT 8 13
REMARK Flexibility Score: inf
ROOT
ATOM      1  C   UNL     1      -9.238  64.034  40.460  1.00  0.00    -0.022 A 
ATOM      2  C   UNL     1      -9.598  63.449  41.686  1.00  0.00     0.058 A 
ATOM      3  C   UNL     1     -10.137  62.148  41.735  1.00  0.00     0.161 A 
ATOM      4  C   UNL     1     -10.325  61.437  40.542  1.00  0.00     0.157 A 
ATOM      5  C   UNL     1      -9.984  62.020  39.316  1.00  0.00     0.051 A 
ATOM      6  C   UNL     1      -9.450  63.309  39.272  1.00  0.00     0.012 A 
ENDROOT
BRANCH   1   7
ATOM      7  C   UNL     1      -8.684  65.411  40.466  1.00  0.00     0.003 C 
ATOM      8  C   UNL     1      -6.940  67.125  40.159  1.00  0.00     0.035 C 
ATOM      9  C   UNL     1      -7.429  65.712  40.112  1.00  0.00    -0.030 C 
ENDBRANCH   1   7
BRANCH   3  10
ATOM     10  O   UNL     1     -10.498  61.532  42.944  1.00  0.00    -0.493 OA
ATOM     11  C   UNL     1      -9.876  61.791  44.198  1.00  0.00     0.278 C 
ENDBRANCH   3  10
BRANCH   4  12
ATOM     12  O   UNL     1     -10.858  60.149  40.584  1.00  0.00    -0.504 OA
ATOM     13  H   UNL     1     -11.750  59.958  41.024  1.00  0.00     0.293 HD
ENDBRANCH   4  12
TORSDOF 3
ENDMDL
