MODEL 1
REMARK VINA RESULT:    17.588      0.000      0.000
REMARK INTER + INTRA:          20.988
REMARK INTER:                  20.673
REMARK INTRA:                   0.315
REMARK UNBOUND:                 0.315
REMARK SMILES Oc1ccc(-c2[o+]c3cc(O)cc(O)c3cc2O)cc1
REMARK SMILES IDX 6 1 7 2 8 3 9 4 10 5 12 6 13 7 15 8 16 9 17 10 5 11 4 12
REMARK SMILES IDX 3 13 2 14 19 15 20 16 1 17 18 19 11 21 14 23
REMARK H PARENT 1 18 18 20 11 22 14 24
REMARK Flexibility Score: inf
ROOT
ATOM      1  C   UNL     1      29.844  23.712  45.243  1.00  0.00     0.401 A 
ATOM      2  O   UNL     1      29.225  23.144  46.275  1.00  0.00    -0.202 OA
ATOM      3  C   UNL     1      27.904  23.137  46.421  1.00  0.00     0.368 A 
ATOM      4  C   UNL     1      27.346  22.517  47.543  1.00  0.00     0.162 A 
ATOM      5  C   UNL     1      25.964  22.498  47.723  1.00  0.00     0.128 A 
ATOM      6  C   UNL     1      25.129  23.103  46.777  1.00  0.00     0.093 A 
ATOM      7  C   UNL     1      25.662  23.732  45.645  1.00  0.00     0.136 A 
ATOM      8  C   UNL     1      27.069  23.751  45.456  1.00  0.00     0.125 A 
ATOM      9  C   UNL     1      27.692  24.344  44.346  1.00  0.00     0.078 A 
ATOM     10  C   UNL     1      29.085  24.320  44.227  1.00  0.00     0.223 A 
ENDROOT
BRANCH   1  11
ATOM     11  C   UNL     1      31.323  23.661  45.200  1.00  0.00     0.084 A 
ATOM     12  C   UNL     1      32.006  22.721  45.990  1.00  0.00     0.022 A 
ATOM     13  C   UNL     1      33.403  22.669  45.981  1.00  0.00     0.047 A 
ATOM     14  C   UNL     1      34.136  23.567  45.194  1.00  0.00     0.115 A 
ATOM     15  C   UNL     1      32.066  24.571  44.426  1.00  0.00     0.022 A 
ATOM     16  C   UNL     1      33.464  24.518  44.420  1.00  0.00     0.047 A 
BRANCH  14  17
ATOM     17  O   UNL     1      35.528  23.525  45.175  1.00  0.00    -0.508 OA
ATOM     18  H   UNL     1      36.045  22.877  45.758  1.00  0.00     0.293 HD
ENDBRANCH  14  17
ENDBRANCH   1  11
BRANCH  10  19
ATOM     19  O   UNL     1      29.701  24.865  43.100  1.00  0.00    -0.500 OA
ATOM     20  H   UNL     1      29.218  24.934  42.211  1.00  0.00     0.294 HD
ENDBRANCH  10  19
BRANCH   5  21
ATOM     21  O   UNL     1      25.427  21.875  48.847  1.00  0.00    -0.507 OA
ATOM     22  H   UNL     1      24.833  22.376  49.498  1.00  0.00     0.293 HD
ENDBRANCH   5  21
BRANCH   7  23
ATOM     23  O   UNL     1      24.763  24.316  44.748  1.00  0.00    -0.507 OA
ATOM     24  H   UNL     1      24.347  25.228  44.869  1.00  0.00     0.293 HD
ENDBRANCH   7  23
TORSDOF 5
ENDMDL
