MODEL 1
REMARK VINA RESULT:    -3.645      0.000      0.000
REMARK INTER + INTRA:          -7.617
REMARK INTER:                  -6.628
REMARK INTRA:                  -0.990
REMARK UNBOUND:                -0.990
REMARK SMILES CCCCCCCCCCCCCCCC(=O)[O-]
REMARK SMILES IDX 9 1 10 2 11 3 12 4 13 5 14 6 15 7 16 8 17 9 18 10 8 11 7 12
REMARK SMILES IDX 6 13 5 14 4 15 3 16 2 17 1 18
REMARK H PARENT
REMARK Flexibility Score: inf
ROOT
ATOM      1  C   UNL     1      14.470  -8.240   6.894  1.00  0.00     0.000 C 
ENDROOT
BRANCH   1   2
ATOM      2  C   UNL     1      15.658  -7.266   6.844  1.00  0.00     0.000 C 
BRANCH   2   3
ATOM      3  C   UNL     1      16.027  -6.844   5.410  1.00  0.00     0.000 C 
BRANCH   3   4
ATOM      4  C   UNL     1      17.219  -7.599   4.785  1.00  0.00     0.000 C 
BRANCH   4   5
ATOM      5  C   UNL     1      18.527  -6.792   4.694  1.00  0.00     0.000 C 
BRANCH   5   6
ATOM      6  C   UNL     1      19.669  -7.414   5.515  1.00  0.00     0.006 C 
BRANCH   6   7
ATOM      7  C   UNL     1      19.174  -8.547   6.424  1.00  0.00     0.053 C 
BRANCH   7   8
ATOM      8  C   UNL     1      19.284  -8.181   7.873  1.00  0.00     0.041 C 
ATOM      9  O   UNL     1      19.773  -8.997   8.697  1.00  0.00    -0.550 OA
ATOM     10  O   UNL     1      18.815  -6.951   8.317  1.00  0.00    -0.550 OA
ENDBRANCH   7   8
ENDBRANCH   6   7
ENDBRANCH   5   6
ENDBRANCH   4   5
ENDBRANCH   3   4
ENDBRANCH   2   3
ENDBRANCH   1   2
BRANCH   1  11
ATOM     11  C   UNL     1      13.417  -7.959   5.805  1.00  0.00     0.000 C 
BRANCH  11  12
ATOM     12  C   UNL     1      11.953  -7.976   6.282  1.00  0.00    -0.000 C 
BRANCH  12  13
ATOM     13  C   UNL     1      10.989  -7.313   5.284  1.00  0.00    -0.000 C 
BRANCH  13  14
ATOM     14  C   UNL     1       9.958  -8.300   4.713  1.00  0.00    -0.000 C 
BRANCH  14  15
ATOM     15  C   UNL     1       8.773  -8.542   5.665  1.00  0.00    -0.000 C 
BRANCH  15  16
ATOM     16  C   UNL     1       8.724  -9.998   6.174  1.00  0.00    -0.000 C 
BRANCH  16  17
ATOM     17  C   UNL     1       8.270 -10.123   7.639  1.00  0.00    -0.003 C 
ATOM     18  C   UNL     1       7.615  -8.851   8.173  1.00  0.00     0.004 C 
ENDBRANCH  16  17
ENDBRANCH  15  16
ENDBRANCH  14  15
ENDBRANCH  13  14
ENDBRANCH  12  13
ENDBRANCH  11  12
ENDBRANCH   1  11
TORSDOF 14
ENDMDL
MODEL 2
REMARK VINA RESULT:    -3.621      1.462      2.942
REMARK INTER + INTRA:          -7.574
REMARK INTER:                  -6.508
REMARK INTRA:                  -1.067
REMARK UNBOUND:                -0.990
REMARK SMILES CCCCCCCCCCCCCCCC(=O)[O-]
REMARK SMILES IDX 9 1 10 2 11 3 12 4 13 5 14 6 15 7 16 8 17 9 18 10 8 11 7 12
REMARK SMILES IDX 6 13 5 14 4 15 3 16 2 17 1 18
REMARK H PARENT
REMARK Flexibility Score: inf
ROOT
ATOM      1  C   UNL     1      11.655  -7.237   4.458  1.00  0.00     0.000 C 
ENDROOT
BRANCH   1   2
ATOM      2  C   UNL     1      13.081  -7.555   4.938  1.00  0.00     0.000 C 
BRANCH   2   3
ATOM      3  C   UNL     1      13.110  -8.223   6.326  1.00  0.00     0.000 C 
BRANCH   3   4
ATOM      4  C   UNL     1      14.516  -8.446   6.923  1.00  0.00     0.000 C 
BRANCH   4   5
ATOM      5  C   UNL     1      15.599  -7.473   6.423  1.00  0.00     0.000 C 
BRANCH   5   6
ATOM      6  C   UNL     1      16.917  -8.181   6.068  1.00  0.00     0.006 C 
BRANCH   6   7
ATOM      7  C   UNL     1      18.132  -7.263   6.253  1.00  0.00     0.053 C 
BRANCH   7   8
ATOM      8  C   UNL     1      18.823  -7.517   7.558  1.00  0.00     0.041 C 
ATOM      9  O   UNL     1      18.804  -6.645   8.466  1.00  0.00    -0.550 OA
ATOM     10  O   UNL     1      19.516  -8.705   7.759  1.00  0.00    -0.550 OA
ENDBRANCH   7   8
ENDBRANCH   6   7
ENDBRANCH   5   6
ENDBRANCH   4   5
ENDBRANCH   3   4
ENDBRANCH   2   3
ENDBRANCH   1   2
BRANCH   1  11
ATOM     11  C   UNL     1      10.567  -7.860   5.353  1.00  0.00     0.000 C 
BRANCH  11  12
ATOM     12  C   UNL     1       9.655  -8.892   4.664  1.00  0.00    -0.000 C 
BRANCH  12  13
ATOM     13  C   UNL     1       8.967  -9.842   5.658  1.00  0.00    -0.000 C 
BRANCH  13  14
ATOM     14  C   UNL     1       8.808  -9.222   7.056  1.00  0.00    -0.000 C 
BRANCH  14  15
ATOM     15  C   UNL     1       7.350  -8.852   7.382  1.00  0.00    -0.000 C 
BRANCH  15  16
ATOM     16  C   UNL     1       6.368  -9.357   6.303  1.00  0.00    -0.000 C 
BRANCH  16  17
ATOM     17  C   UNL     1       5.678  -8.226   5.521  1.00  0.00    -0.003 C 
ATOM     18  C   UNL     1       6.042  -6.834   6.035  1.00  0.00     0.004 C 
ENDBRANCH  16  17
ENDBRANCH  15  16
ENDBRANCH  14  15
ENDBRANCH  13  14
ENDBRANCH  12  13
ENDBRANCH  11  12
ENDBRANCH   1  11
TORSDOF 14
ENDMDL
MODEL 3
REMARK VINA RESULT:    -3.532      1.570      2.654
REMARK INTER + INTRA:          -7.412
REMARK INTER:                  -6.333
REMARK INTRA:                  -1.080
REMARK UNBOUND:                -0.990
REMARK SMILES CCCCCCCCCCCCCCCC(=O)[O-]
REMARK SMILES IDX 9 1 10 2 11 3 12 4 13 5 14 6 15 7 16 8 17 9 18 10 8 11 7 12
REMARK SMILES IDX 6 13 5 14 4 15 3 16 2 17 1 18
REMARK H PARENT
REMARK Flexibility Score: inf
ROOT
ATOM      1  C   UNL     1      11.541  -7.849   6.068  1.00  0.00     0.000 C 
ENDROOT
BRANCH   1   2
ATOM      2  C   UNL     1      12.467  -7.482   4.897  1.00  0.00     0.000 C 
BRANCH   2   3
ATOM      3  C   UNL     1      13.885  -8.064   5.050  1.00  0.00     0.000 C 
BRANCH   3   4
ATOM      4  C   UNL     1      14.990  -7.328   4.263  1.00  0.00     0.000 C 
BRANCH   4   5
ATOM      5  C   UNL     1      15.963  -6.501   5.122  1.00  0.00     0.000 C 
BRANCH   5   6
ATOM      6  C   UNL     1      16.265  -7.158   6.479  1.00  0.00     0.006 C 
BRANCH   6   7
ATOM      7  C   UNL     1      17.545  -8.003   6.438  1.00  0.00     0.053 C 
BRANCH   7   8
ATOM      8  C   UNL     1      18.718  -7.256   6.996  1.00  0.00     0.041 C 
ATOM      9  O   UNL     1      19.652  -6.886   6.238  1.00  0.00    -0.550 OA
ATOM     10  O   UNL     1      18.795  -6.998   8.359  1.00  0.00    -0.550 OA
ENDBRANCH   7   8
ENDBRANCH   6   7
ENDBRANCH   5   6
ENDBRANCH   4   5
ENDBRANCH   3   4
ENDBRANCH   2   3
ENDBRANCH   1   2
BRANCH   1  11
ATOM     11  C   UNL     1      10.124  -8.243   5.612  1.00  0.00     0.000 C 
BRANCH  11  12
ATOM     12  C   UNL     1       9.436  -7.248   4.660  1.00  0.00    -0.000 C 
BRANCH  12  13
ATOM     13  C   UNL     1       8.130  -7.796   4.060  1.00  0.00    -0.000 C 
BRANCH  13  14
ATOM     14  C   UNL     1       6.882  -7.091   4.617  1.00  0.00    -0.000 C 
BRANCH  14  15
ATOM     15  C   UNL     1       6.453  -7.636   5.992  1.00  0.00    -0.000 C 
BRANCH  15  16
ATOM     16  C   UNL     1       6.168  -9.153   5.952  1.00  0.00    -0.000 C 
BRANCH  16  17
ATOM     17  C   UNL     1       7.072  -9.974   6.886  1.00  0.00    -0.003 C 
ATOM     18  C   UNL     1       7.553  -9.183   8.101  1.00  0.00     0.004 C 
ENDBRANCH  16  17
ENDBRANCH  15  16
ENDBRANCH  14  15
ENDBRANCH  13  14
ENDBRANCH  12  13
ENDBRANCH  11  12
ENDBRANCH   1  11
TORSDOF 14
ENDMDL
MODEL 4
REMARK VINA RESULT:    -3.515      4.658      9.564
REMARK INTER + INTRA:          -7.381
REMARK INTER:                  -6.505
REMARK INTRA:                  -0.876
REMARK UNBOUND:                -0.990
REMARK SMILES CCCCCCCCCCCCCCCC(=O)[O-]
REMARK SMILES IDX 9 1 10 2 11 3 12 4 13 5 14 6 15 7 16 8 17 9 18 10 8 11 7 12
REMARK SMILES IDX 6 13 5 14 4 15 3 16 2 17 1 18
REMARK H PARENT
REMARK Flexibility Score: inf
ROOT
ATOM      1  C   UNL     1      11.976  -7.488   4.757  1.00  0.00     0.000 C 
ENDROOT
BRANCH   1   2
ATOM      2  C   UNL     1      10.976  -8.226   5.662  1.00  0.00     0.000 C 
BRANCH   2   3
ATOM      3  C   UNL     1       9.808  -8.853   4.877  1.00  0.00     0.000 C 
BRANCH   3   4
ATOM      4  C   UNL     1       8.763  -9.600   5.732  1.00  0.00     0.000 C 
BRANCH   4   5
ATOM      5  C   UNL     1       8.619  -9.093   7.178  1.00  0.00     0.000 C 
BRANCH   5   6
ATOM      6  C   UNL     1       7.280  -8.379   7.427  1.00  0.00     0.006 C 
BRANCH   6   7
ATOM      7  C   UNL     1       6.451  -8.241   6.144  1.00  0.00     0.053 C 
BRANCH   7   8
ATOM      8  C   UNL     1       5.931  -6.847   5.969  1.00  0.00     0.041 C 
ATOM      9  O   UNL     1       5.932  -6.044   6.938  1.00  0.00    -0.550 OA
ATOM     10  O   UNL     1       5.413  -6.447   4.743  1.00  0.00    -0.550 OA
ENDBRANCH   7   8
ENDBRANCH   6   7
ENDBRANCH   5   6
ENDBRANCH   4   5
ENDBRANCH   3   4
ENDBRANCH   2   3
ENDBRANCH   1   2
BRANCH   1  11
ATOM     11  C   UNL     1      13.438  -7.902   5.015  1.00  0.00     0.000 C 
BRANCH  11  12
ATOM     12  C   UNL     1      13.776  -8.256   6.475  1.00  0.00    -0.000 C 
BRANCH  12  13
ATOM     13  C   UNL     1      15.152  -7.731   6.917  1.00  0.00    -0.000 C 
BRANCH  13  14
ATOM     14  C   UNL     1      15.899  -7.007   5.784  1.00  0.00    -0.000 C 
BRANCH  14  15
ATOM     15  C   UNL     1      17.174  -7.748   5.342  1.00  0.00    -0.000 C 
BRANCH  15  16
ATOM     16  C   UNL     1      18.448  -7.130   5.956  1.00  0.00    -0.000 C 
BRANCH  16  17
ATOM     17  C   UNL     1      18.854  -7.764   7.297  1.00  0.00    -0.003 C 
ATOM     18  C   UNL     1      18.720  -6.803   8.478  1.00  0.00     0.004 C 
ENDBRANCH  16  17
ENDBRANCH  15  16
ENDBRANCH  14  15
ENDBRANCH  13  14
ENDBRANCH  12  13
ENDBRANCH  11  12
ENDBRANCH   1  11
TORSDOF 14
ENDMDL
MODEL 5
REMARK VINA RESULT:    -3.384      4.210      8.829
REMARK INTER + INTRA:          -7.143
REMARK INTER:                  -5.837
REMARK INTRA:                  -1.306
REMARK UNBOUND:                -0.990
REMARK SMILES CCCCCCCCCCCCCCCC(=O)[O-]
REMARK SMILES IDX 9 1 10 2 11 3 12 4 13 5 14 6 15 7 16 8 17 9 18 10 8 11 7 12
REMARK SMILES IDX 6 13 5 14 4 15 3 16 2 17 1 18
REMARK H PARENT
REMARK Flexibility Score: inf
ROOT
ATOM      1  C   UNL     1      14.779  -8.280   6.741  1.00  0.00     0.000 C 
ENDROOT
BRANCH   1   2
ATOM      2  C   UNL     1      13.242  -8.260   6.712  1.00  0.00     0.000 C 
BRANCH   2   3
ATOM      3  C   UNL     1      12.673  -7.911   5.324  1.00  0.00     0.000 C 
BRANCH   3   4
ATOM      4  C   UNL     1      11.254  -8.444   5.038  1.00  0.00     0.000 C 
BRANCH   4   5
ATOM      5  C   UNL     1      10.251  -8.285   6.194  1.00  0.00     0.000 C 
BRANCH   5   6
ATOM      6  C   UNL     1       9.006  -9.172   6.029  1.00  0.00     0.006 C 
BRANCH   6   7
ATOM      7  C   UNL     1       8.687  -9.962   7.306  1.00  0.00     0.053 C 
BRANCH   7   8
ATOM      8  C   UNL     1       7.547  -9.351   8.062  1.00  0.00     0.041 C 
ATOM      9  O   UNL     1       7.049  -9.951   9.050  1.00  0.00    -0.550 OA
ATOM     10  O   UNL     1       7.013  -8.135   7.653  1.00  0.00    -0.550 OA
ENDBRANCH   7   8
ENDBRANCH   6   7
ENDBRANCH   5   6
ENDBRANCH   4   5
ENDBRANCH   3   4
ENDBRANCH   2   3
ENDBRANCH   1   2
BRANCH   1  11
ATOM     11  C   UNL     1      15.382  -9.409   5.883  1.00  0.00     0.000 C 
BRANCH  11  12
ATOM     12  C   UNL     1      16.397  -8.958   4.816  1.00  0.00    -0.000 C 
BRANCH  12  13
ATOM     13  C   UNL     1      16.212  -7.491   4.395  1.00  0.00    -0.000 C 
BRANCH  13  14
ATOM     14  C   UNL     1      17.550  -6.750   4.233  1.00  0.00    -0.000 C 
BRANCH  14  15
ATOM     15  C   UNL     1      18.751  -7.571   4.736  1.00  0.00    -0.000 C 
BRANCH  15  16
ATOM     16  C   UNL     1      19.361  -6.978   6.024  1.00  0.00    -0.000 C 
BRANCH  16  17
ATOM     17  C   UNL     1      19.001  -7.766   7.295  1.00  0.00    -0.003 C 
ATOM     18  C   UNL     1      19.386  -9.242   7.214  1.00  0.00     0.004 C 
ENDBRANCH  16  17
ENDBRANCH  15  16
ENDBRANCH  14  15
ENDBRANCH  13  14
ENDBRANCH  12  13
ENDBRANCH  11  12
ENDBRANCH   1  11
TORSDOF 14
ENDMDL
MODEL 6
REMARK VINA RESULT:    -3.355      4.515      9.677
REMARK INTER + INTRA:          -7.090
REMARK INTER:                  -6.191
REMARK INTRA:                  -0.898
REMARK UNBOUND:                -0.990
REMARK SMILES CCCCCCCCCCCCCCCC(=O)[O-]
REMARK SMILES IDX 9 1 10 2 11 3 12 4 13 5 14 6 15 7 16 8 17 9 18 10 8 11 7 12
REMARK SMILES IDX 6 13 5 14 4 15 3 16 2 17 1 18
REMARK H PARENT
REMARK Flexibility Score: inf
ROOT
ATOM      1  C   UNL     1      14.209  -8.217   6.677  1.00  0.00     0.000 C 
ENDROOT
BRANCH   1   2
ATOM      2  C   UNL     1      13.586  -8.426   5.287  1.00  0.00     0.000 C 
BRANCH   2   3
ATOM      3  C   UNL     1      12.262  -7.660   5.104  1.00  0.00     0.000 C 
BRANCH   3   4
ATOM      4  C   UNL     1      11.201  -7.903   6.197  1.00  0.00     0.000 C 
BRANCH   4   5
ATOM      5  C   UNL     1       9.847  -8.429   5.689  1.00  0.00     0.000 C 
BRANCH   5   6
ATOM      6  C   UNL     1       8.952  -8.961   6.820  1.00  0.00     0.006 C 
BRANCH   6   7
ATOM      7  C   UNL     1       7.559  -9.359   6.314  1.00  0.00     0.053 C 
BRANCH   7   8
ATOM      8  C   UNL     1       6.789  -8.172   5.823  1.00  0.00     0.041 C 
ATOM      9  O   UNL     1       6.332  -7.330   6.640  1.00  0.00    -0.550 OA
ATOM     10  O   UNL     1       6.548  -8.013   4.463  1.00  0.00    -0.550 OA
ENDBRANCH   7   8
ENDBRANCH   6   7
ENDBRANCH   5   6
ENDBRANCH   4   5
ENDBRANCH   3   4
ENDBRANCH   2   3
ENDBRANCH   1   2
BRANCH   1  11
ATOM     11  C   UNL     1      15.596  -7.548   6.619  1.00  0.00     0.000 C 
BRANCH  11  12
ATOM     12  C   UNL     1      15.876  -6.718   5.353  1.00  0.00    -0.000 C 
BRANCH  12  13
ATOM     13  C   UNL     1      17.307  -6.898   4.821  1.00  0.00    -0.000 C 
BRANCH  13  14
ATOM     14  C   UNL     1      17.970  -8.188   5.334  1.00  0.00    -0.000 C 
BRANCH  14  15
ATOM     15  C   UNL     1      19.450  -7.990   5.706  1.00  0.00    -0.000 C 
BRANCH  15  16
ATOM     16  C   UNL     1      19.850  -6.499   5.727  1.00  0.00    -0.000 C 
BRANCH  16  17
ATOM     17  C   UNL     1      21.013  -6.160   4.779  1.00  0.00    -0.003 C 
ATOM     18  C   UNL     1      20.992  -4.710   4.301  1.00  0.00     0.004 C 
ENDBRANCH  16  17
ENDBRANCH  15  16
ENDBRANCH  14  15
ENDBRANCH  13  14
ENDBRANCH  12  13
ENDBRANCH  11  12
ENDBRANCH   1  11
TORSDOF 14
ENDMDL
MODEL 7
REMARK VINA RESULT:    -3.336      4.716      9.398
REMARK INTER + INTRA:          -7.057
REMARK INTER:                  -5.994
REMARK INTRA:                  -1.063
REMARK UNBOUND:                -0.990
REMARK SMILES CCCCCCCCCCCCCCCC(=O)[O-]
REMARK SMILES IDX 9 1 10 2 11 3 12 4 13 5 14 6 15 7 16 8 17 9 18 10 8 11 7 12
REMARK SMILES IDX 6 13 5 14 4 15 3 16 2 17 1 18
REMARK H PARENT
REMARK Flexibility Score: inf
ROOT
ATOM      1  C   UNL     1      14.122  -8.250   6.795  1.00  0.00     0.000 C 
ENDROOT
BRANCH   1   2
ATOM      2  C   UNL     1      13.093  -8.177   5.656  1.00  0.00     0.000 C 
BRANCH   2   3
ATOM      3  C   UNL     1      11.661  -7.909   6.158  1.00  0.00     0.000 C 
BRANCH   3   4
ATOM      4  C   UNL     1      10.764  -7.100   5.198  1.00  0.00     0.000 C 
BRANCH   4   5
ATOM      5  C   UNL     1       9.436  -7.778   4.818  1.00  0.00     0.000 C 
BRANCH   5   6
ATOM      6  C   UNL     1       8.448  -6.816   4.138  1.00  0.00     0.006 C 
BRANCH   6   7
ATOM      7  C   UNL     1       7.062  -7.448   3.952  1.00  0.00     0.053 C 
BRANCH   7   8
ATOM      8  C   UNL     1       6.312  -7.523   5.247  1.00  0.00     0.041 C 
ATOM      9  O   UNL     1       6.280  -6.530   6.020  1.00  0.00    -0.550 OA
ATOM     10  O   UNL     1       5.675  -8.702   5.614  1.00  0.00    -0.550 OA
ENDBRANCH   7   8
ENDBRANCH   6   7
ENDBRANCH   5   6
ENDBRANCH   4   5
ENDBRANCH   3   4
ENDBRANCH   2   3
ENDBRANCH   1   2
BRANCH   1  11
ATOM     11  C   UNL     1      15.566  -8.003   6.316  1.00  0.00     0.000 C 
BRANCH  11  12
ATOM     12  C   UNL     1      15.768  -6.745   5.451  1.00  0.00    -0.000 C 
BRANCH  12  13
ATOM     13  C   UNL     1      16.846  -6.929   4.369  1.00  0.00    -0.000 C 
BRANCH  13  14
ATOM     14  C   UNL     1      17.691  -8.195   4.586  1.00  0.00    -0.000 C 
BRANCH  14  15
ATOM     15  C   UNL     1      19.190  -7.888   4.762  1.00  0.00    -0.000 C 
BRANCH  15  16
ATOM     16  C   UNL     1      19.467  -7.060   6.035  1.00  0.00    -0.000 C 
BRANCH  16  17
ATOM     17  C   UNL     1      19.036  -7.765   7.333  1.00  0.00    -0.003 C 
ATOM     18  C   UNL     1      18.655  -6.790   8.445  1.00  0.00     0.004 C 
ENDBRANCH  16  17
ENDBRANCH  15  16
ENDBRANCH  14  15
ENDBRANCH  13  14
ENDBRANCH  12  13
ENDBRANCH  11  12
ENDBRANCH   1  11
TORSDOF 14
ENDMDL
MODEL 8
REMARK VINA RESULT:    -3.273      2.177      2.635
REMARK INTER + INTRA:          -6.942
REMARK INTER:                  -6.324
REMARK INTRA:                  -0.618
REMARK UNBOUND:                -0.990
REMARK SMILES CCCCCCCCCCCCCCCC(=O)[O-]
REMARK SMILES IDX 9 1 10 2 11 3 12 4 13 5 14 6 15 7 16 8 17 9 18 10 8 11 7 12
REMARK SMILES IDX 6 13 5 14 4 15 3 16 2 17 1 18
REMARK H PARENT
REMARK Flexibility Score: inf
ROOT
ATOM      1  C   UNL     1      14.144  -8.257   6.733  1.00  0.00     0.000 C 
ENDROOT
BRANCH   1   2
ATOM      2  C   UNL     1      15.259  -7.509   5.984  1.00  0.00     0.000 C 
BRANCH   2   3
ATOM      3  C   UNL     1      16.455  -7.154   6.888  1.00  0.00     0.000 C 
BRANCH   3   4
ATOM      4  C   UNL     1      17.783  -7.854   6.532  1.00  0.00     0.000 C 
BRANCH   4   5
ATOM      5  C   UNL     1      19.028  -6.950   6.570  1.00  0.00     0.000 C 
BRANCH   5   6
ATOM      6  C   UNL     1      19.975  -7.190   5.382  1.00  0.00     0.006 C 
BRANCH   6   7
ATOM      7  C   UNL     1      19.880  -6.073   4.335  1.00  0.00     0.053 C 
BRANCH   7   8
ATOM      8  C   UNL     1      21.107  -5.212   4.333  1.00  0.00     0.041 C 
ATOM      9  O   UNL     1      22.249  -5.737   4.389  1.00  0.00    -0.550 OA
ATOM     10  O   UNL     1      20.985  -3.828   4.302  1.00  0.00    -0.550 OA
ENDBRANCH   7   8
ENDBRANCH   6   7
ENDBRANCH   5   6
ENDBRANCH   4   5
ENDBRANCH   3   4
ENDBRANCH   2   3
ENDBRANCH   1   2
BRANCH   1  11
ATOM     11  C   UNL     1      12.763  -8.095   6.071  1.00  0.00     0.000 C 
BRANCH  11  12
ATOM     12  C   UNL     1      12.630  -8.701   4.662  1.00  0.00    -0.000 C 
BRANCH  12  13
ATOM     13  C   UNL     1      11.242  -8.473   4.039  1.00  0.00    -0.000 C 
BRANCH  13  14
ATOM     14  C   UNL     1      10.378  -7.502   4.861  1.00  0.00    -0.000 C 
BRANCH  14  15
ATOM     15  C   UNL     1       8.946  -8.020   5.083  1.00  0.00    -0.000 C 
BRANCH  15  16
ATOM     16  C   UNL     1       8.854  -8.972   6.294  1.00  0.00    -0.000 C 
BRANCH  16  17
ATOM     17  C   UNL     1       7.435  -9.094   6.875  1.00  0.00    -0.003 C 
ATOM     18  C   UNL     1       7.424  -9.498   8.349  1.00  0.00     0.004 C 
ENDBRANCH  16  17
ENDBRANCH  15  16
ENDBRANCH  14  15
ENDBRANCH  13  14
ENDBRANCH  12  13
ENDBRANCH  11  12
ENDBRANCH   1  11
TORSDOF 14
ENDMDL
MODEL 9
REMARK VINA RESULT:    -3.162      3.969      9.142
REMARK INTER + INTRA:          -6.739
REMARK INTER:                  -5.640
REMARK INTRA:                  -1.099
REMARK UNBOUND:                -0.990
REMARK SMILES CCCCCCCCCCCCCCCC(=O)[O-]
REMARK SMILES IDX 9 1 10 2 11 3 12 4 13 5 14 6 15 7 16 8 17 9 18 10 8 11 7 12
REMARK SMILES IDX 6 13 5 14 4 15 3 16 2 17 1 18
REMARK H PARENT
REMARK Flexibility Score: inf
ROOT
ATOM      1  C   UNL     1      11.384  -7.462   5.195  1.00  0.00     0.000 C 
ENDROOT
BRANCH   1   2
ATOM      2  C   UNL     1      10.059  -7.948   4.587  1.00  0.00     0.000 C 
BRANCH   2   3
ATOM      3  C   UNL     1       9.089  -6.796   4.265  1.00  0.00     0.000 C 
BRANCH   3   4
ATOM      4  C   UNL     1       7.607  -7.200   4.117  1.00  0.00     0.000 C 
BRANCH   4   5
ATOM      5  C   UNL     1       6.692  -6.764   5.275  1.00  0.00     0.000 C 
BRANCH   5   6
ATOM      6  C   UNL     1       5.939  -7.943   5.915  1.00  0.00     0.006 C 
BRANCH   6   7
ATOM      7  C   UNL     1       6.834  -9.178   6.078  1.00  0.00     0.053 C 
BRANCH   7   8
ATOM      8  C   UNL     1       7.686  -9.084   7.307  1.00  0.00     0.041 C 
ATOM      9  O   UNL     1       7.341  -8.342   8.262  1.00  0.00    -0.550 OA
ATOM     10  O   UNL     1       8.880  -9.792   7.381  1.00  0.00    -0.550 OA
ENDBRANCH   7   8
ENDBRANCH   6   7
ENDBRANCH   5   6
ENDBRANCH   4   5
ENDBRANCH   3   4
ENDBRANCH   2   3
ENDBRANCH   1   2
BRANCH   1  11
ATOM     11  C   UNL     1      12.527  -7.388   4.164  1.00  0.00     0.000 C 
BRANCH  11  12
ATOM     12  C   UNL     1      13.949  -7.493   4.745  1.00  0.00    -0.000 C 
BRANCH  12  13
ATOM     13  C   UNL     1      14.022  -8.389   5.993  1.00  0.00    -0.000 C 
BRANCH  13  14
ATOM     14  C   UNL     1      15.072  -7.905   7.007  1.00  0.00    -0.000 C 
BRANCH  14  15
ATOM     15  C   UNL     1      16.091  -6.929   6.390  1.00  0.00    -0.000 C 
BRANCH  15  16
ATOM     16  C   UNL     1      17.545  -7.305   6.748  1.00  0.00    -0.000 C 
BRANCH  16  17
ATOM     17  C   UNL     1      18.485  -7.353   5.532  1.00  0.00    -0.003 C 
ATOM     18  C   UNL     1      17.772  -7.739   4.238  1.00  0.00     0.004 C 
ENDBRANCH  16  17
ENDBRANCH  15  16
ENDBRANCH  14  15
ENDBRANCH  13  14
ENDBRANCH  12  13
ENDBRANCH  11  12
ENDBRANCH   1  11
TORSDOF 14
ENDMDL
