MODEL 1
REMARK VINA RESULT:    -3.523      0.000      0.000
REMARK INTER + INTRA:          -4.809
REMARK INTER:                  -4.965
REMARK INTRA:                   0.155
REMARK UNBOUND:                 0.155
REMARK SMILES CC1=CCC(=C(C)C)C(=O)CC(C)=CCC1
REMARK SMILES IDX 12 1 14 2 13 3 15 4 16 5 2 6 1 7 3 8 11 10 9 11 10 12 5 13
REMARK SMILES IDX 6 14 7 15 8 16 4 17
REMARK H PARENT
REMARK Flexibility Score: 60.00
ROOT
ATOM      1  C   UNL     1      28.829  41.725 143.212  1.00  0.00    -0.070 C 
ATOM      2  C   UNL     1      28.364  40.462 143.337  1.00  0.00    -0.027 C 
ATOM      3  C   UNL     1      30.080  42.095 143.969  1.00  0.00     0.039 C 
ENDROOT
BRANCH   2   4
ATOM      4  C   UNL     1      27.080  39.929 142.738  1.00  0.00     0.032 C 
BRANCH   4   5
ATOM      5  C   UNL     1      25.807  40.246 143.550  1.00  0.00     0.034 C 
BRANCH   5   6
ATOM      6  C   UNL     1      24.666  40.764 142.693  1.00  0.00    -0.077 C 
ATOM      7  C   UNL     1      24.035  39.808 141.712  1.00  0.00     0.039 C 
ATOM      8  C   UNL     1      24.226  42.046 142.702  1.00  0.00    -0.023 CG0
ATOM      9  G   UNL     1      24.693  43.168 143.608  1.00  0.00     0.000 G0
ENDBRANCH   5   6
ENDBRANCH   4   5
ENDBRANCH   2   4
BRANCH   1  10
ATOM     10  C   UNL     1      28.107  42.802 142.429  1.00  0.00     0.111 C 
BRANCH  10  11
ATOM     11  C   UNL     1      27.221  43.636 143.318  1.00  0.00     0.163 C 
ATOM     12  O   UNL     1      27.676  43.996 144.438  1.00  0.00    -0.294 OA
BRANCH  11  13
ATOM     13  C   UNL     1      25.819  43.991 142.948  1.00  0.00    -0.002 C 
ATOM     14  C   UNL     1      25.561  45.053 142.127  1.00  0.00    -0.069 C 
ATOM     15  C   UNL     1      26.681  45.806 141.442  1.00  0.00     0.039 C 
ATOM     16  C   UNL     1      24.151  45.534 141.860  1.00  0.00     0.039 C 
BRANCH  13  17
ATOM     17  C   UNL     1      24.704  43.185 143.595  1.00  0.00     0.066 CG0
ATOM     18  G   UNL     1      24.210  42.064 142.702  1.00  0.00     0.000 G0
ENDBRANCH  13  17
ENDBRANCH  11  13
ENDBRANCH  10  11
ENDBRANCH   1  10
TORSDOF 0
ENDMDL
MODEL 2
REMARK VINA RESULT:    -3.502     11.632     12.972
REMARK INTER + INTRA:          -4.779
REMARK INTER:                  -4.995
REMARK INTRA:                   0.216
REMARK UNBOUND:                 0.155
REMARK SMILES CC1=CCC(=C(C)C)C(=O)CC(C)=CCC1
REMARK SMILES IDX 12 1 14 2 13 3 15 4 16 5 2 6 1 7 3 8 11 10 9 11 10 12 5 13
REMARK SMILES IDX 6 14 7 15 8 16 4 17
REMARK H PARENT
REMARK Flexibility Score: 60.00
ROOT
ATOM      1  C   UNL     1      24.789  30.783 138.957  1.00  0.00    -0.070 C 
ATOM      2  C   UNL     1      25.894  30.904 138.188  1.00  0.00    -0.027 C 
ATOM      3  C   UNL     1      23.572  31.589 138.576  1.00  0.00     0.039 C 
ENDROOT
BRANCH   2   4
ATOM      4  C   UNL     1      27.235  30.257 138.461  1.00  0.00     0.032 C 
BRANCH   4   5
ATOM      5  C   UNL     1      28.144  31.035 139.434  1.00  0.00     0.034 C 
BRANCH   5   6
ATOM      6  C   UNL     1      28.616  30.199 140.610  1.00  0.00    -0.077 C 
ATOM      7  C   UNL     1      29.663  29.146 140.345  1.00  0.00     0.039 C 
ATOM      8  C   UNL     1      28.109  30.288 141.863  1.00  0.00    -0.023 CG0
ATOM      9  G   UNL     1      27.073  31.275 142.363  1.00  0.00     0.000 G0
ENDBRANCH   5   6
ENDBRANCH   4   5
ENDBRANCH   2   4
BRANCH   1  10
ATOM     10  C   UNL     1      24.746  29.957 140.226  1.00  0.00     0.111 C 
BRANCH  10  11
ATOM     11  C   UNL     1      24.703  30.828 141.455  1.00  0.00     0.163 C 
ATOM     12  O   UNL     1      23.836  31.742 141.504  1.00  0.00    -0.294 OA
BRANCH  11  13
ATOM     13  C   UNL     1      25.682  30.686 142.572  1.00  0.00    -0.002 C 
ATOM     14  C   UNL     1      25.315  30.106 143.754  1.00  0.00    -0.069 C 
ATOM     15  C   UNL     1      23.962  29.448 143.918  1.00  0.00     0.039 C 
ATOM     16  C   UNL     1      26.233  30.088 144.957  1.00  0.00     0.039 C 
BRANCH  13  17
ATOM     17  C   UNL     1      27.060  31.297 142.371  1.00  0.00     0.066 CG0
ATOM     18  G   UNL     1      28.072  30.283 141.875  1.00  0.00     0.000 G0
ENDBRANCH  13  17
ENDBRANCH  11  13
ENDBRANCH  10  11
ENDBRANCH   1  10
TORSDOF 0
ENDMDL
MODEL 3
REMARK VINA RESULT:    -3.471      9.704     12.185
REMARK INTER + INTRA:          -4.736
REMARK INTER:                  -5.032
REMARK INTRA:                   0.297
REMARK UNBOUND:                 0.155
REMARK SMILES CC1=CCC(=C(C)C)C(=O)CC(C)=CCC1
REMARK SMILES IDX 12 1 14 2 13 3 15 4 16 5 2 6 1 7 3 8 11 10 9 11 10 12 5 13
REMARK SMILES IDX 6 14 7 15 8 16 4 17
REMARK H PARENT
REMARK Flexibility Score: 60.00
ROOT
ATOM      1  C   UNL     1      27.816  31.522 137.193  1.00  0.00    -0.070 C 
ATOM      2  C   UNL     1      27.974  32.859 137.314  1.00  0.00    -0.027 C 
ATOM      3  C   UNL     1      28.618  30.810 136.132  1.00  0.00     0.039 C 
ENDROOT
BRANCH   2   4
ATOM      4  C   UNL     1      27.193  33.760 138.246  1.00  0.00     0.032 C 
BRANCH   4   5
ATOM      5  C   UNL     1      27.750  33.844 139.682  1.00  0.00     0.034 C 
BRANCH   5   6
ATOM      6  C   UNL     1      26.669  33.788 140.746  1.00  0.00    -0.077 C 
ATOM      7  C   UNL     1      25.791  35.003 140.919  1.00  0.00     0.039 C 
ATOM      8  C   UNL     1      26.487  32.748 141.596  1.00  0.00    -0.023 CG0
ATOM      9  G   UNL     1      27.230  31.427 141.598  1.00  0.00     0.000 G0
ENDBRANCH   5   6
ENDBRANCH   4   5
ENDBRANCH   2   4
BRANCH   1  10
ATOM     10  C   UNL     1      26.813  30.727 138.002  1.00  0.00     0.111 C 
BRANCH  10  11
ATOM     11  C   UNL     1      27.397  30.266 139.313  1.00  0.00     0.163 C 
ATOM     12  O   UNL     1      28.518  29.691 139.293  1.00  0.00    -0.294 OA
BRANCH  11  13
ATOM     13  C   UNL     1      26.670  30.410 140.609  1.00  0.00    -0.002 C 
ATOM     14  C   UNL     1      25.506  29.732 140.836  1.00  0.00    -0.069 C 
ATOM     15  C   UNL     1      24.996  28.698 139.856  1.00  0.00     0.039 C 
ATOM     16  C   UNL     1      24.665  29.975 142.071  1.00  0.00     0.039 C 
BRANCH  13  17
ATOM     17  C   UNL     1      27.229  31.406 141.613  1.00  0.00     0.066 CG0
ATOM     18  G   UNL     1      26.494  32.732 141.578  1.00  0.00     0.000 G0
ENDBRANCH  13  17
ENDBRANCH  11  13
ENDBRANCH  10  11
ENDBRANCH   1  10
TORSDOF 0
ENDMDL
MODEL 4
REMARK VINA RESULT:    -3.421      2.368      4.118
REMARK INTER + INTRA:          -4.665
REMARK INTER:                  -5.049
REMARK INTRA:                   0.384
REMARK UNBOUND:                 0.155
REMARK SMILES CC1=CCC(=C(C)C)C(=O)CC(C)=CCC1
REMARK SMILES IDX 12 1 14 2 13 3 15 4 16 5 2 6 1 7 3 8 11 10 9 11 10 12 5 13
REMARK SMILES IDX 6 14 7 15 8 16 4 17
REMARK H PARENT
REMARK Flexibility Score: 60.00
ROOT
ATOM      1  C   UNL     1      27.297  44.341 142.872  1.00  0.00    -0.070 C 
ATOM      2  C   UNL     1      28.581  44.112 143.227  1.00  0.00    -0.027 C 
ATOM      3  C   UNL     1      27.036  45.352 141.784  1.00  0.00     0.039 C 
ENDROOT
BRANCH   2   4
ATOM      4  C   UNL     1      29.038  43.213 144.355  1.00  0.00     0.032 C 
BRANCH   4   5
ATOM      5  C   UNL     1      29.310  41.750 143.948  1.00  0.00     0.034 C 
BRANCH   5   6
ATOM      6  C   UNL     1      29.474  41.568 142.449  1.00  0.00    -0.077 C 
ATOM      7  C   UNL     1      30.840  41.814 141.858  1.00  0.00     0.039 C 
ATOM      8  C   UNL     1      28.461  41.268 141.601  1.00  0.00    -0.023 CG0
ATOM      9  G   UNL     1      27.022  40.962 141.966  1.00  0.00     0.000 G0
ENDBRANCH   5   6
ENDBRANCH   4   5
ENDBRANCH   2   4
BRANCH   1  10
ATOM     10  C   UNL     1      26.115  43.704 143.572  1.00  0.00     0.111 C 
BRANCH  10  11
ATOM     11  C   UNL     1      25.362  42.774 142.656  1.00  0.00     0.163 C 
ATOM     12  O   UNL     1      24.132  42.598 142.870  1.00  0.00    -0.294 OA
BRANCH  11  13
ATOM     13  C   UNL     1      26.030  42.015 141.557  1.00  0.00    -0.002 C 
ATOM     14  C   UNL     1      25.698  42.240 140.251  1.00  0.00    -0.069 C 
ATOM     15  C   UNL     1      24.764  43.365 139.860  1.00  0.00     0.039 C 
ATOM     16  C   UNL     1      26.240  41.381 139.128  1.00  0.00     0.039 C 
BRANCH  13  17
ATOM     17  C   UNL     1      27.015  40.929 141.961  1.00  0.00     0.066 CG0
ATOM     18  G   UNL     1      28.444  41.286 141.604  1.00  0.00     0.000 G0
ENDBRANCH  13  17
ENDBRANCH  11  13
ENDBRANCH  10  11
ENDBRANCH   1  10
TORSDOF 0
ENDMDL
MODEL 5
REMARK VINA RESULT:    -3.372     10.529     12.456
REMARK INTER + INTRA:          -4.597
REMARK INTER:                  -4.749
REMARK INTRA:                   0.152
REMARK UNBOUND:                 0.155
REMARK SMILES CC1=CCC(=C(C)C)C(=O)CC(C)=CCC1
REMARK SMILES IDX 12 1 14 2 13 3 15 4 16 5 2 6 1 7 3 8 11 10 9 11 10 12 5 13
REMARK SMILES IDX 6 14 7 15 8 16 4 17
REMARK H PARENT
REMARK Flexibility Score: 60.00
ROOT
ATOM      1  C   UNL     1      28.676  30.145 142.339  1.00  0.00    -0.070 C 
ATOM      2  C   UNL     1      29.399  29.522 141.383  1.00  0.00    -0.027 C 
ATOM      3  C   UNL     1      28.780  29.628 143.752  1.00  0.00     0.039 C 
ENDROOT
BRANCH   2   4
ATOM      4  C   UNL     1      29.356  29.828 139.901  1.00  0.00     0.032 C 
BRANCH   4   5
ATOM      5  C   UNL     1      28.191  29.165 139.137  1.00  0.00     0.034 C 
BRANCH   5   6
ATOM      6  C   UNL     1      27.403  30.143 138.284  1.00  0.00    -0.077 C 
ATOM      7  C   UNL     1      28.081  30.716 137.064  1.00  0.00     0.039 C 
ATOM      8  C   UNL     1      26.159  30.588 138.585  1.00  0.00    -0.023 CG0
ATOM      9  G   UNL     1      25.282  30.144 139.739  1.00  0.00     0.000 G0
ENDBRANCH   5   6
ENDBRANCH   4   5
ENDBRANCH   2   4
BRANCH   1  10
ATOM     10  C   UNL     1      27.703  31.268 142.045  1.00  0.00     0.111 C 
BRANCH  10  11
ATOM     11  C   UNL     1      26.279  30.776 142.017  1.00  0.00     0.163 C 
ATOM     12  O   UNL     1      25.900  30.006 142.941  1.00  0.00    -0.294 OA
BRANCH  11  13
ATOM     13  C   UNL     1      25.335  31.115 140.912  1.00  0.00    -0.002 C 
ATOM     14  C   UNL     1      24.516  32.206 141.003  1.00  0.00    -0.069 C 
ATOM     15  C   UNL     1      24.645  33.192 142.144  1.00  0.00     0.039 C 
ATOM     16  C   UNL     1      23.441  32.488 139.975  1.00  0.00     0.039 C 
BRANCH  13  17
ATOM     17  C   UNL     1      25.260  30.150 139.740  1.00  0.00     0.066 CG0
ATOM     18  G   UNL     1      26.149  30.573 138.587  1.00  0.00     0.000 G0
ENDBRANCH  13  17
ENDBRANCH  11  13
ENDBRANCH  10  11
ENDBRANCH   1  10
TORSDOF 0
ENDMDL
MODEL 6
REMARK VINA RESULT:    -3.360     10.502     11.864
REMARK INTER + INTRA:          -4.580
REMARK INTER:                  -4.979
REMARK INTRA:                   0.399
REMARK UNBOUND:                 0.155
REMARK SMILES CC1=CCC(=C(C)C)C(=O)CC(C)=CCC1
REMARK SMILES IDX 12 1 14 2 13 3 15 4 16 5 2 6 1 7 3 8 11 10 9 11 10 12 5 13
REMARK SMILES IDX 6 14 7 15 8 16 4 17
REMARK H PARENT
REMARK Flexibility Score: 60.00
ROOT
ATOM      1  C   UNL     1      27.837  30.563 137.815  1.00  0.00    -0.070 C 
ATOM      2  C   UNL     1      28.670  30.106 138.776  1.00  0.00    -0.027 C 
ATOM      3  C   UNL     1      28.452  31.129 136.559  1.00  0.00     0.039 C 
ENDROOT
BRANCH   2   4
ATOM      4  C   UNL     1      28.251  29.594 140.137  1.00  0.00     0.032 C 
BRANCH   4   5
ATOM      5  C   UNL     1      28.734  30.449 141.327  1.00  0.00     0.034 C 
BRANCH   5   6
ATOM      6  C   UNL     1      28.494  31.935 141.132  1.00  0.00    -0.077 C 
ATOM      7  C   UNL     1      29.702  32.835 141.047  1.00  0.00     0.039 C 
ATOM      8  C   UNL     1      27.270  32.514 141.101  1.00  0.00    -0.023 CG0
ATOM      9  G   UNL     1      25.926  31.814 141.150  1.00  0.00     0.000 G0
ENDBRANCH   5   6
ENDBRANCH   4   5
ENDBRANCH   2   4
BRANCH   1  10
ATOM     10  C   UNL     1      26.332  30.619 137.976  1.00  0.00     0.111 C 
BRANCH  10  11
ATOM     11  C   UNL     1      25.886  31.928 138.576  1.00  0.00     0.163 C 
ATOM     12  O   UNL     1      26.226  32.993 137.994  1.00  0.00    -0.294 OA
BRANCH  11  13
ATOM     13  C   UNL     1      25.120  32.004 139.855  1.00  0.00    -0.002 C 
ATOM     14  C   UNL     1      23.788  32.311 139.854  1.00  0.00    -0.069 C 
ATOM     15  C   UNL     1      23.011  32.429 138.561  1.00  0.00     0.039 C 
ATOM     16  C   UNL     1      23.021  32.550 141.137  1.00  0.00     0.039 C 
BRANCH  13  17
ATOM     17  C   UNL     1      25.902  31.820 141.146  1.00  0.00     0.066 CG0
ATOM     18  G   UNL     1      27.261  32.489 141.096  1.00  0.00     0.000 G0
ENDBRANCH  13  17
ENDBRANCH  11  13
ENDBRANCH  10  11
ENDBRANCH   1  10
TORSDOF 0
ENDMDL
MODEL 7
REMARK VINA RESULT:    -3.340      2.162      4.102
REMARK INTER + INTRA:          -4.551
REMARK INTER:                  -4.757
REMARK INTRA:                   0.206
REMARK UNBOUND:                 0.155
REMARK SMILES CC1=CCC(=C(C)C)C(=O)CC(C)=CCC1
REMARK SMILES IDX 12 1 14 2 13 3 15 4 16 5 2 6 1 7 3 8 11 10 9 11 10 12 5 13
REMARK SMILES IDX 6 14 7 15 8 16 4 17
REMARK H PARENT
REMARK Flexibility Score: 60.00
ROOT
ATOM      1  C   UNL     1      28.778  42.073 143.940  1.00  0.00    -0.070 C 
ATOM      2  C   UNL     1      28.511  43.373 144.195  1.00  0.00    -0.027 C 
ATOM      3  C   UNL     1      30.163  41.562 144.251  1.00  0.00     0.039 C 
ENDROOT
BRANCH   2   4
ATOM      4  C   UNL     1      27.221  44.091 143.864  1.00  0.00     0.032 C 
BRANCH   4   5
ATOM      5  C   UNL     1      27.019  44.403 142.367  1.00  0.00     0.034 C 
BRANCH   5   6
ATOM      6  C   UNL     1      25.643  44.014 141.856  1.00  0.00    -0.077 C 
ATOM      7  C   UNL     1      24.446  44.679 142.488  1.00  0.00     0.039 C 
ATOM      8  C   UNL     1      25.418  43.059 140.921  1.00  0.00    -0.023 CG0
ATOM      9  G   UNL     1      26.458  42.277 140.143  1.00  0.00     0.000 G0
ENDBRANCH   5   6
ENDBRANCH   4   5
ENDBRANCH   2   4
BRANCH   1  10
ATOM     10  C   UNL     1      27.790  41.137 143.275  1.00  0.00     0.111 C 
BRANCH  10  11
ATOM     11  C   UNL     1      28.009  41.065 141.786  1.00  0.00     0.163 C 
ATOM     12  O   UNL     1      29.192  41.131 141.356  1.00  0.00    -0.294 OA
BRANCH  11  13
ATOM     13  C   UNL     1      26.880  40.984 140.813  1.00  0.00    -0.002 C 
ATOM     14  C   UNL     1      26.314  39.780 140.498  1.00  0.00    -0.069 C 
ATOM     15  C   UNL     1      26.700  38.515 141.234  1.00  0.00     0.039 C 
ATOM     16  C   UNL     1      25.278  39.644 139.403  1.00  0.00     0.039 C 
BRANCH  13  17
ATOM     17  C   UNL     1      26.459  42.274 140.126  1.00  0.00     0.066 CG0
ATOM     18  G   UNL     1      25.432  43.045 140.931  1.00  0.00     0.000 G0
ENDBRANCH  13  17
ENDBRANCH  11  13
ENDBRANCH  10  11
ENDBRANCH   1  10
TORSDOF 0
ENDMDL
MODEL 8
REMARK VINA RESULT:    -3.305     10.159     12.628
REMARK INTER + INTRA:          -4.502
REMARK INTER:                  -4.718
REMARK INTRA:                   0.216
REMARK UNBOUND:                 0.155
REMARK SMILES CC1=CCC(=C(C)C)C(=O)CC(C)=CCC1
REMARK SMILES IDX 12 1 14 2 13 3 15 4 16 5 2 6 1 7 3 8 11 10 9 11 10 12 5 13
REMARK SMILES IDX 6 14 7 15 8 16 4 17
REMARK H PARENT
REMARK Flexibility Score: 60.00
ROOT
ATOM      1  C   UNL     1      36.886  42.751 145.473  1.00  0.00    -0.070 C 
ATOM      2  C   UNL     1      38.087  43.309 145.742  1.00  0.00    -0.027 C 
ATOM      3  C   UNL     1      36.129  42.119 146.615  1.00  0.00     0.039 C 
ENDROOT
BRANCH   2   4
ATOM      4  C   UNL     1      39.034  43.902 144.722  1.00  0.00     0.032 C 
BRANCH   4   5
ATOM      5  C   UNL     1      40.098  42.925 144.181  1.00  0.00     0.034 C 
BRANCH   5   6
ATOM      6  C   UNL     1      40.268  43.000 142.674  1.00  0.00    -0.077 C 
ATOM      7  C   UNL     1      41.071  44.148 142.115  1.00  0.00     0.039 C 
ATOM      8  C   UNL     1      39.688  42.146 141.796  1.00  0.00    -0.023 CG0
ATOM      9  G   UNL     1      38.861  40.919 142.124  1.00  0.00     0.000 G0
ENDBRANCH   5   6
ENDBRANCH   4   5
ENDBRANCH   2   4
BRANCH   1  10
ATOM     10  C   UNL     1      36.311  42.648 144.075  1.00  0.00     0.111 C 
BRANCH  10  11
ATOM     11  C   UNL     1      36.661  41.334 143.426  1.00  0.00     0.163 C 
ATOM     12  O   UNL     1      36.402  40.274 144.057  1.00  0.00    -0.294 OA
BRANCH  11  13
ATOM     13  C   UNL     1      37.352  41.250 142.106  1.00  0.00    -0.002 C 
ATOM     14  C   UNL     1      36.650  41.379 140.940  1.00  0.00    -0.069 C 
ATOM     15  C   UNL     1      35.187  41.765 140.944  1.00  0.00     0.039 C 
ATOM     16  C   UNL     1      37.291  41.143 139.589  1.00  0.00     0.039 C 
BRANCH  13  17
ATOM     17  C   UNL     1      38.837  40.924 142.118  1.00  0.00     0.066 CG0
ATOM     18  G   UNL     1      39.695  42.133 141.797  1.00  0.00     0.000 G0
ENDBRANCH  13  17
ENDBRANCH  11  13
ENDBRANCH  10  11
ENDBRANCH   1  10
TORSDOF 0
ENDMDL
MODEL 9
REMARK VINA RESULT:    -3.107      9.896     11.838
REMARK INTER + INTRA:          -4.224
REMARK INTER:                  -4.346
REMARK INTRA:                   0.123
REMARK UNBOUND:                 0.155
REMARK SMILES CC1=CCC(=C(C)C)C(=O)CC(C)=CCC1
REMARK SMILES IDX 12 1 14 2 13 3 15 4 16 5 2 6 1 7 3 8 11 10 9 11 10 12 5 13
REMARK SMILES IDX 6 14 7 15 8 16 4 17
REMARK H PARENT
REMARK Flexibility Score: 60.00
ROOT
ATOM      1  C   UNL     1      28.538  30.073 140.217  1.00  0.00    -0.070 C 
ATOM      2  C   UNL     1      27.784  29.574 139.213  1.00  0.00    -0.027 C 
ATOM      3  C   UNL     1      29.759  29.293 140.638  1.00  0.00     0.039 C 
ENDROOT
BRANCH   2   4
ATOM      4  C   UNL     1      26.478  30.155 138.715  1.00  0.00     0.032 C 
BRANCH   4   5
ATOM      5  C   UNL     1      25.228  29.700 139.495  1.00  0.00     0.034 C 
BRANCH   5   6
ATOM      6  C   UNL     1      24.308  30.847 139.872  1.00  0.00    -0.077 C 
ATOM      7  C   UNL     1      23.512  31.499 138.768  1.00  0.00     0.039 C 
ATOM      8  C   UNL     1      24.208  31.369 141.118  1.00  0.00    -0.023 CG0
ATOM      9  G   UNL     1      24.891  30.870 142.376  1.00  0.00     0.000 G0
ENDBRANCH   5   6
ENDBRANCH   4   5
ENDBRANCH   2   4
BRANCH   1  10
ATOM     10  C   UNL     1      28.167  31.319 140.995  1.00  0.00     0.111 C 
BRANCH  10  11
ATOM     11  C   UNL     1      27.462  30.980 142.283  1.00  0.00     0.163 C 
ATOM     12  O   UNL     1      27.957  30.076 143.009  1.00  0.00    -0.294 OA
BRANCH  11  13
ATOM     13  C   UNL     1      26.180  31.627 142.690  1.00  0.00    -0.002 C 
ATOM     14  C   UNL     1      26.181  32.806 143.382  1.00  0.00    -0.069 C 
ATOM     15  C   UNL     1      27.463  33.573 143.622  1.00  0.00     0.039 C 
ATOM     16  C   UNL     1      24.910  33.405 143.944  1.00  0.00     0.039 C 
BRANCH  13  17
ATOM     17  C   UNL     1      24.894  30.875 142.386  1.00  0.00     0.066 CG0
ATOM     18  G   UNL     1      24.218  31.375 141.125  1.00  0.00     0.000 G0
ENDBRANCH  13  17
ENDBRANCH  11  13
ENDBRANCH  10  11
ENDBRANCH   1  10
TORSDOF 0
ENDMDL
