MODEL 1
REMARK VINA RESULT:    -3.663      0.000      0.000
REMARK INTER + INTRA:          -8.607
REMARK INTER:                  -6.447
REMARK INTRA:                  -2.161
REMARK UNBOUND:                -2.161
REMARK SMILES CCCCCCCCCCCCCCC(=O)[O-]
REMARK SMILES IDX 9 1 10 2 11 3 12 4 13 5 14 6 15 7 16 8 17 9 8 10 7 11 6 12
REMARK SMILES IDX 5 13 4 14 3 15 2 16 1 17
REMARK H PARENT
REMARK Flexibility Score: inf
ROOT
ATOM      1  C   UNL     1      29.123  -1.635   9.617  1.00  0.00     0.000 C 
ENDROOT
BRANCH   1   2
ATOM      2  C   UNL     1      28.791  -1.701   8.115  1.00  0.00     0.000 C 
BRANCH   2   3
ATOM      3  C   UNL     1      28.245  -3.055   7.626  1.00  0.00     0.000 C 
BRANCH   3   4
ATOM      4  C   UNL     1      26.736  -3.020   7.325  1.00  0.00     0.000 C 
BRANCH   4   5
ATOM      5  C   UNL     1      26.434  -2.931   5.817  1.00  0.00     0.006 C 
BRANCH   5   6
ATOM      6  C   UNL     1      27.666  -3.084   4.913  1.00  0.00     0.053 C 
BRANCH   6   7
ATOM      7  C   UNL     1      27.661  -4.385   4.171  1.00  0.00     0.041 C 
ATOM      8  O   UNL     1      27.530  -4.401   2.918  1.00  0.00    -0.550 OA
ATOM      9  O   UNL     1      27.769  -5.582   4.866  1.00  0.00    -0.550 OA
ENDBRANCH   6   7
ENDBRANCH   5   6
ENDBRANCH   4   5
ENDBRANCH   3   4
ENDBRANCH   2   3
ENDBRANCH   1   2
BRANCH   1  10
ATOM     10  C   UNL     1      28.340  -0.534  10.355  1.00  0.00     0.000 C 
BRANCH  10  11
ATOM     11  C   UNL     1      26.910  -0.969  10.712  1.00  0.00    -0.000 C 
BRANCH  11  12
ATOM     12  C   UNL     1      25.875   0.142  10.455  1.00  0.00    -0.000 C 
BRANCH  12  13
ATOM     13  C   UNL     1      26.047   0.797   9.075  1.00  0.00    -0.000 C 
BRANCH  13  14
ATOM     14  C   UNL     1      25.059   0.243   8.033  1.00  0.00    -0.000 C 
BRANCH  14  15
ATOM     15  C   UNL     1      25.498   0.535   6.589  1.00  0.00    -0.000 C 
BRANCH  15  16
ATOM     16  C   UNL     1      26.813   1.324   6.522  1.00  0.00    -0.003 C 
ATOM     17  C   UNL     1      27.769   0.711   5.501  1.00  0.00     0.004 C 
ENDBRANCH  15  16
ENDBRANCH  14  15
ENDBRANCH  13  14
ENDBRANCH  12  13
ENDBRANCH  11  12
ENDBRANCH  10  11
ENDBRANCH   1  10
TORSDOF 13
ENDMDL
MODEL 2
REMARK VINA RESULT:    -3.587     10.496     11.970
REMARK INTER + INTRA:          -8.474
REMARK INTER:                  -6.570
REMARK INTRA:                  -1.903
REMARK UNBOUND:                -2.161
REMARK SMILES CCCCCCCCCCCCCCC(=O)[O-]
REMARK SMILES IDX 9 1 10 2 11 3 12 4 13 5 14 6 15 7 16 8 17 9 8 10 7 11 6 12
REMARK SMILES IDX 5 13 4 14 3 15 2 16 1 17
REMARK H PARENT
REMARK Flexibility Score: inf
ROOT
ATOM      1  C   UNL     1      24.548  -3.133  16.961  1.00  0.00     0.000 C 
ENDROOT
BRANCH   1   2
ATOM      2  C   UNL     1      25.379  -4.423  16.835  1.00  0.00     0.000 C 
BRANCH   2   3
ATOM      3  C   UNL     1      25.503  -5.248  18.129  1.00  0.00     0.000 C 
BRANCH   3   4
ATOM      4  C   UNL     1      25.545  -6.765  17.872  1.00  0.00     0.000 C 
BRANCH   4   5
ATOM      5  C   UNL     1      24.918  -7.155  16.521  1.00  0.00     0.006 C 
BRANCH   5   6
ATOM      6  C   UNL     1      23.899  -8.303  16.602  1.00  0.00     0.053 C 
BRANCH   6   7
ATOM      7  C   UNL     1      24.534  -9.636  16.343  1.00  0.00     0.041 C 
ATOM      8  O   UNL     1      24.837  -9.977  15.170  1.00  0.00    -0.550 OA
ATOM      9  O   UNL     1      24.763 -10.512  17.395  1.00  0.00    -0.550 OA
ENDBRANCH   6   7
ENDBRANCH   5   6
ENDBRANCH   4   5
ENDBRANCH   3   4
ENDBRANCH   2   3
ENDBRANCH   1   2
BRANCH   1  10
ATOM     10  C   UNL     1      25.073  -2.188  18.057  1.00  0.00     0.000 C 
BRANCH  10  11
ATOM     11  C   UNL     1      23.948  -1.645  18.953  1.00  0.00    -0.000 C 
BRANCH  11  12
ATOM     12  C   UNL     1      22.607  -1.527  18.208  1.00  0.00    -0.000 C 
BRANCH  12  13
ATOM     13  C   UNL     1      21.505  -2.393  18.839  1.00  0.00    -0.000 C 
BRANCH  13  14
ATOM     14  C   UNL     1      22.067  -3.649  19.529  1.00  0.00    -0.000 C 
BRANCH  14  15
ATOM     15  C   UNL     1      21.186  -4.889  19.308  1.00  0.00    -0.000 C 
BRANCH  15  16
ATOM     16  C   UNL     1      21.808  -5.885  18.318  1.00  0.00    -0.003 C 
ATOM     17  C   UNL     1      21.591  -5.434  16.876  1.00  0.00     0.004 C 
ENDBRANCH  15  16
ENDBRANCH  14  15
ENDBRANCH  13  14
ENDBRANCH  12  13
ENDBRANCH  11  12
ENDBRANCH  10  11
ENDBRANCH   1  10
TORSDOF 13
ENDMDL
MODEL 3
REMARK VINA RESULT:    -3.581      3.194      5.706
REMARK INTER + INTRA:          -8.463
REMARK INTER:                  -6.805
REMARK INTRA:                  -1.658
REMARK UNBOUND:                -2.161
REMARK SMILES CCCCCCCCCCCCCCC(=O)[O-]
REMARK SMILES IDX 9 1 10 2 11 3 12 4 13 5 14 6 15 7 16 8 17 9 8 10 7 11 6 12
REMARK SMILES IDX 5 13 4 14 3 15 2 16 1 17
REMARK H PARENT
REMARK Flexibility Score: inf
ROOT
ATOM      1  C   UNL     1      28.243  -3.801   8.035  1.00  0.00     0.000 C 
ENDROOT
BRANCH   1   2
ATOM      2  C   UNL     1      29.062  -2.497   8.048  1.00  0.00     0.000 C 
BRANCH   2   3
ATOM      3  C   UNL     1      28.238  -1.207   7.873  1.00  0.00     0.000 C 
BRANCH   3   4
ATOM      4  C   UNL     1      26.845  -1.463   7.272  1.00  0.00     0.000 C 
BRANCH   4   5
ATOM      5  C   UNL     1      26.515  -0.508   6.110  1.00  0.00     0.006 C 
BRANCH   5   6
ATOM      6  C   UNL     1      27.734   0.216   5.518  1.00  0.00     0.053 C 
BRANCH   6   7
ATOM      7  C   UNL     1      27.598   1.706   5.604  1.00  0.00     0.041 C 
ATOM      8  O   UNL     1      26.814   2.317   4.831  1.00  0.00    -0.550 OA
ATOM      9  O   UNL     1      28.360   2.422   6.517  1.00  0.00    -0.550 OA
ENDBRANCH   6   7
ENDBRANCH   5   6
ENDBRANCH   4   5
ENDBRANCH   3   4
ENDBRANCH   2   3
ENDBRANCH   1   2
BRANCH   1  10
ATOM     10  C   UNL     1      29.113  -5.051   7.814  1.00  0.00     0.000 C 
BRANCH  10  11
ATOM     11  C   UNL     1      28.450  -6.331   8.347  1.00  0.00    -0.000 C 
BRANCH  11  12
ATOM     12  C   UNL     1      27.912  -7.229   7.218  1.00  0.00    -0.000 C 
BRANCH  12  13
ATOM     13  C   UNL     1      28.460  -6.831   5.839  1.00  0.00    -0.000 C 
BRANCH  13  14
ATOM     14  C   UNL     1      27.342  -6.542   4.821  1.00  0.00    -0.000 C 
BRANCH  14  15
ATOM     15  C   UNL     1      26.260  -5.607   5.383  1.00  0.00    -0.000 C 
BRANCH  15  16
ATOM     16  C   UNL     1      26.400  -4.167   4.867  1.00  0.00    -0.003 C 
ATOM     17  C   UNL     1      27.693  -3.991   4.075  1.00  0.00     0.004 C 
ENDBRANCH  15  16
ENDBRANCH  14  15
ENDBRANCH  13  14
ENDBRANCH  12  13
ENDBRANCH  11  12
ENDBRANCH  10  11
ENDBRANCH   1  10
TORSDOF 13
ENDMDL
MODEL 4
REMARK VINA RESULT:    -3.550      1.315      3.218
REMARK INTER + INTRA:          -8.409
REMARK INTER:                  -6.567
REMARK INTRA:                  -1.842
REMARK UNBOUND:                -2.161
REMARK SMILES CCCCCCCCCCCCCCC(=O)[O-]
REMARK SMILES IDX 9 1 10 2 11 3 12 4 13 5 14 6 15 7 16 8 17 9 8 10 7 11 6 12
REMARK SMILES IDX 5 13 4 14 3 15 2 16 1 17
REMARK H PARENT
REMARK Flexibility Score: inf
ROOT
ATOM      1  C   UNL     1      27.548   0.892   5.290  1.00  0.00     0.000 C 
ENDROOT
BRANCH   1   2
ATOM      2  C   UNL     1      27.761  -0.140   6.413  1.00  0.00     0.000 C 
BRANCH   2   3
ATOM      3  C   UNL     1      26.902  -1.414   6.298  1.00  0.00     0.000 C 
BRANCH   3   4
ATOM      4  C   UNL     1      27.509  -2.615   7.044  1.00  0.00     0.000 C 
BRANCH   4   5
ATOM      5  C   UNL     1      28.107  -3.666   6.090  1.00  0.00     0.006 C 
BRANCH   5   6
ATOM      6  C   UNL     1      27.926  -3.345   4.598  1.00  0.00     0.053 C 
BRANCH   6   7
ATOM      7  C   UNL     1      27.070  -4.362   3.905  1.00  0.00     0.041 C 
ATOM      8  O   UNL     1      27.521  -5.005   2.920  1.00  0.00    -0.550 OA
ATOM      9  O   UNL     1      25.766  -4.576   4.327  1.00  0.00    -0.550 OA
ENDBRANCH   6   7
ENDBRANCH   5   6
ENDBRANCH   4   5
ENDBRANCH   3   4
ENDBRANCH   2   3
ENDBRANCH   1   2
BRANCH   1  10
ATOM     10  C   UNL     1      26.872   2.183   5.785  1.00  0.00     0.000 C 
BRANCH  10  11
ATOM     11  C   UNL     1      27.329   2.582   7.198  1.00  0.00    -0.000 C 
BRANCH  11  12
ATOM     12  C   UNL     1      26.147   2.801   8.159  1.00  0.00    -0.000 C 
BRANCH  12  13
ATOM     13  C   UNL     1      25.096   1.684   8.064  1.00  0.00    -0.000 C 
BRANCH  13  14
ATOM     14  C   UNL     1      24.827   1.012   9.422  1.00  0.00    -0.000 C 
BRANCH  14  15
ATOM     15  C   UNL     1      25.237  -0.470   9.439  1.00  0.00    -0.000 C 
BRANCH  15  16
ATOM     16  C   UNL     1      26.308  -0.773  10.497  1.00  0.00    -0.003 C 
ATOM     17  C   UNL     1      27.630  -0.095  10.149  1.00  0.00     0.004 C 
ENDBRANCH  15  16
ENDBRANCH  14  15
ENDBRANCH  13  14
ENDBRANCH  12  13
ENDBRANCH  11  12
ENDBRANCH  10  11
ENDBRANCH   1  10
TORSDOF 13
ENDMDL
MODEL 5
REMARK VINA RESULT:    -3.541      1.516      2.126
REMARK INTER + INTRA:          -8.393
REMARK INTER:                  -6.255
REMARK INTRA:                  -2.138
REMARK UNBOUND:                -2.161
REMARK SMILES CCCCCCCCCCCCCCC(=O)[O-]
REMARK SMILES IDX 9 1 10 2 11 3 12 4 13 5 14 6 15 7 16 8 17 9 8 10 7 11 6 12
REMARK SMILES IDX 5 13 4 14 3 15 2 16 1 17
REMARK H PARENT
REMARK Flexibility Score: inf
ROOT
ATOM      1  C   UNL     1      27.794  -0.025   9.864  1.00  0.00     0.000 C 
ENDROOT
BRANCH   1   2
ATOM      2  C   UNL     1      28.936  -0.585   8.995  1.00  0.00     0.000 C 
BRANCH   2   3
ATOM      3  C   UNL     1      29.125  -2.112   9.072  1.00  0.00     0.000 C 
BRANCH   3   4
ATOM      4  C   UNL     1      28.951  -2.807   7.711  1.00  0.00     0.000 C 
BRANCH   4   5
ATOM      5  C   UNL     1      27.964  -3.987   7.768  1.00  0.00     0.006 C 
BRANCH   5   6
ATOM      6  C   UNL     1      28.535  -5.319   7.255  1.00  0.00     0.053 C 
BRANCH   6   7
ATOM      7  C   UNL     1      27.657  -5.941   6.212  1.00  0.00     0.041 C 
ATOM      8  O   UNL     1      27.820  -5.659   4.996  1.00  0.00    -0.550 OA
ATOM      9  O   UNL     1      26.640  -6.808   6.587  1.00  0.00    -0.550 OA
ENDBRANCH   6   7
ENDBRANCH   5   6
ENDBRANCH   4   5
ENDBRANCH   3   4
ENDBRANCH   2   3
ENDBRANCH   1   2
BRANCH   1  10
ATOM     10  C   UNL     1      27.005  -1.124  10.596  1.00  0.00     0.000 C 
BRANCH  10  11
ATOM     11  C   UNL     1      25.490  -1.014  10.365  1.00  0.00    -0.000 C 
BRANCH  11  12
ATOM     12  C   UNL     1      25.145  -0.500   8.956  1.00  0.00    -0.000 C 
BRANCH  12  13
ATOM     13  C   UNL     1      25.070  -1.633   7.919  1.00  0.00    -0.000 C 
BRANCH  13  14
ATOM     14  C   UNL     1      25.798  -1.282   6.610  1.00  0.00    -0.000 C 
BRANCH  14  15
ATOM     15  C   UNL     1      26.238   0.190   6.554  1.00  0.00    -0.000 C 
BRANCH  15  16
ATOM     16  C   UNL     1      27.483   0.400   5.680  1.00  0.00    -0.003 C 
ATOM     17  C   UNL     1      28.020   1.822   5.822  1.00  0.00     0.004 C 
ENDBRANCH  15  16
ENDBRANCH  14  15
ENDBRANCH  13  14
ENDBRANCH  12  13
ENDBRANCH  11  12
ENDBRANCH  10  11
ENDBRANCH   1  10
TORSDOF 13
ENDMDL
MODEL 6
REMARK VINA RESULT:    -3.521      3.160      5.605
REMARK INTER + INTRA:          -8.358
REMARK INTER:                  -6.514
REMARK INTRA:                  -1.844
REMARK UNBOUND:                -2.161
REMARK SMILES CCCCCCCCCCCCCCC(=O)[O-]
REMARK SMILES IDX 9 1 10 2 11 3 12 4 13 5 14 6 15 7 16 8 17 9 8 10 7 11 6 12
REMARK SMILES IDX 5 13 4 14 3 15 2 16 1 17
REMARK H PARENT
REMARK Flexibility Score: inf
ROOT
ATOM      1  C   UNL     1      26.516   2.652   6.936  1.00  0.00     0.000 C 
ENDROOT
BRANCH   1   2
ATOM      2  C   UNL     1      26.271   2.498   8.448  1.00  0.00     0.000 C 
BRANCH   2   3
ATOM      3  C   UNL     1      24.803   2.259   8.850  1.00  0.00     0.000 C 
BRANCH   3   4
ATOM      4  C   UNL     1      24.357   0.800   8.649  1.00  0.00     0.000 C 
BRANCH   4   5
ATOM      5  C   UNL     1      23.727   0.556   7.265  1.00  0.00     0.006 C 
BRANCH   5   6
ATOM      6  C   UNL     1      22.197   0.413   7.279  1.00  0.00     0.053 C 
BRANCH   6   7
ATOM      7  C   UNL     1      21.675  -0.162   5.997  1.00  0.00     0.041 C 
ATOM      8  O   UNL     1      21.309   0.599   5.064  1.00  0.00    -0.550 OA
ATOM      9  O   UNL     1      21.565  -1.538   5.847  1.00  0.00    -0.550 OA
ENDBRANCH   6   7
ENDBRANCH   5   6
ENDBRANCH   4   5
ENDBRANCH   3   4
ENDBRANCH   2   3
ENDBRANCH   1   2
BRANCH   1  10
ATOM     10  C   UNL     1      27.933   2.225   6.514  1.00  0.00     0.000 C 
BRANCH  10  11
ATOM     11  C   UNL     1      27.922   1.075   5.494  1.00  0.00    -0.000 C 
BRANCH  11  12
ATOM     12  C   UNL     1      26.909  -0.025   5.859  1.00  0.00    -0.000 C 
BRANCH  12  13
ATOM     13  C   UNL     1      27.569  -1.224   6.557  1.00  0.00    -0.000 C 
BRANCH  13  14
ATOM     14  C   UNL     1      27.525  -1.110   8.091  1.00  0.00    -0.000 C 
BRANCH  14  15
ATOM     15  C   UNL     1      28.858  -0.629   8.687  1.00  0.00    -0.000 C 
BRANCH  15  16
ATOM     16  C   UNL     1      28.794  -0.453  10.211  1.00  0.00    -0.003 C 
ATOM     17  C   UNL     1      27.354  -0.262  10.681  1.00  0.00     0.004 C 
ENDBRANCH  15  16
ENDBRANCH  14  15
ENDBRANCH  13  14
ENDBRANCH  12  13
ENDBRANCH  11  12
ENDBRANCH  10  11
ENDBRANCH   1  10
TORSDOF 13
ENDMDL
MODEL 7
REMARK VINA RESULT:    -3.518      2.326      4.820
REMARK INTER + INTRA:          -8.352
REMARK INTER:                  -6.731
REMARK INTRA:                  -1.620
REMARK UNBOUND:                -2.161
REMARK SMILES CCCCCCCCCCCCCCC(=O)[O-]
REMARK SMILES IDX 9 1 10 2 11 3 12 4 13 5 14 6 15 7 16 8 17 9 8 10 7 11 6 12
REMARK SMILES IDX 5 13 4 14 3 15 2 16 1 17
REMARK H PARENT
REMARK Flexibility Score: inf
ROOT
ATOM      1  C   UNL     1      26.036  -0.513  10.904  1.00  0.00     0.000 C 
ENDROOT
BRANCH   1   2
ATOM      2  C   UNL     1      25.162  -0.459   9.638  1.00  0.00     0.000 C 
BRANCH   2   3
ATOM      3  C   UNL     1      24.890   0.955   9.092  1.00  0.00     0.000 C 
BRANCH   3   4
ATOM      4  C   UNL     1      25.461   1.173   7.680  1.00  0.00     0.000 C 
BRANCH   4   5
ATOM      5  C   UNL     1      26.333   2.439   7.581  1.00  0.00     0.006 C 
BRANCH   5   6
ATOM      6  C   UNL     1      27.645   2.246   6.805  1.00  0.00     0.053 C 
BRANCH   6   7
ATOM      7  C   UNL     1      27.420   1.597   5.473  1.00  0.00     0.041 C 
ATOM      8  O   UNL     1      28.019   0.529   5.179  1.00  0.00    -0.550 OA
ATOM      9  O   UNL     1      26.573   2.188   4.547  1.00  0.00    -0.550 OA
ENDBRANCH   6   7
ENDBRANCH   5   6
ENDBRANCH   4   5
ENDBRANCH   3   4
ENDBRANCH   2   3
ENDBRANCH   1   2
BRANCH   1  10
ATOM     10  C   UNL     1      27.423  -1.128  10.648  1.00  0.00     0.000 C 
BRANCH  10  11
ATOM     11  C   UNL     1      28.343  -0.192   9.848  1.00  0.00    -0.000 C 
BRANCH  11  12
ATOM     12  C   UNL     1      28.710  -0.767   8.467  1.00  0.00    -0.000 C 
BRANCH  12  13
ATOM     13  C   UNL     1      28.427  -2.274   8.364  1.00  0.00    -0.000 C 
BRANCH  13  14
ATOM     14  C   UNL     1      27.339  -2.600   7.326  1.00  0.00    -0.000 C 
BRANCH  14  15
ATOM     15  C   UNL     1      27.829  -3.575   6.243  1.00  0.00    -0.000 C 
BRANCH  15  16
ATOM     16  C   UNL     1      26.995  -3.494   4.956  1.00  0.00    -0.003 C 
ATOM     17  C   UNL     1      27.591  -4.373   3.860  1.00  0.00     0.004 C 
ENDBRANCH  15  16
ENDBRANCH  14  15
ENDBRANCH  13  14
ENDBRANCH  12  13
ENDBRANCH  11  12
ENDBRANCH  10  11
ENDBRANCH   1  10
TORSDOF 13
ENDMDL
MODEL 8
REMARK VINA RESULT:    -3.477      2.708      5.220
REMARK INTER + INTRA:          -8.280
REMARK INTER:                  -6.285
REMARK INTRA:                  -1.995
REMARK UNBOUND:                -2.161
REMARK SMILES CCCCCCCCCCCCCCC(=O)[O-]
REMARK SMILES IDX 9 1 10 2 11 3 12 4 13 5 14 6 15 7 16 8 17 9 8 10 7 11 6 12
REMARK SMILES IDX 5 13 4 14 3 15 2 16 1 17
REMARK H PARENT
REMARK Flexibility Score: inf
ROOT
ATOM      1  C   UNL     1      27.546  -0.997  10.198  1.00  0.00     0.000 C 
ENDROOT
BRANCH   1   2
ATOM      2  C   UNL     1      26.044  -1.248  10.427  1.00  0.00     0.000 C 
BRANCH   2   3
ATOM      3  C   UNL     1      25.102  -0.450   9.506  1.00  0.00     0.000 C 
BRANCH   3   4
ATOM      4  C   UNL     1      25.594   0.984   9.242  1.00  0.00     0.000 C 
BRANCH   4   5
ATOM      5  C   UNL     1      25.436   1.404   7.769  1.00  0.00     0.006 C 
BRANCH   5   6
ATOM      6  C   UNL     1      26.528   2.359   7.261  1.00  0.00     0.053 C 
BRANCH   6   7
ATOM      7  C   UNL     1      26.957   2.029   5.864  1.00  0.00     0.041 C 
ATOM      8  O   UNL     1      26.097   1.794   4.975  1.00  0.00    -0.550 OA
ATOM      9  O   UNL     1      28.307   1.951   5.552  1.00  0.00    -0.550 OA
ENDBRANCH   6   7
ENDBRANCH   5   6
ENDBRANCH   4   5
ENDBRANCH   3   4
ENDBRANCH   2   3
ENDBRANCH   1   2
BRANCH   1  10
ATOM     10  C   UNL     1      28.116  -1.812   9.024  1.00  0.00     0.000 C 
BRANCH  10  11
ATOM     11  C   UNL     1      28.392  -0.946   7.784  1.00  0.00    -0.000 C 
BRANCH  11  12
ATOM     12  C   UNL     1      27.680  -1.475   6.527  1.00  0.00    -0.000 C 
BRANCH  12  13
ATOM     13  C   UNL     1      26.738  -2.650   6.834  1.00  0.00    -0.000 C 
BRANCH  13  14
ATOM     14  C   UNL     1      26.697  -3.685   5.696  1.00  0.00    -0.000 C 
BRANCH  14  15
ATOM     15  C   UNL     1      27.279  -5.045   6.114  1.00  0.00    -0.000 C 
BRANCH  15  16
ATOM     16  C   UNL     1      27.644  -5.097   7.605  1.00  0.00    -0.003 C 
ATOM     17  C   UNL     1      29.120  -5.436   7.797  1.00  0.00     0.004 C 
ENDBRANCH  15  16
ENDBRANCH  14  15
ENDBRANCH  13  14
ENDBRANCH  12  13
ENDBRANCH  11  12
ENDBRANCH  10  11
ENDBRANCH   1  10
TORSDOF 13
ENDMDL
MODEL 9
REMARK VINA RESULT:    -3.444      3.083      5.721
REMARK INTER + INTRA:          -8.222
REMARK INTER:                  -6.134
REMARK INTRA:                  -2.088
REMARK UNBOUND:                -2.161
REMARK SMILES CCCCCCCCCCCCCCC(=O)[O-]
REMARK SMILES IDX 9 1 10 2 11 3 12 4 13 5 14 6 15 7 16 8 17 9 8 10 7 11 6 12
REMARK SMILES IDX 5 13 4 14 3 15 2 16 1 17
REMARK H PARENT
REMARK Flexibility Score: inf
ROOT
ATOM      1  C   UNL     1      26.708   1.069   5.736  1.00  0.00     0.000 C 
ENDROOT
BRANCH   1   2
ATOM      2  C   UNL     1      27.472   2.094   6.594  1.00  0.00     0.000 C 
BRANCH   2   3
ATOM      3  C   UNL     1      26.596   2.930   7.546  1.00  0.00     0.000 C 
BRANCH   3   4
ATOM      4  C   UNL     1      25.908   2.080   8.628  1.00  0.00     0.000 C 
BRANCH   4   5
ATOM      5  C   UNL     1      24.376   2.045   8.471  1.00  0.00     0.006 C 
BRANCH   5   6
ATOM      6  C   UNL     1      23.805   0.660   8.129  1.00  0.00     0.053 C 
BRANCH   6   7
ATOM      7  C   UNL     1      22.820   0.722   7.001  1.00  0.00     0.041 C 
ATOM      8  O   UNL     1      21.642   1.115   7.209  1.00  0.00    -0.550 OA
ATOM      9  O   UNL     1      23.196   0.317   5.728  1.00  0.00    -0.550 OA
ENDBRANCH   6   7
ENDBRANCH   5   6
ENDBRANCH   4   5
ENDBRANCH   3   4
ENDBRANCH   2   3
ENDBRANCH   1   2
BRANCH   1  10
ATOM     10  C   UNL     1      27.356  -0.327   5.754  1.00  0.00     0.000 C 
BRANCH  10  11
ATOM     11  C   UNL     1      26.997  -1.127   7.016  1.00  0.00    -0.000 C 
BRANCH  11  12
ATOM     12  C   UNL     1      28.092  -2.137   7.404  1.00  0.00    -0.000 C 
BRANCH  12  13
ATOM     13  C   UNL     1      28.634  -1.901   8.822  1.00  0.00    -0.000 C 
BRANCH  13  14
ATOM     14  C   UNL     1      28.386  -0.466   9.317  1.00  0.00    -0.000 C 
BRANCH  14  15
ATOM     15  C   UNL     1      27.697  -0.425  10.691  1.00  0.00    -0.000 C 
BRANCH  15  16
ATOM     16  C   UNL     1      26.283  -1.024  10.659  1.00  0.00    -0.003 C 
ATOM     17  C   UNL     1      25.297  -0.146  11.425  1.00  0.00     0.004 C 
ENDBRANCH  15  16
ENDBRANCH  14  15
ENDBRANCH  13  14
ENDBRANCH  12  13
ENDBRANCH  11  12
ENDBRANCH  10  11
ENDBRANCH   1  10
TORSDOF 13
ENDMDL
