MODEL 1
REMARK VINA RESULT:    -4.034      0.000      0.000
REMARK INTER + INTRA:          -5.450
REMARK INTER:                  -4.977
REMARK INTRA:                  -0.473
REMARK UNBOUND:                -0.473
REMARK SMILES C=CC[C@H](C)C(=O)CC
REMARK SMILES IDX 4 1 5 2 6 3 7 4 8 5 9 6 3 7 2 8 1 9
REMARK H PARENT
REMARK Flexibility Score: inf
ROOT
ATOM      1  C   UNL     1     117.439 165.474 122.535  1.00  0.00     0.057 C 
ATOM      2  C   UNL     1     117.938 166.805 123.110  1.00  0.00     0.016 C 
ENDROOT
BRANCH   1   3
ATOM      3  C   UNL     1     117.988 165.283 121.136  1.00  0.00     0.135 C 
ATOM      4  O   UNL     1     119.047 165.809 120.822  1.00  0.00    -0.299 OA
BRANCH   3   5
ATOM      5  C   UNL     1     117.244 164.465 120.113  1.00  0.00     0.072 C 
ATOM      6  C   UNL     1     116.852 165.325 118.916  1.00  0.00     0.012 C 
ENDBRANCH   3   5
ENDBRANCH   1   3
BRANCH   1   7
ATOM      7  C   UNL     1     115.897 165.420 122.549  1.00  0.00     0.038 C 
BRANCH   7   8
ATOM      8  C   UNL     1     115.286 166.794 122.469  1.00  0.00    -0.034 C 
ATOM      9  C   UNL     1     114.721 167.255 121.350  1.00  0.00     0.004 C 
ENDBRANCH   7   8
ENDBRANCH   1   7
TORSDOF 4
ENDMDL
MODEL 2
REMARK VINA RESULT:    -4.017      1.372      3.633
REMARK INTER + INTRA:          -5.429
REMARK INTER:                  -5.219
REMARK INTRA:                  -0.210
REMARK UNBOUND:                -0.473
REMARK SMILES C=CC[C@H](C)C(=O)CC
REMARK SMILES IDX 4 1 5 2 6 3 7 4 8 5 9 6 3 7 2 8 1 9
REMARK H PARENT
REMARK Flexibility Score: inf
ROOT
ATOM      1  C   UNL     1     117.191 165.368 120.095  1.00  0.00     0.057 C 
ATOM      2  C   UNL     1     117.428 163.881 119.803  1.00  0.00     0.016 C 
ENDROOT
BRANCH   1   3
ATOM      3  C   UNL     1     117.022 165.576 121.586  1.00  0.00     0.135 C 
ATOM      4  O   UNL     1     117.967 165.379 122.337  1.00  0.00    -0.299 OA
BRANCH   3   5
ATOM      5  C   UNL     1     115.701 166.010 122.165  1.00  0.00     0.072 C 
ATOM      6  C   UNL     1     115.529 165.469 123.581  1.00  0.00     0.012 C 
ENDBRANCH   3   5
ENDBRANCH   1   3
BRANCH   1   7
ATOM      7  C   UNL     1     115.968 165.886 119.309  1.00  0.00     0.038 C 
BRANCH   7   8
ATOM      8  C   UNL     1     116.190 165.830 117.821  1.00  0.00    -0.034 C 
ATOM      9  C   UNL     1     116.614 166.890 117.127  1.00  0.00     0.004 C 
ENDBRANCH   7   8
ENDBRANCH   1   7
TORSDOF 4
ENDMDL
MODEL 3
REMARK VINA RESULT:    -3.849     12.604     14.041
REMARK INTER + INTRA:          -5.223
REMARK INTER:                  -4.831
REMARK INTRA:                  -0.392
REMARK UNBOUND:                -0.473
REMARK SMILES C=CC[C@H](C)C(=O)CC
REMARK SMILES IDX 4 1 5 2 6 3 7 4 8 5 9 6 3 7 2 8 1 9
REMARK H PARENT
REMARK Flexibility Score: inf
ROOT
ATOM      1  C   UNL     1     117.861 178.519 125.026  1.00  0.00     0.057 C 
ATOM      2  C   UNL     1     117.476 177.315 125.893  1.00  0.00     0.016 C 
ENDROOT
BRANCH   1   3
ATOM      3  C   UNL     1     116.712 178.878 124.107  1.00  0.00     0.135 C 
ATOM      4  O   UNL     1     116.715 178.482 122.949  1.00  0.00    -0.299 OA
BRANCH   3   5
ATOM      5  C   UNL     1     115.566 179.728 124.590  1.00  0.00     0.072 C 
ATOM      6  C   UNL     1     116.075 180.881 125.449  1.00  0.00     0.012 C 
ENDBRANCH   3   5
ENDBRANCH   1   3
BRANCH   1   7
ATOM      7  C   UNL     1     119.151 178.225 124.231  1.00  0.00     0.038 C 
BRANCH   7   8
ATOM      8  C   UNL     1     120.244 179.212 124.546  1.00  0.00    -0.034 C 
ATOM      9  C   UNL     1     120.131 180.103 125.535  1.00  0.00     0.004 C 
ENDBRANCH   7   8
ENDBRANCH   1   7
TORSDOF 4
ENDMDL
MODEL 4
REMARK VINA RESULT:    -3.762     12.558     13.852
REMARK INTER + INTRA:          -5.116
REMARK INTER:                  -4.844
REMARK INTRA:                  -0.272
REMARK UNBOUND:                -0.473
REMARK SMILES C=CC[C@H](C)C(=O)CC
REMARK SMILES IDX 4 1 5 2 6 3 7 4 8 5 9 6 3 7 2 8 1 9
REMARK H PARENT
REMARK Flexibility Score: inf
ROOT
ATOM      1  C   UNL     1     117.540 178.330 124.846  1.00  0.00     0.057 C 
ATOM      2  C   UNL     1     117.450 177.344 126.016  1.00  0.00     0.016 C 
ENDROOT
BRANCH   1   3
ATOM      3  C   UNL     1     118.973 178.793 124.675  1.00  0.00     0.135 C 
ATOM      4  O   UNL     1     119.680 178.275 123.822  1.00  0.00    -0.299 OA
BRANCH   3   5
ATOM      5  C   UNL     1     119.550 179.874 125.550  1.00  0.00     0.072 C 
ATOM      6  C   UNL     1     120.662 179.317 126.433  1.00  0.00     0.012 C 
ENDBRANCH   3   5
ENDBRANCH   1   3
BRANCH   1   7
ATOM      7  C   UNL     1     116.584 179.521 125.066  1.00  0.00     0.038 C 
BRANCH   7   8
ATOM      8  C   UNL     1     115.480 179.185 126.034  1.00  0.00    -0.034 C 
ATOM      9  C   UNL     1     114.190 179.313 125.711  1.00  0.00     0.004 C 
ENDBRANCH   7   8
ENDBRANCH   1   7
TORSDOF 4
ENDMDL
MODEL 5
REMARK VINA RESULT:    -3.739     13.014     14.204
REMARK INTER + INTRA:          -5.086
REMARK INTER:                  -4.604
REMARK INTRA:                  -0.482
REMARK UNBOUND:                -0.473
REMARK SMILES C=CC[C@H](C)C(=O)CC
REMARK SMILES IDX 4 1 5 2 6 3 7 4 8 5 9 6 3 7 2 8 1 9
REMARK H PARENT
REMARK Flexibility Score: inf
ROOT
ATOM      1  C   UNL     1     121.834 177.243 124.111  1.00  0.00     0.057 C 
ATOM      2  C   UNL     1     123.038 177.331 123.166  1.00  0.00     0.016 C 
ENDROOT
BRANCH   1   3
ATOM      3  C   UNL     1     120.937 178.447 123.911  1.00  0.00     0.135 C 
ATOM      4  O   UNL     1     121.118 179.186 122.953  1.00  0.00    -0.299 OA
BRANCH   3   5
ATOM      5  C   UNL     1     119.830 178.761 124.883  1.00  0.00     0.072 C 
ATOM      6  C   UNL     1     120.035 180.138 125.508  1.00  0.00     0.012 C 
ENDBRANCH   3   5
ENDBRANCH   1   3
BRANCH   1   7
ATOM      7  C   UNL     1     122.302 177.123 125.576  1.00  0.00     0.038 C 
BRANCH   7   8
ATOM      8  C   UNL     1     123.439 178.063 125.882  1.00  0.00    -0.034 C 
ATOM      9  C   UNL     1     123.415 178.884 126.936  1.00  0.00     0.004 C 
ENDBRANCH   7   8
ENDBRANCH   1   7
TORSDOF 4
ENDMDL
MODEL 6
REMARK VINA RESULT:    -3.722     12.218     13.772
REMARK INTER + INTRA:          -5.066
REMARK INTER:                  -4.612
REMARK INTRA:                  -0.454
REMARK UNBOUND:                -0.473
REMARK SMILES C=CC[C@H](C)C(=O)CC
REMARK SMILES IDX 4 1 5 2 6 3 7 4 8 5 9 6 3 7 2 8 1 9
REMARK H PARENT
REMARK Flexibility Score: inf
ROOT
ATOM      1  C   UNL     1     120.172 178.499 124.789  1.00  0.00     0.057 C 
ATOM      2  C   UNL     1     120.690 178.947 123.417  1.00  0.00     0.016 C 
ENDROOT
BRANCH   1   3
ATOM      3  C   UNL     1     118.715 178.098 124.680  1.00  0.00     0.135 C 
ATOM      4  O   UNL     1     118.049 178.482 123.728  1.00  0.00    -0.299 OA
BRANCH   3   5
ATOM      5  C   UNL     1     118.063 177.243 125.734  1.00  0.00     0.072 C 
ATOM      6  C   UNL     1     118.956 176.062 126.101  1.00  0.00     0.012 C 
ENDBRANCH   3   5
ENDBRANCH   1   3
BRANCH   1   7
ATOM      7  C   UNL     1     120.374 179.615 125.836  1.00  0.00     0.038 C 
BRANCH   7   8
ATOM      8  C   UNL     1     121.269 179.172 126.963  1.00  0.00    -0.034 C 
ATOM      9  C   UNL     1     120.779 178.721 128.122  1.00  0.00     0.004 C 
ENDBRANCH   7   8
ENDBRANCH   1   7
TORSDOF 4
ENDMDL
MODEL 7
REMARK VINA RESULT:    -3.709     13.292     14.266
REMARK INTER + INTRA:          -5.050
REMARK INTER:                  -4.573
REMARK INTRA:                  -0.477
REMARK UNBOUND:                -0.473
REMARK SMILES C=CC[C@H](C)C(=O)CC
REMARK SMILES IDX 4 1 5 2 6 3 7 4 8 5 9 6 3 7 2 8 1 9
REMARK H PARENT
REMARK Flexibility Score: inf
ROOT
ATOM      1  C   UNL     1     122.386 178.292 127.419  1.00  0.00     0.057 C 
ATOM      2  C   UNL     1     123.474 179.363 127.285  1.00  0.00     0.016 C 
ENDROOT
BRANCH   1   3
ATOM      3  C   UNL     1     122.534 177.271 126.309  1.00  0.00     0.135 C 
ATOM      4  O   UNL     1     121.899 176.227 126.357  1.00  0.00    -0.299 OA
BRANCH   3   5
ATOM      5  C   UNL     1     123.464 177.513 125.149  1.00  0.00     0.072 C 
ATOM      6  C   UNL     1     122.704 177.458 123.828  1.00  0.00     0.012 C 
ENDBRANCH   3   5
ENDBRANCH   1   3
BRANCH   1   7
ATOM      7  C   UNL     1     120.985 178.938 127.411  1.00  0.00     0.038 C 
BRANCH   7   8
ATOM      8  C   UNL     1     120.734 179.721 126.149  1.00  0.00    -0.034 C 
ATOM      9  C   UNL     1     119.617 179.572 125.432  1.00  0.00     0.004 C 
ENDBRANCH   7   8
ENDBRANCH   1   7
TORSDOF 4
ENDMDL
MODEL 8
REMARK VINA RESULT:    -3.708     12.433     14.042
REMARK INTER + INTRA:          -5.049
REMARK INTER:                  -4.585
REMARK INTRA:                  -0.464
REMARK UNBOUND:                -0.473
REMARK SMILES C=CC[C@H](C)C(=O)CC
REMARK SMILES IDX 4 1 5 2 6 3 7 4 8 5 9 6 3 7 2 8 1 9
REMARK H PARENT
REMARK Flexibility Score: inf
ROOT
ATOM      1  C   UNL     1     122.112 177.191 124.430  1.00  0.00     0.057 C 
ATOM      2  C   UNL     1     121.134 176.011 124.390  1.00  0.00     0.016 C 
ENDROOT
BRANCH   1   3
ATOM      3  C   UNL     1     122.663 177.351 125.832  1.00  0.00     0.135 C 
ATOM      4  O   UNL     1     122.176 176.710 126.753  1.00  0.00    -0.299 OA
BRANCH   3   5
ATOM      5  C   UNL     1     123.796 178.301 126.118  1.00  0.00     0.072 C 
ATOM      6  C   UNL     1     123.438 179.240 127.266  1.00  0.00     0.012 C 
ENDBRANCH   3   5
ENDBRANCH   1   3
BRANCH   1   7
ATOM      7  C   UNL     1     121.425 178.483 123.941  1.00  0.00     0.038 C 
BRANCH   7   8
ATOM      8  C   UNL     1     120.212 178.821 124.767  1.00  0.00    -0.034 C 
ATOM      9  C   UNL     1     120.108 179.973 125.437  1.00  0.00     0.004 C 
ENDBRANCH   7   8
ENDBRANCH   1   7
TORSDOF 4
ENDMDL
MODEL 9
REMARK VINA RESULT:    -3.697     12.653     14.219
REMARK INTER + INTRA:          -5.035
REMARK INTER:                  -4.564
REMARK INTRA:                  -0.470
REMARK UNBOUND:                -0.473
REMARK SMILES C=CC[C@H](C)C(=O)CC
REMARK SMILES IDX 4 1 5 2 6 3 7 4 8 5 9 6 3 7 2 8 1 9
REMARK H PARENT
REMARK Flexibility Score: inf
ROOT
ATOM      1  C   UNL     1     120.894 178.907 125.908  1.00  0.00     0.057 C 
ATOM      2  C   UNL     1     120.012 180.069 125.440  1.00  0.00     0.016 C 
ENDROOT
BRANCH   1   3
ATOM      3  C   UNL     1     120.405 177.612 125.292  1.00  0.00     0.135 C 
ATOM      4  O   UNL     1     119.337 177.135 125.650  1.00  0.00    -0.299 OA
BRANCH   3   5
ATOM      5  C   UNL     1     121.221 176.888 124.254  1.00  0.00     0.072 C 
ATOM      6  C   UNL     1     122.570 177.572 124.054  1.00  0.00     0.012 C 
ENDBRANCH   3   5
ENDBRANCH   1   3
BRANCH   1   7
ATOM      7  C   UNL     1     120.914 178.828 127.449  1.00  0.00     0.038 C 
BRANCH   7   8
ATOM      8  C   UNL     1     122.316 178.734 127.990  1.00  0.00    -0.034 C 
ATOM      9  C   UNL     1     123.357 179.291 127.364  1.00  0.00     0.004 C 
ENDBRANCH   7   8
ENDBRANCH   1   7
TORSDOF 4
ENDMDL
