MODEL 1
REMARK VINA RESULT:    -4.340      0.000      0.000
REMARK INTER + INTRA:          -4.891
REMARK INTER:                  -4.847
REMARK INTRA:                  -0.044
REMARK UNBOUND:                -0.044
REMARK SMILES O=C([O-])c1ccc(O)c(O)c1
REMARK SMILES IDX 4 1 11 2 5 3 9 4 6 5 7 6 2 7 1 8 3 9 10 10 8 12
REMARK H PARENT 10 11 8 13
REMARK Flexibility Score: inf
ROOT
ATOM      1  C   UNL     1     175.512 170.848 172.725  1.00  0.00     0.001 A 
ATOM      2  C   UNL     1     175.900 171.925 173.543  1.00  0.00     0.060 A 
ATOM      3  C   UNL     1     176.420 170.354 171.774  1.00  0.00     0.014 A 
ATOM      4  C   UNL     1     177.176 172.496 173.413  1.00  0.00     0.158 A 
ATOM      5  C   UNL     1     177.690 170.923 171.643  1.00  0.00     0.051 A 
ATOM      6  C   UNL     1     178.071 171.994 172.461  1.00  0.00     0.157 A 
ENDROOT
BRANCH   1   7
ATOM      7  C   UNL     1     174.169 170.243 172.860  1.00  0.00     0.072 C 
ATOM      8  O   UNL     1     173.777 169.364 172.047  1.00  0.00    -0.545 OA
ATOM      9  O   UNL     1     173.319 170.635 173.888  1.00  0.00    -0.545 OA
ENDBRANCH   1   7
BRANCH   4  10
ATOM     10  O   UNL     1     177.557 173.562 174.225  1.00  0.00    -0.504 OA
ATOM     11  H   UNL     1     178.453 173.576 174.698  1.00  0.00     0.293 HD
ENDBRANCH   4  10
BRANCH   6  12
ATOM     12  O   UNL     1     179.336 172.565 172.334  1.00  0.00    -0.504 OA
ATOM     13  H   UNL     1     179.460 173.503 171.970  1.00  0.00     0.293 HD
ENDBRANCH   6  12
TORSDOF 3
ENDMDL
MODEL 2
REMARK VINA RESULT:    -4.305      1.533      2.859
REMARK INTER + INTRA:          -4.853
REMARK INTER:                  -4.809
REMARK INTRA:                  -0.044
REMARK UNBOUND:                -0.044
REMARK SMILES O=C([O-])c1ccc(O)c(O)c1
REMARK SMILES IDX 4 1 11 2 5 3 9 4 6 5 7 6 2 7 1 8 3 9 10 10 8 12
REMARK H PARENT 10 11 8 13
REMARK Flexibility Score: inf
ROOT
ATOM      1  C   UNL     1     176.598 170.241 171.737  1.00  0.00     0.001 A 
ATOM      2  C   UNL     1     177.794 170.981 171.676  1.00  0.00     0.060 A 
ATOM      3  C   UNL     1     175.597 170.639 172.639  1.00  0.00     0.014 A 
ATOM      4  C   UNL     1     177.983 172.099 172.501  1.00  0.00     0.158 A 
ATOM      5  C   UNL     1     175.787 171.753 173.462  1.00  0.00     0.051 A 
ATOM      6  C   UNL     1     176.978 172.486 173.395  1.00  0.00     0.157 A 
ENDROOT
BRANCH   1   7
ATOM      7  C   UNL     1     176.394 169.061 170.868  1.00  0.00     0.072 C 
ATOM      8  O   UNL     1     175.472 168.238 171.112  1.00  0.00    -0.545 OA
ATOM      9  O   UNL     1     177.217 168.845 169.768  1.00  0.00    -0.545 OA
ENDBRANCH   1   7
BRANCH   4  10
ATOM     10  O   UNL     1     179.169 172.829 172.437  1.00  0.00    -0.504 OA
ATOM     11  H   UNL     1     179.733 173.000 173.262  1.00  0.00     0.293 HD
ENDBRANCH   4  10
BRANCH   6  12
ATOM     12  O   UNL     1     177.171 173.597 174.214  1.00  0.00    -0.504 OA
ATOM     13  H   UNL     1     177.175 173.516 175.225  1.00  0.00     0.293 HD
ENDBRANCH   6  12
TORSDOF 3
ENDMDL
MODEL 3
REMARK VINA RESULT:    -4.253      1.186      4.603
REMARK INTER + INTRA:          -4.795
REMARK INTER:                  -4.750
REMARK INTRA:                  -0.044
REMARK UNBOUND:                -0.044
REMARK SMILES O=C([O-])c1ccc(O)c(O)c1
REMARK SMILES IDX 4 1 11 2 5 3 9 4 6 5 7 6 2 7 1 8 3 9 10 10 8 12
REMARK H PARENT 10 11 8 13
REMARK Flexibility Score: inf
ROOT
ATOM      1  C   UNL     1     177.404 171.600 172.478  1.00  0.00     0.001 A 
ATOM      2  C   UNL     1     177.393 170.663 171.429  1.00  0.00     0.060 A 
ATOM      3  C   UNL     1     176.255 171.746 173.273  1.00  0.00     0.014 A 
ATOM      4  C   UNL     1     176.253 169.884 171.181  1.00  0.00     0.158 A 
ATOM      5  C   UNL     1     175.119 170.970 173.025  1.00  0.00     0.051 A 
ATOM      6  C   UNL     1     175.114 170.038 171.980  1.00  0.00     0.157 A 
ENDROOT
BRANCH   1   7
ATOM      7  C   UNL     1     178.605 172.423 172.744  1.00  0.00     0.072 C 
ATOM      8  O   UNL     1     179.671 172.227 172.102  1.00  0.00    -0.545 OA
ATOM      9  O   UNL     1     178.573 173.426 173.707  1.00  0.00    -0.545 OA
ENDBRANCH   1   7
BRANCH   4  10
ATOM     10  O   UNL     1     176.247 168.956 170.141  1.00  0.00    -0.504 OA
ATOM     11  H   UNL     1     175.425 168.401 169.929  1.00  0.00     0.293 HD
ENDBRANCH   4  10
BRANCH   6  12
ATOM     12  O   UNL     1     173.984 169.263 171.729  1.00  0.00    -0.504 OA
ATOM     13  H   UNL     1     174.046 168.257 171.613  1.00  0.00     0.293 HD
ENDBRANCH   6  12
TORSDOF 3
ENDMDL
MODEL 4
REMARK VINA RESULT:    -4.190      1.811      1.982
REMARK INTER + INTRA:          -4.724
REMARK INTER:                  -4.680
REMARK INTRA:                  -0.044
REMARK UNBOUND:                -0.044
REMARK SMILES O=C([O-])c1ccc(O)c(O)c1
REMARK SMILES IDX 4 1 11 2 5 3 9 4 6 5 7 6 2 7 1 8 3 9 10 10 8 12
REMARK H PARENT 10 11 8 13
REMARK Flexibility Score: inf
ROOT
ATOM      1  C   UNL     1     175.739 170.997 171.542  1.00  0.00     0.001 A 
ATOM      2  C   UNL     1     176.224 172.310 171.398  1.00  0.00     0.060 A 
ATOM      3  C   UNL     1     176.336 170.151 172.492  1.00  0.00     0.014 A 
ATOM      4  C   UNL     1     177.287 172.768 172.191  1.00  0.00     0.158 A 
ATOM      5  C   UNL     1     177.395 170.608 173.281  1.00  0.00     0.051 A 
ATOM      6  C   UNL     1     177.873 171.915 173.134  1.00  0.00     0.157 A 
ENDROOT
BRANCH   1   7
ATOM      7  C   UNL     1     174.618 170.510 170.708  1.00  0.00     0.072 C 
ATOM      8  O   UNL     1     174.312 169.288 170.696  1.00  0.00    -0.545 OA
ATOM      9  O   UNL     1     173.885 171.396 169.926  1.00  0.00    -0.545 OA
ENDBRANCH   1   7
BRANCH   4  10
ATOM     10  O   UNL     1     177.765 174.069 172.045  1.00  0.00    -0.504 OA
ATOM     11  H   UNL     1     178.155 174.397 171.169  1.00  0.00     0.293 HD
ENDBRANCH   4  10
BRANCH   6  12
ATOM     12  O   UNL     1     178.930 172.374 173.918  1.00  0.00    -0.504 OA
ATOM     13  H   UNL     1     178.791 173.078 174.635  1.00  0.00     0.293 HD
ENDBRANCH   6  12
TORSDOF 3
ENDMDL
MODEL 5
REMARK VINA RESULT:    -4.147      1.009      4.107
REMARK INTER + INTRA:          -4.677
REMARK INTER:                  -4.633
REMARK INTRA:                  -0.044
REMARK UNBOUND:                -0.044
REMARK SMILES O=C([O-])c1ccc(O)c(O)c1
REMARK SMILES IDX 4 1 11 2 5 3 9 4 6 5 7 6 2 7 1 8 3 9 10 10 8 12
REMARK H PARENT 10 11 8 13
REMARK Flexibility Score: inf
ROOT
ATOM      1  C   UNL     1     176.889 171.800 172.895  1.00  0.00     0.001 A 
ATOM      2  C   UNL     1     175.596 171.372 173.249  1.00  0.00     0.060 A 
ATOM      3  C   UNL     1     177.566 171.138 171.857  1.00  0.00     0.014 A 
ATOM      4  C   UNL     1     174.991 170.300 172.575  1.00  0.00     0.158 A 
ATOM      5  C   UNL     1     176.962 170.070 171.186  1.00  0.00     0.051 A 
ATOM      6  C   UNL     1     175.675 169.648 171.543  1.00  0.00     0.157 A 
ENDROOT
BRANCH   1   7
ATOM      7  C   UNL     1     177.531 172.930 173.603  1.00  0.00     0.072 C 
ATOM      8  O   UNL     1     176.864 173.657 174.386  1.00  0.00    -0.545 OA
ATOM      9  O   UNL     1     178.880 173.205 173.413  1.00  0.00    -0.545 OA
ENDBRANCH   1   7
BRANCH   4  10
ATOM     10  O   UNL     1     173.710 169.879 172.929  1.00  0.00    -0.504 OA
ATOM     11  H   UNL     1     172.896 170.461 172.768  1.00  0.00     0.293 HD
ENDBRANCH   4  10
BRANCH   6  12
ATOM     12  O   UNL     1     175.071 168.584 170.877  1.00  0.00    -0.504 OA
ATOM     13  H   UNL     1     175.470 167.652 170.895  1.00  0.00     0.293 HD
ENDBRANCH   6  12
TORSDOF 3
ENDMDL
MODEL 6
REMARK VINA RESULT:    -4.126      1.490      2.295
REMARK INTER + INTRA:          -4.653
REMARK INTER:                  -4.609
REMARK INTRA:                  -0.044
REMARK UNBOUND:                -0.044
REMARK SMILES O=C([O-])c1ccc(O)c(O)c1
REMARK SMILES IDX 4 1 11 2 5 3 9 4 6 5 7 6 2 7 1 8 3 9 10 10 8 12
REMARK H PARENT 10 11 8 13
REMARK Flexibility Score: inf
ROOT
ATOM      1  C   UNL     1     176.618 170.451 171.622  1.00  0.00     0.001 A 
ATOM      2  C   UNL     1     175.918 171.160 172.616  1.00  0.00     0.060 A 
ATOM      3  C   UNL     1     177.967 170.763 171.384  1.00  0.00     0.014 A 
ATOM      4  C   UNL     1     176.557 172.164 173.359  1.00  0.00     0.158 A 
ATOM      5  C   UNL     1     178.603 171.764 172.124  1.00  0.00     0.051 A 
ATOM      6  C   UNL     1     177.902 172.466 173.112  1.00  0.00     0.157 A 
ENDROOT
BRANCH   1   7
ATOM      7  C   UNL     1     175.948 169.390 170.837  1.00  0.00     0.072 C 
ATOM      8  O   UNL     1     174.748 169.083 171.068  1.00  0.00    -0.545 OA
ATOM      9  O   UNL     1     176.635 168.717 169.833  1.00  0.00    -0.545 OA
ENDBRANCH   1   7
BRANCH   4  10
ATOM     10  O   UNL     1     175.861 172.864 174.342  1.00  0.00    -0.504 OA
ATOM     11  H   UNL     1     176.331 173.254 175.151  1.00  0.00     0.293 HD
ENDBRANCH   4  10
BRANCH   6  12
ATOM     12  O   UNL     1     178.532 173.465 173.852  1.00  0.00    -0.504 OA
ATOM     13  H   UNL     1     178.158 174.406 173.898  1.00  0.00     0.293 HD
ENDBRANCH   6  12
TORSDOF 3
ENDMDL
MODEL 7
REMARK VINA RESULT:    -4.034      1.722      4.332
REMARK INTER + INTRA:          -4.550
REMARK INTER:                  -4.506
REMARK INTRA:                  -0.044
REMARK UNBOUND:                -0.044
REMARK SMILES O=C([O-])c1ccc(O)c(O)c1
REMARK SMILES IDX 4 1 11 2 5 3 9 4 6 5 7 6 2 7 1 8 3 9 10 10 8 12
REMARK H PARENT 10 11 8 13
REMARK Flexibility Score: inf
ROOT
ATOM      1  C   UNL     1     177.021 171.563 172.801  1.00  0.00     0.001 A 
ATOM      2  C   UNL     1     176.981 170.227 173.239  1.00  0.00     0.060 A 
ATOM      3  C   UNL     1     176.157 171.967 171.769  1.00  0.00     0.014 A 
ATOM      4  C   UNL     1     176.092 169.311 172.655  1.00  0.00     0.158 A 
ATOM      5  C   UNL     1     175.273 171.055 171.187  1.00  0.00     0.051 A 
ATOM      6  C   UNL     1     175.237 169.726 171.628  1.00  0.00     0.157 A 
ENDROOT
BRANCH   1   7
ATOM      7  C   UNL     1     177.956 172.532 173.415  1.00  0.00     0.072 C 
ATOM      8  O   UNL     1     178.849 172.143 174.214  1.00  0.00    -0.545 OA
ATOM      9  O   UNL     1     177.862 173.887 173.117  1.00  0.00    -0.545 OA
ENDBRANCH   1   7
BRANCH   4  10
ATOM     10  O   UNL     1     176.055 167.988 173.092  1.00  0.00    -0.504 OA
ATOM     11  H   UNL     1     175.619 167.258 172.540  1.00  0.00     0.293 HD
ENDBRANCH   4  10
BRANCH   6  12
ATOM     12  O   UNL     1     174.356 168.814 171.050  1.00  0.00    -0.504 OA
ATOM     13  H   UNL     1     174.282 168.713 170.044  1.00  0.00     0.293 HD
ENDBRANCH   6  12
TORSDOF 3
ENDMDL
MODEL 8
REMARK VINA RESULT:    -3.973      1.680      2.247
REMARK INTER + INTRA:          -4.482
REMARK INTER:                  -4.442
REMARK INTRA:                  -0.040
REMARK UNBOUND:                -0.044
REMARK SMILES O=C([O-])c1ccc(O)c(O)c1
REMARK SMILES IDX 4 1 11 2 5 3 9 4 6 5 7 6 2 7 1 8 3 9 10 10 8 12
REMARK H PARENT 10 11 8 13
REMARK Flexibility Score: inf
ROOT
ATOM      1  C   UNL     1     176.488 170.253 172.439  1.00  0.00     0.001 A 
ATOM      2  C   UNL     1     176.389 171.464 171.729  1.00  0.00     0.060 A 
ATOM      3  C   UNL     1     177.350 170.181 173.546  1.00  0.00     0.014 A 
ATOM      4  C   UNL     1     177.139 172.583 172.121  1.00  0.00     0.158 A 
ATOM      5  C   UNL     1     178.097 171.296 173.936  1.00  0.00     0.051 A 
ATOM      6  C   UNL     1     177.995 172.499 173.226  1.00  0.00     0.157 A 
ENDROOT
BRANCH   1   7
ATOM      7  C   UNL     1     175.698 169.071 172.030  1.00  0.00     0.072 C 
ATOM      8  O   UNL     1     175.093 168.376 172.889  1.00  0.00    -0.545 OA
ATOM      9  O   UNL     1     175.611 168.710 170.690  1.00  0.00    -0.545 OA
ENDBRANCH   1   7
BRANCH   4  10
ATOM     10  O   UNL     1     177.039 173.781 171.415  1.00  0.00    -0.504 OA
ATOM     11  H   UNL     1     176.223 174.001 170.855  1.00  0.00     0.293 HD
ENDBRANCH   4  10
BRANCH   6  12
ATOM     12  O   UNL     1     178.739 173.613 173.611  1.00  0.00    -0.504 OA
ATOM     13  H   UNL     1     178.552 174.532 173.227  1.00  0.00     0.293 HD
ENDBRANCH   6  12
TORSDOF 3
ENDMDL
MODEL 9
REMARK VINA RESULT:    -3.961      0.995      2.122
REMARK INTER + INTRA:          -4.468
REMARK INTER:                  -4.432
REMARK INTRA:                  -0.036
REMARK UNBOUND:                -0.044
REMARK SMILES O=C([O-])c1ccc(O)c(O)c1
REMARK SMILES IDX 4 1 11 2 5 3 9 4 6 5 7 6 2 7 1 8 3 9 10 10 8 12
REMARK H PARENT 10 11 8 13
REMARK Flexibility Score: inf
ROOT
ATOM      1  C   UNL     1     175.489 170.725 172.712  1.00  0.00     0.001 A 
ATOM      2  C   UNL     1     176.538 170.357 171.850  1.00  0.00     0.060 A 
ATOM      3  C   UNL     1     175.646 171.854 173.534  1.00  0.00     0.014 A 
ATOM      4  C   UNL     1     177.724 171.106 171.811  1.00  0.00     0.158 A 
ATOM      5  C   UNL     1     176.828 172.599 173.495  1.00  0.00     0.051 A 
ATOM      6  C   UNL     1     177.869 172.228 172.635  1.00  0.00     0.157 A 
ENDROOT
BRANCH   1   7
ATOM      7  C   UNL     1     174.236 169.939 172.756  1.00  0.00     0.072 C 
ATOM      8  O   UNL     1     174.192 168.838 173.366  1.00  0.00    -0.545 OA
ATOM      9  O   UNL     1     173.089 170.405 172.124  1.00  0.00    -0.545 OA
ENDBRANCH   1   7
BRANCH   4  10
ATOM     10  O   UNL     1     178.761 170.738 170.956  1.00  0.00    -0.504 OA
ATOM     11  H   UNL     1     179.005 169.766 170.804  1.00  0.00     0.293 HD
ENDBRANCH   4  10
BRANCH   6  12
ATOM     12  O   UNL     1     179.049 172.969 172.593  1.00  0.00    -0.504 OA
ATOM     13  H   UNL     1     179.334 173.464 171.756  1.00  0.00     0.293 HD
ENDBRANCH   6  12
TORSDOF 3
ENDMDL
