MODEL 1
REMARK VINA RESULT:    -3.593      0.000      0.000
REMARK INTER + INTRA:          -7.969
REMARK INTER:                  -6.324
REMARK INTRA:                  -1.644
REMARK UNBOUND:                -1.644
REMARK SMILES CCCCCCCCCCCCCCC(=O)[O-]
REMARK SMILES IDX 9 1 10 2 11 3 12 4 13 5 14 6 15 7 16 8 17 9 8 10 7 11 6 12
REMARK SMILES IDX 5 13 4 14 3 15 2 16 1 17
REMARK H PARENT
REMARK Flexibility Score: inf
ROOT
ATOM      1  C   UNL     1     -13.677 -16.165   2.957  1.00  0.00     0.000 C 
ENDROOT
BRANCH   1   2
ATOM      2  C   UNL     1     -14.037 -15.015   2.003  1.00  0.00     0.000 C 
BRANCH   2   3
ATOM      3  C   UNL     1     -12.824 -14.508   1.203  1.00  0.00     0.000 C 
BRANCH   3   4
ATOM      4  C   UNL     1     -12.219 -13.225   1.795  1.00  0.00     0.000 C 
BRANCH   4   5
ATOM      5  C   UNL     1     -13.226 -12.438   2.651  1.00  0.00     0.006 C 
BRANCH   5   6
ATOM      6  C   UNL     1     -12.578 -11.846   3.910  1.00  0.00     0.053 C 
BRANCH   6   7
ATOM      7  C   UNL     1     -13.319 -12.236   5.152  1.00  0.00     0.041 C 
ATOM      8  O   UNL     1     -12.699 -12.716   6.138  1.00  0.00    -0.550 OA
ATOM      9  O   UNL     1     -14.692 -12.039   5.233  1.00  0.00    -0.550 OA
ENDBRANCH   6   7
ENDBRANCH   5   6
ENDBRANCH   4   5
ENDBRANCH   3   4
ENDBRANCH   2   3
ENDBRANCH   1   2
BRANCH   1  10
ATOM     10  C   UNL     1     -13.868 -15.790   4.435  1.00  0.00     0.000 C 
BRANCH  10  11
ATOM     11  C   UNL     1     -15.275 -16.163   4.918  1.00  0.00    -0.000 C 
BRANCH  11  12
ATOM     12  C   UNL     1     -15.208 -17.146   6.097  1.00  0.00    -0.000 C 
BRANCH  12  13
ATOM     13  C   UNL     1     -15.886 -18.490   5.786  1.00  0.00    -0.000 C 
BRANCH  13  14
ATOM     14  C   UNL     1     -14.897 -19.550   5.275  1.00  0.00    -0.000 C 
BRANCH  14  15
ATOM     15  C   UNL     1     -13.487 -19.296   5.828  1.00  0.00    -0.000 C 
BRANCH  15  16
ATOM     16  C   UNL     1     -12.416 -19.271   4.726  1.00  0.00    -0.003 C 
ATOM     17  C   UNL     1     -11.188 -18.447   5.111  1.00  0.00     0.004 C 
ENDBRANCH  15  16
ENDBRANCH  14  15
ENDBRANCH  13  14
ENDBRANCH  12  13
ENDBRANCH  11  12
ENDBRANCH  10  11
ENDBRANCH   1  10
TORSDOF 13
ENDMDL
MODEL 2
REMARK VINA RESULT:    -3.536      2.640      6.007
REMARK INTER + INTRA:          -7.868
REMARK INTER:                  -6.218
REMARK INTRA:                  -1.650
REMARK UNBOUND:                -1.644
REMARK SMILES CCCCCCCCCCCCCCC(=O)[O-]
REMARK SMILES IDX 9 1 10 2 11 3 12 4 13 5 14 6 15 7 16 8 17 9 8 10 7 11 6 12
REMARK SMILES IDX 5 13 4 14 3 15 2 16 1 17
REMARK H PARENT
REMARK Flexibility Score: inf
ROOT
ATOM      1  C   UNL     1     -14.239 -15.190   4.854  1.00  0.00     0.000 C 
ENDROOT
BRANCH   1   2
ATOM      2  C   UNL     1     -14.600 -16.246   3.797  1.00  0.00     0.000 C 
BRANCH   2   3
ATOM      3  C   UNL     1     -13.363 -16.793   3.063  1.00  0.00     0.000 C 
BRANCH   3   4
ATOM      4  C   UNL     1     -13.328 -18.329   3.026  1.00  0.00     0.000 C 
BRANCH   4   5
ATOM      5  C   UNL     1     -12.088 -18.908   3.729  1.00  0.00     0.006 C 
BRANCH   5   6
ATOM      6  C   UNL     1     -12.143 -18.716   5.251  1.00  0.00     0.053 C 
BRANCH   6   7
ATOM      7  C   UNL     1     -13.379 -19.319   5.844  1.00  0.00     0.041 C 
ATOM      8  O   UNL     1     -13.623 -20.546   5.694  1.00  0.00    -0.550 OA
ATOM      9  O   UNL     1     -14.248 -18.531   6.589  1.00  0.00    -0.550 OA
ENDBRANCH   6   7
ENDBRANCH   5   6
ENDBRANCH   4   5
ENDBRANCH   3   4
ENDBRANCH   2   3
ENDBRANCH   1   2
BRANCH   1  10
ATOM     10  C   UNL     1     -15.377 -14.187   5.100  1.00  0.00     0.000 C 
BRANCH  10  11
ATOM     11  C   UNL     1     -14.827 -12.844   5.598  1.00  0.00    -0.000 C 
BRANCH  11  12
ATOM     12  C   UNL     1     -13.293 -12.819   5.527  1.00  0.00    -0.000 C 
BRANCH  12  13
ATOM     13  C   UNL     1     -12.766 -11.860   4.448  1.00  0.00    -0.000 C 
BRANCH  13  14
ATOM     14  C   UNL     1     -13.849 -11.446   3.440  1.00  0.00    -0.000 C 
BRANCH  14  15
ATOM     15  C   UNL     1     -13.681 -12.200   2.113  1.00  0.00    -0.000 C 
BRANCH  15  16
ATOM     16  C   UNL     1     -12.352 -12.967   2.033  1.00  0.00    -0.003 C 
ATOM     17  C   UNL     1     -12.336 -14.011   0.918  1.00  0.00     0.004 C 
ENDBRANCH  15  16
ENDBRANCH  14  15
ENDBRANCH  13  14
ENDBRANCH  12  13
ENDBRANCH  11  12
ENDBRANCH  10  11
ENDBRANCH   1  10
TORSDOF 13
ENDMDL
MODEL 3
REMARK VINA RESULT:    -3.506      2.351      6.384
REMARK INTER + INTRA:          -7.815
REMARK INTER:                  -6.107
REMARK INTRA:                  -1.708
REMARK UNBOUND:                -1.644
REMARK SMILES CCCCCCCCCCCCCCC(=O)[O-]
REMARK SMILES IDX 9 1 10 2 11 3 12 4 13 5 14 6 15 7 16 8 17 9 8 10 7 11 6 12
REMARK SMILES IDX 5 13 4 14 3 15 2 16 1 17
REMARK H PARENT
REMARK Flexibility Score: inf
ROOT
ATOM      1  C   UNL     1     -13.899 -15.864   4.253  1.00  0.00     0.000 C 
ENDROOT
BRANCH   1   2
ATOM      2  C   UNL     1     -15.209 -16.106   5.021  1.00  0.00     0.000 C 
BRANCH   2   3
ATOM      3  C   UNL     1     -15.096 -17.259   6.033  1.00  0.00     0.000 C 
BRANCH   3   4
ATOM      4  C   UNL     1     -15.587 -18.598   5.461  1.00  0.00     0.000 C 
BRANCH   4   5
ATOM      5  C   UNL     1     -14.430 -19.510   5.015  1.00  0.00     0.006 C 
BRANCH   5   6
ATOM      6  C   UNL     1     -13.125 -19.194   5.759  1.00  0.00     0.053 C 
BRANCH   6   7
ATOM      7  C   UNL     1     -11.997 -18.920   4.812  1.00  0.00     0.041 C 
ATOM      8  O   UNL     1     -12.126 -19.162   3.583  1.00  0.00    -0.550 OA
ATOM      9  O   UNL     1     -10.812 -18.368   5.284  1.00  0.00    -0.550 OA
ENDBRANCH   6   7
ENDBRANCH   5   6
ENDBRANCH   4   5
ENDBRANCH   3   4
ENDBRANCH   2   3
ENDBRANCH   1   2
BRANCH   1  10
ATOM     10  C   UNL     1     -14.024 -16.182   2.755  1.00  0.00     0.000 C 
BRANCH  10  11
ATOM     11  C   UNL     1     -14.062 -14.895   1.922  1.00  0.00    -0.000 C 
BRANCH  11  12
ATOM     12  C   UNL     1     -12.651 -14.491   1.470  1.00  0.00    -0.000 C 
BRANCH  12  13
ATOM     13  C   UNL     1     -12.295 -13.047   1.857  1.00  0.00    -0.000 C 
BRANCH  13  14
ATOM     14  C   UNL     1     -13.388 -12.372   2.699  1.00  0.00    -0.000 C 
BRANCH  14  15
ATOM     15  C   UNL     1     -12.780 -11.647   3.909  1.00  0.00    -0.000 C 
BRANCH  15  16
ATOM     16  C   UNL     1     -12.992 -12.413   5.224  1.00  0.00    -0.003 C 
ATOM     17  C   UNL     1     -14.465 -12.519   5.618  1.00  0.00     0.004 C 
ENDBRANCH  15  16
ENDBRANCH  14  15
ENDBRANCH  13  14
ENDBRANCH  12  13
ENDBRANCH  11  12
ENDBRANCH  10  11
ENDBRANCH   1  10
TORSDOF 13
ENDMDL
MODEL 4
REMARK VINA RESULT:    -3.444      2.369      6.397
REMARK INTER + INTRA:          -7.705
REMARK INTER:                  -6.225
REMARK INTRA:                  -1.480
REMARK UNBOUND:                -1.644
REMARK SMILES CCCCCCCCCCCCCCC(=O)[O-]
REMARK SMILES IDX 9 1 10 2 11 3 12 4 13 5 14 6 15 7 16 8 17 9 8 10 7 11 6 12
REMARK SMILES IDX 5 13 4 14 3 15 2 16 1 17
REMARK H PARENT
REMARK Flexibility Score: inf
ROOT
ATOM      1  C   UNL     1     -14.452 -15.380   4.903  1.00  0.00     0.000 C 
ENDROOT
BRANCH   1   2
ATOM      2  C   UNL     1     -15.645 -16.347   4.953  1.00  0.00     0.000 C 
BRANCH   2   3
ATOM      3  C   UNL     1     -15.939 -16.850   6.378  1.00  0.00     0.000 C 
BRANCH   3   4
ATOM      4  C   UNL     1     -14.974 -17.959   6.825  1.00  0.00     0.000 C 
BRANCH   4   5
ATOM      5  C   UNL     1     -14.680 -18.973   5.705  1.00  0.00     0.006 C 
BRANCH   5   6
ATOM      6  C   UNL     1     -13.230 -19.474   5.745  1.00  0.00     0.053 C 
BRANCH   6   7
ATOM      7  C   UNL     1     -12.343 -18.684   4.832  1.00  0.00     0.041 C 
ATOM      8  O   UNL     1     -11.147 -18.453   5.151  1.00  0.00    -0.550 OA
ATOM      9  O   UNL     1     -12.831 -18.229   3.612  1.00  0.00    -0.550 OA
ENDBRANCH   6   7
ENDBRANCH   5   6
ENDBRANCH   4   5
ENDBRANCH   3   4
ENDBRANCH   2   3
ENDBRANCH   1   2
BRANCH   1  10
ATOM     10  C   UNL     1     -14.830 -13.951   5.325  1.00  0.00     0.000 C 
BRANCH  10  11
ATOM     11  C   UNL     1     -13.580 -13.082   5.505  1.00  0.00    -0.000 C 
BRANCH  11  12
ATOM     12  C   UNL     1     -13.836 -11.645   5.025  1.00  0.00    -0.000 C 
BRANCH  12  13
ATOM     13  C   UNL     1     -12.921 -11.238   3.860  1.00  0.00    -0.000 C 
BRANCH  13  14
ATOM     14  C   UNL     1     -13.698 -10.967   2.562  1.00  0.00    -0.000 C 
BRANCH  14  15
ATOM     15  C   UNL     1     -13.827 -12.246   1.722  1.00  0.00    -0.000 C 
BRANCH  15  16
ATOM     16  C   UNL     1     -12.584 -13.143   1.818  1.00  0.00    -0.003 C 
ATOM     17  C   UNL     1     -12.912 -14.628   1.669  1.00  0.00     0.004 C 
ENDBRANCH  15  16
ENDBRANCH  14  15
ENDBRANCH  13  14
ENDBRANCH  12  13
ENDBRANCH  11  12
ENDBRANCH  10  11
ENDBRANCH   1  10
TORSDOF 13
ENDMDL
MODEL 5
REMARK VINA RESULT:    -3.355      1.498      3.628
REMARK INTER + INTRA:          -7.549
REMARK INTER:                  -5.927
REMARK INTRA:                  -1.621
REMARK UNBOUND:                -1.644
REMARK SMILES CCCCCCCCCCCCCCC(=O)[O-]
REMARK SMILES IDX 9 1 10 2 11 3 12 4 13 5 14 6 15 7 16 8 17 9 8 10 7 11 6 12
REMARK SMILES IDX 5 13 4 14 3 15 2 16 1 17
REMARK H PARENT
REMARK Flexibility Score: inf
ROOT
ATOM      1  C   UNL     1     -15.623 -17.892   5.782  1.00  0.00     0.000 C 
ENDROOT
BRANCH   1   2
ATOM      2  C   UNL     1     -15.890 -16.395   6.004  1.00  0.00     0.000 C 
BRANCH   2   3
ATOM      3  C   UNL     1     -15.559 -15.545   4.763  1.00  0.00     0.000 C 
BRANCH   3   4
ATOM      4  C   UNL     1     -14.237 -14.776   4.910  1.00  0.00     0.000 C 
BRANCH   4   5
ATOM      5  C   UNL     1     -14.439 -13.354   5.461  1.00  0.00     0.006 C 
BRANCH   5   6
ATOM      6  C   UNL     1     -13.131 -12.551   5.485  1.00  0.00     0.053 C 
BRANCH   6   7
ATOM      7  C   UNL     1     -12.974 -11.706   4.258  1.00  0.00     0.041 C 
ATOM      8  O   UNL     1     -13.272 -10.482   4.288  1.00  0.00    -0.550 OA
ATOM      9  O   UNL     1     -12.470 -12.263   3.089  1.00  0.00    -0.550 OA
ENDBRANCH   6   7
ENDBRANCH   5   6
ENDBRANCH   4   5
ENDBRANCH   3   4
ENDBRANCH   2   3
ENDBRANCH   1   2
BRANCH   1  10
ATOM     10  C   UNL     1     -14.421 -18.405   6.589  1.00  0.00     0.000 C 
BRANCH  10  11
ATOM     11  C   UNL     1     -13.580 -19.383   5.760  1.00  0.00    -0.000 C 
BRANCH  11  12
ATOM     12  C   UNL     1     -12.263 -18.732   5.312  1.00  0.00    -0.000 C 
BRANCH  12  13
ATOM     13  C   UNL     1     -12.075 -18.764   3.787  1.00  0.00    -0.000 C 
BRANCH  13  14
ATOM     14  C   UNL     1     -13.358 -19.156   3.039  1.00  0.00    -0.000 C 
BRANCH  14  15
ATOM     15  C   UNL     1     -14.018 -17.925   2.399  1.00  0.00    -0.000 C 
BRANCH  15  16
ATOM     16  C   UNL     1     -13.091 -17.207   1.406  1.00  0.00    -0.003 C 
ATOM     17  C   UNL     1     -13.123 -15.687   1.558  1.00  0.00     0.004 C 
ENDBRANCH  15  16
ENDBRANCH  14  15
ENDBRANCH  13  14
ENDBRANCH  12  13
ENDBRANCH  11  12
ENDBRANCH  10  11
ENDBRANCH   1  10
TORSDOF 13
ENDMDL
MODEL 6
REMARK VINA RESULT:    -3.322      2.718      6.242
REMARK INTER + INTRA:          -7.492
REMARK INTER:                  -5.934
REMARK INTRA:                  -1.557
REMARK UNBOUND:                -1.644
REMARK SMILES CCCCCCCCCCCCCCC(=O)[O-]
REMARK SMILES IDX 9 1 10 2 11 3 12 4 13 5 14 6 15 7 16 8 17 9 8 10 7 11 6 12
REMARK SMILES IDX 5 13 4 14 3 15 2 16 1 17
REMARK H PARENT
REMARK Flexibility Score: inf
ROOT
ATOM      1  C   UNL     1     -15.960 -16.563   6.005  1.00  0.00     0.000 C 
ENDROOT
BRANCH   1   2
ATOM      2  C   UNL     1     -15.766 -17.996   6.527  1.00  0.00     0.000 C 
BRANCH   2   3
ATOM      3  C   UNL     1     -14.283 -18.351   6.741  1.00  0.00     0.000 C 
BRANCH   3   4
ATOM      4  C   UNL     1     -13.793 -19.445   5.780  1.00  0.00     0.000 C 
BRANCH   4   5
ATOM      5  C   UNL     1     -12.423 -19.116   5.161  1.00  0.00     0.006 C 
BRANCH   5   6
ATOM      6  C   UNL     1     -12.510 -17.978   4.136  1.00  0.00     0.053 C 
BRANCH   6   7
ATOM      7  C   UNL     1     -12.699 -18.497   2.743  1.00  0.00     0.041 C 
ATOM      8  O   UNL     1     -13.579 -17.997   1.993  1.00  0.00    -0.550 OA
ATOM      9  O   UNL     1     -11.883 -19.514   2.263  1.00  0.00    -0.550 OA
ENDBRANCH   6   7
ENDBRANCH   5   6
ENDBRANCH   4   5
ENDBRANCH   3   4
ENDBRANCH   2   3
ENDBRANCH   1   2
BRANCH   1  10
ATOM     10  C   UNL     1     -15.947 -16.487   4.470  1.00  0.00     0.000 C 
BRANCH  10  11
ATOM     11  C   UNL     1     -14.996 -15.387   3.983  1.00  0.00    -0.000 C 
BRANCH  11  12
ATOM     12  C   UNL     1     -14.346 -14.658   5.169  1.00  0.00    -0.000 C 
BRANCH  12  13
ATOM     13  C   UNL     1     -14.457 -13.130   5.059  1.00  0.00    -0.000 C 
BRANCH  13  14
ATOM     14  C   UNL     1     -13.119 -12.417   5.304  1.00  0.00    -0.000 C 
BRANCH  14  15
ATOM     15  C   UNL     1     -12.674 -11.640   4.056  1.00  0.00    -0.000 C 
BRANCH  15  16
ATOM     16  C   UNL     1     -13.327 -12.166   2.769  1.00  0.00    -0.003 C 
ATOM     17  C   UNL     1     -12.389 -13.049   1.946  1.00  0.00     0.004 C 
ENDBRANCH  15  16
ENDBRANCH  14  15
ENDBRANCH  13  14
ENDBRANCH  12  13
ENDBRANCH  11  12
ENDBRANCH  10  11
ENDBRANCH   1  10
TORSDOF 13
ENDMDL
MODEL 7
REMARK VINA RESULT:    -3.229      1.827      3.837
REMARK INTER + INTRA:          -7.326
REMARK INTER:                  -5.336
REMARK INTRA:                  -1.990
REMARK UNBOUND:                -1.644
REMARK SMILES CCCCCCCCCCCCCCC(=O)[O-]
REMARK SMILES IDX 9 1 10 2 11 3 12 4 13 5 14 6 15 7 16 8 17 9 8 10 7 11 6 12
REMARK SMILES IDX 5 13 4 14 3 15 2 16 1 17
REMARK H PARENT
REMARK Flexibility Score: inf
ROOT
ATOM      1  C   UNL     1     -14.285 -18.461   6.532  1.00  0.00     0.000 C 
ENDROOT
BRANCH   1   2
ATOM      2  C   UNL     1     -15.336 -17.826   5.608  1.00  0.00     0.000 C 
BRANCH   2   3
ATOM      3  C   UNL     1     -15.279 -16.288   5.618  1.00  0.00     0.000 C 
BRANCH   3   4
ATOM      4  C   UNL     1     -15.132 -15.693   4.209  1.00  0.00     0.000 C 
BRANCH   4   5
ATOM      5  C   UNL     1     -14.108 -14.546   4.156  1.00  0.00     0.006 C 
BRANCH   5   6
ATOM      6  C   UNL     1     -14.299 -13.546   5.304  1.00  0.00     0.053 C 
BRANCH   6   7
ATOM      7  C   UNL     1     -13.129 -12.620   5.437  1.00  0.00     0.041 C 
ATOM      8  O   UNL     1     -12.405 -12.655   6.467  1.00  0.00    -0.550 OA
ATOM      9  O   UNL     1     -12.820 -11.739   4.408  1.00  0.00    -0.550 OA
ENDBRANCH   6   7
ENDBRANCH   5   6
ENDBRANCH   4   5
ENDBRANCH   3   4
ENDBRANCH   2   3
ENDBRANCH   1   2
BRANCH   1  10
ATOM     10  C   UNL     1     -13.283 -19.343   5.770  1.00  0.00     0.000 C 
BRANCH  10  11
ATOM     11  C   UNL     1     -12.232 -18.487   5.053  1.00  0.00    -0.000 C 
BRANCH  11  12
ATOM     12  C   UNL     1     -12.071 -18.926   3.590  1.00  0.00    -0.000 C 
BRANCH  12  13
ATOM     13  C   UNL     1     -12.927 -18.092   2.623  1.00  0.00    -0.000 C 
BRANCH  13  14
ATOM     14  C   UNL     1     -13.776 -18.959   1.682  1.00  0.00    -0.000 C 
BRANCH  14  15
ATOM     15  C   UNL     1     -15.220 -19.071   2.192  1.00  0.00    -0.000 C 
BRANCH  15  16
ATOM     16  C   UNL     1     -15.473 -20.370   2.971  1.00  0.00    -0.003 C 
ATOM     17  C   UNL     1     -14.611 -21.533   2.481  1.00  0.00     0.004 C 
ENDBRANCH  15  16
ENDBRANCH  14  15
ENDBRANCH  13  14
ENDBRANCH  12  13
ENDBRANCH  11  12
ENDBRANCH  10  11
ENDBRANCH   1  10
TORSDOF 13
ENDMDL
MODEL 8
REMARK VINA RESULT:    -3.215      2.331      3.233
REMARK INTER + INTRA:          -7.303
REMARK INTER:                  -5.981
REMARK INTRA:                  -1.322
REMARK UNBOUND:                -1.644
REMARK SMILES CCCCCCCCCCCCCCC(=O)[O-]
REMARK SMILES IDX 9 1 10 2 11 3 12 4 13 5 14 6 15 7 16 8 17 9 8 10 7 11 6 12
REMARK SMILES IDX 5 13 4 14 3 15 2 16 1 17
REMARK H PARENT
REMARK Flexibility Score: inf
ROOT
ATOM      1  C   UNL     1     -13.519 -13.386   5.459  1.00  0.00     0.000 C 
ENDROOT
BRANCH   1   2
ATOM      2  C   UNL     1     -13.296 -11.963   4.922  1.00  0.00     0.000 C 
BRANCH   2   3
ATOM      3  C   UNL     1     -12.677 -11.954   3.513  1.00  0.00     0.000 C 
BRANCH   3   4
ATOM      4  C   UNL     1     -13.668 -11.484   2.435  1.00  0.00     0.000 C 
BRANCH   4   5
ATOM      5  C   UNL     1     -14.891 -10.765   3.031  1.00  0.00     0.006 C 
BRANCH   5   6
ATOM      6  C   UNL     1     -14.988  -9.306   2.564  1.00  0.00     0.053 C 
BRANCH   6   7
ATOM      7  C   UNL     1     -13.855  -8.478   3.089  1.00  0.00     0.041 C 
ATOM      8  O   UNL     1     -13.162  -7.780   2.303  1.00  0.00    -0.550 OA
ATOM      9  O   UNL     1     -13.585  -8.453   4.452  1.00  0.00    -0.550 OA
ENDBRANCH   6   7
ENDBRANCH   5   6
ENDBRANCH   4   5
ENDBRANCH   3   4
ENDBRANCH   2   3
ENDBRANCH   1   2
BRANCH   1  10
ATOM     10  C   UNL     1     -14.994 -13.812   5.412  1.00  0.00     0.000 C 
BRANCH  10  11
ATOM     11  C   UNL     1     -15.129 -15.280   4.987  1.00  0.00    -0.000 C 
BRANCH  11  12
ATOM     12  C   UNL     1     -14.324 -15.557   3.708  1.00  0.00    -0.000 C 
BRANCH  12  13
ATOM     13  C   UNL     1     -13.497 -16.849   3.797  1.00  0.00    -0.000 C 
BRANCH  13  14
ATOM     14  C   UNL     1     -13.801 -17.663   5.065  1.00  0.00    -0.000 C 
BRANCH  14  15
ATOM     15  C   UNL     1     -12.988 -18.966   5.089  1.00  0.00    -0.000 C 
BRANCH  15  16
ATOM     16  C   UNL     1     -11.622 -18.822   4.400  1.00  0.00    -0.003 C 
ATOM     17  C   UNL     1     -10.503 -18.454   5.374  1.00  0.00     0.004 C 
ENDBRANCH  15  16
ENDBRANCH  14  15
ENDBRANCH  13  14
ENDBRANCH  12  13
ENDBRANCH  11  12
ENDBRANCH  10  11
ENDBRANCH   1  10
TORSDOF 13
ENDMDL
MODEL 9
REMARK VINA RESULT:    -3.175      2.837      6.540
REMARK INTER + INTRA:          -7.232
REMARK INTER:                  -5.362
REMARK INTRA:                  -1.869
REMARK UNBOUND:                -1.644
REMARK SMILES CCCCCCCCCCCCCCC(=O)[O-]
REMARK SMILES IDX 9 1 10 2 11 3 12 4 13 5 14 6 15 7 16 8 17 9 8 10 7 11 6 12
REMARK SMILES IDX 5 13 4 14 3 15 2 16 1 17
REMARK H PARENT
REMARK Flexibility Score: inf
ROOT
ATOM      1  C   UNL     1     -13.465 -12.958   5.386  1.00  0.00     0.000 C 
ENDROOT
BRANCH   1   2
ATOM      2  C   UNL     1     -14.998 -13.050   5.329  1.00  0.00     0.000 C 
BRANCH   2   3
ATOM      3  C   UNL     1     -15.489 -14.424   4.838  1.00  0.00     0.000 C 
BRANCH   3   4
ATOM      4  C   UNL     1     -14.357 -15.280   4.249  1.00  0.00     0.000 C 
BRANCH   4   5
ATOM      5  C   UNL     1     -14.300 -16.689   4.865  1.00  0.00     0.006 C 
BRANCH   5   6
ATOM      6  C   UNL     1     -13.139 -17.520   4.302  1.00  0.00     0.053 C 
BRANCH   6   7
ATOM      7  C   UNL     1     -13.015 -18.843   4.995  1.00  0.00     0.041 C 
ATOM      8  O   UNL     1     -13.438 -18.986   6.172  1.00  0.00    -0.550 OA
ATOM      9  O   UNL     1     -12.459 -19.927   4.327  1.00  0.00    -0.550 OA
ENDBRANCH   6   7
ENDBRANCH   5   6
ENDBRANCH   4   5
ENDBRANCH   3   4
ENDBRANCH   2   3
ENDBRANCH   1   2
BRANCH   1  10
ATOM     10  C   UNL     1     -12.924 -11.676   4.732  1.00  0.00     0.000 C 
BRANCH  10  11
ATOM     11  C   UNL     1     -14.025 -10.615   4.612  1.00  0.00    -0.000 C 
BRANCH  11  12
ATOM     12  C   UNL     1     -13.685  -9.592   3.517  1.00  0.00    -0.000 C 
BRANCH  12  13
ATOM     13  C   UNL     1     -14.017 -10.101   2.106  1.00  0.00    -0.000 C 
BRANCH  13  14
ATOM     14  C   UNL     1     -15.147 -11.142   2.101  1.00  0.00    -0.000 C 
BRANCH  14  15
ATOM     15  C   UNL     1     -14.680 -12.457   1.461  1.00  0.00    -0.000 C 
BRANCH  15  16
ATOM     16  C   UNL     1     -13.215 -12.402   1.001  1.00  0.00    -0.003 C 
ATOM     17  C   UNL     1     -12.365 -13.525   1.594  1.00  0.00     0.004 C 
ENDBRANCH  15  16
ENDBRANCH  14  15
ENDBRANCH  13  14
ENDBRANCH  12  13
ENDBRANCH  11  12
ENDBRANCH  10  11
ENDBRANCH   1  10
TORSDOF 13
ENDMDL
