MODEL 1
REMARK VINA RESULT:    -7.571      0.000      0.000
REMARK INTER + INTRA:         -12.587
REMARK INTER:                 -11.111
REMARK INTRA:                  -1.475
REMARK UNBOUND:                -1.475
REMARK SMILES O=c1c(O[C@@H]2O[C@@H](CO)[C@H](O)[C@@H](O)[C@H]2O)c(-c2ccc(O)c(O)c2)oc2cc(O)cc(O)c12
REMARK SMILES IDX 4 1 3 2 16 3 25 4 2 5 26 6 1 7 33 8 27 9 31 10 28 11 30 12
REMARK SMILES IDX 17 13 18 14 19 15 20 16 24 17 22 18 21 19 23 21 32 23 29 25
REMARK SMILES IDX 5 27 14 28 6 29 12 30 7 31 10 32 15 33 13 35 8 37 9 38 11 40
REMARK H PARENT 21 20 23 22 32 24 29 26 15 34 13 36 9 39 11 41
REMARK Flexibility Score: inf
ROOT
ATOM      1  O   UNL     1      27.271   0.665  30.115  1.00  0.00    -0.454 OA
ENDROOT
BRANCH   1   2
ATOM      2  C   UNL     1      26.704  -0.373  30.902  1.00  0.00     0.214 A 
ATOM      3  C   UNL     1      25.742  -1.233  30.314  1.00  0.00     0.180 A 
ATOM      4  O   UNL     1      25.227  -2.241  31.026  1.00  0.00    -0.452 OA
ATOM      5  C   UNL     1      27.027  -0.576  32.263  1.00  0.00     0.239 A 
ATOM      6  C   UNL     1      25.543  -2.485  32.291  1.00  0.00     0.146 A 
ATOM      7  O   UNL     1      27.827   0.192  32.850  1.00  0.00    -0.285 OA
ATOM      8  C   UNL     1      26.439  -1.644  32.978  1.00  0.00     0.111 A 
ATOM      9  C   UNL     1      24.966  -3.587  32.932  1.00  0.00     0.094 A 
ATOM     10  C   UNL     1      26.743  -1.921  34.334  1.00  0.00     0.134 A 
ATOM     11  C   UNL     1      25.272  -3.858  34.266  1.00  0.00     0.123 A 
ATOM     12  C   UNL     1      26.152  -3.027  34.958  1.00  0.00     0.093 A 
BRANCH   3  13
ATOM     13  C   UNL     1      25.299  -1.109  28.903  1.00  0.00     0.025 A 
ATOM     14  C   UNL     1      24.158  -0.370  28.539  1.00  0.00     0.016 A 
ATOM     15  C   UNL     1      23.766  -0.286  27.201  1.00  0.00     0.051 A 
ATOM     16  C   UNL     1      24.472  -0.983  26.217  1.00  0.00     0.157 A 
ATOM     17  C   UNL     1      25.996  -1.811  27.905  1.00  0.00     0.062 A 
ATOM     18  C   UNL     1      25.587  -1.751  26.569  1.00  0.00     0.158 A 
BRANCH  16  19
ATOM     19  O   UNL     1      24.071  -0.922  24.887  1.00  0.00    -0.504 OA
ATOM     20  H   UNL     1      24.097  -0.054  24.372  1.00  0.00     0.293 HD
ENDBRANCH  16  19
BRANCH  18  21
ATOM     21  O   UNL     1      26.281  -2.452  25.585  1.00  0.00    -0.504 OA
ATOM     22  H   UNL     1      26.883  -1.983  24.928  1.00  0.00     0.293 HD
ENDBRANCH  18  21
ENDBRANCH   3  13
BRANCH  10  23
ATOM     23  O   UNL     1      27.615  -1.110  35.056  1.00  0.00    -0.507 OA
ATOM     24  H   UNL     1      27.366  -0.177  35.338  1.00  0.00     0.293 HD
ENDBRANCH  10  23
BRANCH  11  25
ATOM     25  O   UNL     1      24.700  -4.951  34.914  1.00  0.00    -0.508 OA
ATOM     26  H   UNL     1      24.510  -5.811  34.423  1.00  0.00     0.293 HD
ENDBRANCH  11  25
ENDBRANCH   1   2
BRANCH   1  27
ATOM     27  C   UNL     1      28.668   0.936  29.913  1.00  0.00     0.339 C 
ATOM     28  C   UNL     1      29.490  -0.367  29.881  1.00  0.00     0.214 C 
ATOM     29  O   UNL     1      28.867   1.703  28.728  1.00  0.00    -0.332 OA
ATOM     30  C   UNL     1      29.227  -1.147  28.564  1.00  0.00     0.180 C 
ATOM     31  C   UNL     1      28.487   1.019  27.550  1.00  0.00     0.179 C 
ATOM     32  C   UNL     1      29.369  -0.229  27.334  1.00  0.00     0.177 C 
BRANCH  28  33
ATOM     33  O   UNL     1      30.855  -0.074  30.088  1.00  0.00    -0.384 OA
ATOM     34  H   UNL     1      30.954   0.907  30.212  1.00  0.00     0.211 HD
ENDBRANCH  28  33
BRANCH  30  35
ATOM     35  O   UNL     1      30.045  -2.279  28.460  1.00  0.00    -0.387 OA
ATOM     36  H   UNL     1      29.504  -3.013  28.063  1.00  0.00     0.211 HD
ENDBRANCH  30  35
BRANCH  31  37
ATOM     37  C   UNL     1      28.636   2.038  26.397  1.00  0.00     0.191 C 
BRANCH  37  38
ATOM     38  O   UNL     1      27.832   1.660  25.305  1.00  0.00    -0.394 OA
ATOM     39  H   UNL     1      28.063   2.257  24.556  1.00  0.00     0.210 HD
ENDBRANCH  37  38
ENDBRANCH  31  37
BRANCH  32  40
ATOM     40  O   UNL     1      28.949  -0.929  26.191  1.00  0.00    -0.387 OA
ATOM     41  H   UNL     1      29.302  -1.852  26.255  1.00  0.00     0.211 HD
ENDBRANCH  32  40
ENDBRANCH   1  27
TORSDOF 12
ENDMDL
MODEL 2
REMARK VINA RESULT:    -7.340     12.538     15.829
REMARK INTER + INTRA:         -12.248
REMARK INTER:                 -10.461
REMARK INTRA:                  -1.787
REMARK UNBOUND:                -1.475
REMARK SMILES O=c1c(O[C@@H]2O[C@@H](CO)[C@H](O)[C@@H](O)[C@H]2O)c(-c2ccc(O)c(O)c2)oc2cc(O)cc(O)c12
REMARK SMILES IDX 4 1 3 2 16 3 25 4 2 5 26 6 1 7 33 8 27 9 31 10 28 11 30 12
REMARK SMILES IDX 17 13 18 14 19 15 20 16 24 17 22 18 21 19 23 21 32 23 29 25
REMARK SMILES IDX 5 27 14 28 6 29 12 30 7 31 10 32 15 33 13 35 8 37 9 38 11 40
REMARK H PARENT 21 20 23 22 32 24 29 26 15 34 13 36 9 39 11 41
REMARK Flexibility Score: inf
ROOT
ATOM      1  O   UNL     1      15.033  -9.833  28.669  1.00  0.00    -0.454 OA
ENDROOT
BRANCH   1   2
ATOM      2  C   UNL     1      16.343 -10.190  28.251  1.00  0.00     0.214 A 
ATOM      3  C   UNL     1      17.327 -10.466  29.235  1.00  0.00     0.180 A 
ATOM      4  O   UNL     1      18.554 -10.843  28.861  1.00  0.00    -0.452 OA
ATOM      5  C   UNL     1      16.731 -10.252  26.893  1.00  0.00     0.239 A 
ATOM      6  C   UNL     1      18.936 -10.954  27.596  1.00  0.00     0.146 A 
ATOM      7  O   UNL     1      15.918  -9.959  25.983  1.00  0.00    -0.285 OA
ATOM      8  C   UNL     1      18.047 -10.637  26.551  1.00  0.00     0.111 A 
ATOM      9  C   UNL     1      20.238 -11.387  27.318  1.00  0.00     0.094 A 
ATOM     10  C   UNL     1      18.492 -10.749  25.210  1.00  0.00     0.134 A 
ATOM     11  C   UNL     1      20.668 -11.500  25.996  1.00  0.00     0.123 A 
ATOM     12  C   UNL     1      19.799 -11.180  24.954  1.00  0.00     0.093 A 
BRANCH   3  13
ATOM     13  C   UNL     1      17.052 -10.409  30.692  1.00  0.00     0.025 A 
ATOM     14  C   UNL     1      16.332 -11.419  31.357  1.00  0.00     0.016 A 
ATOM     15  C   UNL     1      16.083 -11.323  32.729  1.00  0.00     0.051 A 
ATOM     16  C   UNL     1      16.499 -10.196  33.443  1.00  0.00     0.157 A 
ATOM     17  C   UNL     1      17.459  -9.278  31.419  1.00  0.00     0.062 A 
ATOM     18  C   UNL     1      17.185  -9.169  32.787  1.00  0.00     0.158 A 
BRANCH  16  19
ATOM     19  O   UNL     1      16.232 -10.087  34.803  1.00  0.00    -0.504 OA
ATOM     20  H   UNL     1      16.601 -10.754  35.464  1.00  0.00     0.293 HD
ENDBRANCH  16  19
BRANCH  18  21
ATOM     21  O   UNL     1      17.588  -8.042  33.501  1.00  0.00    -0.504 OA
ATOM     22  H   UNL     1      18.119  -8.120  34.353  1.00  0.00     0.293 HD
ENDBRANCH  18  21
ENDBRANCH   3  13
BRANCH  10  23
ATOM     23  O   UNL     1      17.651 -10.435  24.145  1.00  0.00    -0.507 OA
ATOM     24  H   UNL     1      17.993  -9.994  23.308  1.00  0.00     0.293 HD
ENDBRANCH  10  23
BRANCH  11  25
ATOM     25  O   UNL     1      21.964 -11.928  25.710  1.00  0.00    -0.508 OA
ATOM     26  H   UNL     1      22.445 -11.621  24.878  1.00  0.00     0.293 HD
ENDBRANCH  11  25
ENDBRANCH   1   2
BRANCH   1  27
ATOM     27  C   UNL     1      14.531  -8.509  28.914  1.00  0.00     0.339 C 
ATOM     28  C   UNL     1      13.275  -8.223  28.067  1.00  0.00     0.214 C 
ATOM     29  O   UNL     1      14.273  -8.317  30.303  1.00  0.00    -0.332 OA
ATOM     30  C   UNL     1      12.058  -9.021  28.607  1.00  0.00     0.180 C 
ATOM     31  C   UNL     1      13.252  -9.157  30.803  1.00  0.00     0.179 C 
ATOM     32  C   UNL     1      11.901  -8.837  30.129  1.00  0.00     0.177 C 
BRANCH  28  33
ATOM     33  O   UNL     1      13.046  -6.831  28.012  1.00  0.00    -0.384 OA
ATOM     34  H   UNL     1      13.762  -6.413  27.464  1.00  0.00     0.211 HD
ENDBRANCH  28  33
BRANCH  30  35
ATOM     35  O   UNL     1      10.880  -8.694  27.923  1.00  0.00    -0.387 OA
ATOM     36  H   UNL     1      10.848  -9.237  27.091  1.00  0.00     0.211 HD
ENDBRANCH  30  35
BRANCH  31  37
ATOM     37  C   UNL     1      13.208  -8.915  32.330  1.00  0.00     0.191 C 
BRANCH  37  38
ATOM     38  O   UNL     1      12.708 -10.053  32.990  1.00  0.00    -0.394 OA
ATOM     39  H   UNL     1      13.457 -10.449  33.491  1.00  0.00     0.210 HD
ENDBRANCH  37  38
ENDBRANCH  31  37
BRANCH  32  40
ATOM     40  O   UNL     1      10.905  -9.712  30.594  1.00  0.00    -0.387 OA
ATOM     41  H   UNL     1      10.337  -9.961  29.823  1.00  0.00     0.211 HD
ENDBRANCH  32  40
ENDBRANCH   1  27
TORSDOF 12
ENDMDL
MODEL 3
REMARK VINA RESULT:    -7.202     11.509     13.874
REMARK INTER + INTRA:         -12.046
REMARK INTER:                 -10.565
REMARK INTRA:                  -1.481
REMARK UNBOUND:                -1.475
REMARK SMILES O=c1c(O[C@@H]2O[C@@H](CO)[C@H](O)[C@@H](O)[C@H]2O)c(-c2ccc(O)c(O)c2)oc2cc(O)cc(O)c12
REMARK SMILES IDX 4 1 3 2 16 3 25 4 2 5 26 6 1 7 33 8 27 9 31 10 28 11 30 12
REMARK SMILES IDX 17 13 18 14 19 15 20 16 24 17 22 18 21 19 23 21 32 23 29 25
REMARK SMILES IDX 5 27 14 28 6 29 12 30 7 31 10 32 15 33 13 35 8 37 9 38 11 40
REMARK H PARENT 21 20 23 22 32 24 29 26 15 34 13 36 9 39 11 41
REMARK Flexibility Score: inf
ROOT
ATOM      1  O   UNL     1      16.756  -9.049  30.073  1.00  0.00    -0.454 OA
ENDROOT
BRANCH   1   2
ATOM      2  C   UNL     1      16.438  -9.073  31.458  1.00  0.00     0.214 A 
ATOM      3  C   UNL     1      15.076  -9.024  31.851  1.00  0.00     0.180 A 
ATOM      4  O   UNL     1      14.756  -9.087  33.147  1.00  0.00    -0.452 OA
ATOM      5  C   UNL     1      17.419  -9.109  32.475  1.00  0.00     0.239 A 
ATOM      6  C   UNL     1      15.650  -9.167  34.123  1.00  0.00     0.146 A 
ATOM      7  O   UNL     1      18.639  -9.093  32.186  1.00  0.00    -0.285 OA
ATOM      8  C   UNL     1      17.028  -9.154  33.832  1.00  0.00     0.111 A 
ATOM      9  C   UNL     1      15.202  -9.258  35.447  1.00  0.00     0.094 A 
ATOM     10  C   UNL     1      17.959  -9.224  34.899  1.00  0.00     0.134 A 
ATOM     11  C   UNL     1      16.123  -9.331  36.492  1.00  0.00     0.123 A 
ATOM     12  C   UNL     1      17.489  -9.311  36.215  1.00  0.00     0.093 A 
BRANCH   3  13
ATOM     13  C   UNL     1      13.955  -8.958  30.881  1.00  0.00     0.025 A 
ATOM     14  C   UNL     1      13.225 -10.099  30.502  1.00  0.00     0.016 A 
ATOM     15  C   UNL     1      12.184  -9.998  29.576  1.00  0.00     0.051 A 
ATOM     16  C   UNL     1      11.895  -8.771  28.974  1.00  0.00     0.157 A 
ATOM     17  C   UNL     1      13.660  -7.731  30.263  1.00  0.00     0.062 A 
ATOM     18  C   UNL     1      12.636  -7.635  29.314  1.00  0.00     0.158 A 
BRANCH  16  19
ATOM     19  O   UNL     1      10.875  -8.671  28.034  1.00  0.00    -0.504 OA
ATOM     20  H   UNL     1      11.072  -8.682  27.045  1.00  0.00     0.293 HD
ENDBRANCH  16  19
BRANCH  18  21
ATOM     21  O   UNL     1      12.351  -6.415  28.703  1.00  0.00    -0.504 OA
ATOM     22  H   UNL     1      11.826  -6.365  27.846  1.00  0.00     0.293 HD
ENDBRANCH  18  21
ENDBRANCH   3  13
BRANCH  10  23
ATOM     23  O   UNL     1      19.330  -9.203  34.659  1.00  0.00    -0.507 OA
ATOM     24  H   UNL     1      19.870  -8.356  34.725  1.00  0.00     0.293 HD
ENDBRANCH  10  23
BRANCH  11  25
ATOM     25  O   UNL     1      15.685  -9.420  37.813  1.00  0.00    -0.508 OA
ATOM     26  H   UNL     1      15.999  -8.766  38.513  1.00  0.00     0.293 HD
ENDBRANCH  11  25
ENDBRANCH   1   2
BRANCH   1  27
ATOM     27  C   UNL     1      16.919 -10.179  29.201  1.00  0.00     0.339 C 
ATOM     28  C   UNL     1      16.506  -9.833  27.756  1.00  0.00     0.214 C 
ATOM     29  O   UNL     1      18.257 -10.669  29.254  1.00  0.00    -0.332 OA
ATOM     30  C   UNL     1      17.555  -8.896  27.098  1.00  0.00     0.180 C 
ATOM     31  C   UNL     1      19.210  -9.740  28.776  1.00  0.00     0.179 C 
ATOM     32  C   UNL     1      18.984  -9.445  27.278  1.00  0.00     0.177 C 
BRANCH  28  33
ATOM     33  O   UNL     1      16.288 -11.021  27.027  1.00  0.00    -0.384 OA
ATOM     34  H   UNL     1      15.849 -11.684  27.623  1.00  0.00     0.211 HD
ENDBRANCH  28  33
BRANCH  30  35
ATOM     35  O   UNL     1      17.261  -8.656  25.750  1.00  0.00    -0.387 OA
ATOM     36  H   UNL     1      18.082  -8.300  25.316  1.00  0.00     0.211 HD
ENDBRANCH  30  35
BRANCH  31  37
ATOM     37  C   UNL     1      20.595 -10.376  29.038  1.00  0.00     0.191 C 
BRANCH  37  38
ATOM     38  O   UNL     1      21.031 -11.080  27.899  1.00  0.00    -0.394 OA
ATOM     39  H   UNL     1      21.941 -11.405  28.091  1.00  0.00     0.210 HD
ENDBRANCH  37  38
ENDBRANCH  31  37
BRANCH  32  40
ATOM     40  O   UNL     1      19.903  -8.482  26.828  1.00  0.00    -0.387 OA
ATOM     41  H   UNL     1      19.461  -7.952  26.118  1.00  0.00     0.211 HD
ENDBRANCH  32  40
ENDBRANCH   1  27
TORSDOF 12
ENDMDL
MODEL 4
REMARK VINA RESULT:    -7.113     11.079     14.115
REMARK INTER + INTRA:         -11.914
REMARK INTER:                 -10.138
REMARK INTRA:                  -1.777
REMARK UNBOUND:                -1.475
REMARK SMILES O=c1c(O[C@@H]2O[C@@H](CO)[C@H](O)[C@@H](O)[C@H]2O)c(-c2ccc(O)c(O)c2)oc2cc(O)cc(O)c12
REMARK SMILES IDX 4 1 3 2 16 3 25 4 2 5 26 6 1 7 33 8 27 9 31 10 28 11 30 12
REMARK SMILES IDX 17 13 18 14 19 15 20 16 24 17 22 18 21 19 23 21 32 23 29 25
REMARK SMILES IDX 5 27 14 28 6 29 12 30 7 31 10 32 15 33 13 35 8 37 9 38 11 40
REMARK H PARENT 21 20 23 22 32 24 29 26 15 34 13 36 9 39 11 41
REMARK Flexibility Score: inf
ROOT
ATOM      1  O   UNL     1      18.261  -9.391  29.911  1.00  0.00    -0.454 OA
ENDROOT
BRANCH   1   2
ATOM      2  C   UNL     1      18.803  -9.732  28.643  1.00  0.00     0.214 A 
ATOM      3  C   UNL     1      17.917  -9.997  27.566  1.00  0.00     0.180 A 
ATOM      4  O   UNL     1      18.409 -10.280  26.356  1.00  0.00    -0.452 OA
ATOM      5  C   UNL     1      20.190  -9.856  28.403  1.00  0.00     0.239 A 
ATOM      6  C   UNL     1      19.706 -10.359  26.088  1.00  0.00     0.146 A 
ATOM      7  O   UNL     1      21.015  -9.693  29.334  1.00  0.00    -0.285 OA
ATOM      8  C   UNL     1      20.658 -10.178  27.109  1.00  0.00     0.111 A 
ATOM      9  C   UNL     1      20.111 -10.632  24.776  1.00  0.00     0.094 A 
ATOM     10  C   UNL     1      22.036 -10.286  26.795  1.00  0.00     0.134 A 
ATOM     11  C   UNL     1      21.468 -10.733  24.472  1.00  0.00     0.123 A 
ATOM     12  C   UNL     1      22.419 -10.564  25.477  1.00  0.00     0.093 A 
BRANCH   3  13
ATOM     13  C   UNL     1      16.441  -9.926  27.696  1.00  0.00     0.025 A 
ATOM     14  C   UNL     1      15.632 -11.077  27.674  1.00  0.00     0.016 A 
ATOM     15  C   UNL     1      14.244 -10.968  27.786  1.00  0.00     0.051 A 
ATOM     16  C   UNL     1      13.641  -9.710  27.863  1.00  0.00     0.157 A 
ATOM     17  C   UNL     1      15.823  -8.666  27.766  1.00  0.00     0.062 A 
ATOM     18  C   UNL     1      14.430  -8.556  27.850  1.00  0.00     0.158 A 
BRANCH  16  19
ATOM     19  O   UNL     1      12.258  -9.597  27.952  1.00  0.00    -0.504 OA
ATOM     20  H   UNL     1      11.654  -9.996  27.249  1.00  0.00     0.293 HD
ENDBRANCH  16  19
BRANCH  18  21
ATOM     21  O   UNL     1      13.824  -7.303  27.917  1.00  0.00    -0.504 OA
ATOM     22  H   UNL     1      13.122  -7.021  27.252  1.00  0.00     0.293 HD
ENDBRANCH  18  21
ENDBRANCH   3  13
BRANCH  10  23
ATOM     23  O   UNL     1      23.012 -10.125  27.774  1.00  0.00    -0.507 OA
ATOM     24  H   UNL     1      23.183  -9.237  28.216  1.00  0.00     0.293 HD
ENDBRANCH  10  23
BRANCH  11  25
ATOM     25  O   UNL     1      21.881 -11.008  23.168  1.00  0.00    -0.508 OA
ATOM     26  H   UNL     1      22.791 -10.728  22.837  1.00  0.00     0.293 HD
ENDBRANCH  11  25
ENDBRANCH   1   2
BRANCH   1  27
ATOM     27  C   UNL     1      17.838 -10.295  30.946  1.00  0.00     0.339 C 
ATOM     28  C   UNL     1      18.495  -9.944  32.295  1.00  0.00     0.214 C 
ATOM     29  O   UNL     1      16.416 -10.312  31.050  1.00  0.00    -0.332 OA
ATOM     30  C   UNL     1      17.882  -8.642  32.879  1.00  0.00     0.180 C 
ATOM     31  C   UNL     1      15.871  -9.070  31.451  1.00  0.00     0.179 C 
ATOM     32  C   UNL     1      16.342  -8.699  32.873  1.00  0.00     0.177 C 
BRANCH  28  33
ATOM     33  O   UNL     1      18.396 -11.045  33.172  1.00  0.00    -0.384 OA
ATOM     34  H   UNL     1      17.538 -10.980  33.669  1.00  0.00     0.211 HD
ENDBRANCH  28  33
BRANCH  30  35
ATOM     35  O   UNL     1      18.383  -8.361  34.156  1.00  0.00    -0.387 OA
ATOM     36  H   UNL     1      18.112  -9.102  34.762  1.00  0.00     0.211 HD
ENDBRANCH  30  35
BRANCH  31  37
ATOM     37  C   UNL     1      14.335  -9.232  31.374  1.00  0.00     0.191 C 
BRANCH  37  38
ATOM     38  O   UNL     1      13.729  -7.999  31.069  1.00  0.00    -0.394 OA
ATOM     39  H   UNL     1      14.295  -7.295  31.461  1.00  0.00     0.210 HD
ENDBRANCH  37  38
ENDBRANCH  31  37
BRANCH  32  40
ATOM     40  O   UNL     1      15.838  -7.440  33.240  1.00  0.00    -0.387 OA
ATOM     41  H   UNL     1      15.392  -7.050  32.446  1.00  0.00     0.211 HD
ENDBRANCH  32  40
ENDBRANCH   1  27
TORSDOF 12
ENDMDL
MODEL 5
REMARK VINA RESULT:    -7.104      1.948      4.911
REMARK INTER + INTRA:         -11.901
REMARK INTER:                 -10.467
REMARK INTRA:                  -1.435
REMARK UNBOUND:                -1.475
REMARK SMILES O=c1c(O[C@@H]2O[C@@H](CO)[C@H](O)[C@@H](O)[C@H]2O)c(-c2ccc(O)c(O)c2)oc2cc(O)cc(O)c12
REMARK SMILES IDX 4 1 3 2 16 3 25 4 2 5 26 6 1 7 33 8 27 9 31 10 28 11 30 12
REMARK SMILES IDX 17 13 18 14 19 15 20 16 24 17 22 18 21 19 23 21 32 23 29 25
REMARK SMILES IDX 5 27 14 28 6 29 12 30 7 31 10 32 15 33 13 35 8 37 9 38 11 40
REMARK H PARENT 21 20 23 22 32 24 29 26 15 34 13 36 9 39 11 41
REMARK Flexibility Score: inf
ROOT
ATOM      1  O   UNL     1      25.226  -2.271  29.326  1.00  0.00    -0.454 OA
ENDROOT
BRANCH   1   2
ATOM      2  C   UNL     1      25.815  -1.762  30.515  1.00  0.00     0.214 A 
ATOM      3  C   UNL     1      26.716  -0.671  30.422  1.00  0.00     0.180 A 
ATOM      4  O   UNL     1      27.249  -0.152  31.533  1.00  0.00    -0.452 OA
ATOM      5  C   UNL     1      25.574  -2.313  31.794  1.00  0.00     0.239 A 
ATOM      6  C   UNL     1      27.007  -0.617  32.751  1.00  0.00     0.146 A 
ATOM      7  O   UNL     1      24.833  -3.316  31.927  1.00  0.00    -0.285 OA
ATOM      8  C   UNL     1      26.178  -1.739  32.936  1.00  0.00     0.111 A 
ATOM      9  C   UNL     1      27.596   0.023  33.849  1.00  0.00     0.094 A 
ATOM     10  C   UNL     1      25.954  -2.223  34.249  1.00  0.00     0.134 A 
ATOM     11  C   UNL     1      27.368  -0.455  35.139  1.00  0.00     0.123 A 
ATOM     12  C   UNL     1      26.555  -1.571  35.332  1.00  0.00     0.093 A 
BRANCH   3  13
ATOM     13  C   UNL     1      27.072  -0.022  29.136  1.00  0.00     0.025 A 
ATOM     14  C   UNL     1      26.638   1.276  28.808  1.00  0.00     0.016 A 
ATOM     15  C   UNL     1      26.983   1.848  27.581  1.00  0.00     0.051 A 
ATOM     16  C   UNL     1      27.716   1.115  26.644  1.00  0.00     0.157 A 
ATOM     17  C   UNL     1      27.802  -0.752  28.183  1.00  0.00     0.062 A 
ATOM     18  C   UNL     1      28.124  -0.189  26.943  1.00  0.00     0.158 A 
BRANCH  16  19
ATOM     19  O   UNL     1      28.042   1.673  25.413  1.00  0.00    -0.504 OA
ATOM     20  H   UNL     1      27.711   2.589  25.149  1.00  0.00     0.293 HD
ENDBRANCH  16  19
BRANCH  18  21
ATOM     21  O   UNL     1      28.846  -0.920  26.001  1.00  0.00    -0.504 OA
ATOM     22  H   UNL     1      28.469  -1.754  25.580  1.00  0.00     0.293 HD
ENDBRANCH  18  21
ENDBRANCH   3  13
BRANCH  10  23
ATOM     23  O   UNL     1      25.150  -3.337  34.478  1.00  0.00    -0.507 OA
ATOM     24  H   UNL     1      25.530  -4.267  34.536  1.00  0.00     0.293 HD
ENDBRANCH  10  23
BRANCH  11  25
ATOM     25  O   UNL     1      27.952   0.174  36.238  1.00  0.00    -0.508 OA
ATOM     26  H   UNL     1      27.750   1.137  36.459  1.00  0.00     0.293 HD
ENDBRANCH  11  25
ENDBRANCH   1   2
BRANCH   1  27
ATOM     27  C   UNL     1      23.896  -2.022  28.841  1.00  0.00     0.339 C 
ATOM     28  C   UNL     1      23.914  -1.074  27.626  1.00  0.00     0.214 C 
ATOM     29  O   UNL     1      23.233  -3.246  28.533  1.00  0.00    -0.332 OA
ATOM     30  C   UNL     1      24.470  -1.803  26.373  1.00  0.00     0.180 C 
ATOM     31  C   UNL     1      23.844  -3.960  27.477  1.00  0.00     0.179 C 
ATOM     32  C   UNL     1      23.770  -3.159  26.160  1.00  0.00     0.177 C 
BRANCH  28  33
ATOM     33  O   UNL     1      22.627  -0.532  27.427  1.00  0.00    -0.384 OA
ATOM     34  H   UNL     1      22.475   0.183  28.101  1.00  0.00     0.211 HD
ENDBRANCH  28  33
BRANCH  30  35
ATOM     35  O   UNL     1      24.394  -0.998  25.230  1.00  0.00    -0.387 OA
ATOM     36  H   UNL     1      24.946  -1.421  24.519  1.00  0.00     0.211 HD
ENDBRANCH  30  35
BRANCH  31  37
ATOM     37  C   UNL     1      23.088  -5.306  27.378  1.00  0.00     0.191 C 
BRANCH  37  38
ATOM     38  O   UNL     1      23.925  -6.296  26.829  1.00  0.00    -0.394 OA
ATOM     39  H   UNL     1      24.841  -5.934  26.833  1.00  0.00     0.210 HD
ENDBRANCH  37  38
ENDBRANCH  31  37
BRANCH  32  40
ATOM     40  O   UNL     1      24.425  -3.854  25.130  1.00  0.00    -0.387 OA
ATOM     41  H   UNL     1      23.735  -4.313  24.588  1.00  0.00     0.211 HD
ENDBRANCH  32  40
ENDBRANCH   1  27
TORSDOF 12
ENDMDL
MODEL 6
REMARK VINA RESULT:    -6.971     10.136     13.016
REMARK INTER + INTRA:         -11.707
REMARK INTER:                 -10.878
REMARK INTRA:                  -0.829
REMARK UNBOUND:                -1.475
REMARK SMILES O=c1c(O[C@@H]2O[C@@H](CO)[C@H](O)[C@@H](O)[C@H]2O)c(-c2ccc(O)c(O)c2)oc2cc(O)cc(O)c12
REMARK SMILES IDX 4 1 3 2 16 3 25 4 2 5 26 6 1 7 33 8 27 9 31 10 28 11 30 12
REMARK SMILES IDX 17 13 18 14 19 15 20 16 24 17 22 18 21 19 23 21 32 23 29 25
REMARK SMILES IDX 5 27 14 28 6 29 12 30 7 31 10 32 15 33 13 35 8 37 9 38 11 40
REMARK H PARENT 21 20 23 22 32 24 29 26 15 34 13 36 9 39 11 41
REMARK Flexibility Score: inf
ROOT
ATOM      1  O   UNL     1      18.183 -11.576  28.343  1.00  0.00    -0.454 OA
ENDROOT
BRANCH   1   2
ATOM      2  C   UNL     1      18.391 -10.972  29.612  1.00  0.00     0.214 A 
ATOM      3  C   UNL     1      19.457 -10.050  29.767  1.00  0.00     0.180 A 
ATOM      4  O   UNL     1      19.643  -9.441  30.943  1.00  0.00    -0.452 OA
ATOM      5  C   UNL     1      17.604 -11.270  30.748  1.00  0.00     0.239 A 
ATOM      6  C   UNL     1      18.895  -9.665  32.014  1.00  0.00     0.146 A 
ATOM      7  O   UNL     1      16.686 -12.123  30.683  1.00  0.00    -0.285 OA
ATOM      8  C   UNL     1      17.855 -10.613  31.974  1.00  0.00     0.111 A 
ATOM      9  C   UNL     1      19.160  -8.947  33.187  1.00  0.00     0.094 A 
ATOM     10  C   UNL     1      17.085 -10.842  33.141  1.00  0.00     0.134 A 
ATOM     11  C   UNL     1      18.396  -9.174  34.332  1.00  0.00     0.123 A 
ATOM     12  C   UNL     1      17.369 -10.117  34.305  1.00  0.00     0.093 A 
BRANCH   3  13
ATOM     13  C   UNL     1      20.370  -9.673  28.660  1.00  0.00     0.025 A 
ATOM     14  C   UNL     1      20.570  -8.334  28.278  1.00  0.00     0.016 A 
ATOM     15  C   UNL     1      21.427  -8.019  27.221  1.00  0.00     0.051 A 
ATOM     16  C   UNL     1      22.052  -9.038  26.496  1.00  0.00     0.157 A 
ATOM     17  C   UNL     1      20.997 -10.688  27.918  1.00  0.00     0.062 A 
ATOM     18  C   UNL     1      21.834 -10.375  26.841  1.00  0.00     0.158 A 
BRANCH  16  19
ATOM     19  O   UNL     1      22.888  -8.730  25.428  1.00  0.00    -0.504 OA
ATOM     20  H   UNL     1      23.888  -8.673  25.547  1.00  0.00     0.293 HD
ENDBRANCH  16  19
BRANCH  18  21
ATOM     21  O   UNL     1      22.451 -11.388  26.108  1.00  0.00    -0.504 OA
ATOM     22  H   UNL     1      22.636 -12.292  26.511  1.00  0.00     0.293 HD
ENDBRANCH  18  21
ENDBRANCH   3  13
BRANCH  10  23
ATOM     23  O   UNL     1      16.054 -11.778  33.150  1.00  0.00    -0.507 OA
ATOM     24  H   UNL     1      15.362 -11.817  32.421  1.00  0.00     0.293 HD
ENDBRANCH  10  23
BRANCH  11  25
ATOM     25  O   UNL     1      18.654  -8.466  35.505  1.00  0.00    -0.508 OA
ATOM     26  H   UNL     1      17.950  -8.358  36.218  1.00  0.00     0.293 HD
ENDBRANCH  11  25
ENDBRANCH   1   2
BRANCH   1  27
ATOM     27  C   UNL     1      17.021 -11.457  27.506  1.00  0.00     0.339 C 
ATOM     28  C   UNL     1      16.122 -10.290  27.960  1.00  0.00     0.214 C 
ATOM     29  O   UNL     1      17.397 -11.318  26.137  1.00  0.00    -0.332 OA
ATOM     30  C   UNL     1      16.781  -8.927  27.615  1.00  0.00     0.180 C 
ATOM     31  C   UNL     1      18.119 -10.131  25.875  1.00  0.00     0.179 C 
ATOM     32  C   UNL     1      17.245  -8.888  26.146  1.00  0.00     0.177 C 
BRANCH  28  33
ATOM     33  O   UNL     1      14.833 -10.440  27.407  1.00  0.00    -0.384 OA
ATOM     34  H   UNL     1      14.892 -11.047  26.623  1.00  0.00     0.211 HD
ENDBRANCH  28  33
BRANCH  30  35
ATOM     35  O   UNL     1      15.935  -7.852  27.918  1.00  0.00    -0.387 OA
ATOM     36  H   UNL     1      16.496  -7.035  27.999  1.00  0.00     0.211 HD
ENDBRANCH  30  35
BRANCH  31  37
ATOM     37  C   UNL     1      18.560 -10.217  24.395  1.00  0.00     0.191 C 
BRANCH  37  38
ATOM     38  O   UNL     1      17.434 -10.219  23.551  1.00  0.00    -0.394 OA
ATOM     39  H   UNL     1      17.736  -9.909  22.666  1.00  0.00     0.210 HD
ENDBRANCH  37  38
ENDBRANCH  31  37
BRANCH  32  40
ATOM     40  O   UNL     1      17.987  -7.715  25.933  1.00  0.00    -0.387 OA
ATOM     41  H   UNL     1      18.445  -7.802  25.059  1.00  0.00     0.211 HD
ENDBRANCH  32  40
ENDBRANCH   1  27
TORSDOF 12
ENDMDL
MODEL 7
REMARK VINA RESULT:    -6.929      1.659      4.583
REMARK INTER + INTRA:         -11.644
REMARK INTER:                 -10.307
REMARK INTRA:                  -1.338
REMARK UNBOUND:                -1.475
REMARK SMILES O=c1c(O[C@@H]2O[C@@H](CO)[C@H](O)[C@@H](O)[C@H]2O)c(-c2ccc(O)c(O)c2)oc2cc(O)cc(O)c12
REMARK SMILES IDX 4 1 3 2 16 3 25 4 2 5 26 6 1 7 33 8 27 9 31 10 28 11 30 12
REMARK SMILES IDX 17 13 18 14 19 15 20 16 24 17 22 18 21 19 23 21 32 23 29 25
REMARK SMILES IDX 5 27 14 28 6 29 12 30 7 31 10 32 15 33 13 35 8 37 9 38 11 40
REMARK H PARENT 21 20 23 22 32 24 29 26 15 34 13 36 9 39 11 41
REMARK Flexibility Score: inf
ROOT
ATOM      1  O   UNL     1      26.078  -1.743  29.986  1.00  0.00    -0.454 OA
ENDROOT
BRANCH   1   2
ATOM      2  C   UNL     1      26.529  -1.576  31.322  1.00  0.00     0.214 A 
ATOM      3  C   UNL     1      27.597  -0.677  31.579  1.00  0.00     0.180 A 
ATOM      4  O   UNL     1      28.008  -0.476  32.835  1.00  0.00    -0.452 OA
ATOM      5  C   UNL     1      25.989  -2.290  32.416  1.00  0.00     0.239 A 
ATOM      6  C   UNL     1      27.491  -1.096  33.887  1.00  0.00     0.146 A 
ATOM      7  O   UNL     1      25.084  -3.141  32.238  1.00  0.00    -0.285 OA
ATOM      8  C   UNL     1      26.473  -2.054  33.722  1.00  0.00     0.111 A 
ATOM      9  C   UNL     1      27.979  -0.786  35.163  1.00  0.00     0.094 A 
ATOM     10  C   UNL     1      25.954  -2.713  34.865  1.00  0.00     0.134 A 
ATOM     11  C   UNL     1      27.461  -1.434  36.284  1.00  0.00     0.123 A 
ATOM     12  C   UNL     1      26.458  -2.390  36.131  1.00  0.00     0.093 A 
BRANCH   3  13
ATOM     13  C   UNL     1      28.266   0.111  30.515  1.00  0.00     0.025 A 
ATOM     14  C   UNL     1      27.991   1.476  30.310  1.00  0.00     0.016 A 
ATOM     15  C   UNL     1      28.632   2.181  29.289  1.00  0.00     0.051 A 
ATOM     16  C   UNL     1      29.511   1.523  28.424  1.00  0.00     0.157 A 
ATOM     17  C   UNL     1      29.145  -0.541  29.634  1.00  0.00     0.062 A 
ATOM     18  C   UNL     1      29.766   0.159  28.594  1.00  0.00     0.158 A 
BRANCH  16  19
ATOM     19  O   UNL     1      30.133   2.217  27.392  1.00  0.00    -0.504 OA
ATOM     20  H   UNL     1      29.611   2.551  26.597  1.00  0.00     0.293 HD
ENDBRANCH  16  19
BRANCH  18  21
ATOM     21  O   UNL     1      30.635  -0.495  27.723  1.00  0.00    -0.504 OA
ATOM     22  H   UNL     1      30.594  -1.492  27.587  1.00  0.00     0.293 HD
ENDBRANCH  18  21
ENDBRANCH   3  13
BRANCH  10  23
ATOM     23  O   UNL     1      24.955  -3.676  34.749  1.00  0.00    -0.507 OA
ATOM     24  H   UNL     1      23.989  -3.428  34.611  1.00  0.00     0.293 HD
ENDBRANCH  10  23
BRANCH  11  25
ATOM     25  O   UNL     1      27.942  -1.134  37.558  1.00  0.00    -0.508 OA
ATOM     26  H   UNL     1      28.212  -0.195  37.809  1.00  0.00     0.293 HD
ENDBRANCH  11  25
ENDBRANCH   1   2
BRANCH   1  27
ATOM     27  C   UNL     1      25.082  -0.964  29.302  1.00  0.00     0.339 C 
ATOM     28  C   UNL     1      25.718  -0.075  28.215  1.00  0.00     0.214 C 
ATOM     29  O   UNL     1      24.069  -1.806  28.756  1.00  0.00    -0.332 OA
ATOM     30  C   UNL     1      26.185  -0.937  27.011  1.00  0.00     0.180 C 
ATOM     31  C   UNL     1      24.551  -2.681  27.755  1.00  0.00     0.179 C 
ATOM     32  C   UNL     1      25.068  -1.886  26.537  1.00  0.00     0.177 C 
BRANCH  28  33
ATOM     33  O   UNL     1      24.817   0.947  27.850  1.00  0.00    -0.384 OA
ATOM     34  H   UNL     1      24.655   1.526  28.641  1.00  0.00     0.211 HD
ENDBRANCH  28  33
BRANCH  30  35
ATOM     35  O   UNL     1      26.666  -0.143  25.962  1.00  0.00    -0.387 OA
ATOM     36  H   UNL     1      27.076   0.673  26.357  1.00  0.00     0.211 HD
ENDBRANCH  30  35
BRANCH  31  37
ATOM     37  C   UNL     1      23.365  -3.601  27.385  1.00  0.00     0.191 C 
BRANCH  37  38
ATOM     38  O   UNL     1      22.795  -3.194  26.164  1.00  0.00    -0.394 OA
ATOM     39  H   UNL     1      21.933  -3.661  26.078  1.00  0.00     0.210 HD
ENDBRANCH  37  38
ENDBRANCH  31  37
BRANCH  32  40
ATOM     40  O   UNL     1      25.592  -2.762  25.572  1.00  0.00    -0.387 OA
ATOM     41  H   UNL     1      25.944  -2.215  24.826  1.00  0.00     0.211 HD
ENDBRANCH  32  40
ENDBRANCH   1  27
TORSDOF 12
ENDMDL
MODEL 8
REMARK VINA RESULT:    -6.737     10.495     13.606
REMARK INTER + INTRA:         -11.364
REMARK INTER:                 -10.216
REMARK INTRA:                  -1.147
REMARK UNBOUND:                -1.475
REMARK SMILES O=c1c(O[C@@H]2O[C@@H](CO)[C@H](O)[C@@H](O)[C@H]2O)c(-c2ccc(O)c(O)c2)oc2cc(O)cc(O)c12
REMARK SMILES IDX 4 1 3 2 16 3 25 4 2 5 26 6 1 7 33 8 27 9 31 10 28 11 30 12
REMARK SMILES IDX 17 13 18 14 19 15 20 16 24 17 22 18 21 19 23 21 32 23 29 25
REMARK SMILES IDX 5 27 14 28 6 29 12 30 7 31 10 32 15 33 13 35 8 37 9 38 11 40
REMARK H PARENT 21 20 23 22 32 24 29 26 15 34 13 36 9 39 11 41
REMARK Flexibility Score: inf
ROOT
ATOM      1  O   UNL     1      17.066  -9.907  29.706  1.00  0.00    -0.454 OA
ENDROOT
BRANCH   1   2
ATOM      2  C   UNL     1      17.447  -9.739  31.064  1.00  0.00     0.214 A 
ATOM      3  C   UNL     1      18.810  -9.486  31.368  1.00  0.00     0.180 A 
ATOM      4  O   UNL     1      19.181  -9.284  32.637  1.00  0.00    -0.452 OA
ATOM      5  C   UNL     1      16.537  -9.843  32.141  1.00  0.00     0.239 A 
ATOM      6  C   UNL     1      18.344  -9.331  33.665  1.00  0.00     0.146 A 
ATOM      7  O   UNL     1      15.333 -10.124  31.934  1.00  0.00    -0.285 OA
ATOM      8  C   UNL     1      16.985  -9.640  33.466  1.00  0.00     0.111 A 
ATOM      9  C   UNL     1      18.836  -9.073  34.950  1.00  0.00     0.094 A 
ATOM     10  C   UNL     1      16.120  -9.700  34.588  1.00  0.00     0.134 A 
ATOM     11  C   UNL     1      17.979  -9.129  36.049  1.00  0.00     0.123 A 
ATOM     12  C   UNL     1      16.633  -9.442  35.864  1.00  0.00     0.093 A 
BRANCH   3  13
ATOM     13  C   UNL     1      19.865  -9.380  30.331  1.00  0.00     0.025 A 
ATOM     14  C   UNL     1      20.686  -8.243  30.213  1.00  0.00     0.016 A 
ATOM     15  C   UNL     1      21.660  -8.175  29.215  1.00  0.00     0.051 A 
ATOM     16  C   UNL     1      21.791  -9.212  28.287  1.00  0.00     0.157 A 
ATOM     17  C   UNL     1      20.001 -10.413  29.389  1.00  0.00     0.062 A 
ATOM     18  C   UNL     1      20.958 -10.332  28.371  1.00  0.00     0.158 A 
BRANCH  16  19
ATOM     19  O   UNL     1      22.745  -9.138  27.278  1.00  0.00    -0.504 OA
ATOM     20  H   UNL     1      23.031  -9.959  26.767  1.00  0.00     0.293 HD
ENDBRANCH  16  19
BRANCH  18  21
ATOM     21  O   UNL     1      21.085 -11.360  27.438  1.00  0.00    -0.504 OA
ATOM     22  H   UNL     1      20.355 -12.039  27.299  1.00  0.00     0.293 HD
ENDBRANCH  18  21
ENDBRANCH   3  13
BRANCH  10  23
ATOM     23  O   UNL     1      14.771 -10.013  34.440  1.00  0.00    -0.507 OA
ATOM     24  H   UNL     1      14.403 -10.916  34.690  1.00  0.00     0.293 HD
ENDBRANCH  10  23
BRANCH  11  25
ATOM     25  O   UNL     1      18.461  -8.876  37.333  1.00  0.00    -0.508 OA
ATOM     26  H   UNL     1      19.272  -8.298  37.484  1.00  0.00     0.293 HD
ENDBRANCH  11  25
ENDBRANCH   1   2
BRANCH   1  27
ATOM     27  C   UNL     1      16.607  -8.890  28.801  1.00  0.00     0.339 C 
ATOM     28  C   UNL     1      17.081  -9.169  27.361  1.00  0.00     0.214 C 
ATOM     29  O   UNL     1      15.188  -8.761  28.863  1.00  0.00    -0.332 OA
ATOM     30  C   UNL     1      16.304 -10.368  26.753  1.00  0.00     0.180 C 
ATOM     31  C   UNL     1      14.503  -9.921  28.434  1.00  0.00     0.179 C 
ATOM     32  C   UNL     1      14.783 -10.201  26.942  1.00  0.00     0.177 C 
BRANCH  28  33
ATOM     33  O   UNL     1      16.977  -7.992  26.589  1.00  0.00    -0.384 OA
ATOM     34  H   UNL     1      17.510  -7.277  27.027  1.00  0.00     0.211 HD
ENDBRANCH  28  33
BRANCH  30  35
ATOM     35  O   UNL     1      16.637 -10.573  25.408  1.00  0.00    -0.387 OA
ATOM     36  H   UNL     1      15.919 -10.171  24.850  1.00  0.00     0.211 HD
ENDBRANCH  30  35
BRANCH  31  37
ATOM     37  C   UNL     1      13.003  -9.655  28.700  1.00  0.00     0.191 C 
BRANCH  37  38
ATOM     38  O   UNL     1      12.393 -10.804  29.238  1.00  0.00    -0.394 OA
ATOM     39  H   UNL     1      11.423 -10.706  29.100  1.00  0.00     0.210 HD
ENDBRANCH  37  38
ENDBRANCH  31  37
BRANCH  32  40
ATOM     40  O   UNL     1      14.141 -11.384  26.540  1.00  0.00    -0.387 OA
ATOM     41  H   UNL     1      13.257 -11.137  26.169  1.00  0.00     0.211 HD
ENDBRANCH  32  40
ENDBRANCH   1  27
TORSDOF 12
ENDMDL
MODEL 9
REMARK VINA RESULT:    -6.690      2.751      5.616
REMARK INTER + INTRA:         -11.294
REMARK INTER:                  -9.946
REMARK INTRA:                  -1.348
REMARK UNBOUND:                -1.475
REMARK SMILES O=c1c(O[C@@H]2O[C@@H](CO)[C@H](O)[C@@H](O)[C@H]2O)c(-c2ccc(O)c(O)c2)oc2cc(O)cc(O)c12
REMARK SMILES IDX 4 1 3 2 16 3 25 4 2 5 26 6 1 7 33 8 27 9 31 10 28 11 30 12
REMARK SMILES IDX 17 13 18 14 19 15 20 16 24 17 22 18 21 19 23 21 32 23 29 25
REMARK SMILES IDX 5 27 14 28 6 29 12 30 7 31 10 32 15 33 13 35 8 37 9 38 11 40
REMARK H PARENT 21 20 23 22 32 24 29 26 15 34 13 36 9 39 11 41
REMARK Flexibility Score: inf
ROOT
ATOM      1  O   UNL     1      27.901  -1.710  32.585  1.00  0.00    -0.454 OA
ENDROOT
BRANCH   1   2
ATOM      2  C   UNL     1      26.933  -1.680  33.623  1.00  0.00     0.214 A 
ATOM      3  C   UNL     1      26.764  -0.485  34.370  1.00  0.00     0.180 A 
ATOM      4  O   UNL     1      25.829  -0.425  35.324  1.00  0.00    -0.452 OA
ATOM      5  C   UNL     1      26.144  -2.798  33.978  1.00  0.00     0.239 A 
ATOM      6  C   UNL     1      25.043  -1.443  35.650  1.00  0.00     0.146 A 
ATOM      7  O   UNL     1      26.295  -3.897  33.391  1.00  0.00    -0.285 OA
ATOM      8  C   UNL     1      25.184  -2.688  35.008  1.00  0.00     0.111 A 
ATOM      9  C   UNL     1      24.076  -1.259  36.646  1.00  0.00     0.094 A 
ATOM     10  C   UNL     1      24.340  -3.760  35.392  1.00  0.00     0.134 A 
ATOM     11  C   UNL     1      23.245  -2.317  37.015  1.00  0.00     0.123 A 
ATOM     12  C   UNL     1      23.382  -3.556  36.392  1.00  0.00     0.093 A 
BRANCH   3  13
ATOM     13  C   UNL     1      27.548   0.748  34.114  1.00  0.00     0.025 A 
ATOM     14  C   UNL     1      28.906   0.856  34.462  1.00  0.00     0.016 A 
ATOM     15  C   UNL     1      29.608   2.039  34.216  1.00  0.00     0.051 A 
ATOM     16  C   UNL     1      28.951   3.146  33.673  1.00  0.00     0.157 A 
ATOM     17  C   UNL     1      26.896   1.870  33.576  1.00  0.00     0.062 A 
ATOM     18  C   UNL     1      27.591   3.064  33.355  1.00  0.00     0.158 A 
BRANCH  16  19
ATOM     19  O   UNL     1      29.639   4.333  33.448  1.00  0.00    -0.504 OA
ATOM     20  H   UNL     1      30.626   4.334  33.240  1.00  0.00     0.293 HD
ENDBRANCH  16  19
BRANCH  18  21
ATOM     21  O   UNL     1      26.938   4.174  32.823  1.00  0.00    -0.504 OA
ATOM     22  H   UNL     1      27.413   5.052  32.689  1.00  0.00     0.293 HD
ENDBRANCH  18  21
ENDBRANCH   3  13
BRANCH  10  23
ATOM     23  O   UNL     1      24.451  -5.012  34.792  1.00  0.00    -0.507 OA
ATOM     24  H   UNL     1      23.655  -5.491  34.404  1.00  0.00     0.293 HD
ENDBRANCH  10  23
BRANCH  11  25
ATOM     25  O   UNL     1      22.282  -2.144  38.008  1.00  0.00    -0.508 OA
ATOM     26  H   UNL     1      22.113  -2.854  38.704  1.00  0.00     0.293 HD
ENDBRANCH  11  25
ENDBRANCH   1   2
BRANCH   1  27
ATOM     27  C   UNL     1      27.657  -1.821  31.173  1.00  0.00     0.339 C 
ATOM     28  C   UNL     1      27.183  -0.478  30.582  1.00  0.00     0.214 C 
ATOM     29  O   UNL     1      28.814  -2.305  30.496  1.00  0.00    -0.332 OA
ATOM     30  C   UNL     1      28.358   0.536  30.520  1.00  0.00     0.180 C 
ATOM     31  C   UNL     1      29.916  -1.422  30.574  1.00  0.00     0.179 C 
ATOM     32  C   UNL     1      29.602  -0.090  29.860  1.00  0.00     0.177 C 
BRANCH  28  33
ATOM     33  O   UNL     1      26.575  -0.699  29.328  1.00  0.00    -0.384 OA
ATOM     34  H   UNL     1      26.364  -1.667  29.243  1.00  0.00     0.211 HD
ENDBRANCH  28  33
BRANCH  30  35
ATOM     35  O   UNL     1      27.981   1.726  29.886  1.00  0.00    -0.387 OA
ATOM     36  H   UNL     1      28.381   1.728  28.975  1.00  0.00     0.211 HD
ENDBRANCH  30  35
BRANCH  31  37
ATOM     37  C   UNL     1      31.105  -2.163  29.918  1.00  0.00     0.191 C 
BRANCH  37  38
ATOM     38  O   UNL     1      30.683  -2.818  28.745  1.00  0.00    -0.394 OA
ATOM     39  H   UNL     1      29.836  -3.273  28.958  1.00  0.00     0.210 HD
ENDBRANCH  37  38
ENDBRANCH  31  37
BRANCH  32  40
ATOM     40  O   UNL     1      30.682   0.798  29.989  1.00  0.00    -0.387 OA
ATOM     41  H   UNL     1      30.438   1.474  30.669  1.00  0.00     0.211 HD
ENDBRANCH  32  40
ENDBRANCH   1  27
TORSDOF 12
ENDMDL
