MODEL 1
REMARK VINA RESULT:    -3.932      0.000      0.000
REMARK INTER + INTRA:          -5.823
REMARK INTER:                  -5.542
REMARK INTRA:                  -0.281
REMARK UNBOUND:                -0.281
REMARK SMILES CCCCCCCCC(=O)[O-]
REMARK SMILES IDX 6 1 7 2 8 3 9 4 10 5 11 6 5 7 4 8 3 9 2 10 1 11
REMARK H PARENT
REMARK Flexibility Score: inf
ROOT
ATOM      1  C   UNL     1    -117.525 -98.223  43.332  1.00  0.00     0.000 C 
ENDROOT
BRANCH   1   2
ATOM      2  C   UNL     1    -116.498 -98.688  42.289  1.00  0.00     0.006 C 
BRANCH   2   3
ATOM      3  C   UNL     1    -117.167 -99.536  41.202  1.00  0.00     0.053 C 
BRANCH   3   4
ATOM      4  C   UNL     1    -117.343 -98.737  39.949  1.00  0.00     0.041 C 
ATOM      5  O   UNL     1    -116.804 -99.114  38.876  1.00  0.00    -0.550 OA
ATOM      6  O   UNL     1    -118.063 -97.549  39.979  1.00  0.00    -0.550 OA
ENDBRANCH   3   4
ENDBRANCH   2   3
ENDBRANCH   1   2
BRANCH   1   7
ATOM      7  C   UNL     1    -117.609 -99.165  44.543  1.00  0.00     0.000 C 
BRANCH   7   8
ATOM      8  C   UNL     1    -118.263 -98.503  45.765  1.00  0.00    -0.000 C 
BRANCH   8   9
ATOM      9  C   UNL     1    -118.444 -96.994  45.539  1.00  0.00    -0.000 C 
BRANCH   9  10
ATOM     10  C   UNL     1    -118.853 -96.249  46.818  1.00  0.00    -0.003 C 
ATOM     11  C   UNL     1    -117.882 -96.482  47.975  1.00  0.00     0.004 C 
ENDBRANCH   9  10
ENDBRANCH   8   9
ENDBRANCH   7   8
ENDBRANCH   1   7
TORSDOF 7
ENDMDL
MODEL 2
REMARK VINA RESULT:    -3.833      8.128     11.283
REMARK INTER + INTRA:          -5.682
REMARK INTER:                  -5.135
REMARK INTRA:                  -0.547
REMARK UNBOUND:                -0.281
REMARK SMILES CCCCCCCCC(=O)[O-]
REMARK SMILES IDX 6 1 7 2 8 3 9 4 10 5 11 6 5 7 4 8 3 9 2 10 1 11
REMARK H PARENT
REMARK Flexibility Score: inf
ROOT
ATOM      1  C   UNL     1    -116.110 -97.288  33.605  1.00  0.00     0.000 C 
ENDROOT
BRANCH   1   2
ATOM      2  C   UNL     1    -115.998 -98.818  33.530  1.00  0.00     0.006 C 
BRANCH   2   3
ATOM      3  C   UNL     1    -116.679 -99.476  34.735  1.00  0.00     0.053 C 
BRANCH   3   4
ATOM      4  C   UNL     1    -115.951 -99.137  35.998  1.00  0.00     0.041 C 
ATOM      5  O   UNL     1    -116.583 -98.704  36.996  1.00  0.00    -0.550 OA
ATOM      6  O   UNL     1    -114.568 -99.253  36.055  1.00  0.00    -0.550 OA
ENDBRANCH   3   4
ENDBRANCH   2   3
ENDBRANCH   1   2
BRANCH   1   7
ATOM      7  C   UNL     1    -116.918 -96.695  32.440  1.00  0.00     0.000 C 
BRANCH   7   8
ATOM      8  C   UNL     1    -118.269 -97.398  32.237  1.00  0.00    -0.000 C 
BRANCH   8   9
ATOM      9  C   UNL     1    -118.683 -97.374  30.758  1.00  0.00    -0.000 C 
BRANCH   9  10
ATOM     10  C   UNL     1    -119.006 -98.772  30.211  1.00  0.00    -0.003 C 
ATOM     11  C   UNL     1    -118.672 -99.887  31.202  1.00  0.00     0.004 C 
ENDBRANCH   9  10
ENDBRANCH   8   9
ENDBRANCH   7   8
ENDBRANCH   1   7
TORSDOF 7
ENDMDL
MODEL 3
REMARK VINA RESULT:    -3.826      3.678      6.479
REMARK INTER + INTRA:          -5.673
REMARK INTER:                  -5.286
REMARK INTRA:                  -0.388
REMARK UNBOUND:                -0.281
REMARK SMILES CCCCCCCCC(=O)[O-]
REMARK SMILES IDX 6 1 7 2 8 3 9 4 10 5 11 6 5 7 4 8 3 9 2 10 1 11
REMARK H PARENT
REMARK Flexibility Score: inf
ROOT
ATOM      1  C   UNL     1    -118.119 -98.487  48.471  1.00  0.00     0.000 C 
ENDROOT
BRANCH   1   2
ATOM      2  C   UNL     1    -117.429 -97.122  48.610  1.00  0.00     0.006 C 
BRANCH   2   3
ATOM      3  C   UNL     1    -118.430 -96.043  49.034  1.00  0.00     0.053 C 
BRANCH   3   4
ATOM      4  C   UNL     1    -118.517 -94.971  47.993  1.00  0.00     0.041 C 
ATOM      5  O   UNL     1    -118.727 -93.777  48.331  1.00  0.00    -0.550 OA
ATOM      6  O   UNL     1    -118.415 -95.299  46.648  1.00  0.00    -0.550 OA
ENDBRANCH   3   4
ENDBRANCH   2   3
ENDBRANCH   1   2
BRANCH   1   7
ATOM      7  C   UNL     1    -117.706 -99.233  47.193  1.00  0.00     0.000 C 
BRANCH   7   8
ATOM      8  C   UNL     1    -118.706 -99.039  46.044  1.00  0.00    -0.000 C 
BRANCH   8   9
ATOM      9  C   UNL     1    -118.030 -98.372  44.835  1.00  0.00    -0.000 C 
BRANCH   9  10
ATOM     10  C   UNL     1    -117.441 -99.392  43.850  1.00  0.00    -0.003 C 
ATOM     11  C   UNL     1    -116.637 -98.735  42.728  1.00  0.00     0.004 C 
ENDBRANCH   9  10
ENDBRANCH   8   9
ENDBRANCH   7   8
ENDBRANCH   1   7
TORSDOF 7
ENDMDL
MODEL 4
REMARK VINA RESULT:    -3.797      7.733     10.768
REMARK INTER + INTRA:          -5.632
REMARK INTER:                  -5.046
REMARK INTRA:                  -0.585
REMARK UNBOUND:                -0.281
REMARK SMILES CCCCCCCCC(=O)[O-]
REMARK SMILES IDX 6 1 7 2 8 3 9 4 10 5 11 6 5 7 4 8 3 9 2 10 1 11
REMARK H PARENT
REMARK Flexibility Score: inf
ROOT
ATOM      1  C   UNL     1    -115.639 -99.460  33.007  1.00  0.00     0.000 C 
ENDROOT
BRANCH   1   2
ATOM      2  C   UNL     1    -115.291-100.112  34.353  1.00  0.00     0.006 C 
BRANCH   2   3
ATOM      3  C   UNL     1    -115.266 -99.070  35.476  1.00  0.00     0.053 C 
BRANCH   3   4
ATOM      4  C   UNL     1    -116.458 -99.232  36.368  1.00  0.00     0.041 C 
ATOM      5  O   UNL     1    -116.368 -98.977  37.597  1.00  0.00    -0.550 OA
ATOM      6  O   UNL     1    -117.653 -99.711  35.848  1.00  0.00    -0.550 OA
ENDBRANCH   3   4
ENDBRANCH   2   3
ENDBRANCH   1   2
BRANCH   1   7
ATOM      7  C   UNL     1    -116.881-100.083  32.351  1.00  0.00     0.000 C 
BRANCH   7   8
ATOM      8  C   UNL     1    -118.109 -99.163  32.416  1.00  0.00    -0.000 C 
BRANCH   8   9
ATOM      9  C   UNL     1    -117.709 -97.743  32.846  1.00  0.00    -0.000 C 
BRANCH   9  10
ATOM     10  C   UNL     1    -117.628 -96.767  31.662  1.00  0.00    -0.003 C 
ATOM     11  C   UNL     1    -118.767 -96.957  30.661  1.00  0.00     0.004 C 
ENDBRANCH   9  10
ENDBRANCH   8   9
ENDBRANCH   7   8
ENDBRANCH   1   7
TORSDOF 7
ENDMDL
MODEL 5
REMARK VINA RESULT:    -3.752      3.744      6.041
REMARK INTER + INTRA:          -5.568
REMARK INTER:                  -5.141
REMARK INTRA:                  -0.427
REMARK UNBOUND:                -0.281
REMARK SMILES CCCCCCCCC(=O)[O-]
REMARK SMILES IDX 6 1 7 2 8 3 9 4 10 5 11 6 5 7 4 8 3 9 2 10 1 11
REMARK H PARENT
REMARK Flexibility Score: inf
ROOT
ATOM      1  C   UNL     1    -117.991 -99.311  45.711  1.00  0.00     0.000 C 
ENDROOT
BRANCH   1   2
ATOM      2  C   UNL     1    -118.672 -98.269  46.610  1.00  0.00     0.006 C 
BRANCH   2   3
ATOM      3  C   UNL     1    -118.407 -96.849  46.100  1.00  0.00     0.053 C 
BRANCH   3   4
ATOM      4  C   UNL     1    -118.210 -95.908  47.247  1.00  0.00     0.041 C 
ATOM      5  O   UNL     1    -118.234 -96.338  48.430  1.00  0.00    -0.550 OA
ATOM      6  O   UNL     1    -118.051 -94.549  47.011  1.00  0.00    -0.550 OA
ENDBRANCH   3   4
ENDBRANCH   2   3
ENDBRANCH   1   2
BRANCH   1   7
ATOM      7  C   UNL     1    -118.859 -99.718  44.511  1.00  0.00     0.000 C 
BRANCH   7   8
ATOM      8  C   UNL     1    -118.102 -99.640  43.177  1.00  0.00    -0.000 C 
BRANCH   8   9
ATOM      9  C   UNL     1    -116.747 -98.938  43.357  1.00  0.00    -0.000 C 
BRANCH   9  10
ATOM     10  C   UNL     1    -116.071 -98.604  42.019  1.00  0.00    -0.003 C 
ATOM     11  C   UNL     1    -116.894 -99.056  40.812  1.00  0.00     0.004 C 
ENDBRANCH   9  10
ENDBRANCH   8   9
ENDBRANCH   7   8
ENDBRANCH   1   7
TORSDOF 7
ENDMDL
MODEL 6
REMARK VINA RESULT:    -3.714      8.535     10.586
REMARK INTER + INTRA:          -5.515
REMARK INTER:                  -5.006
REMARK INTRA:                  -0.509
REMARK UNBOUND:                -0.281
REMARK SMILES CCCCCCCCC(=O)[O-]
REMARK SMILES IDX 6 1 7 2 8 3 9 4 10 5 11 6 5 7 4 8 3 9 2 10 1 11
REMARK H PARENT
REMARK Flexibility Score: inf
ROOT
ATOM      1  C   UNL     1    -115.960 -97.558  33.181  1.00  0.00     0.000 C 
ENDROOT
BRANCH   1   2
ATOM      2  C   UNL     1    -117.222 -96.993  32.514  1.00  0.00     0.006 C 
BRANCH   2   3
ATOM      3  C   UNL     1    -118.057 -98.112  31.884  1.00  0.00     0.053 C 
BRANCH   3   4
ATOM      4  C   UNL     1    -118.546 -97.702  30.530  1.00  0.00     0.041 C 
ATOM      5  O   UNL     1    -119.025 -98.560  29.743  1.00  0.00    -0.550 OA
ATOM      6  O   UNL     1    -118.426 -96.381  30.119  1.00  0.00    -0.550 OA
ENDBRANCH   3   4
ENDBRANCH   2   3
ENDBRANCH   1   2
BRANCH   1   7
ATOM      7  C   UNL     1    -115.834 -99.081  33.018  1.00  0.00     0.000 C 
BRANCH   7   8
ATOM      8  C   UNL     1    -115.390 -99.780  34.311  1.00  0.00    -0.000 C 
BRANCH   8   9
ATOM      9  C   UNL     1    -115.160 -98.759  35.436  1.00  0.00    -0.000 C 
BRANCH   9  10
ATOM     10  C   UNL     1    -116.150 -98.927  36.599  1.00  0.00    -0.003 C 
ATOM     11  C   UNL     1    -117.083-100.123  36.413  1.00  0.00     0.004 C 
ENDBRANCH   9  10
ENDBRANCH   8   9
ENDBRANCH   7   8
ENDBRANCH   1   7
TORSDOF 7
ENDMDL
MODEL 7
REMARK VINA RESULT:    -3.488      8.628     11.042
REMARK INTER + INTRA:          -5.197
REMARK INTER:                  -4.653
REMARK INTRA:                  -0.544
REMARK UNBOUND:                -0.281
REMARK SMILES CCCCCCCCC(=O)[O-]
REMARK SMILES IDX 6 1 7 2 8 3 9 4 10 5 11 6 5 7 4 8 3 9 2 10 1 11
REMARK H PARENT
REMARK Flexibility Score: inf
ROOT
ATOM      1  C   UNL     1    -118.073 -99.594  33.264  1.00  0.00     0.000 C 
ENDROOT
BRANCH   1   2
ATOM      2  C   UNL     1    -119.078 -98.869  32.358  1.00  0.00     0.006 C 
BRANCH   2   3
ATOM      3  C   UNL     1    -118.556 -97.485  31.959  1.00  0.00     0.053 C 
BRANCH   3   4
ATOM      4  C   UNL     1    -118.683 -97.283  30.482  1.00  0.00     0.041 C 
ATOM      5  O   UNL     1    -118.615 -96.125  29.993  1.00  0.00    -0.550 OA
ATOM      6  O   UNL     1    -118.927 -98.369  29.651  1.00  0.00    -0.550 OA
ENDBRANCH   3   4
ENDBRANCH   2   3
ENDBRANCH   1   2
BRANCH   1   7
ATOM      7  C   UNL     1    -116.848-100.114  32.495  1.00  0.00     0.000 C 
BRANCH   7   8
ATOM      8  C   UNL     1    -115.525 -99.548  33.034  1.00  0.00    -0.000 C 
BRANCH   8   9
ATOM      9  C   UNL     1    -115.784 -98.444  34.071  1.00  0.00    -0.000 C 
BRANCH   9  10
ATOM     10  C   UNL     1    -115.146 -98.752  35.434  1.00  0.00    -0.003 C 
ATOM     11  C   UNL     1    -116.183 -99.023  36.525  1.00  0.00     0.004 C 
ENDBRANCH   9  10
ENDBRANCH   8   9
ENDBRANCH   7   8
ENDBRANCH   1   7
TORSDOF 7
ENDMDL
MODEL 8
REMARK VINA RESULT:    -3.250      8.122     10.415
REMARK INTER + INTRA:          -4.861
REMARK INTER:                  -4.228
REMARK INTRA:                  -0.633
REMARK UNBOUND:                -0.281
REMARK SMILES CCCCCCCCC(=O)[O-]
REMARK SMILES IDX 6 1 7 2 8 3 9 4 10 5 11 6 5 7 4 8 3 9 2 10 1 11
REMARK H PARENT
REMARK Flexibility Score: inf
ROOT
ATOM      1  C   UNL     1    -118.789 -99.678  33.966  1.00  0.00     0.000 C 
ENDROOT
BRANCH   1   2
ATOM      2  C   UNL     1    -117.898-100.091  35.146  1.00  0.00     0.006 C 
BRANCH   2   3
ATOM      3  C   UNL     1    -116.427 -99.775  34.858  1.00  0.00     0.053 C 
BRANCH   3   4
ATOM      4  C   UNL     1    -115.809 -99.058  36.018  1.00  0.00     0.041 C 
ATOM      5  O   UNL     1    -114.653 -98.571  35.918  1.00  0.00    -0.550 OA
ATOM      6  O   UNL     1    -116.490 -98.973  37.225  1.00  0.00    -0.550 OA
ENDBRANCH   3   4
ENDBRANCH   2   3
ENDBRANCH   1   2
BRANCH   1   7
ATOM      7  C   UNL     1    -118.001 -99.511  32.657  1.00  0.00     0.000 C 
BRANCH   7   8
ATOM      8  C   UNL     1    -118.618 -98.458  31.724  1.00  0.00    -0.000 C 
BRANCH   8   9
ATOM      9  C   UNL     1    -117.649 -97.287  31.503  1.00  0.00    -0.000 C 
BRANCH   9  10
ATOM     10  C   UNL     1    -117.224 -96.615  32.817  1.00  0.00    -0.003 C 
ATOM     11  C   UNL     1    -115.720 -96.711  33.071  1.00  0.00     0.004 C 
ENDBRANCH   9  10
ENDBRANCH   8   9
ENDBRANCH   7   8
ENDBRANCH   1   7
TORSDOF 7
ENDMDL
MODEL 9
REMARK VINA RESULT:    -2.520      4.414      8.754
REMARK INTER + INTRA:          -3.833
REMARK INTER:                  -3.656
REMARK INTRA:                  -0.177
REMARK UNBOUND:                -0.281
REMARK SMILES CCCCCCCCC(=O)[O-]
REMARK SMILES IDX 6 1 7 2 8 3 9 4 10 5 11 6 5 7 4 8 3 9 2 10 1 11
REMARK H PARENT
REMARK Flexibility Score: inf
ROOT
ATOM      1  C   UNL     1    -116.601 -99.139  37.315  1.00  0.00     0.000 C 
ENDROOT
BRANCH   1   2
ATOM      2  C   UNL     1    -117.095 -99.849  38.584  1.00  0.00     0.006 C 
BRANCH   2   3
ATOM      3  C   UNL     1    -117.269 -98.854  39.736  1.00  0.00     0.053 C 
BRANCH   3   4
ATOM      4  C   UNL     1    -116.897 -99.491  41.039  1.00  0.00     0.041 C 
ATOM      5  O   UNL     1    -117.758-100.125  41.702  1.00  0.00    -0.550 OA
ATOM      6  O   UNL     1    -115.611 -99.340  41.543  1.00  0.00    -0.550 OA
ENDBRANCH   3   4
ENDBRANCH   2   3
ENDBRANCH   1   2
BRANCH   1   7
ATOM      7  C   UNL     1    -116.420-100.101  36.130  1.00  0.00     0.000 C 
BRANCH   7   8
ATOM      8  C   UNL     1    -116.969 -99.530  34.814  1.00  0.00    -0.000 C 
BRANCH   8   9
ATOM      9  C   UNL     1    -115.830 -98.997  33.931  1.00  0.00    -0.000 C 
BRANCH   9  10
ATOM     10  C   UNL     1    -116.321 -98.001  32.870  1.00  0.00    -0.003 C 
ATOM     11  C   UNL     1    -116.159 -96.545  33.307  1.00  0.00     0.004 C 
ENDBRANCH   9  10
ENDBRANCH   8   9
ENDBRANCH   7   8
ENDBRANCH   1   7
TORSDOF 7
ENDMDL
