MODEL 1
REMARK VINA RESULT:    -4.463      0.000      0.000
REMARK INTER + INTRA:          -5.106
REMARK INTER:                  -4.854
REMARK INTRA:                  -0.252
REMARK UNBOUND:                -0.252
REMARK SMILES O=C([O-])c1ccccc1O
REMARK SMILES IDX 4 1 9 2 5 3 8 4 6 5 7 6 2 7 1 8 3 9 10 10
REMARK H PARENT 10 11
REMARK Flexibility Score: inf
ROOT
ATOM      1  C   UNL     1      -7.169   5.872   2.107  1.00  0.00     0.039 A 
ATOM      2  C   UNL     1      -8.301   5.099   2.473  1.00  0.00     0.124 A 
ATOM      3  C   UNL     1      -6.772   5.899   0.757  1.00  0.00     0.014 A 
ATOM      4  C   UNL     1      -8.960   4.333   1.503  1.00  0.00     0.047 A 
ATOM      5  C   UNL     1      -7.452   5.145  -0.202  1.00  0.00     0.001 A 
ATOM      6  C   UNL     1      -8.539   4.355   0.172  1.00  0.00     0.004 A 
ENDROOT
BRANCH   1   7
ATOM      7  C   UNL     1      -6.364   6.631   3.090  1.00  0.00     0.075 C 
ATOM      8  O   UNL     1      -6.001   7.813   2.854  1.00  0.00    -0.545 OA
ATOM      9  O   UNL     1      -6.057   6.066   4.323  1.00  0.00    -0.545 OA
ENDBRANCH   1   7
BRANCH   2  10
ATOM     10  O   UNL     1      -8.822   5.091   3.769  1.00  0.00    -0.507 OA
ATOM     11  H   UNL     1      -9.803   5.218   3.976  1.00  0.00     0.293 HD
ENDBRANCH   2  10
TORSDOF 2
ENDMDL
MODEL 2
REMARK VINA RESULT:    -4.270      2.771      3.543
REMARK INTER + INTRA:          -4.896
REMARK INTER:                  -4.662
REMARK INTRA:                  -0.234
REMARK UNBOUND:                -0.252
REMARK SMILES O=C([O-])c1ccccc1O
REMARK SMILES IDX 4 1 9 2 5 3 8 4 6 5 7 6 2 7 1 8 3 9 10 10
REMARK H PARENT 10 11
REMARK Flexibility Score: inf
ROOT
ATOM      1  C   UNL     1      -6.833   5.588   0.369  1.00  0.00     0.039 A 
ATOM      2  C   UNL     1      -8.104   4.960   0.394  1.00  0.00     0.124 A 
ATOM      3  C   UNL     1      -6.256   6.006   1.583  1.00  0.00     0.014 A 
ATOM      4  C   UNL     1      -8.786   4.825   1.610  1.00  0.00     0.047 A 
ATOM      5  C   UNL     1      -6.941   5.846   2.790  1.00  0.00     0.001 A 
ATOM      6  C   UNL     1      -8.208   5.264   2.802  1.00  0.00     0.004 A 
ENDROOT
BRANCH   1   7
ATOM      7  C   UNL     1      -6.094   5.855  -0.886  1.00  0.00     0.075 C 
ATOM      8  O   UNL     1      -4.909   5.456  -1.036  1.00  0.00    -0.545 OA
ATOM      9  O   UNL     1      -6.730   6.490  -1.947  1.00  0.00    -0.545 OA
ENDBRANCH   1   7
BRANCH   2  10
ATOM     10  O   UNL     1      -8.707   4.429  -0.748  1.00  0.00    -0.507 OA
ATOM     11  H   UNL     1      -8.635   3.457  -1.016  1.00  0.00     0.293 HD
ENDBRANCH   2  10
TORSDOF 2
ENDMDL
MODEL 3
REMARK VINA RESULT:    -4.181      2.926      4.482
REMARK INTER + INTRA:          -4.799
REMARK INTER:                  -4.606
REMARK INTRA:                  -0.193
REMARK UNBOUND:                -0.252
REMARK SMILES O=C([O-])c1ccccc1O
REMARK SMILES IDX 4 1 9 2 5 3 8 4 6 5 7 6 2 7 1 8 3 9 10 10
REMARK H PARENT 10 11
REMARK Flexibility Score: inf
ROOT
ATOM      1  C   UNL     1      -7.168   6.328   4.816  1.00  0.00     0.039 A 
ATOM      2  C   UNL     1      -8.519   6.419   5.236  1.00  0.00     0.124 A 
ATOM      3  C   UNL     1      -6.164   6.148   5.786  1.00  0.00     0.014 A 
ATOM      4  C   UNL     1      -8.823   6.392   6.604  1.00  0.00     0.047 A 
ATOM      5  C   UNL     1      -6.485   6.104   7.145  1.00  0.00     0.001 A 
ATOM      6  C   UNL     1      -7.812   6.235   7.553  1.00  0.00     0.004 A 
ENDROOT
BRANCH   1   7
ATOM      7  C   UNL     1      -6.759   6.445   3.398  1.00  0.00     0.075 C 
ATOM      8  O   UNL     1      -7.093   5.572   2.554  1.00  0.00    -0.545 OA
ATOM      9  O   UNL     1      -6.057   7.564   2.966  1.00  0.00    -0.545 OA
ENDBRANCH   1   7
BRANCH   2  10
ATOM     10  O   UNL     1      -9.586   6.500   4.338  1.00  0.00    -0.507 OA
ATOM     11  H   UNL     1      -9.851   7.350   3.861  1.00  0.00     0.293 HD
ENDBRANCH   2  10
TORSDOF 2
ENDMDL
MODEL 4
REMARK VINA RESULT:    -4.056      1.719      2.263
REMARK INTER + INTRA:          -4.663
REMARK INTER:                  -4.418
REMARK INTRA:                  -0.245
REMARK UNBOUND:                -0.252
REMARK SMILES O=C([O-])c1ccccc1O
REMARK SMILES IDX 4 1 9 2 5 3 8 4 6 5 7 6 2 7 1 8 3 9 10 10
REMARK H PARENT 10 11
REMARK Flexibility Score: inf
ROOT
ATOM      1  C   UNL     1      -6.970   6.107   4.229  1.00  0.00     0.039 A 
ATOM      2  C   UNL     1      -8.352   5.878   4.004  1.00  0.00     0.124 A 
ATOM      3  C   UNL     1      -6.103   6.176   3.122  1.00  0.00     0.014 A 
ATOM      4  C   UNL     1      -8.815   5.663   2.699  1.00  0.00     0.047 A 
ATOM      5  C   UNL     1      -6.584   5.980   1.826  1.00  0.00     0.001 A 
ATOM      6  C   UNL     1      -7.936   5.714   1.615  1.00  0.00     0.004 A 
ENDROOT
BRANCH   1   7
ATOM      7  C   UNL     1      -6.391   6.247   5.583  1.00  0.00     0.075 C 
ATOM      8  O   UNL     1      -5.635   7.213   5.868  1.00  0.00    -0.545 OA
ATOM      9  O   UNL     1      -6.734   5.344   6.584  1.00  0.00    -0.545 OA
ENDBRANCH   1   7
BRANCH   2  10
ATOM     10  O   UNL     1      -9.297   5.890   5.032  1.00  0.00    -0.507 OA
ATOM     11  H   UNL     1      -9.613   6.734   5.489  1.00  0.00     0.293 HD
ENDBRANCH   2  10
TORSDOF 2
ENDMDL
MODEL 5
REMARK VINA RESULT:    -4.047      0.992      2.635
REMARK INTER + INTRA:          -4.654
REMARK INTER:                  -4.493
REMARK INTRA:                  -0.160
REMARK UNBOUND:                -0.252
REMARK SMILES O=C([O-])c1ccccc1O
REMARK SMILES IDX 4 1 9 2 5 3 8 4 6 5 7 6 2 7 1 8 3 9 10 10
REMARK H PARENT 10 11
REMARK Flexibility Score: inf
ROOT
ATOM      1  C   UNL     1      -8.058   5.543   2.552  1.00  0.00     0.039 A 
ATOM      2  C   UNL     1      -6.847   6.082   2.049  1.00  0.00     0.124 A 
ATOM      3  C   UNL     1      -8.874   4.785   1.691  1.00  0.00     0.014 A 
ATOM      4  C   UNL     1      -6.517   5.906   0.698  1.00  0.00     0.047 A 
ATOM      5  C   UNL     1      -8.521   4.601   0.352  1.00  0.00     0.001 A 
ATOM      6  C   UNL     1      -7.349   5.169  -0.146  1.00  0.00     0.004 A 
ENDROOT
BRANCH   1   7
ATOM      7  C   UNL     1      -8.522   5.768   3.939  1.00  0.00     0.075 C 
ATOM      8  O   UNL     1      -7.945   5.213   4.912  1.00  0.00    -0.545 OA
ATOM      9  O   UNL     1      -9.561   6.656   4.190  1.00  0.00    -0.545 OA
ENDBRANCH   1   7
BRANCH   2  10
ATOM     10  O   UNL     1      -5.931   6.763   2.855  1.00  0.00    -0.507 OA
ATOM     11  H   UNL     1      -6.073   6.932   3.841  1.00  0.00     0.293 HD
ENDBRANCH   2  10
TORSDOF 2
ENDMDL
MODEL 6
REMARK VINA RESULT:    -4.025      2.315      4.192
REMARK INTER + INTRA:          -4.629
REMARK INTER:                  -4.384
REMARK INTRA:                  -0.245
REMARK UNBOUND:                -0.252
REMARK SMILES O=C([O-])c1ccccc1O
REMARK SMILES IDX 4 1 9 2 5 3 8 4 6 5 7 6 2 7 1 8 3 9 10 10
REMARK H PARENT 10 11
REMARK Flexibility Score: inf
ROOT
ATOM      1  C   UNL     1      -8.021   5.103   1.347  1.00  0.00     0.039 A 
ATOM      2  C   UNL     1      -6.904   5.959   1.170  1.00  0.00     0.124 A 
ATOM      3  C   UNL     1      -8.518   4.894   2.648  1.00  0.00     0.014 A 
ATOM      4  C   UNL     1      -6.280   6.526   2.289  1.00  0.00     0.047 A 
ATOM      5  C   UNL     1      -7.897   5.483   3.751  1.00  0.00     0.001 A 
ATOM      6  C   UNL     1      -6.774   6.290   3.573  1.00  0.00     0.004 A 
ENDROOT
BRANCH   1   7
ATOM      7  C   UNL     1      -8.672   4.392   0.225  1.00  0.00     0.075 C 
ATOM      8  O   UNL     1      -8.942   3.165   0.307  1.00  0.00    -0.545 OA
ATOM      9  O   UNL     1      -9.061   5.092  -0.912  1.00  0.00    -0.545 OA
ENDBRANCH   1   7
BRANCH   2  10
ATOM     10  O   UNL     1      -6.405   6.299  -0.090  1.00  0.00    -0.507 OA
ATOM     11  H   UNL     1      -5.985   5.633  -0.723  1.00  0.00     0.293 HD
ENDBRANCH   2  10
TORSDOF 2
ENDMDL
MODEL 7
REMARK VINA RESULT:    -4.012      2.284      3.307
REMARK INTER + INTRA:          -4.616
REMARK INTER:                  -4.440
REMARK INTRA:                  -0.176
REMARK UNBOUND:                -0.252
REMARK SMILES O=C([O-])c1ccccc1O
REMARK SMILES IDX 4 1 9 2 5 3 8 4 6 5 7 6 2 7 1 8 3 9 10 10
REMARK H PARENT 10 11
REMARK Flexibility Score: inf
ROOT
ATOM      1  C   UNL     1      -7.318   5.747  -0.067  1.00  0.00     0.039 A 
ATOM      2  C   UNL     1      -7.353   6.216   1.271  1.00  0.00     0.124 A 
ATOM      3  C   UNL     1      -8.142   4.665  -0.430  1.00  0.00     0.014 A 
ATOM      4  C   UNL     1      -8.154   5.559   2.215  1.00  0.00     0.047 A 
ATOM      5  C   UNL     1      -8.949   4.034   0.518  1.00  0.00     0.001 A 
ATOM      6  C   UNL     1      -8.949   4.474   1.841  1.00  0.00     0.004 A 
ENDROOT
BRANCH   1   7
ATOM      7  C   UNL     1      -6.426   6.326  -1.096  1.00  0.00     0.075 C 
ATOM      8  O   UNL     1      -6.622   7.487  -1.543  1.00  0.00    -0.545 OA
ATOM      9  O   UNL     1      -5.314   5.616  -1.533  1.00  0.00    -0.545 OA
ENDBRANCH   1   7
BRANCH   2  10
ATOM     10  O   UNL     1      -6.645   7.342   1.696  1.00  0.00    -0.507 OA
ATOM     11  H   UNL     1      -5.727   7.298   2.116  1.00  0.00     0.293 HD
ENDBRANCH   2  10
TORSDOF 2
ENDMDL
MODEL 8
REMARK VINA RESULT:    -3.966      1.981      2.988
REMARK INTER + INTRA:          -4.566
REMARK INTER:                  -4.314
REMARK INTRA:                  -0.252
REMARK UNBOUND:                -0.252
REMARK SMILES O=C([O-])c1ccccc1O
REMARK SMILES IDX 4 1 9 2 5 3 8 4 6 5 7 6 2 7 1 8 3 9 10 10
REMARK H PARENT 10 11
REMARK Flexibility Score: inf
ROOT
ATOM      1  C   UNL     1      -6.730   6.402   0.741  1.00  0.00     0.039 A 
ATOM      2  C   UNL     1      -7.448   7.350  -0.031  1.00  0.00     0.124 A 
ATOM      3  C   UNL     1      -5.785   5.578   0.100  1.00  0.00     0.014 A 
ATOM      4  C   UNL     1      -7.251   7.408  -1.417  1.00  0.00     0.047 A 
ATOM      5  C   UNL     1      -5.586   5.661  -1.280  1.00  0.00     0.001 A 
ATOM      6  C   UNL     1      -6.324   6.568  -2.039  1.00  0.00     0.004 A 
ENDROOT
BRANCH   1   7
ATOM      7  C   UNL     1      -6.952   6.215   2.192  1.00  0.00     0.075 C 
ATOM      8  O   UNL     1      -5.989   5.988   2.970  1.00  0.00    -0.545 OA
ATOM      9  O   UNL     1      -8.228   6.361   2.725  1.00  0.00    -0.545 OA
ENDBRANCH   1   7
BRANCH   2  10
ATOM     10  O   UNL     1      -8.331   8.272   0.535  1.00  0.00    -0.507 OA
ATOM     11  H   UNL     1      -8.200   9.273   0.488  1.00  0.00     0.293 HD
ENDBRANCH   2  10
TORSDOF 2
ENDMDL
MODEL 9
REMARK VINA RESULT:    -3.834      4.815      6.252
REMARK INTER + INTRA:          -4.422
REMARK INTER:                  -4.177
REMARK INTRA:                  -0.245
REMARK UNBOUND:                -0.252
REMARK SMILES O=C([O-])c1ccccc1O
REMARK SMILES IDX 4 1 9 2 5 3 8 4 6 5 7 6 2 7 1 8 3 9 10 10
REMARK H PARENT 10 11
REMARK Flexibility Score: inf
ROOT
ATOM      1  C   UNL     1      -8.008   6.563  -3.137  1.00  0.00     0.039 A 
ATOM      2  C   UNL     1      -6.881   7.032  -2.414  1.00  0.00     0.124 A 
ATOM      3  C   UNL     1      -8.852   5.610  -2.537  1.00  0.00     0.014 A 
ATOM      4  C   UNL     1      -6.595   6.496  -1.151  1.00  0.00     0.047 A 
ATOM      5  C   UNL     1      -8.564   5.100  -1.269  1.00  0.00     0.001 A 
ATOM      6  C   UNL     1      -7.432   5.535  -0.581  1.00  0.00     0.004 A 
ENDROOT
BRANCH   1   7
ATOM      7  C   UNL     1      -8.321   7.010  -4.513  1.00  0.00     0.075 C 
ATOM      8  O   UNL     1      -8.604   6.178  -5.414  1.00  0.00    -0.545 OA
ATOM      9  O   UNL     1      -8.376   8.367  -4.808  1.00  0.00    -0.545 OA
ENDBRANCH   1   7
BRANCH   2  10
ATOM     10  O   UNL     1      -6.047   8.046  -2.890  1.00  0.00    -0.507 OA
ATOM     11  H   UNL     1      -5.545   7.991  -3.766  1.00  0.00     0.293 HD
ENDBRANCH   2  10
TORSDOF 2
ENDMDL
