MODEL 1
REMARK VINA RESULT:    -3.653      0.000      0.000
REMARK INTER + INTRA:          -9.052
REMARK INTER:                  -6.856
REMARK INTRA:                  -2.196
REMARK UNBOUND:                -2.196
REMARK SMILES O=C([O-])CCCCCCCCCCCCCCC(=O)[O-]
REMARK SMILES IDX 10 1 9 2 8 3 7 4 6 5 5 6 4 7 2 8 1 9 3 10 11 11 12 12 13 13
REMARK SMILES IDX 14 14 15 15 16 16 17 17 18 18 19 19 20 20
REMARK H PARENT
REMARK Flexibility Score: inf
ROOT
ATOM      1  C   UNL     1      -5.198   3.588  -1.933  1.00  0.00     0.000 C 
ENDROOT
BRANCH   1   2
ATOM      2  C   UNL     1      -4.018   4.054  -1.063  1.00  0.00     0.000 C 
BRANCH   2   3
ATOM      3  C   UNL     1      -3.247   2.881  -0.434  1.00  0.00     0.000 C 
BRANCH   3   4
ATOM      4  C   UNL     1      -3.108   3.018   1.091  1.00  0.00     0.000 C 
BRANCH   4   5
ATOM      5  C   UNL     1      -4.117   4.011   1.694  1.00  0.00     0.000 C 
BRANCH   5   6
ATOM      6  C   UNL     1      -4.332   3.809   3.204  1.00  0.00     0.006 C 
BRANCH   6   7
ATOM      7  C   UNL     1      -5.554   4.557   3.766  1.00  0.00     0.053 C 
BRANCH   7   8
ATOM      8  C   UNL     1      -5.205   5.433   4.931  1.00  0.00     0.041 C 
ATOM      9  O   UNL     1      -5.984   5.514   5.917  1.00  0.00    -0.550 OA
ATOM     10  O   UNL     1      -4.005   6.133   4.945  1.00  0.00    -0.550 OA
ENDBRANCH   7   8
ENDBRANCH   6   7
ENDBRANCH   5   6
ENDBRANCH   4   5
ENDBRANCH   3   4
ENDBRANCH   2   3
ENDBRANCH   1   2
BRANCH   1  11
ATOM     11  C   UNL     1      -6.505   3.450  -1.132  1.00  0.00     0.000 C 
BRANCH  11  12
ATOM     12  C   UNL     1      -6.841   1.985  -0.805  1.00  0.00     0.000 C 
BRANCH  12  13
ATOM     13  C   UNL     1      -7.151   1.770   0.687  1.00  0.00     0.000 C 
BRANCH  13  14
ATOM     14  C   UNL     1      -6.148   0.827   1.378  1.00  0.00     0.000 C 
BRANCH  14  15
ATOM     15  C   UNL     1      -5.256   0.010   0.427  1.00  0.00     0.000 C 
BRANCH  15  16
ATOM     16  C   UNL     1      -5.233  -1.490   0.765  1.00  0.00     0.006 C 
BRANCH  16  17
ATOM     17  C   UNL     1      -6.645  -2.076   0.895  1.00  0.00     0.053 C 
BRANCH  17  18
ATOM     18  C   UNL     1      -7.250  -2.374  -0.443  1.00  0.00     0.041 C 
ATOM     19  O   UNL     1      -8.225  -1.698  -0.863  1.00  0.00    -0.550 OA
ATOM     20  O   UNL     1      -6.717  -3.381  -1.238  1.00  0.00    -0.550 OA
ENDBRANCH  17  18
ENDBRANCH  16  17
ENDBRANCH  15  16
ENDBRANCH  14  15
ENDBRANCH  13  14
ENDBRANCH  12  13
ENDBRANCH  11  12
ENDBRANCH   1  11
TORSDOF 15
ENDMDL
MODEL 2
REMARK VINA RESULT:    -3.626      3.382      5.191
REMARK INTER + INTRA:          -9.002
REMARK INTER:                  -6.748
REMARK INTRA:                  -2.253
REMARK UNBOUND:                -2.196
REMARK SMILES O=C([O-])CCCCCCCCCCCCCCC(=O)[O-]
REMARK SMILES IDX 10 1 9 2 8 3 7 4 6 5 5 6 4 7 2 8 1 9 3 10 11 11 12 12 13 13
REMARK SMILES IDX 14 14 15 15 16 16 17 17 18 18 19 19 20 20
REMARK H PARENT
REMARK Flexibility Score: inf
ROOT
ATOM      1  C   UNL     1      -6.086   1.549  -0.169  1.00  0.00     0.000 C 
ENDROOT
BRANCH   1   2
ATOM      2  C   UNL     1      -4.772   1.217   0.557  1.00  0.00     0.000 C 
BRANCH   2   3
ATOM      3  C   UNL     1      -3.595   2.083   0.076  1.00  0.00     0.000 C 
BRANCH   3   4
ATOM      4  C   UNL     1      -3.079   3.034   1.168  1.00  0.00     0.000 C 
BRANCH   4   5
ATOM      5  C   UNL     1      -3.519   4.491   0.945  1.00  0.00     0.000 C 
BRANCH   5   6
ATOM      6  C   UNL     1      -4.535   4.981   1.993  1.00  0.00     0.006 C 
BRANCH   6   7
ATOM      7  C   UNL     1      -4.580   4.119   3.267  1.00  0.00     0.053 C 
BRANCH   7   8
ATOM      8  C   UNL     1      -4.786   4.937   4.506  1.00  0.00     0.041 C 
ATOM      9  O   UNL     1      -5.632   4.579   5.368  1.00  0.00    -0.550 OA
ATOM     10  O   UNL     1      -4.021   6.076   4.728  1.00  0.00    -0.550 OA
ENDBRANCH   7   8
ENDBRANCH   6   7
ENDBRANCH   5   6
ENDBRANCH   4   5
ENDBRANCH   3   4
ENDBRANCH   2   3
ENDBRANCH   1   2
BRANCH   1  11
ATOM     11  C   UNL     1      -5.913   2.646  -1.234  1.00  0.00     0.000 C 
BRANCH  11  12
ATOM     12  C   UNL     1      -6.706   3.921  -0.899  1.00  0.00     0.000 C 
BRANCH  12  13
ATOM     13  C   UNL     1      -6.265   5.129  -1.743  1.00  0.00     0.000 C 
BRANCH  13  14
ATOM     14  C   UNL     1      -6.033   4.775  -3.223  1.00  0.00     0.000 C 
BRANCH  14  15
ATOM     15  C   UNL     1      -4.683   5.235  -3.802  1.00  0.00     0.000 C 
BRANCH  15  16
ATOM     16  C   UNL     1      -3.534   5.154  -2.784  1.00  0.00     0.006 C 
BRANCH  16  17
ATOM     17  C   UNL     1      -2.650   3.919  -3.006  1.00  0.00     0.053 C 
BRANCH  17  18
ATOM     18  C   UNL     1      -1.782   4.066  -4.219  1.00  0.00     0.041 C 
ATOM     19  O   UNL     1      -0.680   4.671  -4.141  1.00  0.00    -0.550 OA
ATOM     20  O   UNL     1      -2.177   3.510  -5.428  1.00  0.00    -0.550 OA
ENDBRANCH  17  18
ENDBRANCH  16  17
ENDBRANCH  15  16
ENDBRANCH  14  15
ENDBRANCH  13  14
ENDBRANCH  12  13
ENDBRANCH  11  12
ENDBRANCH   1  11
TORSDOF 15
ENDMDL
MODEL 3
REMARK VINA RESULT:    -3.569      1.016      6.782
REMARK INTER + INTRA:          -8.895
REMARK INTER:                  -6.534
REMARK INTRA:                  -2.362
REMARK UNBOUND:                -2.196
REMARK SMILES O=C([O-])CCCCCCCCCCCCCCC(=O)[O-]
REMARK SMILES IDX 10 1 9 2 8 3 7 4 6 5 5 6 4 7 2 8 1 9 3 10 11 11 12 12 13 13
REMARK SMILES IDX 14 14 15 15 16 16 17 17 18 18 19 19 20 20
REMARK H PARENT
REMARK Flexibility Score: inf
ROOT
ATOM      1  C   UNL     1      -7.009   1.735  -0.864  1.00  0.00     0.000 C 
ENDROOT
BRANCH   1   2
ATOM      2  C   UNL     1      -7.091   1.926   0.660  1.00  0.00     0.000 C 
BRANCH   2   3
ATOM      3  C   UNL     1      -6.248   0.895   1.431  1.00  0.00     0.000 C 
BRANCH   3   4
ATOM      4  C   UNL     1      -5.414   0.002   0.499  1.00  0.00     0.000 C 
BRANCH   4   5
ATOM      5  C   UNL     1      -5.326  -1.453   0.992  1.00  0.00     0.000 C 
BRANCH   5   6
ATOM      6  C   UNL     1      -6.693  -2.158   1.035  1.00  0.00     0.006 C 
BRANCH   6   7
ATOM      7  C   UNL     1      -7.378  -2.275  -0.338  1.00  0.00     0.053 C 
BRANCH   7   8
ATOM      8  C   UNL     1      -8.679  -1.532  -0.395  1.00  0.00     0.041 C 
ATOM      9  O   UNL     1      -9.221  -1.122   0.665  1.00  0.00    -0.550 OA
ATOM     10  O   UNL     1      -9.277  -1.263  -1.620  1.00  0.00    -0.550 OA
ENDBRANCH   7   8
ENDBRANCH   6   7
ENDBRANCH   5   6
ENDBRANCH   4   5
ENDBRANCH   3   4
ENDBRANCH   2   3
ENDBRANCH   1   2
BRANCH   1  11
ATOM     11  C   UNL     1      -6.504   2.994  -1.592  1.00  0.00     0.000 C 
BRANCH  11  12
ATOM     12  C   UNL     1      -5.394   3.717  -0.811  1.00  0.00     0.000 C 
BRANCH  12  13
ATOM     13  C   UNL     1      -4.020   3.046  -0.978  1.00  0.00     0.000 C 
BRANCH  13  14
ATOM     14  C   UNL     1      -3.224   2.972   0.337  1.00  0.00     0.000 C 
BRANCH  14  15
ATOM     15  C   UNL     1      -3.551   4.072   1.362  1.00  0.00     0.000 C 
BRANCH  15  16
ATOM     16  C   UNL     1      -3.881   3.514   2.757  1.00  0.00     0.006 C 
BRANCH  16  17
ATOM     17  C   UNL     1      -5.241   4.006   3.270  1.00  0.00     0.053 C 
BRANCH  17  18
ATOM     18  C   UNL     1      -5.106   4.797   4.536  1.00  0.00     0.041 C 
ATOM     19  O   UNL     1      -4.113   5.552   4.709  1.00  0.00    -0.550 OA
ATOM     20  O   UNL     1      -6.091   4.722   5.511  1.00  0.00    -0.550 OA
ENDBRANCH  17  18
ENDBRANCH  16  17
ENDBRANCH  15  16
ENDBRANCH  14  15
ENDBRANCH  13  14
ENDBRANCH  12  13
ENDBRANCH  11  12
ENDBRANCH   1  11
TORSDOF 15
ENDMDL
MODEL 4
REMARK VINA RESULT:    -3.462      1.582      3.192
REMARK INTER + INTRA:          -8.694
REMARK INTER:                  -7.351
REMARK INTRA:                  -1.343
REMARK UNBOUND:                -2.196
REMARK SMILES O=C([O-])CCCCCCCCCCCCCCC(=O)[O-]
REMARK SMILES IDX 10 1 9 2 8 3 7 4 6 5 5 6 4 7 2 8 1 9 3 10 11 11 12 12 13 13
REMARK SMILES IDX 14 14 15 15 16 16 17 17 18 18 19 19 20 20
REMARK H PARENT
REMARK Flexibility Score: inf
ROOT
ATOM      1  C   UNL     1      -7.252   1.224  -0.057  1.00  0.00     0.000 C 
ENDROOT
BRANCH   1   2
ATOM      2  C   UNL     1      -6.519   2.064  -1.117  1.00  0.00     0.000 C 
BRANCH   2   3
ATOM      3  C   UNL     1      -5.892   3.341  -0.529  1.00  0.00     0.000 C 
BRANCH   3   4
ATOM      4  C   UNL     1      -4.538   3.681  -1.173  1.00  0.00     0.000 C 
BRANCH   4   5
ATOM      5  C   UNL     1      -3.396   2.783  -0.666  1.00  0.00     0.000 C 
BRANCH   5   6
ATOM      6  C   UNL     1      -3.283   2.761   0.869  1.00  0.00     0.006 C 
BRANCH   6   7
ATOM      7  C   UNL     1      -3.330   4.155   1.518  1.00  0.00     0.053 C 
BRANCH   7   8
ATOM      8  C   UNL     1      -4.226   4.200   2.719  1.00  0.00     0.041 C 
ATOM      9  O   UNL     1      -5.027   3.255   2.947  1.00  0.00    -0.550 OA
ATOM     10  O   UNL     1      -4.155   5.267   3.606  1.00  0.00    -0.550 OA
ENDBRANCH   7   8
ENDBRANCH   6   7
ENDBRANCH   5   6
ENDBRANCH   4   5
ENDBRANCH   3   4
ENDBRANCH   2   3
ENDBRANCH   1   2
BRANCH   1  11
ATOM     11  C   UNL     1      -6.304   0.684   1.029  1.00  0.00     0.000 C 
BRANCH  11  12
ATOM     12  C   UNL     1      -5.262  -0.296   0.464  1.00  0.00     0.000 C 
BRANCH  12  13
ATOM     13  C   UNL     1      -5.412  -1.714   1.042  1.00  0.00     0.000 C 
BRANCH  13  14
ATOM     14  C   UNL     1      -6.846  -2.261   0.927  1.00  0.00     0.000 C 
BRANCH  14  15
ATOM     15  C   UNL     1      -7.342  -2.501  -0.510  1.00  0.00     0.000 C 
BRANCH  15  16
ATOM     16  C   UNL     1      -8.244  -3.740  -0.635  1.00  0.00     0.006 C 
BRANCH  16  17
ATOM     17  C   UNL     1      -7.564  -4.875  -1.414  1.00  0.00     0.053 C 
BRANCH  17  18
ATOM     18  C   UNL     1      -6.838  -4.364  -2.621  1.00  0.00     0.041 C 
ATOM     19  O   UNL     1      -7.483  -3.937  -3.615  1.00  0.00    -0.550 OA
ATOM     20  O   UNL     1      -5.450  -4.334  -2.636  1.00  0.00    -0.550 OA
ENDBRANCH  17  18
ENDBRANCH  16  17
ENDBRANCH  15  16
ENDBRANCH  14  15
ENDBRANCH  13  14
ENDBRANCH  12  13
ENDBRANCH  11  12
ENDBRANCH   1  11
TORSDOF 15
ENDMDL
MODEL 5
REMARK VINA RESULT:    -3.448      3.383      5.035
REMARK INTER + INTRA:          -8.667
REMARK INTER:                  -6.511
REMARK INTRA:                  -2.156
REMARK UNBOUND:                -2.196
REMARK SMILES O=C([O-])CCCCCCCCCCCCCCC(=O)[O-]
REMARK SMILES IDX 10 1 9 2 8 3 7 4 6 5 5 6 4 7 2 8 1 9 3 10 11 11 12 12 13 13
REMARK SMILES IDX 14 14 15 15 16 16 17 17 18 18 19 19 20 20
REMARK H PARENT
REMARK Flexibility Score: inf
ROOT
ATOM      1  C   UNL     1      -4.206   1.416   0.390  1.00  0.00     0.000 C 
ENDROOT
BRANCH   1   2
ATOM      2  C   UNL     1      -3.288   2.649   0.434  1.00  0.00     0.000 C 
BRANCH   2   3
ATOM      3  C   UNL     1      -3.687   3.645   1.537  1.00  0.00     0.000 C 
BRANCH   3   4
ATOM      4  C   UNL     1      -3.553   5.108   1.085  1.00  0.00     0.000 C 
BRANCH   4   5
ATOM      5  C   UNL     1      -4.758   5.971   1.497  1.00  0.00     0.000 C 
BRANCH   5   6
ATOM      6  C   UNL     1      -5.699   5.259   2.486  1.00  0.00     0.006 C 
BRANCH   6   7
ATOM      7  C   UNL     1      -6.070   6.109   3.715  1.00  0.00     0.053 C 
BRANCH   7   8
ATOM      8  C   UNL     1      -5.118   5.916   4.856  1.00  0.00     0.041 C 
ATOM      9  O   UNL     1      -5.180   6.666   5.865  1.00  0.00    -0.550 OA
ATOM     10  O   UNL     1      -4.185   4.887   4.821  1.00  0.00    -0.550 OA
ENDBRANCH   7   8
ENDBRANCH   6   7
ENDBRANCH   5   6
ENDBRANCH   4   5
ENDBRANCH   3   4
ENDBRANCH   2   3
ENDBRANCH   1   2
BRANCH   1  11
ATOM     11  C   UNL     1      -5.698   1.787   0.467  1.00  0.00     0.000 C 
BRANCH  11  12
ATOM     12  C   UNL     1      -6.293   2.119  -0.911  1.00  0.00     0.000 C 
BRANCH  12  13
ATOM     13  C   UNL     1      -6.675   3.603  -1.047  1.00  0.00     0.000 C 
BRANCH  13  14
ATOM     14  C   UNL     1      -6.212   4.223  -2.378  1.00  0.00     0.000 C 
BRANCH  14  15
ATOM     15  C   UNL     1      -5.102   5.282  -2.256  1.00  0.00     0.000 C 
BRANCH  15  16
ATOM     16  C   UNL     1      -3.708   4.733  -2.599  1.00  0.00     0.006 C 
BRANCH  16  17
ATOM     17  C   UNL     1      -3.441   4.731  -4.110  1.00  0.00     0.053 C 
BRANCH  17  18
ATOM     18  C   UNL     1      -2.162   4.028  -4.450  1.00  0.00     0.041 C 
ATOM     19  O   UNL     1      -1.668   4.133  -5.603  1.00  0.00    -0.550 OA
ATOM     20  O   UNL     1      -1.501   3.282  -3.483  1.00  0.00    -0.550 OA
ENDBRANCH  17  18
ENDBRANCH  16  17
ENDBRANCH  15  16
ENDBRANCH  14  15
ENDBRANCH  13  14
ENDBRANCH  12  13
ENDBRANCH  11  12
ENDBRANCH   1  11
TORSDOF 15
ENDMDL
MODEL 6
REMARK VINA RESULT:    -3.439      1.208      6.622
REMARK INTER + INTRA:          -8.651
REMARK INTER:                  -6.521
REMARK INTRA:                  -2.130
REMARK UNBOUND:                -2.196
REMARK SMILES O=C([O-])CCCCCCCCCCCCCCC(=O)[O-]
REMARK SMILES IDX 10 1 9 2 8 3 7 4 6 5 5 6 4 7 2 8 1 9 3 10 11 11 12 12 13 13
REMARK SMILES IDX 14 14 15 15 16 16 17 17 18 18 19 19 20 20
REMARK H PARENT
REMARK Flexibility Score: inf
ROOT
ATOM      1  C   UNL     1      -4.077   4.317  -1.089  1.00  0.00     0.000 C 
ENDROOT
BRANCH   1   2
ATOM      2  C   UNL     1      -5.487   4.231  -1.699  1.00  0.00     0.000 C 
BRANCH   2   3
ATOM      3  C   UNL     1      -6.187   2.897  -1.385  1.00  0.00     0.000 C 
BRANCH   3   4
ATOM      4  C   UNL     1      -7.247   3.035  -0.281  1.00  0.00     0.000 C 
BRANCH   4   5
ATOM      5  C   UNL     1      -7.134   1.939   0.793  1.00  0.00     0.000 C 
BRANCH   5   6
ATOM      6  C   UNL     1      -6.917   0.535   0.200  1.00  0.00     0.006 C 
BRANCH   6   7
ATOM      7  C   UNL     1      -5.756  -0.242   0.847  1.00  0.00     0.053 C 
BRANCH   7   8
ATOM      8  C   UNL     1      -5.730  -1.683   0.435  1.00  0.00     0.041 C 
ATOM      9  O   UNL     1      -4.666  -2.196  -0.004  1.00  0.00    -0.550 OA
ATOM     10  O   UNL     1      -6.868  -2.469   0.566  1.00  0.00    -0.550 OA
ENDBRANCH   7   8
ENDBRANCH   6   7
ENDBRANCH   5   6
ENDBRANCH   4   5
ENDBRANCH   3   4
ENDBRANCH   2   3
ENDBRANCH   1   2
BRANCH   1  11
ATOM     11  C   UNL     1      -3.426   2.934  -0.907  1.00  0.00     0.000 C 
BRANCH  11  12
ATOM     12  C   UNL     1      -3.475   2.450   0.552  1.00  0.00     0.000 C 
BRANCH  12  13
ATOM     13  C   UNL     1      -3.218   3.585   1.559  1.00  0.00     0.000 C 
BRANCH  13  14
ATOM     14  C   UNL     1      -4.308   3.685   2.642  1.00  0.00     0.000 C 
BRANCH  14  15
ATOM     15  C   UNL     1      -5.330   4.817   2.439  1.00  0.00     0.000 C 
BRANCH  15  16
ATOM     16  C   UNL     1      -6.606   4.633   3.277  1.00  0.00     0.006 C 
BRANCH  16  17
ATOM     17  C   UNL     1      -6.335   3.875   4.584  1.00  0.00     0.053 C 
BRANCH  17  18
ATOM     18  C   UNL     1      -6.366   4.786   5.773  1.00  0.00     0.041 C 
ATOM     19  O   UNL     1      -7.338   4.751   6.574  1.00  0.00    -0.550 OA
ATOM     20  O   UNL     1      -5.309   5.653   6.012  1.00  0.00    -0.550 OA
ENDBRANCH  17  18
ENDBRANCH  16  17
ENDBRANCH  15  16
ENDBRANCH  14  15
ENDBRANCH  13  14
ENDBRANCH  12  13
ENDBRANCH  11  12
ENDBRANCH   1  11
TORSDOF 15
ENDMDL
MODEL 7
REMARK VINA RESULT:    -3.430      2.414      3.903
REMARK INTER + INTRA:          -8.634
REMARK INTER:                  -7.611
REMARK INTRA:                  -1.023
REMARK UNBOUND:                -2.196
REMARK SMILES O=C([O-])CCCCCCCCCCCCCCC(=O)[O-]
REMARK SMILES IDX 10 1 9 2 8 3 7 4 6 5 5 6 4 7 2 8 1 9 3 10 11 11 12 12 13 13
REMARK SMILES IDX 14 14 15 15 16 16 17 17 18 18 19 19 20 20
REMARK H PARENT
REMARK Flexibility Score: inf
ROOT
ATOM      1  C   UNL     1      -5.062   0.079   0.745  1.00  0.00     0.000 C 
ENDROOT
BRANCH   1   2
ATOM      2  C   UNL     1      -5.909   1.103  -0.029  1.00  0.00     0.000 C 
BRANCH   2   3
ATOM      3  C   UNL     1      -5.113   2.364  -0.408  1.00  0.00     0.000 C 
BRANCH   3   4
ATOM      4  C   UNL     1      -3.607   2.212  -0.141  1.00  0.00     0.000 C 
BRANCH   4   5
ATOM      5  C   UNL     1      -3.140   3.000   1.096  1.00  0.00     0.000 C 
BRANCH   5   6
ATOM      6  C   UNL     1      -4.192   4.001   1.606  1.00  0.00     0.006 C 
BRANCH   6   7
ATOM      7  C   UNL     1      -4.647   3.744   3.053  1.00  0.00     0.053 C 
BRANCH   7   8
ATOM      8  C   UNL     1      -4.811   5.012   3.836  1.00  0.00     0.041 C 
ATOM      9  O   UNL     1      -5.656   5.074   4.769  1.00  0.00    -0.550 OA
ATOM     10  O   UNL     1      -4.011   6.113   3.561  1.00  0.00    -0.550 OA
ENDBRANCH   7   8
ENDBRANCH   6   7
ENDBRANCH   5   6
ENDBRANCH   4   5
ENDBRANCH   3   4
ENDBRANCH   2   3
ENDBRANCH   1   2
BRANCH   1  11
ATOM     11  C   UNL     1      -5.414  -1.375   0.382  1.00  0.00     0.000 C 
BRANCH  11  12
ATOM     12  C   UNL     1      -6.403  -2.005   1.377  1.00  0.00     0.000 C 
BRANCH  12  13
ATOM     13  C   UNL     1      -7.501  -2.825   0.678  1.00  0.00     0.000 C 
BRANCH  13  14
ATOM     14  C   UNL     1      -7.443  -2.721  -0.857  1.00  0.00     0.000 C 
BRANCH  14  15
ATOM     15  C   UNL     1      -7.633  -4.049  -1.610  1.00  0.00     0.000 C 
BRANCH  15  16
ATOM     16  C   UNL     1      -6.525  -4.319  -2.642  1.00  0.00     0.006 C 
BRANCH  16  17
ATOM     17  C   UNL     1      -5.709  -5.573  -2.301  1.00  0.00     0.053 C 
BRANCH  17  18
ATOM     18  C   UNL     1      -5.547  -6.472  -3.489  1.00  0.00     0.041 C 
ATOM     19  O   UNL     1      -6.553  -7.013  -4.018  1.00  0.00    -0.550 OA
ATOM     20  O   UNL     1      -4.286  -6.687  -4.030  1.00  0.00    -0.550 OA
ENDBRANCH  17  18
ENDBRANCH  16  17
ENDBRANCH  15  16
ENDBRANCH  14  15
ENDBRANCH  13  14
ENDBRANCH  12  13
ENDBRANCH  11  12
ENDBRANCH   1  11
TORSDOF 15
ENDMDL
MODEL 8
REMARK VINA RESULT:    -3.377      3.400      6.756
REMARK INTER + INTRA:          -8.534
REMARK INTER:                  -6.572
REMARK INTRA:                  -1.962
REMARK UNBOUND:                -2.196
REMARK SMILES O=C([O-])CCCCCCCCCCCCCCC(=O)[O-]
REMARK SMILES IDX 10 1 9 2 8 3 7 4 6 5 5 6 4 7 2 8 1 9 3 10 11 11 12 12 13 13
REMARK SMILES IDX 14 14 15 15 16 16 17 17 18 18 19 19 20 20
REMARK H PARENT
REMARK Flexibility Score: inf
ROOT
ATOM      1  C   UNL     1      -7.611   2.917  -0.229  1.00  0.00     0.000 C 
ENDROOT
BRANCH   1   2
ATOM      2  C   UNL     1      -7.212   4.262  -0.859  1.00  0.00     0.000 C 
BRANCH   2   3
ATOM      3  C   UNL     1      -7.295   4.243  -2.396  1.00  0.00     0.000 C 
BRANCH   3   4
ATOM      4  C   UNL     1      -6.008   4.754  -3.061  1.00  0.00     0.000 C 
BRANCH   4   5
ATOM      5  C   UNL     1      -4.741   4.387  -2.268  1.00  0.00     0.000 C 
BRANCH   5   6
ATOM      6  C   UNL     1      -3.486   5.128  -2.760  1.00  0.00     0.006 C 
BRANCH   6   7
ATOM      7  C   UNL     1      -3.295   5.086  -4.287  1.00  0.00     0.053 C 
BRANCH   7   8
ATOM      8  C   UNL     1      -2.101   4.278  -4.694  1.00  0.00     0.041 C 
ATOM      9  O   UNL     1      -2.207   3.402  -5.593  1.00  0.00    -0.550 OA
ATOM     10  O   UNL     1      -0.863   4.514  -4.108  1.00  0.00    -0.550 OA
ENDBRANCH   7   8
ENDBRANCH   6   7
ENDBRANCH   5   6
ENDBRANCH   4   5
ENDBRANCH   3   4
ENDBRANCH   2   3
ENDBRANCH   1   2
BRANCH   1  11
ATOM     11  C   UNL     1      -6.727   1.753  -0.710  1.00  0.00     0.000 C 
BRANCH  11  12
ATOM     12  C   UNL     1      -6.307   0.821   0.439  1.00  0.00     0.000 C 
BRANCH  12  13
ATOM     13  C   UNL     1      -4.781   0.649   0.532  1.00  0.00     0.000 C 
BRANCH  13  14
ATOM     14  C   UNL     1      -4.006   1.850  -0.040  1.00  0.00     0.000 C 
BRANCH  14  15
ATOM     15  C   UNL     1      -3.371   2.779   1.010  1.00  0.00     0.000 C 
BRANCH  15  16
ATOM     16  C   UNL     1      -4.306   3.920   1.446  1.00  0.00     0.006 C 
BRANCH  16  17
ATOM     17  C   UNL     1      -5.035   3.602   2.758  1.00  0.00     0.053 C 
BRANCH  17  18
ATOM     18  C   UNL     1      -4.817   4.668   3.789  1.00  0.00     0.041 C 
ATOM     19  O   UNL     1      -5.401   4.602   4.903  1.00  0.00    -0.550 OA
ATOM     20  O   UNL     1      -3.946   5.718   3.529  1.00  0.00    -0.550 OA
ENDBRANCH  17  18
ENDBRANCH  16  17
ENDBRANCH  15  16
ENDBRANCH  14  15
ENDBRANCH  13  14
ENDBRANCH  12  13
ENDBRANCH  11  12
ENDBRANCH   1  11
TORSDOF 15
ENDMDL
MODEL 9
REMARK VINA RESULT:    -3.371      1.946      3.544
REMARK INTER + INTRA:          -8.523
REMARK INTER:                  -6.526
REMARK INTRA:                  -1.997
REMARK UNBOUND:                -2.196
REMARK SMILES O=C([O-])CCCCCCCCCCCCCCC(=O)[O-]
REMARK SMILES IDX 10 1 9 2 8 3 7 4 6 5 5 6 4 7 2 8 1 9 3 10 11 11 12 12 13 13
REMARK SMILES IDX 14 14 15 15 16 16 17 17 18 18 19 19 20 20
REMARK H PARENT
REMARK Flexibility Score: inf
ROOT
ATOM      1  C   UNL     1      -3.688   4.085   1.678  1.00  0.00     0.000 C 
ENDROOT
BRANCH   1   2
ATOM      2  C   UNL     1      -4.622   3.696   2.837  1.00  0.00     0.000 C 
BRANCH   2   3
ATOM      3  C   UNL     1      -5.847   4.620   2.947  1.00  0.00     0.000 C 
BRANCH   3   4
ATOM      4  C   UNL     1      -7.174   3.859   2.798  1.00  0.00     0.000 C 
BRANCH   4   5
ATOM      5  C   UNL     1      -7.215   2.567   3.633  1.00  0.00     0.000 C 
BRANCH   5   6
ATOM      6  C   UNL     1      -8.031   2.712   4.929  1.00  0.00     0.006 C 
BRANCH   6   7
ATOM      7  C   UNL     1      -7.198   2.550   6.213  1.00  0.00     0.053 C 
BRANCH   7   8
ATOM      8  C   UNL     1      -7.009   3.845   6.943  1.00  0.00     0.041 C 
ATOM      9  O   UNL     1      -7.648   4.073   8.004  1.00  0.00    -0.550 OA
ATOM     10  O   UNL     1      -6.103   4.788   6.472  1.00  0.00    -0.550 OA
ENDBRANCH   7   8
ENDBRANCH   6   7
ENDBRANCH   5   6
ENDBRANCH   4   5
ENDBRANCH   3   4
ENDBRANCH   2   3
ENDBRANCH   1   2
BRANCH   1  11
ATOM     11  C   UNL     1      -3.005   2.866   1.034  1.00  0.00     0.000 C 
BRANCH  11  12
ATOM     12  C   UNL     1      -3.332   2.733  -0.463  1.00  0.00     0.000 C 
BRANCH  12  13
ATOM     13  C   UNL     1      -4.484   3.654  -0.900  1.00  0.00     0.000 C 
BRANCH  13  14
ATOM     14  C   UNL     1      -5.723   2.878  -1.382  1.00  0.00     0.000 C 
BRANCH  14  15
ATOM     15  C   UNL     1      -6.670   2.397  -0.268  1.00  0.00     0.000 C 
BRANCH  15  16
ATOM     16  C   UNL     1      -6.751   0.865  -0.168  1.00  0.00     0.006 C 
BRANCH  16  17
ATOM     17  C   UNL     1      -5.650   0.284   0.730  1.00  0.00     0.053 C 
BRANCH  17  18
ATOM     18  C   UNL     1      -5.669  -1.215   0.735  1.00  0.00     0.041 C 
ATOM     19  O   UNL     1      -4.780  -1.858   1.353  1.00  0.00    -0.550 OA
ATOM     20  O   UNL     1      -6.685  -1.900   0.082  1.00  0.00    -0.550 OA
ENDBRANCH  17  18
ENDBRANCH  16  17
ENDBRANCH  15  16
ENDBRANCH  14  15
ENDBRANCH  13  14
ENDBRANCH  12  13
ENDBRANCH  11  12
ENDBRANCH   1  11
TORSDOF 15
ENDMDL
