MODEL 1
REMARK VINA RESULT:    -4.862      0.000      0.000
REMARK INTER + INTRA:         -11.625
REMARK INTER:                  -9.410
REMARK INTRA:                  -2.215
REMARK UNBOUND:                -2.215
REMARK SMILES CCCCCCCCCCCCCCCCCC(=O)[O-]
REMARK SMILES IDX 10 1 11 2 12 3 13 4 14 5 15 6 16 7 17 8 18 9 19 10 20 11
REMARK SMILES IDX 9 12 8 13 7 14 6 15 5 16 4 17 3 18 2 19 1 20
REMARK H PARENT
REMARK Flexibility Score: inf
ROOT
ATOM      1  C   UNL     1      60.850  29.063  13.841  1.00  0.00     0.000 C 
ENDROOT
BRANCH   1   2
ATOM      2  C   UNL     1      62.268  29.592  13.558  1.00  0.00     0.000 C 
BRANCH   2   3
ATOM      3  C   UNL     1      62.304  31.107  13.310  1.00  0.00     0.000 C 
BRANCH   3   4
ATOM      4  C   UNL     1      61.033  31.575  12.591  1.00  0.00     0.000 C 
BRANCH   4   5
ATOM      5  C   UNL     1      60.395  32.767  13.320  1.00  0.00     0.000 C 
BRANCH   5   6
ATOM      6  C   UNL     1      60.397  32.606  14.850  1.00  0.00     0.000 C 
BRANCH   6   7
ATOM      7  C   UNL     1      60.806  33.867  15.640  1.00  0.00     0.006 C 
BRANCH   7   8
ATOM      8  C   UNL     1      62.181  33.775  16.321  1.00  0.00     0.053 C 
BRANCH   8   9
ATOM      9  C   UNL     1      62.110  34.122  17.777  1.00  0.00     0.041 C 
ATOM     10  O   UNL     1      60.997  34.171  18.363  1.00  0.00    -0.550 OA
ATOM     11  O   UNL     1      63.276  34.359  18.494  1.00  0.00    -0.550 OA
ENDBRANCH   8   9
ENDBRANCH   7   8
ENDBRANCH   6   7
ENDBRANCH   5   6
ENDBRANCH   4   5
ENDBRANCH   3   4
ENDBRANCH   2   3
ENDBRANCH   1   2
BRANCH   1  12
ATOM     12  C   UNL     1      60.372  27.947  12.895  1.00  0.00     0.000 C 
BRANCH  12  13
ATOM     13  C   UNL     1      59.189  28.373  12.014  1.00  0.00    -0.000 C 
BRANCH  13  14
ATOM     14  C   UNL     1      59.659  28.722  10.594  1.00  0.00    -0.000 C 
BRANCH  14  15
ATOM     15  C   UNL     1      61.112  28.292  10.323  1.00  0.00    -0.000 C 
BRANCH  15  16
ATOM     16  C   UNL     1      62.019  29.392   9.735  1.00  0.00    -0.000 C 
BRANCH  16  17
ATOM     17  C   UNL     1      63.384  28.905   9.217  1.00  0.00    -0.000 C 
BRANCH  17  18
ATOM     18  C   UNL     1      64.482  29.973   9.332  1.00  0.00    -0.000 C 
BRANCH  18  19
ATOM     19  C   UNL     1      63.944  31.240  10.006  1.00  0.00    -0.003 C 
ATOM     20  C   UNL     1      65.084  32.130  10.495  1.00  0.00     0.004 C 
ENDBRANCH  18  19
ENDBRANCH  17  18
ENDBRANCH  16  17
ENDBRANCH  15  16
ENDBRANCH  14  15
ENDBRANCH  13  14
ENDBRANCH  12  13
ENDBRANCH   1  12
TORSDOF 16
ENDMDL
MODEL 2
REMARK VINA RESULT:    -4.839     10.374     14.582
REMARK INTER + INTRA:         -11.581
REMARK INTER:                  -9.054
REMARK INTRA:                  -2.526
REMARK UNBOUND:                -2.215
REMARK SMILES CCCCCCCCCCCCCCCCCC(=O)[O-]
REMARK SMILES IDX 10 1 11 2 12 3 13 4 14 5 15 6 16 7 17 8 18 9 19 10 20 11
REMARK SMILES IDX 9 12 8 13 7 14 6 15 5 16 4 17 3 18 2 19 1 20
REMARK H PARENT
REMARK Flexibility Score: inf
ROOT
ATOM      1  C   UNL     1      63.325  29.320  24.032  1.00  0.00     0.000 C 
ENDROOT
BRANCH   1   2
ATOM      2  C   UNL     1      62.083  28.975  24.875  1.00  0.00     0.000 C 
BRANCH   2   3
ATOM      3  C   UNL     1      61.902  27.465  25.086  1.00  0.00     0.000 C 
BRANCH   3   4
ATOM      4  C   UNL     1      63.223  26.807  25.502  1.00  0.00     0.000 C 
BRANCH   4   5
ATOM      5  C   UNL     1      63.679  25.777  24.457  1.00  0.00     0.000 C 
BRANCH   5   6
ATOM      6  C   UNL     1      65.166  25.917  24.085  1.00  0.00     0.000 C 
BRANCH   6   7
ATOM      7  C   UNL     1      65.440  26.623  22.741  1.00  0.00     0.006 C 
BRANCH   7   8
ATOM      8  C   UNL     1      66.243  25.785  21.733  1.00  0.00     0.053 C 
BRANCH   8   9
ATOM      9  C   UNL     1      66.404  26.489  20.421  1.00  0.00     0.041 C 
ATOM     10  O   UNL     1      66.432  25.830  19.348  1.00  0.00    -0.550 OA
ATOM     11  O   UNL     1      66.487  27.875  20.379  1.00  0.00    -0.550 OA
ENDBRANCH   8   9
ENDBRANCH   7   8
ENDBRANCH   6   7
ENDBRANCH   5   6
ENDBRANCH   4   5
ENDBRANCH   3   4
ENDBRANCH   2   3
ENDBRANCH   1   2
BRANCH   1  12
ATOM     12  C   UNL     1      64.328  30.270  24.711  1.00  0.00     0.000 C 
BRANCH  12  13
ATOM     13  C   UNL     1      65.624  29.568  25.140  1.00  0.00    -0.000 C 
BRANCH  13  14
ATOM     14  C   UNL     1      65.761  29.552  26.669  1.00  0.00    -0.000 C 
BRANCH  14  15
ATOM     15  C   UNL     1      64.675  30.383  27.375  1.00  0.00    -0.000 C 
BRANCH  15  16
ATOM     16  C   UNL     1      64.368  29.960  28.826  1.00  0.00    -0.000 C 
BRANCH  16  17
ATOM     17  C   UNL     1      63.182  28.992  28.987  1.00  0.00    -0.000 C 
BRANCH  17  18
ATOM     18  C   UNL     1      61.856  29.585  28.490  1.00  0.00    -0.000 C 
BRANCH  18  19
ATOM     19  C   UNL     1      60.684  28.648  28.805  1.00  0.00    -0.003 C 
ATOM     20  C   UNL     1      61.105  27.185  28.699  1.00  0.00     0.004 C 
ENDBRANCH  18  19
ENDBRANCH  17  18
ENDBRANCH  16  17
ENDBRANCH  15  16
ENDBRANCH  14  15
ENDBRANCH  13  14
ENDBRANCH  12  13
ENDBRANCH   1  12
TORSDOF 16
ENDMDL
MODEL 3
REMARK VINA RESULT:    -4.830      9.770     13.799
REMARK INTER + INTRA:         -11.563
REMARK INTER:                  -9.095
REMARK INTRA:                  -2.468
REMARK UNBOUND:                -2.215
REMARK SMILES CCCCCCCCCCCCCCCCCC(=O)[O-]
REMARK SMILES IDX 10 1 11 2 12 3 13 4 14 5 15 6 16 7 17 8 18 9 19 10 20 11
REMARK SMILES IDX 9 12 8 13 7 14 6 15 5 16 4 17 3 18 2 19 1 20
REMARK H PARENT
REMARK Flexibility Score: inf
ROOT
ATOM      1  C   UNL     1      61.570  27.962  24.900  1.00  0.00     0.000 C 
ENDROOT
BRANCH   1   2
ATOM      2  C   UNL     1      62.494  27.060  25.738  1.00  0.00     0.000 C 
BRANCH   2   3
ATOM      3  C   UNL     1      63.217  25.997  24.897  1.00  0.00     0.000 C 
BRANCH   3   4
ATOM      4  C   UNL     1      64.737  26.109  25.058  1.00  0.00     0.000 C 
BRANCH   4   5
ATOM      5  C   UNL     1      65.459  25.736  23.754  1.00  0.00     0.000 C 
BRANCH   5   6
ATOM      6  C   UNL     1      64.893  26.469  22.525  1.00  0.00     0.000 C 
BRANCH   6   7
ATOM      7  C   UNL     1      65.952  27.046  21.562  1.00  0.00     0.006 C 
BRANCH   7   8
ATOM      8  C   UNL     1      66.523  26.030  20.559  1.00  0.00     0.053 C 
BRANCH   8   9
ATOM      9  C   UNL     1      66.063  26.304  19.160  1.00  0.00     0.041 C 
ATOM     10  O   UNL     1      65.075  25.684  18.687  1.00  0.00    -0.550 OA
ATOM     11  O   UNL     1      66.704  27.267  18.392  1.00  0.00    -0.550 OA
ENDBRANCH   8   9
ENDBRANCH   7   8
ENDBRANCH   6   7
ENDBRANCH   5   6
ENDBRANCH   4   5
ENDBRANCH   3   4
ENDBRANCH   2   3
ENDBRANCH   1   2
BRANCH   1  12
ATOM     12  C   UNL     1      62.115  29.376  24.628  1.00  0.00     0.000 C 
BRANCH  12  13
ATOM     13  C   UNL     1      63.360  29.375  23.728  1.00  0.00    -0.000 C 
BRANCH  13  14
ATOM     14  C   UNL     1      64.418  30.356  24.255  1.00  0.00    -0.000 C 
BRANCH  14  15
ATOM     15  C   UNL     1      65.590  29.650  24.959  1.00  0.00    -0.000 C 
BRANCH  15  16
ATOM     16  C   UNL     1      65.382  29.383  26.464  1.00  0.00    -0.000 C 
BRANCH  16  17
ATOM     17  C   UNL     1      64.497  30.410  27.194  1.00  0.00    -0.000 C 
BRANCH  17  18
ATOM     18  C   UNL     1      64.062  29.938  28.589  1.00  0.00    -0.000 C 
BRANCH  18  19
ATOM     19  C   UNL     1      62.636  30.403  28.904  1.00  0.00    -0.003 C 
ATOM     20  C   UNL     1      61.604  29.407  28.384  1.00  0.00     0.004 C 
ENDBRANCH  18  19
ENDBRANCH  17  18
ENDBRANCH  16  17
ENDBRANCH  15  16
ENDBRANCH  14  15
ENDBRANCH  13  14
ENDBRANCH  12  13
ENDBRANCH   1  12
TORSDOF 16
ENDMDL
MODEL 4
REMARK VINA RESULT:    -4.828      1.258      2.437
REMARK INTER + INTRA:         -11.558
REMARK INTER:                  -9.410
REMARK INTRA:                  -2.148
REMARK UNBOUND:                -2.215
REMARK SMILES CCCCCCCCCCCCCCCCCC(=O)[O-]
REMARK SMILES IDX 10 1 11 2 12 3 13 4 14 5 15 6 16 7 17 8 18 9 19 10 20 11
REMARK SMILES IDX 9 12 8 13 7 14 6 15 5 16 4 17 3 18 2 19 1 20
REMARK H PARENT
REMARK Flexibility Score: inf
ROOT
ATOM      1  C   UNL     1      59.362  29.230  10.951  1.00  0.00     0.000 C 
ENDROOT
BRANCH   1   2
ATOM      2  C   UNL     1      60.103  28.558  12.122  1.00  0.00     0.000 C 
BRANCH   2   3
ATOM      3  C   UNL     1      60.475  29.543  13.239  1.00  0.00     0.000 C 
BRANCH   3   4
ATOM      4  C   UNL     1      59.930  30.945  12.940  1.00  0.00     0.000 C 
BRANCH   4   5
ATOM      5  C   UNL     1      59.746  31.753  14.234  1.00  0.00     0.000 C 
BRANCH   5   6
ATOM      6  C   UNL     1      60.378  33.154  14.161  1.00  0.00     0.000 C 
BRANCH   6   7
ATOM      7  C   UNL     1      60.494  33.890  15.512  1.00  0.00     0.006 C 
BRANCH   7   8
ATOM      8  C   UNL     1      61.562  33.320  16.459  1.00  0.00     0.053 C 
BRANCH   8   9
ATOM      9  C   UNL     1      61.740  34.169  17.680  1.00  0.00     0.041 C 
ATOM     10  O   UNL     1      60.932  34.074  18.641  1.00  0.00    -0.550 OA
ATOM     11  O   UNL     1      62.817  35.040  17.771  1.00  0.00    -0.550 OA
ENDBRANCH   8   9
ENDBRANCH   7   8
ENDBRANCH   6   7
ENDBRANCH   5   6
ENDBRANCH   4   5
ENDBRANCH   3   4
ENDBRANCH   2   3
ENDBRANCH   1   2
BRANCH   1  12
ATOM     12  C   UNL     1      59.577  28.566   9.579  1.00  0.00     0.000 C 
BRANCH  12  13
ATOM     13  C   UNL     1      60.999  28.014   9.397  1.00  0.00    -0.000 C 
BRANCH  13  14
ATOM     14  C   UNL     1      61.964  29.121   8.946  1.00  0.00    -0.000 C 
BRANCH  14  15
ATOM     15  C   UNL     1      63.353  29.006   9.597  1.00  0.00    -0.000 C 
BRANCH  15  16
ATOM     16  C   UNL     1      63.459  29.590  11.021  1.00  0.00    -0.000 C 
BRANCH  16  17
ATOM     17  C   UNL     1      64.069  31.001  11.104  1.00  0.00    -0.000 C 
BRANCH  17  18
ATOM     18  C   UNL     1      63.273  31.943  12.019  1.00  0.00    -0.000 C 
BRANCH  18  19
ATOM     19  C   UNL     1      63.879  31.980  13.426  1.00  0.00    -0.003 C 
ATOM     20  C   UNL     1      64.108  33.416  13.889  1.00  0.00     0.004 C 
ENDBRANCH  18  19
ENDBRANCH  17  18
ENDBRANCH  16  17
ENDBRANCH  15  16
ENDBRANCH  14  15
ENDBRANCH  13  14
ENDBRANCH  12  13
ENDBRANCH   1  12
TORSDOF 16
ENDMDL
MODEL 5
REMARK VINA RESULT:    -4.820     10.164     13.961
REMARK INTER + INTRA:         -11.543
REMARK INTER:                  -9.298
REMARK INTRA:                  -2.245
REMARK UNBOUND:                -2.215
REMARK SMILES CCCCCCCCCCCCCCCCCC(=O)[O-]
REMARK SMILES IDX 10 1 11 2 12 3 13 4 14 5 15 6 16 7 17 8 18 9 19 10 20 11
REMARK SMILES IDX 9 12 8 13 7 14 6 15 5 16 4 17 3 18 2 19 1 20
REMARK H PARENT
REMARK Flexibility Score: inf
ROOT
ATOM      1  C   UNL     1      61.506  28.388  25.114  1.00  0.00     0.000 C 
ENDROOT
BRANCH   1   2
ATOM      2  C   UNL     1      62.441  27.879  24.001  1.00  0.00     0.000 C 
BRANCH   2   3
ATOM      3  C   UNL     1      62.881  26.423  24.208  1.00  0.00     0.000 C 
BRANCH   3   4
ATOM      4  C   UNL     1      63.990  26.329  25.263  1.00  0.00     0.000 C 
BRANCH   4   5
ATOM      5  C   UNL     1      65.378  26.456  24.617  1.00  0.00     0.000 C 
BRANCH   5   6
ATOM      6  C   UNL     1      65.506  25.657  23.308  1.00  0.00     0.000 C 
BRANCH   6   7
ATOM      7  C   UNL     1      65.974  26.474  22.086  1.00  0.00     0.006 C 
BRANCH   7   8
ATOM      8  C   UNL     1      66.437  25.626  20.890  1.00  0.00     0.053 C 
BRANCH   8   9
ATOM      9  C   UNL     1      66.175  26.309  19.583  1.00  0.00     0.041 C 
ATOM     10  O   UNL     1      66.744  27.399  19.313  1.00  0.00    -0.550 OA
ATOM     11  O   UNL     1      65.329  25.724  18.649  1.00  0.00    -0.550 OA
ENDBRANCH   8   9
ENDBRANCH   7   8
ENDBRANCH   6   7
ENDBRANCH   5   6
ENDBRANCH   4   5
ENDBRANCH   3   4
ENDBRANCH   2   3
ENDBRANCH   1   2
BRANCH   1  12
ATOM     12  C   UNL     1      60.419  27.392  25.555  1.00  0.00     0.000 C 
BRANCH  12  13
ATOM     13  C   UNL     1      60.473  27.070  27.056  1.00  0.00    -0.000 C 
BRANCH  13  14
ATOM     14  C   UNL     1      61.698  27.722  27.713  1.00  0.00    -0.000 C 
BRANCH  14  15
ATOM     15  C   UNL     1      61.328  28.903  28.628  1.00  0.00    -0.000 C 
BRANCH  15  16
ATOM     16  C   UNL     1      62.339  30.068  28.633  1.00  0.00    -0.000 C 
BRANCH  16  17
ATOM     17  C   UNL     1      63.743  29.716  28.108  1.00  0.00    -0.000 C 
BRANCH  17  18
ATOM     18  C   UNL     1      64.079  30.420  26.785  1.00  0.00    -0.000 C 
BRANCH  18  19
ATOM     19  C   UNL     1      65.355  29.840  26.166  1.00  0.00    -0.003 C 
ATOM     20  C   UNL     1      65.382  30.057  24.655  1.00  0.00     0.004 C 
ENDBRANCH  18  19
ENDBRANCH  17  18
ENDBRANCH  16  17
ENDBRANCH  15  16
ENDBRANCH  14  15
ENDBRANCH  13  14
ENDBRANCH  12  13
ENDBRANCH   1  12
TORSDOF 16
ENDMDL
MODEL 6
REMARK VINA RESULT:    -4.801      1.245      3.579
REMARK INTER + INTRA:         -11.506
REMARK INTER:                  -9.127
REMARK INTRA:                  -2.379
REMARK UNBOUND:                -2.215
REMARK SMILES CCCCCCCCCCCCCCCCCC(=O)[O-]
REMARK SMILES IDX 10 1 11 2 12 3 13 4 14 5 15 6 16 7 17 8 18 9 19 10 20 11
REMARK SMILES IDX 9 12 8 13 7 14 6 15 5 16 4 17 3 18 2 19 1 20
REMARK H PARENT
REMARK Flexibility Score: inf
ROOT
ATOM      1  C   UNL     1      63.478  29.614  10.779  1.00  0.00     0.000 C 
ENDROOT
BRANCH   1   2
ATOM      2  C   UNL     1      63.294  30.947  11.528  1.00  0.00     0.000 C 
BRANCH   2   3
ATOM      3  C   UNL     1      64.369  31.986  11.174  1.00  0.00     0.000 C 
BRANCH   3   4
ATOM      4  C   UNL     1      64.518  33.025  12.292  1.00  0.00     0.000 C 
BRANCH   4   5
ATOM      5  C   UNL     1      64.085  32.443  13.646  1.00  0.00     0.000 C 
BRANCH   5   6
ATOM      6  C   UNL     1      63.335  33.460  14.524  1.00  0.00     0.000 C 
BRANCH   6   7
ATOM      7  C   UNL     1      62.640  32.865  15.766  1.00  0.00     0.006 C 
BRANCH   7   8
ATOM      8  C   UNL     1      61.474  33.707  16.310  1.00  0.00     0.053 C 
BRANCH   8   9
ATOM      9  C   UNL     1      61.772  34.270  17.665  1.00  0.00     0.041 C 
ATOM     10  O   UNL     1      62.765  35.025  17.833  1.00  0.00    -0.550 OA
ATOM     11  O   UNL     1      60.934  33.988  18.736  1.00  0.00    -0.550 OA
ENDBRANCH   8   9
ENDBRANCH   7   8
ENDBRANCH   6   7
ENDBRANCH   5   6
ENDBRANCH   4   5
ENDBRANCH   3   4
ENDBRANCH   2   3
ENDBRANCH   1   2
BRANCH   1  12
ATOM     12  C   UNL     1      62.889  29.581   9.357  1.00  0.00     0.000 C 
BRANCH  12  13
ATOM     13  C   UNL     1      61.383  29.279   9.339  1.00  0.00    -0.000 C 
BRANCH  13  14
ATOM     14  C   UNL     1      61.000  28.327  10.482  1.00  0.00    -0.000 C 
BRANCH  14  15
ATOM     15  C   UNL     1      59.591  28.595  11.037  1.00  0.00    -0.000 C 
BRANCH  15  16
ATOM     16  C   UNL     1      59.488  28.617  12.576  1.00  0.00    -0.000 C 
BRANCH  16  17
ATOM     17  C   UNL     1      60.829  28.756  13.319  1.00  0.00    -0.000 C 
BRANCH  17  18
ATOM     18  C   UNL     1      61.008  30.133  13.975  1.00  0.00    -0.000 C 
BRANCH  18  19
ATOM     19  C   UNL     1      59.824  31.051  13.652  1.00  0.00    -0.003 C 
ATOM     20  C   UNL     1      60.281  32.295  12.897  1.00  0.00     0.004 C 
ENDBRANCH  18  19
ENDBRANCH  17  18
ENDBRANCH  16  17
ENDBRANCH  15  16
ENDBRANCH  14  15
ENDBRANCH  13  14
ENDBRANCH  12  13
ENDBRANCH   1  12
TORSDOF 16
ENDMDL
MODEL 7
REMARK VINA RESULT:    -4.796     11.552     13.773
REMARK INTER + INTRA:         -11.496
REMARK INTER:                  -8.682
REMARK INTRA:                  -2.815
REMARK UNBOUND:                -2.215
REMARK SMILES CCCCCCCCCCCCCCCCCC(=O)[O-]
REMARK SMILES IDX 10 1 11 2 12 3 13 4 14 5 15 6 16 7 17 8 18 9 19 10 20 11
REMARK SMILES IDX 9 12 8 13 7 14 6 15 5 16 4 17 3 18 2 19 1 20
REMARK H PARENT
REMARK Flexibility Score: inf
ROOT
ATOM      1  C   UNL     1      62.027  29.577  25.213  1.00  0.00     0.000 C 
ENDROOT
BRANCH   1   2
ATOM      2  C   UNL     1      61.781  28.111  24.807  1.00  0.00     0.000 C 
BRANCH   2   3
ATOM      3  C   UNL     1      60.981  27.326  25.857  1.00  0.00     0.000 C 
BRANCH   3   4
ATOM      4  C   UNL     1      61.826  27.065  27.109  1.00  0.00     0.000 C 
BRANCH   4   5
ATOM      5  C   UNL     1      61.110  27.568  28.372  1.00  0.00     0.000 C 
BRANCH   5   6
ATOM      6  C   UNL     1      61.368  29.059  28.654  1.00  0.00     0.000 C 
BRANCH   6   7
ATOM      7  C   UNL     1      62.798  29.397  29.125  1.00  0.00     0.006 C 
BRANCH   7   8
ATOM      8  C   UNL     1      63.237  30.843  28.844  1.00  0.00     0.053 C 
BRANCH   8   9
ATOM      9  C   UNL     1      64.717  31.018  28.989  1.00  0.00     0.041 C 
ATOM     10  O   UNL     1      65.467  30.012  29.095  1.00  0.00    -0.550 OA
ATOM     11  O   UNL     1      65.273  32.291  28.972  1.00  0.00    -0.550 OA
ENDBRANCH   8   9
ENDBRANCH   7   8
ENDBRANCH   6   7
ENDBRANCH   5   6
ENDBRANCH   4   5
ENDBRANCH   3   4
ENDBRANCH   2   3
ENDBRANCH   1   2
BRANCH   1  12
ATOM     12  C   UNL     1      63.495  30.032  25.143  1.00  0.00     0.000 C 
BRANCH  12  13
ATOM     13  C   UNL     1      64.453  29.084  25.878  1.00  0.00    -0.000 C 
BRANCH  13  14
ATOM     14  C   UNL     1      65.909  29.346  25.466  1.00  0.00    -0.000 C 
BRANCH  14  15
ATOM     15  C   UNL     1      66.028  30.044  24.100  1.00  0.00    -0.000 C 
BRANCH  15  16
ATOM     16  C   UNL     1      66.521  29.146  22.947  1.00  0.00    -0.000 C 
BRANCH  16  17
ATOM     17  C   UNL     1      66.184  27.651  23.094  1.00  0.00    -0.000 C 
BRANCH  17  18
ATOM     18  C   UNL     1      64.765  27.310  22.614  1.00  0.00    -0.000 C 
BRANCH  18  19
ATOM     19  C   UNL     1      64.281  25.992  23.228  1.00  0.00    -0.003 C 
ATOM     20  C   UNL     1      64.775  25.838  24.664  1.00  0.00     0.004 C 
ENDBRANCH  18  19
ENDBRANCH  17  18
ENDBRANCH  16  17
ENDBRANCH  15  16
ENDBRANCH  14  15
ENDBRANCH  13  14
ENDBRANCH  12  13
ENDBRANCH   1  12
TORSDOF 16
ENDMDL
MODEL 8
REMARK VINA RESULT:    -4.765      0.981      3.323
REMARK INTER + INTRA:         -11.437
REMARK INTER:                  -9.271
REMARK INTRA:                  -2.167
REMARK UNBOUND:                -2.215
REMARK SMILES CCCCCCCCCCCCCCCCCC(=O)[O-]
REMARK SMILES IDX 10 1 11 2 12 3 13 4 14 5 15 6 16 7 17 8 18 9 19 10 20 11
REMARK SMILES IDX 9 12 8 13 7 14 6 15 5 16 4 17 3 18 2 19 1 20
REMARK H PARENT
REMARK Flexibility Score: inf
ROOT
ATOM      1  C   UNL     1      63.388  31.016  10.804  1.00  0.00     0.000 C 
ENDROOT
BRANCH   1   2
ATOM      2  C   UNL     1      64.154  32.028  11.676  1.00  0.00     0.000 C 
BRANCH   2   3
ATOM      3  C   UNL     1      63.287  32.635  12.789  1.00  0.00     0.000 C 
BRANCH   3   4
ATOM      4  C   UNL     1      61.880  32.025  12.784  1.00  0.00     0.000 C 
BRANCH   4   5
ATOM      5  C   UNL     1      60.904  32.883  13.603  1.00  0.00     0.000 C 
BRANCH   5   6
ATOM      6  C   UNL     1      60.261  32.113  14.770  1.00  0.00     0.000 C 
BRANCH   6   7
ATOM      7  C   UNL     1      60.687  32.582  16.177  1.00  0.00     0.006 C 
BRANCH   7   8
ATOM      8  C   UNL     1      61.599  33.820  16.188  1.00  0.00     0.053 C 
BRANCH   8   9
ATOM      9  C   UNL     1      61.925  34.265  17.580  1.00  0.00     0.041 C 
ATOM     10  O   UNL     1      61.199  33.908  18.545  1.00  0.00    -0.550 OA
ATOM     11  O   UNL     1      63.049  35.045  17.817  1.00  0.00    -0.550 OA
ENDBRANCH   8   9
ENDBRANCH   7   8
ENDBRANCH   6   7
ENDBRANCH   5   6
ENDBRANCH   4   5
ENDBRANCH   3   4
ENDBRANCH   2   3
ENDBRANCH   1   2
BRANCH   1  12
ATOM     12  C   UNL     1      64.261  30.216   9.820  1.00  0.00     0.000 C 
BRANCH  12  13
ATOM     13  C   UNL     1      63.547  28.980   9.253  1.00  0.00    -0.000 C 
BRANCH  13  14
ATOM     14  C   UNL     1      62.092  29.307   8.886  1.00  0.00    -0.000 C 
BRANCH  14  15
ATOM     15  C   UNL     1      61.149  28.102   9.049  1.00  0.00    -0.000 C 
BRANCH  15  16
ATOM     16  C   UNL     1      59.846  28.392   9.823  1.00  0.00    -0.000 C 
BRANCH  16  17
ATOM     17  C   UNL     1      59.881  29.648  10.712  1.00  0.00    -0.000 C 
BRANCH  17  18
ATOM     18  C   UNL     1      59.641  29.336  12.196  1.00  0.00    -0.000 C 
BRANCH  18  19
ATOM     19  C   UNL     1      60.432  28.096  12.629  1.00  0.00    -0.003 C 
ATOM     20  C   UNL     1      61.860  28.462  13.021  1.00  0.00     0.004 C 
ENDBRANCH  18  19
ENDBRANCH  17  18
ENDBRANCH  16  17
ENDBRANCH  15  16
ENDBRANCH  14  15
ENDBRANCH  13  14
ENDBRANCH  12  13
ENDBRANCH   1  12
TORSDOF 16
ENDMDL
MODEL 9
REMARK VINA RESULT:    -4.702     10.081     12.816
REMARK INTER + INTRA:         -11.315
REMARK INTER:                  -9.044
REMARK INTRA:                  -2.271
REMARK UNBOUND:                -2.215
REMARK SMILES CCCCCCCCCCCCCCCCCC(=O)[O-]
REMARK SMILES IDX 10 1 11 2 12 3 13 4 14 5 15 6 16 7 17 8 18 9 19 10 20 11
REMARK SMILES IDX 9 12 8 13 7 14 6 15 5 16 4 17 3 18 2 19 1 20
REMARK H PARENT
REMARK Flexibility Score: inf
ROOT
ATOM      1  C   UNL     1      61.523  28.749  25.045  1.00  0.00     0.000 C 
ENDROOT
BRANCH   1   2
ATOM      2  C   UNL     1      62.555  29.892  25.082  1.00  0.00     0.000 C 
BRANCH   2   3
ATOM      3  C   UNL     1      63.718  29.679  24.101  1.00  0.00     0.000 C 
BRANCH   3   4
ATOM      4  C   UNL     1      65.043  30.156  24.708  1.00  0.00     0.000 C 
BRANCH   4   5
ATOM      5  C   UNL     1      65.471  29.254  25.875  1.00  0.00     0.000 C 
BRANCH   5   6
ATOM      6  C   UNL     1      66.002  30.047  27.082  1.00  0.00     0.000 C 
BRANCH   6   7
ATOM      7  C   UNL     1      65.005  30.208  28.249  1.00  0.00     0.006 C 
BRANCH   7   8
ATOM      8  C   UNL     1      63.762  29.308  28.155  1.00  0.00     0.053 C 
BRANCH   8   9
ATOM      9  C   UNL     1      62.548  29.967  28.732  1.00  0.00     0.041 C 
ATOM     10  O   UNL     1      62.602  31.163  29.124  1.00  0.00    -0.550 OA
ATOM     11  O   UNL     1      61.347  29.272  28.807  1.00  0.00    -0.550 OA
ENDBRANCH   8   9
ENDBRANCH   7   8
ENDBRANCH   6   7
ENDBRANCH   5   6
ENDBRANCH   4   5
ENDBRANCH   3   4
ENDBRANCH   2   3
ENDBRANCH   1   2
BRANCH   1  12
ATOM     12  C   UNL     1      62.083  27.381  24.616  1.00  0.00     0.000 C 
BRANCH  12  13
ATOM     13  C   UNL     1      62.744  26.615  25.771  1.00  0.00    -0.000 C 
BRANCH  13  14
ATOM     14  C   UNL     1      64.148  26.134  25.378  1.00  0.00    -0.000 C 
BRANCH  14  15
ATOM     15  C   UNL     1      64.232  25.662  23.916  1.00  0.00    -0.000 C 
BRANCH  15  16
ATOM     16  C   UNL     1      65.635  25.746  23.281  1.00  0.00    -0.000 C 
BRANCH  16  17
ATOM     17  C   UNL     1      66.065  27.153  22.829  1.00  0.00    -0.000 C 
BRANCH  17  18
ATOM     18  C   UNL     1      66.503  27.199  21.357  1.00  0.00    -0.000 C 
BRANCH  18  19
ATOM     19  C   UNL     1      65.862  26.057  20.560  1.00  0.00    -0.003 C 
ATOM     20  C   UNL     1      65.956  26.314  19.058  1.00  0.00     0.004 C 
ENDBRANCH  18  19
ENDBRANCH  17  18
ENDBRANCH  16  17
ENDBRANCH  15  16
ENDBRANCH  14  15
ENDBRANCH  13  14
ENDBRANCH  12  13
ENDBRANCH   1  12
TORSDOF 16
ENDMDL
