MODEL 1
REMARK VINA RESULT:    -7.159      0.000      0.000
REMARK INTER + INTRA:         -11.073
REMARK INTER:                  -9.461
REMARK INTRA:                  -1.613
REMARK UNBOUND:                -1.613
REMARK SMILES CC[C@H](C=C[C@H](C)[C@H]1CC[C@@H]2C3=CC[C@H]4C[C@H](O)CC[C@]4(C)[C@@H]3CC[C@]21C)C(C)C
REMARK SMILES IDX 6 1 7 2 5 3 4 4 3 5 2 6 1 7 28 8 29 9 30 10 8 11 9 12 26 13
REMARK SMILES IDX 10 14 11 15 25 16 27 17 12 18 24 19 23 20 13 21 21 22 14 23
REMARK SMILES IDX 15 24 20 25 22 26 16 27 19 28 17 29 18 30
REMARK H PARENT 18 31
REMARK Flexibility Score: inf
ROOT
ATOM      1  C   UNL     1     180.210 180.577 181.513  1.00  0.00     0.012 C 
ATOM      2  C   UNL     1     180.443 181.754 180.545  1.00  0.00     0.012 C 
ENDROOT
BRANCH   1   3
ATOM      3  C   UNL     1     181.429 179.674 181.552  1.00  0.00    -0.028 C 
ATOM      4  C   UNL     1     181.364 178.347 181.767  1.00  0.00    -0.027 C 
BRANCH   4   5
ATOM      5  C   UNL     1     182.585 177.448 181.820  1.00  0.00     0.014 C 
BRANCH   5   6
ATOM      6  C   UNL     1     183.893 178.279 181.876  1.00  0.00     0.004 C 
ATOM      7  C   UNL     1     184.392 178.518 183.302  1.00  0.00     0.004 C 
ENDBRANCH   5   6
BRANCH   5   8
ATOM      8  C   UNL     1     182.471 176.332 182.907  1.00  0.00    -0.011 C 
ATOM      9  C   UNL     1     181.283 176.499 183.868  1.00  0.00     0.008 C 
ATOM     10  C   UNL     1     182.430 174.935 182.266  1.00  0.00     0.008 C 
ENDBRANCH   5   8
ENDBRANCH   4   5
ENDBRANCH   1   3
BRANCH   1  11
ATOM     11  C   UNL     1     179.714 180.944 182.958  1.00  0.00     0.002 C 
ATOM     12  C   UNL     1     178.983 179.797 183.721  1.00  0.00     0.005 C 
ATOM     13  C   UNL     1     180.784 181.482 183.972  1.00  0.00    -0.023 C 
ATOM     14  C   UNL     1     179.662 179.647 185.087  1.00  0.00     0.009 C 
ATOM     15  C   UNL     1     181.034 180.263 184.864  1.00  0.00     0.021 C 
ATOM     16  C   UNL     1     182.159 181.957 183.414  1.00  0.00     0.008 C 
ATOM     17  C   UNL     1     180.137 182.665 184.766  1.00  0.00     0.012 C 
ATOM     18  C   UNL     1     181.944 180.630 186.015  1.00  0.00    -0.067 C 
ATOM     19  C   UNL     1     183.183 182.260 184.545  1.00  0.00     0.009 C 
ATOM     20  C   UNL     1     183.336 181.088 185.566  1.00  0.00     0.021 C 
ATOM     21  C   UNL     1     181.488 180.789 187.278  1.00  0.00    -0.027 C 
ATOM     22  C   UNL     1     184.314 181.352 186.776  1.00  0.00    -0.023 C 
ATOM     23  C   UNL     1     182.337 181.315 188.402  1.00  0.00     0.031 C 
ATOM     24  C   UNL     1     183.540 182.126 187.891  1.00  0.00     0.002 C 
ATOM     25  C   UNL     1     185.554 182.198 186.349  1.00  0.00     0.010 C 
ATOM     26  C   UNL     1     184.812 179.963 187.280  1.00  0.00     0.012 C 
ATOM     27  C   UNL     1     184.443 182.550 189.073  1.00  0.00     0.036 C 
ATOM     28  C   UNL     1     186.453 182.584 187.533  1.00  0.00     0.032 C 
ATOM     29  C   UNL     1     185.667 183.351 188.609  1.00  0.00     0.114 C 
BRANCH  29  30
ATOM     30  O   UNL     1     185.251 184.600 188.117  1.00  0.00    -0.393 OA
ATOM     31  H   UNL     1     185.904 184.863 187.416  1.00  0.00     0.210 HD
ENDBRANCH  29  30
ENDBRANCH   1  11
TORSDOF 6
ENDMDL
MODEL 2
REMARK VINA RESULT:    -7.146      2.947      5.901
REMARK INTER + INTRA:         -11.056
REMARK INTER:                  -9.559
REMARK INTRA:                  -1.497
REMARK UNBOUND:                -1.613
REMARK SMILES CC[C@H](C=C[C@H](C)[C@H]1CC[C@@H]2C3=CC[C@H]4C[C@H](O)CC[C@]4(C)[C@@H]3CC[C@]21C)C(C)C
REMARK SMILES IDX 6 1 7 2 5 3 4 4 3 5 2 6 1 7 28 8 29 9 30 10 8 11 9 12 26 13
REMARK SMILES IDX 10 14 11 15 25 16 27 17 12 18 24 19 23 20 13 21 21 22 14 23
REMARK SMILES IDX 15 24 20 25 22 26 16 27 19 28 17 29 18 30
REMARK H PARENT 18 31
REMARK Flexibility Score: inf
ROOT
ATOM      1  C   UNL     1     181.044 178.364 184.854  1.00  0.00     0.012 C 
ATOM      2  C   UNL     1     181.165 177.240 183.806  1.00  0.00     0.012 C 
ENDROOT
BRANCH   1   3
ATOM      3  C   UNL     1     182.397 179.003 185.105  1.00  0.00    -0.028 C 
ATOM      4  C   UNL     1     182.734 179.598 186.264  1.00  0.00    -0.027 C 
BRANCH   4   5
ATOM      5  C   UNL     1     184.083 180.249 186.507  1.00  0.00     0.014 C 
BRANCH   5   6
ATOM      6  C   UNL     1     184.332 181.416 185.517  1.00  0.00     0.004 C 
ATOM      7  C   UNL     1     183.852 182.768 186.047  1.00  0.00     0.004 C 
ENDBRANCH   5   6
BRANCH   5   8
ATOM      8  C   UNL     1     184.324 180.604 188.010  1.00  0.00    -0.011 C 
ATOM      9  C   UNL     1     183.211 180.134 188.961  1.00  0.00     0.008 C 
ATOM     10  C   UNL     1     185.683 180.071 188.494  1.00  0.00     0.008 C 
ENDBRANCH   5   8
ENDBRANCH   4   5
ENDBRANCH   1   3
BRANCH   1  11
ATOM     11  C   UNL     1     179.931 179.443 184.601  1.00  0.00     0.002 C 
ATOM     12  C   UNL     1     179.414 180.178 185.876  1.00  0.00     0.005 C 
ATOM     13  C   UNL     1     180.260 180.592 183.583  1.00  0.00    -0.023 C 
ATOM     14  C   UNL     1     179.515 181.685 185.613  1.00  0.00     0.009 C 
ATOM     15  C   UNL     1     180.554 181.777 184.507  1.00  0.00     0.021 C 
ATOM     16  C   UNL     1     181.481 180.411 182.632  1.00  0.00     0.008 C 
ATOM     17  C   UNL     1     178.985 180.834 182.708  1.00  0.00     0.012 C 
ATOM     18  C   UNL     1     180.753 183.039 183.698  1.00  0.00    -0.067 C 
ATOM     19  C   UNL     1     181.807 181.706 181.836  1.00  0.00     0.009 C 
ATOM     20  C   UNL     1     181.953 182.967 182.746  1.00  0.00     0.021 C 
ATOM     21  C   UNL     1     179.818 184.014 183.632  1.00  0.00    -0.027 C 
ATOM     22  C   UNL     1     182.222 184.330 181.997  1.00  0.00    -0.023 C 
ATOM     23  C   UNL     1     179.920 185.194 182.706  1.00  0.00     0.031 C 
ATOM     24  C   UNL     1     180.858 184.922 181.519  1.00  0.00     0.002 C 
ATOM     25  C   UNL     1     183.148 184.138 180.755  1.00  0.00     0.010 C 
ATOM     26  C   UNL     1     182.939 185.278 183.007  1.00  0.00     0.012 C 
ATOM     27  C   UNL     1     181.019 186.197 180.658  1.00  0.00     0.036 C 
ATOM     28  C   UNL     1     183.319 185.423 179.931  1.00  0.00     0.032 C 
ATOM     29  C   UNL     1     181.961 185.977 179.466  1.00  0.00     0.114 C 
BRANCH  29  30
ATOM     30  O   UNL     1     181.360 185.098 178.549  1.00  0.00    -0.393 OA
ATOM     31  H   UNL     1     180.880 184.411 179.083  1.00  0.00     0.210 HD
ENDBRANCH  29  30
ENDBRANCH   1  11
TORSDOF 6
ENDMDL
MODEL 3
REMARK VINA RESULT:    -7.106      3.915      7.164
REMARK INTER + INTRA:         -11.004
REMARK INTER:                  -9.476
REMARK INTRA:                  -1.528
REMARK UNBOUND:                -1.613
REMARK SMILES CC[C@H](C=C[C@H](C)[C@H]1CC[C@@H]2C3=CC[C@H]4C[C@H](O)CC[C@]4(C)[C@@H]3CC[C@]21C)C(C)C
REMARK SMILES IDX 6 1 7 2 5 3 4 4 3 5 2 6 1 7 28 8 29 9 30 10 8 11 9 12 26 13
REMARK SMILES IDX 10 14 11 15 25 16 27 17 12 18 24 19 23 20 13 21 21 22 14 23
REMARK SMILES IDX 15 24 20 25 22 26 16 27 19 28 17 29 18 30
REMARK H PARENT 18 31
REMARK Flexibility Score: inf
ROOT
ATOM      1  C   UNL     1     184.222 174.135 179.452  1.00  0.00     0.012 C 
ATOM      2  C   UNL     1     185.509 173.321 179.696  1.00  0.00     0.012 C 
ENDROOT
BRANCH   1   3
ATOM      3  C   UNL     1     183.696 173.886 178.051  1.00  0.00    -0.028 C 
ATOM      4  C   UNL     1     182.458 173.425 177.794  1.00  0.00    -0.027 C 
BRANCH   4   5
ATOM      5  C   UNL     1     181.938 173.162 176.392  1.00  0.00     0.014 C 
BRANCH   5   6
ATOM      6  C   UNL     1     181.667 171.652 176.166  1.00  0.00     0.004 C 
ATOM      7  C   UNL     1     181.466 170.876 177.468  1.00  0.00     0.004 C 
ENDBRANCH   5   6
BRANCH   5   8
ATOM      8  C   UNL     1     180.758 174.106 175.996  1.00  0.00    -0.011 C 
ATOM      9  C   UNL     1     180.122 174.859 177.175  1.00  0.00     0.008 C 
ATOM     10  C   UNL     1     181.188 175.106 174.910  1.00  0.00     0.008 C 
ENDBRANCH   5   8
ENDBRANCH   4   5
ENDBRANCH   1   3
BRANCH   1  11
ATOM     11  C   UNL     1     183.089 173.998 180.531  1.00  0.00     0.002 C 
ATOM     12  C   UNL     1     183.519 173.316 181.865  1.00  0.00     0.005 C 
ATOM     13  C   UNL     1     182.352 175.312 180.971  1.00  0.00    -0.023 C 
ATOM     14  C   UNL     1     183.103 174.245 183.012  1.00  0.00     0.009 C 
ATOM     15  C   UNL     1     182.982 175.601 182.336  1.00  0.00     0.021 C 
ATOM     16  C   UNL     1     182.517 176.585 180.088  1.00  0.00     0.008 C 
ATOM     17  C   UNL     1     180.826 174.987 181.088  1.00  0.00     0.012 C 
ATOM     18  C   UNL     1     182.288 176.769 183.001  1.00  0.00    -0.067 C 
ATOM     19  C   UNL     1     181.910 177.851 180.756  1.00  0.00     0.009 C 
ATOM     20  C   UNL     1     182.417 178.079 182.216  1.00  0.00     0.021 C 
ATOM     21  C   UNL     1     181.427 176.609 184.032  1.00  0.00    -0.027 C 
ATOM     22  C   UNL     1     181.792 179.312 182.977  1.00  0.00    -0.023 C 
ATOM     23  C   UNL     1     180.599 177.730 184.597  1.00  0.00     0.031 C 
ATOM     24  C   UNL     1     180.423 178.884 183.596  1.00  0.00     0.002 C 
ATOM     25  C   UNL     1     181.553 180.525 182.023  1.00  0.00     0.010 C 
ATOM     26  C   UNL     1     182.812 179.741 184.076  1.00  0.00     0.012 C 
ATOM     27  C   UNL     1     179.663 180.057 184.258  1.00  0.00     0.036 C 
ATOM     28  C   UNL     1     180.823 181.691 182.708  1.00  0.00     0.032 C 
ATOM     29  C   UNL     1     179.476 181.241 183.299  1.00  0.00     0.114 C 
BRANCH  29  30
ATOM     30  O   UNL     1     178.587 180.879 182.274  1.00  0.00    -0.393 OA
ATOM     31  H   UNL     1     177.928 180.253 182.674  1.00  0.00     0.210 HD
ENDBRANCH  29  30
ENDBRANCH   1  11
TORSDOF 6
ENDMDL
MODEL 4
REMARK VINA RESULT:    -6.964      3.656      7.634
REMARK INTER + INTRA:         -10.816
REMARK INTER:                  -9.560
REMARK INTRA:                  -1.255
REMARK UNBOUND:                -1.613
REMARK SMILES CC[C@H](C=C[C@H](C)[C@H]1CC[C@@H]2C3=CC[C@H]4C[C@H](O)CC[C@]4(C)[C@@H]3CC[C@]21C)C(C)C
REMARK SMILES IDX 6 1 7 2 5 3 4 4 3 5 2 6 1 7 28 8 29 9 30 10 8 11 9 12 26 13
REMARK SMILES IDX 10 14 11 15 25 16 27 17 12 18 24 19 23 20 13 21 21 22 14 23
REMARK SMILES IDX 15 24 20 25 22 26 16 27 19 28 17 29 18 30
REMARK H PARENT 18 31
REMARK Flexibility Score: inf
ROOT
ATOM      1  C   UNL     1     182.584 171.883 179.969  1.00  0.00     0.012 C 
ATOM      2  C   UNL     1     181.249 171.635 180.698  1.00  0.00     0.012 C 
ENDROOT
BRANCH   1   3
ATOM      3  C   UNL     1     182.339 172.551 178.629  1.00  0.00    -0.028 C 
ATOM      4  C   UNL     1     181.193 173.181 178.310  1.00  0.00    -0.027 C 
BRANCH   4   5
ATOM      5  C   UNL     1     180.946 173.835 176.964  1.00  0.00     0.014 C 
BRANCH   5   6
ATOM      6  C   UNL     1     179.909 173.036 176.132  1.00  0.00     0.004 C 
ATOM      7  C   UNL     1     179.107 172.038 176.969  1.00  0.00     0.004 C 
ENDBRANCH   5   6
BRANCH   5   8
ATOM      8  C   UNL     1     180.654 175.366 177.077  1.00  0.00    -0.011 C 
ATOM      9  C   UNL     1     179.253 175.784 176.602  1.00  0.00     0.008 C 
ATOM     10  C   UNL     1     180.891 175.871 178.510  1.00  0.00     0.008 C 
ENDBRANCH   5   8
ENDBRANCH   4   5
ENDBRANCH   1   3
BRANCH   1  11
ATOM     11  C   UNL     1     183.705 172.619 180.787  1.00  0.00     0.002 C 
ATOM     12  C   UNL     1     184.918 173.124 179.948  1.00  0.00     0.005 C 
ATOM     13  C   UNL     1     183.272 173.856 181.651  1.00  0.00    -0.023 C 
ATOM     14  C   UNL     1     185.117 174.609 180.273  1.00  0.00     0.009 C 
ATOM     15  C   UNL     1     183.757 175.035 180.804  1.00  0.00     0.021 C 
ATOM     16  C   UNL     1     181.755 174.063 181.937  1.00  0.00     0.008 C 
ATOM     17  C   UNL     1     184.026 173.769 183.020  1.00  0.00     0.012 C 
ATOM     18  C   UNL     1     183.559 176.336 181.549  1.00  0.00    -0.067 C 
ATOM     19  C   UNL     1     181.463 175.431 182.618  1.00  0.00     0.009 C 
ATOM     20  C   UNL     1     182.089 176.642 181.856  1.00  0.00     0.021 C 
ATOM     21  C   UNL     1     184.586 177.013 182.112  1.00  0.00    -0.027 C 
ATOM     22  C   UNL     1     181.886 178.057 182.525  1.00  0.00    -0.023 C 
ATOM     23  C   UNL     1     184.396 178.213 182.998  1.00  0.00     0.031 C 
ATOM     24  C   UNL     1     182.988 178.264 183.613  1.00  0.00     0.002 C 
ATOM     25  C   UNL     1     180.484 178.184 183.202  1.00  0.00     0.010 C 
ATOM     26  C   UNL     1     181.987 179.123 181.392  1.00  0.00     0.012 C 
ATOM     27  C   UNL     1     182.803 179.569 184.423  1.00  0.00     0.036 C 
ATOM     28  C   UNL     1     180.311 179.500 183.976  1.00  0.00     0.032 C 
ATOM     29  C   UNL     1     181.403 179.672 185.045  1.00  0.00     0.114 C 
BRANCH  29  30
ATOM     30  O   UNL     1     181.264 178.701 186.050  1.00  0.00    -0.393 OA
ATOM     31  H   UNL     1     180.611 178.032 185.714  1.00  0.00     0.210 HD
ENDBRANCH  29  30
ENDBRANCH   1  11
TORSDOF 6
ENDMDL
MODEL 5
REMARK VINA RESULT:    -6.857      4.126      7.265
REMARK INTER + INTRA:         -10.674
REMARK INTER:                  -9.545
REMARK INTRA:                  -1.128
REMARK UNBOUND:                -1.613
REMARK SMILES CC[C@H](C=C[C@H](C)[C@H]1CC[C@@H]2C3=CC[C@H]4C[C@H](O)CC[C@]4(C)[C@@H]3CC[C@]21C)C(C)C
REMARK SMILES IDX 6 1 7 2 5 3 4 4 3 5 2 6 1 7 28 8 29 9 30 10 8 11 9 12 26 13
REMARK SMILES IDX 10 14 11 15 25 16 27 17 12 18 24 19 23 20 13 21 21 22 14 23
REMARK SMILES IDX 15 24 20 25 22 26 16 27 19 28 17 29 18 30
REMARK H PARENT 18 31
REMARK Flexibility Score: inf
ROOT
ATOM      1  C   UNL     1     184.438 174.351 179.554  1.00  0.00     0.012 C 
ATOM      2  C   UNL     1     185.825 173.962 180.103  1.00  0.00     0.012 C 
ENDROOT
BRANCH   1   3
ATOM      3  C   UNL     1     184.192 173.682 178.214  1.00  0.00    -0.028 C 
ATOM      4  C   UNL     1     184.183 172.347 178.041  1.00  0.00    -0.027 C 
BRANCH   4   5
ATOM      5  C   UNL     1     183.951 171.680 176.698  1.00  0.00     0.014 C 
BRANCH   5   6
ATOM      6  C   UNL     1     185.200 170.883 176.242  1.00  0.00     0.004 C 
ATOM      7  C   UNL     1     186.475 171.286 176.985  1.00  0.00     0.004 C 
ENDBRANCH   5   6
BRANCH   5   8
ATOM      8  C   UNL     1     182.609 170.884 176.639  1.00  0.00    -0.011 C 
ATOM      9  C   UNL     1     181.794 170.912 177.943  1.00  0.00     0.008 C 
ATOM     10  C   UNL     1     181.733 171.358 175.467  1.00  0.00     0.008 C 
ENDBRANCH   5   8
ENDBRANCH   4   5
ENDBRANCH   1   3
BRANCH   1  11
ATOM     11  C   UNL     1     183.219 174.166 180.527  1.00  0.00     0.002 C 
ATOM     12  C   UNL     1     183.536 173.413 181.855  1.00  0.00     0.005 C 
ATOM     13  C   UNL     1     182.451 175.461 180.974  1.00  0.00    -0.023 C 
ATOM     14  C   UNL     1     183.030 174.284 183.011  1.00  0.00     0.009 C 
ATOM     15  C   UNL     1     182.968 175.674 182.399  1.00  0.00     0.021 C 
ATOM     16  C   UNL     1     182.691 176.776 180.174  1.00  0.00     0.008 C 
ATOM     17  C   UNL     1     180.920 175.140 180.948  1.00  0.00     0.012 C 
ATOM     18  C   UNL     1     182.224 176.810 183.064  1.00  0.00    -0.067 C 
ATOM     19  C   UNL     1     182.034 178.010 180.856  1.00  0.00     0.009 C 
ATOM     20  C   UNL     1     182.420 178.158 182.362  1.00  0.00     0.021 C 
ATOM     21  C   UNL     1     181.281 176.603 184.012  1.00  0.00    -0.027 C 
ATOM     22  C   UNL     1     181.738 179.355 183.133  1.00  0.00    -0.023 C 
ATOM     23  C   UNL     1     180.412 177.699 184.564  1.00  0.00     0.031 C 
ATOM     24  C   UNL     1     180.322 178.904 183.614  1.00  0.00     0.002 C 
ATOM     25  C   UNL     1     181.581 180.617 182.227  1.00  0.00     0.010 C 
ATOM     26  C   UNL     1     182.664 179.720 184.333  1.00  0.00     0.012 C 
ATOM     27  C   UNL     1     179.512 180.047 184.271  1.00  0.00     0.036 C 
ATOM     28  C   UNL     1     180.800 181.751 182.909  1.00  0.00     0.032 C 
ATOM     29  C   UNL     1     179.407 181.280 183.363  1.00  0.00     0.114 C 
BRANCH  29  30
ATOM     30  O   UNL     1     178.605 180.977 182.251  1.00  0.00    -0.393 OA
ATOM     31  H   UNL     1     179.207 180.602 181.556  1.00  0.00     0.210 HD
ENDBRANCH  29  30
ENDBRANCH   1  11
TORSDOF 6
ENDMDL
MODEL 6
REMARK VINA RESULT:    -6.733      3.642      8.173
REMARK INTER + INTRA:         -10.511
REMARK INTER:                  -9.264
REMARK INTRA:                  -1.247
REMARK UNBOUND:                -1.613
REMARK SMILES CC[C@H](C=C[C@H](C)[C@H]1CC[C@@H]2C3=CC[C@H]4C[C@H](O)CC[C@]4(C)[C@@H]3CC[C@]21C)C(C)C
REMARK SMILES IDX 6 1 7 2 5 3 4 4 3 5 2 6 1 7 28 8 29 9 30 10 8 11 9 12 26 13
REMARK SMILES IDX 10 14 11 15 25 16 27 17 12 18 24 19 23 20 13 21 21 22 14 23
REMARK SMILES IDX 15 24 20 25 22 26 16 27 19 28 17 29 18 30
REMARK H PARENT 18 31
REMARK Flexibility Score: inf
ROOT
ATOM      1  C   UNL     1     181.485 180.222 185.015  1.00  0.00     0.012 C 
ATOM      2  C   UNL     1     182.111 180.072 186.416  1.00  0.00     0.012 C 
ENDROOT
BRANCH   1   3
ATOM      3  C   UNL     1     180.677 181.503 184.930  1.00  0.00    -0.028 C 
ATOM      4  C   UNL     1     180.991 182.527 184.114  1.00  0.00    -0.027 C 
BRANCH   4   5
ATOM      5  C   UNL     1     180.190 183.814 184.041  1.00  0.00     0.014 C 
BRANCH   5   6
ATOM      6  C   UNL     1     180.770 184.778 182.974  1.00  0.00     0.004 C 
ATOM      7  C   UNL     1     182.062 184.264 182.338  1.00  0.00     0.004 C 
ENDBRANCH   5   6
BRANCH   5   8
ATOM      8  C   UNL     1     178.652 183.566 183.933  1.00  0.00    -0.011 C 
ATOM      9  C   UNL     1     177.789 184.821 184.139  1.00  0.00     0.008 C 
ATOM     10  C   UNL     1     178.290 182.899 182.596  1.00  0.00     0.008 C 
ENDBRANCH   5   8
ENDBRANCH   4   5
ENDBRANCH   1   3
BRANCH   1  11
ATOM     11  C   UNL     1     182.456 180.066 183.791  1.00  0.00     0.002 C 
ATOM     12  C   UNL     1     183.973 180.220 184.120  1.00  0.00     0.005 C 
ATOM     13  C   UNL     1     182.360 178.738 182.959  1.00  0.00    -0.023 C 
ATOM     14  C   UNL     1     184.694 178.990 183.557  1.00  0.00     0.009 C 
ATOM     15  C   UNL     1     183.584 177.957 183.443  1.00  0.00     0.021 C 
ATOM     16  C   UNL     1     181.106 177.833 183.153  1.00  0.00     0.008 C 
ATOM     17  C   UNL     1     182.467 179.115 181.444  1.00  0.00     0.012 C 
ATOM     18  C   UNL     1     183.751 176.687 182.639  1.00  0.00    -0.067 C 
ATOM     19  C   UNL     1     181.248 176.463 182.431  1.00  0.00     0.009 C 
ATOM     20  C   UNL     1     182.574 175.716 182.786  1.00  0.00     0.021 C 
ATOM     21  C   UNL     1     184.706 176.549 181.691  1.00  0.00    -0.027 C 
ATOM     22  C   UNL     1     182.813 174.347 182.040  1.00  0.00    -0.023 C 
ATOM     23  C   UNL     1     184.785 175.366 180.766  1.00  0.00     0.031 C 
ATOM     24  C   UNL     1     183.437 174.638 180.637  1.00  0.00     0.002 C 
ATOM     25  C   UNL     1     181.484 173.552 181.841  1.00  0.00     0.010 C 
ATOM     26  C   UNL     1     183.770 173.496 182.930  1.00  0.00     0.012 C 
ATOM     27  C   UNL     1     183.594 173.368 179.768  1.00  0.00     0.036 C 
ATOM     28  C   UNL     1     181.667 172.279 181.000  1.00  0.00     0.032 C 
ATOM     29  C   UNL     1     182.274 172.598 179.623  1.00  0.00     0.114 C 
BRANCH  29  30
ATOM     30  O   UNL     1     181.373 173.352 178.852  1.00  0.00    -0.393 OA
ATOM     31  H   UNL     1     181.795 173.479 177.961  1.00  0.00     0.210 HD
ENDBRANCH  29  30
ENDBRANCH   1  11
TORSDOF 6
ENDMDL
MODEL 7
REMARK VINA RESULT:    -6.715      3.224      6.035
REMARK INTER + INTRA:         -10.486
REMARK INTER:                  -9.277
REMARK INTRA:                  -1.210
REMARK UNBOUND:                -1.613
REMARK SMILES CC[C@H](C=C[C@H](C)[C@H]1CC[C@@H]2C3=CC[C@H]4C[C@H](O)CC[C@]4(C)[C@@H]3CC[C@]21C)C(C)C
REMARK SMILES IDX 6 1 7 2 5 3 4 4 3 5 2 6 1 7 28 8 29 9 30 10 8 11 9 12 26 13
REMARK SMILES IDX 10 14 11 15 25 16 27 17 12 18 24 19 23 20 13 21 21 22 14 23
REMARK SMILES IDX 15 24 20 25 22 26 16 27 19 28 17 29 18 30
REMARK H PARENT 18 31
REMARK Flexibility Score: inf
ROOT
ATOM      1  C   UNL     1     184.297 174.183 181.678  1.00  0.00     0.012 C 
ATOM      2  C   UNL     1     184.618 173.659 183.091  1.00  0.00     0.012 C 
ENDROOT
BRANCH   1   3
ATOM      3  C   UNL     1     184.567 173.109 180.641  1.00  0.00    -0.028 C 
ATOM      4  C   UNL     1     183.854 172.976 179.507  1.00  0.00    -0.027 C 
BRANCH   4   5
ATOM      5  C   UNL     1     184.116 171.892 178.477  1.00  0.00     0.014 C 
BRANCH   5   6
ATOM      6  C   UNL     1     185.434 171.134 178.782  1.00  0.00     0.004 C 
ATOM      7  C   UNL     1     186.584 171.530 177.854  1.00  0.00     0.004 C 
ENDBRANCH   5   6
BRANCH   5   8
ATOM      8  C   UNL     1     182.875 170.975 178.232  1.00  0.00    -0.011 C 
ATOM      9  C   UNL     1     181.617 171.385 179.013  1.00  0.00     0.008 C 
ATOM     10  C   UNL     1     182.548 170.875 176.733  1.00  0.00     0.008 C 
ENDBRANCH   5   8
ENDBRANCH   4   5
ENDBRANCH   1   3
BRANCH   1  11
ATOM     11  C   UNL     1     182.886 174.842 181.477  1.00  0.00     0.002 C 
ATOM     12  C   UNL     1     181.695 174.083 182.138  1.00  0.00     0.005 C 
ATOM     13  C   UNL     1     182.715 176.334 181.938  1.00  0.00    -0.023 C 
ATOM     14  C   UNL     1     180.924 175.092 182.997  1.00  0.00     0.009 C 
ATOM     15  C   UNL     1     181.949 176.185 183.255  1.00  0.00     0.021 C 
ATOM     16  C   UNL     1     183.997 177.172 182.221  1.00  0.00     0.008 C 
ATOM     17  C   UNL     1     181.870 177.076 180.850  1.00  0.00     0.012 C 
ATOM     18  C   UNL     1     181.554 177.543 183.791  1.00  0.00    -0.067 C 
ATOM     19  C   UNL     1     183.673 178.549 182.868  1.00  0.00     0.009 C 
ATOM     20  C   UNL     1     182.754 178.436 184.126  1.00  0.00     0.021 C 
ATOM     21  C   UNL     1     180.285 178.007 183.727  1.00  0.00    -0.027 C 
ATOM     22  C   UNL     1     182.333 179.801 184.796  1.00  0.00    -0.023 C 
ATOM     23  C   UNL     1     179.901 179.412 184.098  1.00  0.00     0.031 C 
ATOM     24  C   UNL     1     181.097 180.378 184.034  1.00  0.00     0.002 C 
ATOM     25  C   UNL     1     183.486 180.853 184.748  1.00  0.00     0.010 C 
ATOM     26  C   UNL     1     182.000 179.500 186.289  1.00  0.00     0.012 C 
ATOM     27  C   UNL     1     180.680 181.782 184.529  1.00  0.00     0.036 C 
ATOM     28  C   UNL     1     183.059 182.233 185.271  1.00  0.00     0.032 C 
ATOM     29  C   UNL     1     181.848 182.778 184.497  1.00  0.00     0.114 C 
BRANCH  29  30
ATOM     30  O   UNL     1     182.198 183.048 183.163  1.00  0.00    -0.393 OA
ATOM     31  H   UNL     1     181.412 183.488 182.744  1.00  0.00     0.210 HD
ENDBRANCH  29  30
ENDBRANCH   1  11
TORSDOF 6
ENDMDL
MODEL 8
REMARK VINA RESULT:    -6.654      4.544      8.252
REMARK INTER + INTRA:         -10.406
REMARK INTER:                  -8.926
REMARK INTRA:                  -1.480
REMARK UNBOUND:                -1.613
REMARK SMILES CC[C@H](C=C[C@H](C)[C@H]1CC[C@@H]2C3=CC[C@H]4C[C@H](O)CC[C@]4(C)[C@@H]3CC[C@]21C)C(C)C
REMARK SMILES IDX 6 1 7 2 5 3 4 4 3 5 2 6 1 7 28 8 29 9 30 10 8 11 9 12 26 13
REMARK SMILES IDX 10 14 11 15 25 16 27 17 12 18 24 19 23 20 13 21 21 22 14 23
REMARK SMILES IDX 15 24 20 25 22 26 16 27 19 28 17 29 18 30
REMARK H PARENT 18 31
REMARK Flexibility Score: inf
ROOT
ATOM      1  C   UNL     1     180.117 179.910 182.457  1.00  0.00     0.012 C 
ATOM      2  C   UNL     1     178.935 180.317 183.360  1.00  0.00     0.012 C 
ENDROOT
BRANCH   1   3
ATOM      3  C   UNL     1     180.661 181.119 181.719  1.00  0.00    -0.028 C 
ATOM      4  C   UNL     1     181.973 181.397 181.614  1.00  0.00    -0.027 C 
BRANCH   4   5
ATOM      5  C   UNL     1     182.514 182.615 180.888  1.00  0.00     0.014 C 
BRANCH   5   6
ATOM      6  C   UNL     1     183.363 182.206 179.656  1.00  0.00     0.004 C 
ATOM      7  C   UNL     1     183.834 180.751 179.707  1.00  0.00     0.004 C 
ENDBRANCH   5   6
BRANCH   5   8
ATOM      8  C   UNL     1     181.416 183.687 180.599  1.00  0.00    -0.011 C 
ATOM      9  C   UNL     1     181.329 184.809 181.646  1.00  0.00     0.008 C 
ATOM     10  C   UNL     1     181.590 184.295 179.197  1.00  0.00     0.008 C 
ENDBRANCH   5   8
ENDBRANCH   4   5
ENDBRANCH   1   3
BRANCH   1  11
ATOM     11  C   UNL     1     181.265 179.078 183.133  1.00  0.00     0.002 C 
ATOM     12  C   UNL     1     180.897 178.424 184.499  1.00  0.00     0.005 C 
ATOM     13  C   UNL     1     181.904 177.916 182.292  1.00  0.00    -0.023 C 
ATOM     14  C   UNL     1     181.249 176.935 184.408  1.00  0.00     0.009 C 
ATOM     15  C   UNL     1     181.263 176.671 182.910  1.00  0.00     0.021 C 
ATOM     16  C   UNL     1     181.637 177.881 180.757  1.00  0.00     0.008 C 
ATOM     17  C   UNL     1     183.451 177.955 182.523  1.00  0.00     0.012 C 
ATOM     18  C   UNL     1     181.872 175.418 182.323  1.00  0.00    -0.067 C 
ATOM     19  C   UNL     1     182.151 176.570 180.098  1.00  0.00     0.009 C 
ATOM     20  C   UNL     1     181.639 175.280 180.814  1.00  0.00     0.021 C 
ATOM     21  C   UNL     1     182.749 174.649 183.007  1.00  0.00    -0.027 C 
ATOM     22  C   UNL     1     182.174 173.912 180.236  1.00  0.00    -0.023 C 
ATOM     23  C   UNL     1     183.494 173.498 182.389  1.00  0.00     0.031 C 
ATOM     24  C   UNL     1     183.576 173.614 180.857  1.00  0.00     0.002 C 
ATOM     25  C   UNL     1     182.314 173.953 178.681  1.00  0.00     0.010 C 
ATOM     26  C   UNL     1     181.133 172.813 180.610  1.00  0.00     0.012 C 
ATOM     27  C   UNL     1     184.250 172.357 180.259  1.00  0.00     0.036 C 
ATOM     28  C   UNL     1     182.959 172.683 178.104  1.00  0.00     0.032 C 
ATOM     29  C   UNL     1     184.340 172.421 178.728  1.00  0.00     0.114 C 
BRANCH  29  30
ATOM     30  O   UNL     1     185.247 173.426 178.353  1.00  0.00    -0.393 OA
ATOM     31  H   UNL     1     185.974 172.981 177.843  1.00  0.00     0.210 HD
ENDBRANCH  29  30
ENDBRANCH   1  11
TORSDOF 6
ENDMDL
MODEL 9
REMARK VINA RESULT:    -6.613      4.820      9.750
REMARK INTER + INTRA:         -10.352
REMARK INTER:                  -9.303
REMARK INTRA:                  -1.049
REMARK UNBOUND:                -1.613
REMARK SMILES CC[C@H](C=C[C@H](C)[C@H]1CC[C@@H]2C3=CC[C@H]4C[C@H](O)CC[C@]4(C)[C@@H]3CC[C@]21C)C(C)C
REMARK SMILES IDX 6 1 7 2 5 3 4 4 3 5 2 6 1 7 28 8 29 9 30 10 8 11 9 12 26 13
REMARK SMILES IDX 10 14 11 15 25 16 27 17 12 18 24 19 23 20 13 21 21 22 14 23
REMARK SMILES IDX 15 24 20 25 22 26 16 27 19 28 17 29 18 30
REMARK H PARENT 18 31
REMARK Flexibility Score: inf
ROOT
ATOM      1  C   UNL     1     181.933 177.698 183.174  1.00  0.00     0.012 C 
ATOM      2  C   UNL     1     180.507 177.635 183.756  1.00  0.00     0.012 C 
ENDROOT
BRANCH   1   3
ATOM      3  C   UNL     1     182.867 178.408 184.136  1.00  0.00    -0.028 C 
ATOM      4  C   UNL     1     182.442 179.110 185.203  1.00  0.00    -0.027 C 
BRANCH   4   5
ATOM      5  C   UNL     1     183.377 179.831 186.155  1.00  0.00     0.014 C 
BRANCH   5   6
ATOM      6  C   UNL     1     184.539 180.519 185.391  1.00  0.00     0.004 C 
ATOM      7  C   UNL     1     184.166 181.899 184.847  1.00  0.00     0.004 C 
ENDBRANCH   5   6
BRANCH   5   8
ATOM      8  C   UNL     1     182.623 180.752 187.166  1.00  0.00    -0.011 C 
ATOM      9  C   UNL     1     181.134 180.964 186.845  1.00  0.00     0.008 C 
ATOM     10  C   UNL     1     182.777 180.238 188.607  1.00  0.00     0.008 C 
ENDBRANCH   5   8
ENDBRANCH   4   5
ENDBRANCH   1   3
BRANCH   1  11
ATOM     11  C   UNL     1     182.545 176.345 182.664  1.00  0.00     0.002 C 
ATOM     12  C   UNL     1     181.927 175.057 183.290  1.00  0.00     0.005 C 
ATOM     13  C   UNL     1     182.529 176.085 181.115  1.00  0.00    -0.023 C 
ATOM     14  C   UNL     1     181.513 174.137 182.136  1.00  0.00     0.009 C 
ATOM     15  C   UNL     1     181.375 175.091 180.960  1.00  0.00     0.021 C 
ATOM     16  C   UNL     1     182.255 177.290 180.166  1.00  0.00     0.008 C 
ATOM     17  C   UNL     1     183.904 175.450 180.724  1.00  0.00     0.012 C 
ATOM     18  C   UNL     1     181.292 174.598 179.533  1.00  0.00    -0.067 C 
ATOM     19  C   UNL     1     182.061 176.846 178.688  1.00  0.00     0.009 C 
ATOM     20  C   UNL     1     180.999 175.712 178.522  1.00  0.00     0.021 C 
ATOM     21  C   UNL     1     181.697 173.360 179.169  1.00  0.00    -0.027 C 
ATOM     22  C   UNL     1     180.796 175.169 177.055  1.00  0.00    -0.023 C 
ATOM     23  C   UNL     1     181.782 172.908 177.737  1.00  0.00     0.031 C 
ATOM     24  C   UNL     1     181.887 174.091 176.759  1.00  0.00     0.002 C 
ATOM     25  C   UNL     1     180.915 176.306 175.991  1.00  0.00     0.010 C 
ATOM     26  C   UNL     1     179.358 174.569 176.978  1.00  0.00     0.012 C 
ATOM     27  C   UNL     1     181.859 173.583 175.299  1.00  0.00     0.036 C 
ATOM     28  C   UNL     1     180.855 175.784 174.547  1.00  0.00     0.032 C 
ATOM     29  C   UNL     1     181.946 174.732 174.284  1.00  0.00     0.114 C 
BRANCH  29  30
ATOM     30  O   UNL     1     183.221 175.319 174.349  1.00  0.00    -0.393 OA
ATOM     31  H   UNL     1     183.482 175.333 175.307  1.00  0.00     0.210 HD
ENDBRANCH  29  30
ENDBRANCH   1  11
TORSDOF 6
ENDMDL
