MODEL 1
REMARK VINA RESULT:    -4.282      0.000      0.000
REMARK INTER + INTRA:          -6.244
REMARK INTER:                  -5.784
REMARK INTRA:                  -0.460
REMARK UNBOUND:                -0.460
REMARK SMILES O=C[C@@H](O)[C@@H](O)[C@@H](O)CO
REMARK SMILES IDX 7 1 9 2 10 3 5 5 3 6 2 7 1 8 4 9 6 11 8 13
REMARK H PARENT 10 4 4 10 6 12 8 14
REMARK Flexibility Score: inf
ROOT
ATOM      1  C   UNL     1       7.172  -3.251  -7.268  1.00  0.00     0.171 C 
ENDROOT
BRANCH   1   2
ATOM      2  C   UNL     1       7.276  -1.715  -7.199  1.00  0.00     0.190 C 
BRANCH   2   3
ATOM      3  O   UNL     1       7.811  -1.315  -5.965  1.00  0.00    -0.394 OA
ATOM      4  H   UNL     1       7.318  -0.498  -5.693  1.00  0.00     0.210 HD
ENDBRANCH   2   3
ENDBRANCH   1   2
BRANCH   1   5
ATOM      5  C   UNL     1       8.559  -3.926  -7.107  1.00  0.00     0.181 C 
BRANCH   5   6
ATOM      6  C   UNL     1       8.554  -5.379  -7.642  1.00  0.00     0.209 C 
BRANCH   6   7
ATOM      7  C   UNL     1       9.942  -5.965  -7.629  1.00  0.00     0.258 C 
ATOM      8  O   UNL     1      10.125  -7.135  -7.929  1.00  0.00    -0.300 OA
ENDBRANCH   6   7
BRANCH   6   9
ATOM      9  O   UNL     1       7.711  -6.183  -6.857  1.00  0.00    -0.383 OA
ATOM     10  H   UNL     1       8.280  -6.595  -6.154  1.00  0.00     0.211 HD
ENDBRANCH   6   9
ENDBRANCH   5   6
BRANCH   5  11
ATOM     11  O   UNL     1       9.512  -3.174  -7.818  1.00  0.00    -0.387 OA
ATOM     12  H   UNL     1      10.402  -3.382  -7.429  1.00  0.00     0.211 HD
ENDBRANCH   5  11
ENDBRANCH   1   5
BRANCH   1  13
ATOM     13  O   UNL     1       6.262  -3.714  -6.301  1.00  0.00    -0.388 OA
ATOM     14  H   UNL     1       6.150  -2.993  -5.625  1.00  0.00     0.211 HD
ENDBRANCH   1  13
TORSDOF 8
ENDMDL
MODEL 2
REMARK VINA RESULT:    -4.197     15.449     16.097
REMARK INTER + INTRA:          -6.129
REMARK INTER:                  -5.645
REMARK INTRA:                  -0.484
REMARK UNBOUND:                -0.460
REMARK SMILES O=C[C@@H](O)[C@@H](O)[C@@H](O)CO
REMARK SMILES IDX 7 1 9 2 10 3 5 5 3 6 2 7 1 8 4 9 6 11 8 13
REMARK H PARENT 10 4 4 10 6 12 8 14
REMARK Flexibility Score: inf
ROOT
ATOM      1  C   UNL     1      -7.398   0.770  -7.437  1.00  0.00     0.171 C 
ENDROOT
BRANCH   1   2
ATOM      2  C   UNL     1      -6.339   1.713  -8.039  1.00  0.00     0.190 C 
BRANCH   2   3
ATOM      3  O   UNL     1      -5.964   2.690  -7.105  1.00  0.00    -0.394 OA
ATOM      4  H   UNL     1      -6.595   2.610  -6.343  1.00  0.00     0.210 HD
ENDBRANCH   2   3
ENDBRANCH   1   2
BRANCH   1   5
ATOM      5  C   UNL     1      -6.925  -0.707  -7.453  1.00  0.00     0.181 C 
BRANCH   5   6
ATOM      6  C   UNL     1      -8.115  -1.691  -7.338  1.00  0.00     0.209 C 
BRANCH   6   7
ATOM      7  C   UNL     1      -7.689  -3.097  -7.674  1.00  0.00     0.258 C 
ATOM      8  O   UNL     1      -7.800  -3.525  -8.812  1.00  0.00    -0.300 OA
ENDBRANCH   6   7
BRANCH   6   9
ATOM      9  O   UNL     1      -8.638  -1.671  -6.036  1.00  0.00    -0.383 OA
ATOM     10  H   UNL     1      -8.703  -2.616  -5.737  1.00  0.00     0.211 HD
ENDBRANCH   6   9
ENDBRANCH   5   6
BRANCH   5  11
ATOM     11  O   UNL     1      -6.240  -0.948  -8.659  1.00  0.00    -0.387 OA
ATOM     12  H   UNL     1      -6.457  -0.201  -9.276  1.00  0.00     0.211 HD
ENDBRANCH   5  11
ENDBRANCH   1   5
BRANCH   1  13
ATOM     13  O   UNL     1      -7.726   1.187  -6.134  1.00  0.00    -0.388 OA
ATOM     14  H   UNL     1      -7.829   0.372  -5.575  1.00  0.00     0.211 HD
ENDBRANCH   1  13
TORSDOF 8
ENDMDL
MODEL 3
REMARK VINA RESULT:    -4.171     15.566     16.497
REMARK INTER + INTRA:          -6.095
REMARK INTER:                  -5.396
REMARK INTRA:                  -0.699
REMARK UNBOUND:                -0.460
REMARK SMILES O=C[C@@H](O)[C@@H](O)[C@@H](O)CO
REMARK SMILES IDX 7 1 9 2 10 3 5 5 3 6 2 7 1 8 4 9 6 11 8 13
REMARK H PARENT 10 4 4 10 6 12 8 14
REMARK Flexibility Score: inf
ROOT
ATOM      1  C   UNL     1      -7.493  -1.870  -7.820  1.00  0.00     0.171 C 
ENDROOT
BRANCH   1   2
ATOM      2  C   UNL     1      -8.849  -2.298  -7.224  1.00  0.00     0.190 C 
BRANCH   2   3
ATOM      3  O   UNL     1      -8.943  -1.898  -5.883  1.00  0.00    -0.394 OA
ATOM      4  H   UNL     1      -8.064  -1.504  -5.642  1.00  0.00     0.210 HD
ENDBRANCH   2   3
ENDBRANCH   1   2
BRANCH   1   5
ATOM      5  C   UNL     1      -7.553  -0.434  -8.404  1.00  0.00     0.181 C 
BRANCH   5   6
ATOM      6  C   UNL     1      -6.949   0.606  -7.428  1.00  0.00     0.209 C 
BRANCH   6   7
ATOM      7  C   UNL     1      -6.765   1.939  -8.106  1.00  0.00     0.258 C 
ATOM      8  O   UNL     1      -5.710   2.215  -8.656  1.00  0.00    -0.300 OA
ENDBRANCH   6   7
BRANCH   6   9
ATOM      9  O   UNL     1      -7.788   0.771  -6.315  1.00  0.00    -0.383 OA
ATOM     10  H   UNL     1      -8.089   1.718  -6.319  1.00  0.00     0.211 HD
ENDBRANCH   6   9
ENDBRANCH   5   6
BRANCH   5  11
ATOM     11  O   UNL     1      -6.833  -0.409  -9.613  1.00  0.00    -0.387 OA
ATOM     12  H   UNL     1      -7.194   0.340 -10.156  1.00  0.00     0.211 HD
ENDBRANCH   5  11
ENDBRANCH   1   5
BRANCH   1  13
ATOM     13  O   UNL     1      -6.484  -1.984  -6.846  1.00  0.00    -0.388 OA
ATOM     14  H   UNL     1      -6.914  -1.883  -5.956  1.00  0.00     0.211 HD
ENDBRANCH   1  13
TORSDOF 8
ENDMDL
MODEL 4
REMARK VINA RESULT:    -4.157      3.443      6.203
REMARK INTER + INTRA:          -6.076
REMARK INTER:                  -5.604
REMARK INTRA:                  -0.472
REMARK UNBOUND:                -0.460
REMARK SMILES O=C[C@@H](O)[C@@H](O)[C@@H](O)CO
REMARK SMILES IDX 7 1 9 2 10 3 5 5 3 6 2 7 1 8 4 9 6 11 8 13
REMARK H PARENT 10 4 4 10 6 12 8 14
REMARK Flexibility Score: inf
ROOT
ATOM      1  C   UNL     1       7.404  -0.877  -7.328  1.00  0.00     0.171 C 
ENDROOT
BRANCH   1   2
ATOM      2  C   UNL     1       6.343  -1.860  -7.860  1.00  0.00     0.190 C 
BRANCH   2   3
ATOM      3  O   UNL     1       6.204  -2.950  -6.989  1.00  0.00    -0.394 OA
ATOM      4  H   UNL     1       7.085  -3.078  -6.551  1.00  0.00     0.210 HD
ENDBRANCH   2   3
ENDBRANCH   1   2
BRANCH   1   5
ATOM      5  C   UNL     1       6.928   0.595  -7.440  1.00  0.00     0.181 C 
BRANCH   5   6
ATOM      6  C   UNL     1       8.104   1.590  -7.285  1.00  0.00     0.209 C 
BRANCH   6   7
ATOM      7  C   UNL     1       7.685   2.985  -7.669  1.00  0.00     0.258 C 
ATOM      8  O   UNL     1       7.913   3.417  -8.789  1.00  0.00    -0.300 OA
ENDBRANCH   6   7
BRANCH   6   9
ATOM      9  O   UNL     1       8.561   1.599  -5.958  1.00  0.00    -0.383 OA
ATOM     10  H   UNL     1       8.203   0.779  -5.525  1.00  0.00     0.211 HD
ENDBRANCH   6   9
ENDBRANCH   5   6
BRANCH   5  11
ATOM     11  O   UNL     1       6.327   0.780  -8.700  1.00  0.00    -0.387 OA
ATOM     12  H   UNL     1       5.349   0.870  -8.550  1.00  0.00     0.211 HD
ENDBRANCH   5  11
ENDBRANCH   1   5
BRANCH   1  13
ATOM     13  O   UNL     1       7.740  -1.206  -6.002  1.00  0.00    -0.388 OA
ATOM     14  H   UNL     1       6.923  -1.091  -5.449  1.00  0.00     0.211 HD
ENDBRANCH   1  13
TORSDOF 8
ENDMDL
MODEL 5
REMARK VINA RESULT:    -4.140      3.749      5.112
REMARK INTER + INTRA:          -6.053
REMARK INTER:                  -5.351
REMARK INTRA:                  -0.702
REMARK UNBOUND:                -0.460
REMARK SMILES O=C[C@@H](O)[C@@H](O)[C@@H](O)CO
REMARK SMILES IDX 7 1 9 2 10 3 5 5 3 6 2 7 1 8 4 9 6 11 8 13
REMARK H PARENT 10 4 4 10 6 12 8 14
REMARK Flexibility Score: inf
ROOT
ATOM      1  C   UNL     1       7.517   1.893  -7.785  1.00  0.00     0.171 C 
ENDROOT
BRANCH   1   2
ATOM      2  C   UNL     1       8.847   2.323  -7.136  1.00  0.00     0.190 C 
BRANCH   2   3
ATOM      3  O   UNL     1       8.892   1.917  -5.794  1.00  0.00    -0.394 OA
ATOM      4  H   UNL     1       9.571   2.487  -5.347  1.00  0.00     0.210 HD
ENDBRANCH   2   3
ENDBRANCH   1   2
BRANCH   1   5
ATOM      5  C   UNL     1       7.596   0.451  -8.350  1.00  0.00     0.181 C 
BRANCH   5   6
ATOM      6  C   UNL     1       6.924  -0.573  -7.402  1.00  0.00     0.209 C 
BRANCH   6   7
ATOM      7  C   UNL     1       6.779  -1.915  -8.071  1.00  0.00     0.258 C 
ATOM      8  O   UNL     1       5.736  -2.221  -8.628  1.00  0.00    -0.300 OA
ENDBRANCH   6   7
BRANCH   6   9
ATOM      9  O   UNL     1       7.686  -0.725  -6.233  1.00  0.00    -0.383 OA
ATOM     10  H   UNL     1       7.908  -1.691  -6.157  1.00  0.00     0.211 HD
ENDBRANCH   6   9
ENDBRANCH   5   6
BRANCH   5  11
ATOM     11  O   UNL     1       6.949   0.419  -9.599  1.00  0.00    -0.387 OA
ATOM     12  H   UNL     1       7.651   0.486 -10.297  1.00  0.00     0.211 HD
ENDBRANCH   5  11
ENDBRANCH   1   5
BRANCH   1  13
ATOM     13  O   UNL     1       6.468   2.022  -6.856  1.00  0.00    -0.388 OA
ATOM     14  H   UNL     1       5.997   1.148  -6.814  1.00  0.00     0.211 HD
ENDBRANCH   1  13
TORSDOF 8
ENDMDL
MODEL 6
REMARK VINA RESULT:    -4.121      3.725      5.458
REMARK INTER + INTRA:          -6.026
REMARK INTER:                  -5.440
REMARK INTRA:                  -0.587
REMARK UNBOUND:                -0.460
REMARK SMILES O=C[C@@H](O)[C@@H](O)[C@@H](O)CO
REMARK SMILES IDX 7 1 9 2 10 3 5 5 3 6 2 7 1 8 4 9 6 11 8 13
REMARK H PARENT 10 4 4 10 6 12 8 14
REMARK Flexibility Score: inf
ROOT
ATOM      1  C   UNL     1       8.647   1.643  -8.058  1.00  0.00     0.171 C 
ENDROOT
BRANCH   1   2
ATOM      2  C   UNL     1       8.983   2.572  -6.876  1.00  0.00     0.190 C 
BRANCH   2   3
ATOM      3  O   UNL     1       8.964   1.857  -5.669  1.00  0.00    -0.394 OA
ATOM      4  H   UNL     1       9.735   1.232  -5.698  1.00  0.00     0.210 HD
ENDBRANCH   2   3
ENDBRANCH   1   2
BRANCH   1   5
ATOM      5  C   UNL     1       7.155   1.219  -8.047  1.00  0.00     0.181 C 
BRANCH   5   6
ATOM      6  C   UNL     1       6.990  -0.282  -7.704  1.00  0.00     0.209 C 
BRANCH   6   7
ATOM      7  C   UNL     1       7.563  -1.151  -8.793  1.00  0.00     0.258 C 
ATOM      8  O   UNL     1       8.476  -1.926  -8.553  1.00  0.00    -0.300 OA
ENDBRANCH   6   7
BRANCH   6   9
ATOM      9  O   UNL     1       7.637  -0.578  -6.495  1.00  0.00    -0.383 OA
ATOM     10  H   UNL     1       7.337  -1.485  -6.222  1.00  0.00     0.211 HD
ENDBRANCH   6   9
ENDBRANCH   5   6
BRANCH   5  11
ATOM     11  O   UNL     1       6.474   1.991  -7.086  1.00  0.00    -0.387 OA
ATOM     12  H   UNL     1       6.950   2.860  -7.014  1.00  0.00     0.211 HD
ENDBRANCH   5  11
ENDBRANCH   1   5
BRANCH   1  13
ATOM     13  O   UNL     1       8.992   2.267  -9.271  1.00  0.00    -0.388 OA
ATOM     14  H   UNL     1       9.890   1.934  -9.534  1.00  0.00     0.211 HD
ENDBRANCH   1  13
TORSDOF 8
ENDMDL
MODEL 7
REMARK VINA RESULT:    -4.120     16.654     18.968
REMARK INTER + INTRA:          -6.026
REMARK INTER:                  -5.532
REMARK INTRA:                  -0.494
REMARK UNBOUND:                -0.460
REMARK SMILES O=C[C@@H](O)[C@@H](O)[C@@H](O)CO
REMARK SMILES IDX 7 1 9 2 10 3 5 5 3 6 2 7 1 8 4 9 6 11 8 13
REMARK H PARENT 10 4 4 10 6 12 8 14
REMARK Flexibility Score: inf
ROOT
ATOM      1  C   UNL     1      -7.116   3.068  -7.431  1.00  0.00     0.171 C 
ENDROOT
BRANCH   1   2
ATOM      2  C   UNL     1      -7.227   1.532  -7.480  1.00  0.00     0.190 C 
BRANCH   2   3
ATOM      3  O   UNL     1      -7.876   1.050  -6.333  1.00  0.00    -0.394 OA
ATOM      4  H   UNL     1      -7.725   0.069  -6.313  1.00  0.00     0.210 HD
ENDBRANCH   2   3
ENDBRANCH   1   2
BRANCH   1   5
ATOM      5  C   UNL     1      -8.488   3.732  -7.143  1.00  0.00     0.181 C 
BRANCH   5   6
ATOM      6  C   UNL     1      -8.505   5.220  -7.571  1.00  0.00     0.209 C 
BRANCH   6   7
ATOM      7  C   UNL     1      -9.898   5.789  -7.494  1.00  0.00     0.258 C 
ATOM      8  O   UNL     1     -10.124   6.930  -7.866  1.00  0.00    -0.300 OA
ENDBRANCH   6   7
BRANCH   6   9
ATOM      9  O   UNL     1      -7.657   5.973  -6.743  1.00  0.00    -0.383 OA
ATOM     10  H   UNL     1      -6.783   5.501  -6.721  1.00  0.00     0.211 HD
ENDBRANCH   6   9
ENDBRANCH   5   6
BRANCH   5  11
ATOM     11  O   UNL     1      -9.484   3.035  -7.852  1.00  0.00    -0.387 OA
ATOM     12  H   UNL     1     -10.330   3.129  -7.341  1.00  0.00     0.211 HD
ENDBRANCH   5  11
ENDBRANCH   1   5
BRANCH   1  13
ATOM     13  O   UNL     1      -6.154   3.449  -6.478  1.00  0.00    -0.388 OA
ATOM     14  H   UNL     1      -6.612   4.008  -5.796  1.00  0.00     0.211 HD
ENDBRANCH   1  13
TORSDOF 8
ENDMDL
MODEL 8
REMARK VINA RESULT:    -4.068     16.490     18.134
REMARK INTER + INTRA:          -5.955
REMARK INTER:                  -5.599
REMARK INTRA:                  -0.356
REMARK UNBOUND:                -0.460
REMARK SMILES O=C[C@@H](O)[C@@H](O)[C@@H](O)CO
REMARK SMILES IDX 7 1 9 2 10 3 5 5 3 6 2 7 1 8 4 9 6 11 8 13
REMARK H PARENT 10 4 4 10 6 12 8 14
REMARK Flexibility Score: inf
ROOT
ATOM      1  C   UNL     1      -7.177   1.847  -6.982  1.00  0.00     0.171 C 
ENDROOT
BRANCH   1   2
ATOM      2  C   UNL     1      -7.134   0.395  -7.496  1.00  0.00     0.190 C 
BRANCH   2   3
ATOM      3  O   UNL     1      -7.867  -0.448  -6.647  1.00  0.00    -0.394 OA
ATOM      4  H   UNL     1      -8.613   0.096  -6.282  1.00  0.00     0.210 HD
ENDBRANCH   2   3
ENDBRANCH   1   2
BRANCH   1   5
ATOM      5  C   UNL     1      -7.845   2.798  -8.009  1.00  0.00     0.181 C 
BRANCH   5   6
ATOM      6  C   UNL     1      -8.842   3.767  -7.328  1.00  0.00     0.209 C 
BRANCH   6   7
ATOM      7  C   UNL     1      -8.408   5.200  -7.502  1.00  0.00     0.258 C 
ATOM      8  O   UNL     1      -7.499   5.660  -6.829  1.00  0.00    -0.300 OA
ENDBRANCH   6   7
BRANCH   6   9
ATOM      9  O   UNL     1     -10.125   3.609  -7.875  1.00  0.00    -0.383 OA
ATOM     10  H   UNL     1     -10.629   3.014  -7.258  1.00  0.00     0.211 HD
ENDBRANCH   6   9
ENDBRANCH   5   6
BRANCH   5  11
ATOM     11  O   UNL     1      -6.840   3.545  -8.653  1.00  0.00    -0.387 OA
ATOM     12  H   UNL     1      -6.168   3.791  -7.964  1.00  0.00     0.211 HD
ENDBRANCH   5  11
ENDBRANCH   1   5
BRANCH   1  13
ATOM     13  O   UNL     1      -7.834   1.896  -5.738  1.00  0.00    -0.388 OA
ATOM     14  H   UNL     1      -8.563   1.221  -5.758  1.00  0.00     0.211 HD
ENDBRANCH   1  13
TORSDOF 8
ENDMDL
MODEL 9
REMARK VINA RESULT:    -4.030      2.254      3.439
REMARK INTER + INTRA:          -5.905
REMARK INTER:                  -5.231
REMARK INTRA:                  -0.674
REMARK UNBOUND:                -0.460
REMARK SMILES O=C[C@@H](O)[C@@H](O)[C@@H](O)CO
REMARK SMILES IDX 7 1 9 2 10 3 5 5 3 6 2 7 1 8 4 9 6 11 8 13
REMARK H PARENT 10 4 4 10 6 12 8 14
REMARK Flexibility Score: inf
ROOT
ATOM      1  C   UNL     1       7.473  -0.206  -7.978  1.00  0.00     0.171 C 
ENDROOT
BRANCH   1   2
ATOM      2  C   UNL     1       7.253   1.054  -7.118  1.00  0.00     0.190 C 
BRANCH   2   3
ATOM      3  O   UNL     1       8.270   1.177  -6.160  1.00  0.00    -0.394 OA
ATOM      4  H   UNL     1       7.822   1.225  -5.276  1.00  0.00     0.210 HD
ENDBRANCH   2   3
ENDBRANCH   1   2
BRANCH   1   5
ATOM      5  C   UNL     1       7.094  -1.498  -7.207  1.00  0.00     0.181 C 
BRANCH   5   6
ATOM      6  C   UNL     1       7.432  -2.770  -8.021  1.00  0.00     0.209 C 
BRANCH   6   7
ATOM      7  C   UNL     1       7.630  -3.956  -7.113  1.00  0.00     0.258 C 
ATOM      8  O   UNL     1       6.753  -4.295  -6.334  1.00  0.00    -0.300 OA
ENDBRANCH   6   7
BRANCH   6   9
ATOM      9  O   UNL     1       6.399  -3.056  -8.927  1.00  0.00    -0.383 OA
ATOM     10  H   UNL     1       6.707  -3.818  -9.485  1.00  0.00     0.211 HD
ENDBRANCH   6   9
ENDBRANCH   5   6
BRANCH   5  11
ATOM     11  O   UNL     1       7.805  -1.523  -5.992  1.00  0.00    -0.387 OA
ATOM     12  H   UNL     1       7.709  -2.435  -5.612  1.00  0.00     0.211 HD
ENDBRANCH   5  11
ENDBRANCH   1   5
BRANCH   1  13
ATOM     13  O   UNL     1       6.750  -0.098  -9.180  1.00  0.00    -0.388 OA
ATOM     14  H   UNL     1       6.149   0.689  -9.099  1.00  0.00     0.211 HD
ENDBRANCH   1  13
TORSDOF 8
ENDMDL
