MODEL 1
REMARK VINA RESULT:    -4.640      0.000      0.000
REMARK INTER + INTRA:          -6.685
REMARK INTER:                  -6.267
REMARK INTRA:                  -0.418
REMARK UNBOUND:                -0.418
REMARK SMILES CC(=O)CCC=C(C)CCC=C(C)C
REMARK SMILES IDX 7 1 6 2 8 3 9 4 10 5 11 6 13 7 12 8 14 9 5 10 4 11 2 12 3 13
REMARK SMILES IDX 1 14
REMARK H PARENT
REMARK Flexibility Score: inf
ROOT
ATOM      1  C   UNL     1      28.450  28.671  25.602  1.00  0.00    -0.077 C 
ATOM      2  C   UNL     1      28.572  27.366  25.266  1.00  0.00    -0.028 C 
ATOM      3  C   UNL     1      28.764  29.171  26.992  1.00  0.00     0.039 C 
ENDROOT
BRANCH   1   4
ATOM      4  C   UNL     1      28.006  29.661  24.548  1.00  0.00     0.034 C 
BRANCH   4   5
ATOM      5  C   UNL     1      28.747  30.994  24.706  1.00  0.00     0.032 C 
BRANCH   5   6
ATOM      6  C   UNL     1      28.764  31.755  23.404  1.00  0.00    -0.028 C 
ATOM      7  C   UNL     1      29.125  33.969  24.516  1.00  0.00     0.039 C 
ATOM      8  C   UNL     1      28.908  33.094  23.304  1.00  0.00    -0.080 C 
ATOM      9  C   UNL     1      28.866  33.721  21.933  1.00  0.00     0.039 C 
ENDBRANCH   5   6
ENDBRANCH   4   5
ENDBRANCH   1   4
BRANCH   2  10
ATOM     10  C   UNL     1      28.971  26.271  26.225  1.00  0.00     0.035 C 
BRANCH  10  11
ATOM     11  C   UNL     1      28.755  24.892  25.595  1.00  0.00     0.079 C 
BRANCH  11  12
ATOM     12  C   UNL     1      27.320  24.458  25.744  1.00  0.00     0.130 C 
ATOM     13  O   UNL     1      26.868  24.247  26.860  1.00  0.00    -0.300 OA
ATOM     14  C   UNL     1      26.425  24.291  24.551  1.00  0.00     0.087 C 
ENDBRANCH  11  12
ENDBRANCH  10  11
ENDBRANCH   2  10
TORSDOF 6
ENDMDL
MODEL 2
REMARK VINA RESULT:    -4.307      2.840      7.361
REMARK INTER + INTRA:          -6.235
REMARK INTER:                  -5.885
REMARK INTRA:                  -0.350
REMARK UNBOUND:                -0.418
REMARK SMILES CC(=O)CCC=C(C)CCC=C(C)C
REMARK SMILES IDX 7 1 6 2 8 3 9 4 10 5 11 6 13 7 12 8 14 9 5 10 4 11 2 12 3 13
REMARK SMILES IDX 1 14
REMARK H PARENT
REMARK Flexibility Score: inf
ROOT
ATOM      1  C   UNL     1      28.981  28.871  26.155  1.00  0.00    -0.077 C 
ATOM      2  C   UNL     1      29.114  29.585  25.013  1.00  0.00    -0.028 C 
ATOM      3  C   UNL     1      28.757  29.538  27.492  1.00  0.00     0.039 C 
ENDROOT
BRANCH   1   4
ATOM      4  C   UNL     1      29.036  27.361  26.087  1.00  0.00     0.034 C 
BRANCH   4   5
ATOM      5  C   UNL     1      27.637  26.773  25.872  1.00  0.00     0.032 C 
BRANCH   5   6
ATOM      6  C   UNL     1      27.723  25.386  25.286  1.00  0.00    -0.028 C 
ATOM      7  C   UNL     1      25.993  24.449  26.835  1.00  0.00     0.039 C 
ATOM      8  C   UNL     1      27.009  24.326  25.725  1.00  0.00    -0.080 C 
ATOM      9  C   UNL     1      27.231  22.989  25.066  1.00  0.00     0.039 C 
ENDBRANCH   5   6
ENDBRANCH   4   5
ENDBRANCH   1   4
BRANCH   2  10
ATOM     10  C   UNL     1      29.113  31.092  24.943  1.00  0.00     0.035 C 
BRANCH  10  11
ATOM     11  C   UNL     1      28.764  31.570  23.530  1.00  0.00     0.079 C 
BRANCH  11  12
ATOM     12  C   UNL     1      28.915  33.064  23.422  1.00  0.00     0.130 C 
ATOM     13  O   UNL     1      29.125  33.722  24.431  1.00  0.00    -0.300 OA
ATOM     14  C   UNL     1      28.827  33.766  22.099  1.00  0.00     0.087 C 
ENDBRANCH  11  12
ENDBRANCH  10  11
ENDBRANCH   2  10
TORSDOF 6
ENDMDL
MODEL 3
REMARK VINA RESULT:    -3.900      2.026      4.257
REMARK INTER + INTRA:          -5.686
REMARK INTER:                  -5.193
REMARK INTRA:                  -0.493
REMARK UNBOUND:                -0.418
REMARK SMILES CC(=O)CCC=C(C)CCC=C(C)C
REMARK SMILES IDX 7 1 6 2 8 3 9 4 10 5 11 6 13 7 12 8 14 9 5 10 4 11 2 12 3 13
REMARK SMILES IDX 1 14
REMARK H PARENT
REMARK Flexibility Score: inf
ROOT
ATOM      1  C   UNL     1      28.390  24.543  25.327  1.00  0.00    -0.077 C 
ATOM      2  C   UNL     1      27.348  24.241  26.136  1.00  0.00    -0.028 C 
ATOM      3  C   UNL     1      28.925  23.559  24.314  1.00  0.00     0.039 C 
ENDROOT
BRANCH   1   4
ATOM      4  C   UNL     1      29.023  25.913  25.425  1.00  0.00     0.034 C 
BRANCH   4   5
ATOM      5  C   UNL     1      28.005  26.950  25.915  1.00  0.00     0.032 C 
BRANCH   5   6
ATOM      6  C   UNL     1      28.062  28.197  25.069  1.00  0.00    -0.028 C 
ATOM      7  C   UNL     1      28.855  29.637  26.958  1.00  0.00     0.039 C 
ATOM      8  C   UNL     1      28.417  29.416  25.530  1.00  0.00    -0.080 C 
ATOM      9  C   UNL     1      28.388  30.581  24.573  1.00  0.00     0.039 C 
ENDBRANCH   5   6
ENDBRANCH   4   5
ENDBRANCH   1   4
BRANCH   2  10
ATOM     10  C   UNL     1      26.649  22.904  26.166  1.00  0.00     0.035 C 
BRANCH  10  11
ATOM     11  C   UNL     1      25.147  23.071  25.920  1.00  0.00     0.079 C 
BRANCH  11  12
ATOM     12  C   UNL     1      24.381  22.959  27.212  1.00  0.00     0.130 C 
ATOM     13  O   UNL     1      24.989  22.947  28.272  1.00  0.00    -0.300 OA
ATOM     14  C   UNL     1      22.883  22.876  27.228  1.00  0.00     0.087 C 
ENDBRANCH  11  12
ENDBRANCH  10  11
ENDBRANCH   2  10
TORSDOF 6
ENDMDL
MODEL 4
REMARK VINA RESULT:    -3.468      2.554      7.429
REMARK INTER + INTRA:          -5.102
REMARK INTER:                  -4.281
REMARK INTRA:                  -0.821
REMARK UNBOUND:                -0.418
REMARK SMILES CC(=O)CCC=C(C)CCC=C(C)C
REMARK SMILES IDX 7 1 6 2 8 3 9 4 10 5 11 6 13 7 12 8 14 9 5 10 4 11 2 12 3 13
REMARK SMILES IDX 1 14
REMARK H PARENT
REMARK Flexibility Score: inf
ROOT
ATOM      1  C   UNL     1      27.711  24.740  24.969  1.00  0.00    -0.077 C 
ATOM      2  C   UNL     1      27.379  25.987  25.379  1.00  0.00    -0.028 C 
ATOM      3  C   UNL     1      29.071  24.145  25.243  1.00  0.00     0.039 C 
ENDROOT
BRANCH   1   4
ATOM      4  C   UNL     1      26.680  23.911  24.235  1.00  0.00     0.034 C 
BRANCH   4   5
ATOM      5  C   UNL     1      26.029  22.892  25.175  1.00  0.00     0.032 C 
BRANCH   5   6
ATOM      6  C   UNL     1      24.921  23.533  25.975  1.00  0.00    -0.028 C 
ATOM      7  C   UNL     1      26.118  23.258  28.157  1.00  0.00     0.039 C 
ATOM      8  C   UNL     1      24.936  23.681  27.317  1.00  0.00    -0.080 C 
ATOM      9  C   UNL     1      23.737  24.306  27.984  1.00  0.00     0.039 C 
ENDBRANCH   5   6
ENDBRANCH   4   5
ENDBRANCH   1   4
BRANCH   2  10
ATOM     10  C   UNL     1      28.319  26.930  26.089  1.00  0.00     0.035 C 
BRANCH  10  11
ATOM     11  C   UNL     1      28.405  28.269  25.350  1.00  0.00     0.079 C 
BRANCH  11  12
ATOM     12  C   UNL     1      28.834  29.366  26.288  1.00  0.00     0.130 C 
ATOM     13  O   UNL     1      28.967  29.123  27.478  1.00  0.00    -0.300 OA
ATOM     14  C   UNL     1      29.117  30.754  25.791  1.00  0.00     0.087 C 
ENDBRANCH  11  12
ENDBRANCH  10  11
ENDBRANCH   2  10
TORSDOF 6
ENDMDL
MODEL 5
REMARK VINA RESULT:    -3.427      3.585      7.206
REMARK INTER + INTRA:          -5.047
REMARK INTER:                  -4.542
REMARK INTRA:                  -0.505
REMARK UNBOUND:                -0.418
REMARK SMILES CC(=O)CCC=C(C)CCC=C(C)C
REMARK SMILES IDX 7 1 6 2 8 3 9 4 10 5 11 6 13 7 12 8 14 9 5 10 4 11 2 12 3 13
REMARK SMILES IDX 1 14
REMARK H PARENT
REMARK Flexibility Score: inf
ROOT
ATOM      1  C   UNL     1      25.854  23.878  26.306  1.00  0.00    -0.077 C 
ATOM      2  C   UNL     1      26.849  24.777  26.485  1.00  0.00    -0.028 C 
ATOM      3  C   UNL     1      25.498  23.342  24.940  1.00  0.00     0.039 C 
ENDROOT
BRANCH   1   4
ATOM      4  C   UNL     1      25.091  23.378  27.513  1.00  0.00     0.034 C 
BRANCH   4   5
ATOM      5  C   UNL     1      23.701  24.018  27.582  1.00  0.00     0.032 C 
BRANCH   5   6
ATOM      6  C   UNL     1      23.801  25.480  27.941  1.00  0.00    -0.028 C 
ATOM      7  C   UNL     1      21.319  25.814  27.950  1.00  0.00     0.039 C 
ATOM      8  C   UNL     1      22.741  26.305  28.084  1.00  0.00    -0.080 C 
ATOM      9  C   UNL     1      23.000  27.755  28.406  1.00  0.00     0.039 C 
ENDBRANCH   5   6
ENDBRANCH   4   5
ENDBRANCH   1   4
BRANCH   2  10
ATOM     10  C   UNL     1      27.664  25.382  25.368  1.00  0.00     0.035 C 
BRANCH  10  11
ATOM     11  C   UNL     1      28.881  26.127  25.926  1.00  0.00     0.079 C 
BRANCH  11  12
ATOM     12  C   UNL     1      28.557  27.581  26.149  1.00  0.00     0.130 C 
ATOM     13  O   UNL     1      29.123  28.194  27.042  1.00  0.00    -0.300 OA
ATOM     14  C   UNL     1      27.562  28.302  25.287  1.00  0.00     0.087 C 
ENDBRANCH  11  12
ENDBRANCH  10  11
ENDBRANCH   2  10
TORSDOF 6
ENDMDL
MODEL 6
REMARK VINA RESULT:    -3.344      3.397      7.316
REMARK INTER + INTRA:          -4.934
REMARK INTER:                  -4.368
REMARK INTRA:                  -0.566
REMARK UNBOUND:                -0.418
REMARK SMILES CC(=O)CCC=C(C)CCC=C(C)C
REMARK SMILES IDX 7 1 6 2 8 3 9 4 10 5 11 6 13 7 12 8 14 9 5 10 4 11 2 12 3 13
REMARK SMILES IDX 1 14
REMARK H PARENT
REMARK Flexibility Score: inf
ROOT
ATOM      1  C   UNL     1      26.121  24.060  25.612  1.00  0.00    -0.077 C 
ATOM      2  C   UNL     1      26.913  25.035  26.115  1.00  0.00    -0.028 C 
ATOM      3  C   UNL     1      26.250  23.582  24.185  1.00  0.00     0.039 C 
ENDROOT
BRANCH   1   4
ATOM      4  C   UNL     1      25.090  23.415  26.512  1.00  0.00     0.034 C 
BRANCH   4   5
ATOM      5  C   UNL     1      24.682  24.366  27.643  1.00  0.00     0.032 C 
BRANCH   5   6
ATOM      6  C   UNL     1      23.190  24.583  27.648  1.00  0.00    -0.028 C 
ATOM      7  C   UNL     1      23.381  26.999  28.280  1.00  0.00     0.039 C 
ATOM      8  C   UNL     1      22.590  25.754  27.956  1.00  0.00    -0.080 C 
ATOM      9  C   UNL     1      21.083  25.810  27.956  1.00  0.00     0.039 C 
ENDBRANCH   5   6
ENDBRANCH   4   5
ENDBRANCH   1   4
BRANCH   2  10
ATOM     10  C   UNL     1      27.954  25.784  25.320  1.00  0.00     0.035 C 
BRANCH  10  11
ATOM     11  C   UNL     1      28.688  26.796  26.204  1.00  0.00     0.079 C 
BRANCH  11  12
ATOM     12  C   UNL     1      28.183  28.192  25.946  1.00  0.00     0.130 C 
ATOM     13  O   UNL     1      27.298  28.368  25.123  1.00  0.00    -0.300 OA
ATOM     14  C   UNL     1      28.734  29.373  26.690  1.00  0.00     0.087 C 
ENDBRANCH  11  12
ENDBRANCH  10  11
ENDBRANCH   2  10
TORSDOF 6
ENDMDL
MODEL 7
REMARK VINA RESULT:    -3.151      2.046      3.935
REMARK INTER + INTRA:          -4.674
REMARK INTER:                  -4.718
REMARK INTRA:                   0.045
REMARK UNBOUND:                -0.418
REMARK SMILES CC(=O)CCC=C(C)CCC=C(C)C
REMARK SMILES IDX 7 1 6 2 8 3 9 4 10 5 11 6 13 7 12 8 14 9 5 10 4 11 2 12 3 13
REMARK SMILES IDX 1 14
REMARK H PARENT
REMARK Flexibility Score: inf
ROOT
ATOM      1  C   UNL     1      28.244  24.875  25.711  1.00  0.00    -0.077 C 
ATOM      2  C   UNL     1      27.152  24.743  26.498  1.00  0.00    -0.028 C 
ATOM      3  C   UNL     1      28.833  23.706  24.958  1.00  0.00     0.039 C 
ENDROOT
BRANCH   1   4
ATOM      4  C   UNL     1      28.881  26.239  25.563  1.00  0.00     0.034 C 
BRANCH   4   5
ATOM      5  C   UNL     1      27.824  27.346  25.639  1.00  0.00     0.032 C 
BRANCH   5   6
ATOM      6  C   UNL     1      28.471  28.708  25.603  1.00  0.00    -0.028 C 
ATOM      7  C   UNL     1      26.917  29.577  23.842  1.00  0.00     0.039 C 
ATOM      8  C   UNL     1      28.091  29.712  24.783  1.00  0.00    -0.080 C 
ATOM      9  C   UNL     1      28.859  31.008  24.831  1.00  0.00     0.039 C 
ENDBRANCH   5   6
ENDBRANCH   4   5
ENDBRANCH   1   4
BRANCH   2  10
ATOM     10  C   UNL     1      26.442  23.438  26.760  1.00  0.00     0.035 C 
BRANCH  10  11
ATOM     11  C   UNL     1      24.974  23.522  26.327  1.00  0.00     0.079 C 
BRANCH  11  12
ATOM     12  C   UNL     1      24.816  23.074  24.897  1.00  0.00     0.130 C 
ATOM     13  O   UNL     1      23.697  22.875  24.450  1.00  0.00    -0.300 OA
ATOM     14  C   UNL     1      26.005  22.880  24.003  1.00  0.00     0.087 C 
ENDBRANCH  11  12
ENDBRANCH  10  11
ENDBRANCH   2  10
TORSDOF 6
ENDMDL
MODEL 8
REMARK VINA RESULT:    -3.091      3.515      5.965
REMARK INTER + INTRA:          -4.594
REMARK INTER:                  -4.098
REMARK INTRA:                  -0.496
REMARK UNBOUND:                -0.418
REMARK SMILES CC(=O)CCC=C(C)CCC=C(C)C
REMARK SMILES IDX 7 1 6 2 8 3 9 4 10 5 11 6 13 7 12 8 14 9 5 10 4 11 2 12 3 13
REMARK SMILES IDX 1 14
REMARK H PARENT
REMARK Flexibility Score: inf
ROOT
ATOM      1  C   UNL     1      26.230  23.863  26.890  1.00  0.00    -0.077 C 
ATOM      2  C   UNL     1      25.099  24.605  26.891  1.00  0.00    -0.028 C 
ATOM      3  C   UNL     1      26.555  22.900  28.008  1.00  0.00     0.039 C 
ENDROOT
BRANCH   1   4
ATOM      4  C   UNL     1      27.187  23.985  25.725  1.00  0.00     0.034 C 
BRANCH   4   5
ATOM      5  C   UNL     1      28.153  25.157  25.932  1.00  0.00     0.032 C 
BRANCH   5   6
ATOM      6  C   UNL     1      27.587  26.427  25.348  1.00  0.00    -0.028 C 
ATOM      7  C   UNL     1      29.123  27.906  26.661  1.00  0.00     0.039 C 
ATOM      8  C   UNL     1      27.995  27.670  25.684  1.00  0.00    -0.080 C 
ATOM      9  C   UNL     1      27.307  28.849  25.045  1.00  0.00     0.039 C 
ENDBRANCH   5   6
ENDBRANCH   4   5
ENDBRANCH   1   4
BRANCH   2  10
ATOM     10  C   UNL     1      24.079  24.605  28.004  1.00  0.00     0.035 C 
BRANCH  10  11
ATOM     11  C   UNL     1      22.658  24.691  27.438  1.00  0.00     0.079 C 
BRANCH  11  12
ATOM     12  C   UNL     1      21.959  25.926  27.944  1.00  0.00     0.130 C 
ATOM     13  O   UNL     1      20.746  25.913  28.088  1.00  0.00    -0.300 OA
ATOM     14  C   UNL     1      22.722  27.171  28.289  1.00  0.00     0.087 C 
ENDBRANCH  11  12
ENDBRANCH  10  11
ENDBRANCH   2  10
TORSDOF 6
ENDMDL
MODEL 9
REMARK VINA RESULT:    -2.118      4.312      7.422
REMARK INTER + INTRA:          -3.279
REMARK INTER:                  -2.870
REMARK INTRA:                  -0.409
REMARK UNBOUND:                -0.418
REMARK SMILES CC(=O)CCC=C(C)CCC=C(C)C
REMARK SMILES IDX 7 1 6 2 8 3 9 4 10 5 11 6 13 7 12 8 14 9 5 10 4 11 2 12 3 13
REMARK SMILES IDX 1 14
REMARK H PARENT
REMARK Flexibility Score: inf
ROOT
ATOM      1  C   UNL     1      24.112  23.995  27.634  1.00  0.00    -0.077 C 
ATOM      2  C   UNL     1      23.752  25.240  28.022  1.00  0.00    -0.028 C 
ATOM      3  C   UNL     1      23.170  23.092  26.873  1.00  0.00     0.039 C 
ENDROOT
BRANCH   1   4
ATOM      4  C   UNL     1      25.506  23.501  27.952  1.00  0.00     0.034 C 
BRANCH   4   5
ATOM      5  C   UNL     1      26.416  23.608  26.723  1.00  0.00     0.032 C 
BRANCH   5   6
ATOM      6  C   UNL     1      26.765  25.047  26.439  1.00  0.00    -0.028 C 
ATOM      7  C   UNL     1      28.762  24.457  25.048  1.00  0.00     0.039 C 
ATOM      8  C   UNL     1      27.830  25.445  25.709  1.00  0.00    -0.080 C 
ATOM      9  C   UNL     1      28.075  26.923  25.543  1.00  0.00     0.039 C 
ENDBRANCH   5   6
ENDBRANCH   4   5
ENDBRANCH   1   4
BRANCH   2  10
ATOM     10  C   UNL     1      22.387  25.843  27.801  1.00  0.00     0.035 C 
BRANCH  10  11
ATOM     11  C   UNL     1      22.135  26.993  28.781  1.00  0.00     0.079 C 
BRANCH  11  12
ATOM     12  C   UNL     1      23.074  28.138  28.509  1.00  0.00     0.130 C 
ATOM     13  O   UNL     1      23.266  28.498  27.358  1.00  0.00    -0.300 OA
ATOM     14  C   UNL     1      23.773  28.858  29.625  1.00  0.00     0.087 C 
ENDBRANCH  11  12
ENDBRANCH  10  11
ENDBRANCH   2  10
TORSDOF 6
ENDMDL
