MODEL 1
REMARK VINA RESULT:    -5.784      0.000      0.000
REMARK INTER + INTRA:          -7.856
REMARK INTER:                  -7.136
REMARK INTRA:                  -0.720
REMARK UNBOUND:                -0.720
REMARK SMILES CC(C)=CCC[C@@H](C)c1ccc(C)cc1
REMARK SMILES IDX 6 1 7 2 8 3 9 4 13 5 12 6 11 7 14 8 10 9 15 10 5 11 4 12
REMARK SMILES IDX 2 13 1 14 3 15
REMARK H PARENT
REMARK Flexibility Score: inf
ROOT
ATOM      1  C   UNL     1      20.154  46.333   4.970  1.00  0.00     0.012 C 
ENDROOT
BRANCH   1   2
ATOM      2  C   UNL     1      21.192  45.712   4.000  1.00  0.00     0.016 C 
ATOM      3  C   UNL     1      20.647  44.500   3.223  1.00  0.00     0.013 C 
BRANCH   2   4
ATOM      4  C   UNL     1      21.870  46.752   3.119  1.00  0.00    -0.045 A 
ATOM      5  C   UNL     1      23.872  49.788   0.784  1.00  0.00     0.044 C 
ATOM      6  C   UNL     1      23.183  48.716   1.573  1.00  0.00    -0.051 A 
ATOM      7  C   UNL     1      21.803  48.509   1.431  1.00  0.00     0.004 A 
ATOM      8  C   UNL     1      23.896  47.963   2.517  1.00  0.00     0.004 A 
ATOM      9  C   UNL     1      21.152  47.536   2.194  1.00  0.00     0.004 A 
ATOM     10  C   UNL     1      23.246  46.991   3.281  1.00  0.00     0.004 A 
ENDBRANCH   2   4
ENDBRANCH   1   2
BRANCH   1  11
ATOM     11  C   UNL     1      20.703  46.922   6.286  1.00  0.00     0.028 C 
BRANCH  11  12
ATOM     12  C   UNL     1      20.964  48.406   6.214  1.00  0.00    -0.028 C 
ATOM     13  C   UNL     1      21.191  49.204   7.283  1.00  0.00    -0.080 C 
ATOM     14  C   UNL     1      21.421  50.673   7.042  1.00  0.00     0.039 C 
ATOM     15  C   UNL     1      21.258  48.663   8.692  1.00  0.00     0.039 C 
ENDBRANCH  11  12
ENDBRANCH   1  11
TORSDOF 4
ENDMDL
MODEL 2
REMARK VINA RESULT:    -5.762      0.106      1.254
REMARK INTER + INTRA:          -7.829
REMARK INTER:                  -7.123
REMARK INTRA:                  -0.706
REMARK UNBOUND:                -0.720
REMARK SMILES CC(C)=CCC[C@@H](C)c1ccc(C)cc1
REMARK SMILES IDX 6 1 7 2 8 3 9 4 13 5 12 6 11 7 14 8 10 9 15 10 5 11 4 12
REMARK SMILES IDX 2 13 1 14 3 15
REMARK H PARENT
REMARK Flexibility Score: inf
ROOT
ATOM      1  C   UNL     1      20.167  46.275   5.046  1.00  0.00     0.012 C 
ENDROOT
BRANCH   1   2
ATOM      2  C   UNL     1      21.202  45.682   4.055  1.00  0.00     0.016 C 
ATOM      3  C   UNL     1      20.657  44.492   3.247  1.00  0.00     0.013 C 
BRANCH   2   4
ATOM      4  C   UNL     1      21.876  46.747   3.200  1.00  0.00    -0.045 A 
ATOM      5  C   UNL     1      23.712  49.683   0.614  1.00  0.00     0.044 C 
ATOM      6  C   UNL     1      23.070  48.685   1.530  1.00  0.00    -0.051 A 
ATOM      7  C   UNL     1      23.845  47.979   2.461  1.00  0.00     0.004 A 
ATOM      8  C   UNL     1      21.703  48.394   1.413  1.00  0.00     0.004 A 
ATOM      9  C   UNL     1      23.255  47.021   3.290  1.00  0.00     0.004 A 
ATOM     10  C   UNL     1      21.113  47.435   2.240  1.00  0.00     0.004 A 
ENDBRANCH   2   4
ENDBRANCH   1   2
BRANCH   1  11
ATOM     11  C   UNL     1      20.729  46.908   6.336  1.00  0.00     0.028 C 
BRANCH  11  12
ATOM     12  C   UNL     1      20.929  48.399   6.233  1.00  0.00    -0.028 C 
ATOM     13  C   UNL     1      21.183  49.219   7.278  1.00  0.00    -0.080 C 
ATOM     14  C   UNL     1      21.344  50.693   7.008  1.00  0.00     0.039 C 
ATOM     15  C   UNL     1      21.347  48.700   8.688  1.00  0.00     0.039 C 
ENDBRANCH  11  12
ENDBRANCH   1  11
TORSDOF 4
ENDMDL
MODEL 3
REMARK VINA RESULT:    -5.712      0.999      5.518
REMARK INTER + INTRA:          -7.767
REMARK INTER:                  -7.146
REMARK INTRA:                  -0.621
REMARK UNBOUND:                -0.720
REMARK SMILES CC(C)=CCC[C@@H](C)c1ccc(C)cc1
REMARK SMILES IDX 6 1 7 2 8 3 9 4 13 5 12 6 11 7 14 8 10 9 15 10 5 11 4 12
REMARK SMILES IDX 2 13 1 14 3 15
REMARK H PARENT
REMARK Flexibility Score: inf
ROOT
ATOM      1  C   UNL     1      21.402  47.738   2.720  1.00  0.00     0.012 C 
ENDROOT
BRANCH   1   2
ATOM      2  C   UNL     1      20.694  46.711   3.641  1.00  0.00     0.016 C 
ATOM      3  C   UNL     1      21.157  45.263   3.403  1.00  0.00     0.013 C 
BRANCH   2   4
ATOM      4  C   UNL     1      20.706  47.128   5.105  1.00  0.00    -0.045 A 
ATOM      5  C   UNL     1      20.922  48.385   9.234  1.00  0.00     0.044 C 
ATOM      6  C   UNL     1      20.820  47.956   7.801  1.00  0.00    -0.051 A 
ATOM      7  C   UNL     1      20.507  46.627   7.482  1.00  0.00     0.004 A 
ATOM      8  C   UNL     1      21.110  48.860   6.770  1.00  0.00     0.004 A 
ATOM      9  C   UNL     1      20.449  46.216   6.148  1.00  0.00     0.004 A 
ATOM     10  C   UNL     1      21.053  48.450   5.435  1.00  0.00     0.004 A 
ENDBRANCH   2   4
ENDBRANCH   1   2
BRANCH   1  11
ATOM     11  C   UNL     1      22.829  47.382   2.254  1.00  0.00     0.028 C 
BRANCH  11  12
ATOM     12  C   UNL     1      23.770  48.561   2.254  1.00  0.00    -0.028 C 
ATOM     13  C   UNL     1      23.972  49.389   1.204  1.00  0.00    -0.080 C 
ATOM     14  C   UNL     1      24.961  50.515   1.362  1.00  0.00     0.039 C 
ATOM     15  C   UNL     1      23.215  49.242  -0.095  1.00  0.00     0.039 C 
ENDBRANCH  11  12
ENDBRANCH   1  11
TORSDOF 4
ENDMDL
MODEL 4
REMARK VINA RESULT:    -5.711      1.266      2.344
REMARK INTER + INTRA:          -7.766
REMARK INTER:                  -7.226
REMARK INTRA:                  -0.540
REMARK UNBOUND:                -0.720
REMARK SMILES CC(C)=CCC[C@@H](C)c1ccc(C)cc1
REMARK SMILES IDX 6 1 7 2 8 3 9 4 13 5 12 6 11 7 14 8 10 9 15 10 5 11 4 12
REMARK SMILES IDX 2 13 1 14 3 15
REMARK H PARENT
REMARK Flexibility Score: inf
ROOT
ATOM      1  C   UNL     1      20.107  46.328   4.999  1.00  0.00     0.012 C 
ENDROOT
BRANCH   1   2
ATOM      2  C   UNL     1      21.186  45.738   4.054  1.00  0.00     0.016 C 
ATOM      3  C   UNL     1      20.685  44.534   3.238  1.00  0.00     0.013 C 
BRANCH   2   4
ATOM      4  C   UNL     1      21.880  46.803   3.217  1.00  0.00    -0.045 A 
ATOM      5  C   UNL     1      23.773  49.743   0.676  1.00  0.00     0.044 C 
ATOM      6  C   UNL     1      23.112  48.743   1.577  1.00  0.00    -0.051 A 
ATOM      7  C   UNL     1      23.872  48.012   2.501  1.00  0.00     0.004 A 
ATOM      8  C   UNL     1      21.741  48.476   1.451  1.00  0.00     0.004 A 
ATOM      9  C   UNL     1      23.263  47.052   3.315  1.00  0.00     0.004 A 
ATOM     10  C   UNL     1      21.132  47.516   2.263  1.00  0.00     0.004 A 
ENDBRANCH   2   4
ENDBRANCH   1   2
BRANCH   1  11
ATOM     11  C   UNL     1      20.606  46.925   6.331  1.00  0.00     0.028 C 
BRANCH  11  12
ATOM     12  C   UNL     1      20.633  45.927   7.463  1.00  0.00    -0.028 C 
ATOM     13  C   UNL     1      20.824  46.239   8.764  1.00  0.00    -0.080 C 
ATOM     14  C   UNL     1      20.838  45.120   9.773  1.00  0.00     0.039 C 
ATOM     15  C   UNL     1      20.986  47.666   9.236  1.00  0.00     0.039 C 
ENDBRANCH  11  12
ENDBRANCH   1  11
TORSDOF 4
ENDMDL
MODEL 5
REMARK VINA RESULT:    -5.556      1.561      6.166
REMARK INTER + INTRA:          -7.574
REMARK INTER:                  -6.745
REMARK INTRA:                  -0.830
REMARK UNBOUND:                -0.720
REMARK SMILES CC(C)=CCC[C@@H](C)c1ccc(C)cc1
REMARK SMILES IDX 6 1 7 2 8 3 9 4 13 5 12 6 11 7 14 8 10 9 15 10 5 11 4 12
REMARK SMILES IDX 2 13 1 14 3 15
REMARK H PARENT
REMARK Flexibility Score: inf
ROOT
ATOM      1  C   UNL     1      20.405  46.436   4.493  1.00  0.00     0.012 C 
ENDROOT
BRANCH   1   2
ATOM      2  C   UNL     1      20.969  47.586   5.366  1.00  0.00     0.016 C 
ATOM      3  C   UNL     1      20.461  48.975   4.943  1.00  0.00     0.013 C 
BRANCH   2   4
ATOM      4  C   UNL     1      20.837  47.312   6.858  1.00  0.00    -0.045 A 
ATOM      5  C   UNL     1      20.296  46.429  11.054  1.00  0.00     0.044 C 
ATOM      6  C   UNL     1      20.512  46.733   9.602  1.00  0.00    -0.051 A 
ATOM      7  C   UNL     1      20.675  48.057   9.173  1.00  0.00     0.004 A 
ATOM      8  C   UNL     1      20.476  45.702   8.652  1.00  0.00     0.004 A 
ATOM      9  C   UNL     1      20.837  48.346   7.815  1.00  0.00     0.004 A 
ATOM     10  C   UNL     1      20.638  45.989   7.294  1.00  0.00     0.004 A 
ENDBRANCH   2   4
ENDBRANCH   1   2
BRANCH   1  11
ATOM     11  C   UNL     1      21.363  45.824   3.451  1.00  0.00     0.028 C 
BRANCH  11  12
ATOM     12  C   UNL     1      21.584  46.708   2.249  1.00  0.00    -0.028 C 
ATOM     13  C   UNL     1      22.688  47.459   2.033  1.00  0.00    -0.080 C 
ATOM     14  C   UNL     1      22.747  48.301   0.785  1.00  0.00     0.039 C 
ATOM     15  C   UNL     1      23.867  47.448   2.978  1.00  0.00     0.039 C 
ENDBRANCH  11  12
ENDBRANCH   1  11
TORSDOF 4
ENDMDL
MODEL 6
REMARK VINA RESULT:    -5.487      2.112      4.670
REMARK INTER + INTRA:          -7.490
REMARK INTER:                  -6.389
REMARK INTRA:                  -1.101
REMARK UNBOUND:                -0.720
REMARK SMILES CC(C)=CCC[C@@H](C)c1ccc(C)cc1
REMARK SMILES IDX 6 1 7 2 8 3 9 4 13 5 12 6 11 7 14 8 10 9 15 10 5 11 4 12
REMARK SMILES IDX 2 13 1 14 3 15
REMARK H PARENT
REMARK Flexibility Score: inf
ROOT
ATOM      1  C   UNL     1      22.420  49.375   8.074  1.00  0.00     0.012 C 
ENDROOT
BRANCH   1   2
ATOM      2  C   UNL     1      21.058  49.373   7.334  1.00  0.00     0.016 C 
ATOM      3  C   UNL     1      20.651  50.760   6.807  1.00  0.00     0.013 C 
BRANCH   2   4
ATOM      4  C   UNL     1      20.956  48.266   6.293  1.00  0.00    -0.045 A 
ATOM      5  C   UNL     1      20.777  45.009   3.458  1.00  0.00     0.044 C 
ATOM      6  C   UNL     1      20.812  46.145   4.436  1.00  0.00    -0.051 A 
ATOM      7  C   UNL     1      21.236  47.417   4.026  1.00  0.00     0.004 A 
ATOM      8  C   UNL     1      20.493  45.928   5.784  1.00  0.00     0.004 A 
ATOM      9  C   UNL     1      21.307  48.468   4.944  1.00  0.00     0.004 A 
ATOM     10  C   UNL     1      20.565  46.979   6.703  1.00  0.00     0.004 A 
ENDBRANCH   2   4
ENDBRANCH   1   2
BRANCH   1  11
ATOM     11  C   UNL     1      22.373  49.259   9.611  1.00  0.00     0.028 C 
BRANCH  11  12
ATOM     12  C   UNL     1      21.205  48.447  10.115  1.00  0.00    -0.028 C 
ATOM     13  C   UNL     1      21.218  47.108  10.304  1.00  0.00    -0.080 C 
ATOM     14  C   UNL     1      19.960  46.444  10.800  1.00  0.00     0.039 C 
ATOM     15  C   UNL     1      22.456  46.274  10.071  1.00  0.00     0.039 C 
ENDBRANCH  11  12
ENDBRANCH   1  11
TORSDOF 4
ENDMDL
MODEL 7
REMARK VINA RESULT:    -5.142      1.763      6.636
REMARK INTER + INTRA:          -7.064
REMARK INTER:                  -6.570
REMARK INTRA:                  -0.494
REMARK UNBOUND:                -0.720
REMARK SMILES CC(C)=CCC[C@@H](C)c1ccc(C)cc1
REMARK SMILES IDX 6 1 7 2 8 3 9 4 13 5 12 6 11 7 14 8 10 9 15 10 5 11 4 12
REMARK SMILES IDX 2 13 1 14 3 15
REMARK H PARENT
REMARK Flexibility Score: inf
ROOT
ATOM      1  C   UNL     1      22.012  48.787   5.386  1.00  0.00     0.012 C 
ENDROOT
BRANCH   1   2
ATOM      2  C   UNL     1      21.453  49.518   6.634  1.00  0.00     0.016 C 
ATOM      3  C   UNL     1      20.247  50.421   6.320  1.00  0.00     0.013 C 
BRANCH   2   4
ATOM      4  C   UNL     1      21.230  48.582   7.813  1.00  0.00    -0.045 A 
ATOM      5  C   UNL     1      20.408  45.897  11.099  1.00  0.00     0.044 C 
ATOM      6  C   UNL     1      20.719  46.817   9.957  1.00  0.00    -0.051 A 
ATOM      7  C   UNL     1      21.249  48.092  10.201  1.00  0.00     0.004 A 
ATOM      8  C   UNL     1      20.412  46.441   8.642  1.00  0.00     0.004 A 
ATOM      9  C   UNL     1      21.504  48.966   9.141  1.00  0.00     0.004 A 
ATOM     10  C   UNL     1      20.666  47.315   7.581  1.00  0.00     0.004 A 
ENDBRANCH   2   4
ENDBRANCH   1   2
BRANCH   1  11
ATOM     11  C   UNL     1      20.992  48.411   4.290  1.00  0.00     0.028 C 
BRANCH  11  12
ATOM     12  C   UNL     1      20.726  46.929   4.203  1.00  0.00    -0.028 C 
ATOM     13  C   UNL     1      21.027  46.151   3.139  1.00  0.00    -0.080 C 
ATOM     14  C   UNL     1      20.682  44.685   3.205  1.00  0.00     0.039 C 
ATOM     15  C   UNL     1      21.727  46.695   1.915  1.00  0.00     0.039 C 
ENDBRANCH  11  12
ENDBRANCH   1  11
TORSDOF 4
ENDMDL
MODEL 8
REMARK VINA RESULT:    -5.135      1.579      6.146
REMARK INTER + INTRA:          -7.055
REMARK INTER:                  -6.388
REMARK INTRA:                  -0.668
REMARK UNBOUND:                -0.720
REMARK SMILES CC(C)=CCC[C@@H](C)c1ccc(C)cc1
REMARK SMILES IDX 6 1 7 2 8 3 9 4 13 5 12 6 11 7 14 8 10 9 15 10 5 11 4 12
REMARK SMILES IDX 2 13 1 14 3 15
REMARK H PARENT
REMARK Flexibility Score: inf
ROOT
ATOM      1  C   UNL     1      20.617  47.004   4.389  1.00  0.00     0.012 C 
ENDROOT
BRANCH   1   2
ATOM      2  C   UNL     1      21.043  47.983   5.514  1.00  0.00     0.016 C 
ATOM      3  C   UNL     1      20.463  49.397   5.339  1.00  0.00     0.013 C 
BRANCH   2   4
ATOM      4  C   UNL     1      20.838  47.402   6.907  1.00  0.00    -0.045 A 
ATOM      5  C   UNL     1      20.419  45.854  10.920  1.00  0.00     0.044 C 
ATOM      6  C   UNL     1      20.536  46.393   9.526  1.00  0.00    -0.051 A 
ATOM      7  C   UNL     1      20.575  45.519   8.431  1.00  0.00     0.004 A 
ATOM      8  C   UNL     1      20.683  47.771   9.310  1.00  0.00     0.004 A 
ATOM      9  C   UNL     1      20.723  46.017   7.133  1.00  0.00     0.004 A 
ATOM     10  C   UNL     1      20.833  48.270   8.013  1.00  0.00     0.004 A 
ENDBRANCH   2   4
ENDBRANCH   1   2
BRANCH   1  11
ATOM     11  C   UNL     1      21.753  46.322   3.600  1.00  0.00     0.028 C 
BRANCH  11  12
ATOM     12  C   UNL     1      22.872  47.262   3.226  1.00  0.00    -0.028 C 
ATOM     13  C   UNL     1      22.777  48.252   2.310  1.00  0.00    -0.080 C 
ATOM     14  C   UNL     1      23.995  49.097   2.041  1.00  0.00     0.039 C 
ATOM     15  C   UNL     1      21.486  48.557   1.585  1.00  0.00     0.039 C 
ENDBRANCH  11  12
ENDBRANCH   1  11
TORSDOF 4
ENDMDL
MODEL 9
REMARK VINA RESULT:    -5.105      2.014      3.094
REMARK INTER + INTRA:          -7.019
REMARK INTER:                  -6.526
REMARK INTRA:                  -0.492
REMARK UNBOUND:                -0.720
REMARK SMILES CC(C)=CCC[C@@H](C)c1ccc(C)cc1
REMARK SMILES IDX 6 1 7 2 8 3 9 4 13 5 12 6 11 7 14 8 10 9 15 10 5 11 4 12
REMARK SMILES IDX 2 13 1 14 3 15
REMARK H PARENT
REMARK Flexibility Score: inf
ROOT
ATOM      1  C   UNL     1      20.783  46.234   6.136  1.00  0.00     0.012 C 
ENDROOT
BRANCH   1   2
ATOM      2  C   UNL     1      20.750  47.637   5.478  1.00  0.00     0.016 C 
ATOM      3  C   UNL     1      21.203  48.763   6.424  1.00  0.00     0.013 C 
BRANCH   2   4
ATOM      4  C   UNL     1      21.433  47.665   4.117  1.00  0.00    -0.045 A 
ATOM      5  C   UNL     1      23.371  47.943   0.264  1.00  0.00     0.044 C 
ATOM      6  C   UNL     1      22.715  47.824   1.607  1.00  0.00    -0.051 A 
ATOM      7  C   UNL     1      21.545  47.067   1.757  1.00  0.00     0.004 A 
ATOM      8  C   UNL     1      23.223  48.529   2.707  1.00  0.00     0.004 A 
ATOM      9  C   UNL     1      20.909  46.986   3.000  1.00  0.00     0.004 A 
ATOM     10  C   UNL     1      22.588  48.450   3.950  1.00  0.00     0.004 A 
ENDBRANCH   2   4
ENDBRANCH   1   2
BRANCH   1  11
ATOM     11  C   UNL     1      20.131  46.107   7.528  1.00  0.00     0.028 C 
BRANCH  11  12
ATOM     12  C   UNL     1      20.972  45.338   8.516  1.00  0.00    -0.028 C 
ATOM     13  C   UNL     1      21.071  45.622   9.835  1.00  0.00    -0.080 C 
ATOM     14  C   UNL     1      21.969  44.762  10.686  1.00  0.00     0.039 C 
ATOM     15  C   UNL     1      20.286  46.742  10.478  1.00  0.00     0.039 C 
ENDBRANCH  11  12
ENDBRANCH   1  11
TORSDOF 4
ENDMDL
