MODEL 1
REMARK VINA RESULT:     1.094      0.000      0.000
REMARK INTER + INTRA:           3.290
REMARK INTER:                   2.502
REMARK INTRA:                   0.789
REMARK UNBOUND:                 0.789
REMARK SMILES CCCCCCCCCCCCCCCCCCCCCCCC(=O)[O-]
REMARK SMILES IDX 13 1 14 2 15 3 16 4 17 5 18 6 19 7 20 8 21 9 22 10 23 11
REMARK SMILES IDX 24 12 25 13 26 14 12 15 11 16 10 17 9 18 8 19 7 20 6 21 5 22
REMARK SMILES IDX 4 23 3 24 2 25 1 26
REMARK H PARENT
REMARK Flexibility Score: inf
ROOT
ATOM      1  C   UNL     1       8.416  -5.510  -7.388  1.00  0.00     0.000 C 
ENDROOT
BRANCH   1   2
ATOM      2  C   UNL     1       9.014  -4.826  -8.630  1.00  0.00     0.000 C 
BRANCH   2   3
ATOM      3  C   UNL     1      10.065  -5.699  -9.336  1.00  0.00     0.000 C 
BRANCH   3   4
ATOM      4  C   UNL     1       9.509  -7.076  -9.739  1.00  0.00     0.000 C 
BRANCH   4   5
ATOM      5  C   UNL     1      10.618  -8.113  -9.985  1.00  0.00     0.000 C 
BRANCH   5   6
ATOM      6  C   UNL     1      11.987  -7.661  -9.448  1.00  0.00     0.000 C 
BRANCH   6   7
ATOM      7  C   UNL     1      12.123  -7.856  -7.930  1.00  0.00     0.000 C 
BRANCH   7   8
ATOM      8  C   UNL     1      12.084  -6.524  -7.157  1.00  0.00     0.000 C 
BRANCH   8   9
ATOM      9  C   UNL     1      12.071  -6.721  -5.633  1.00  0.00     0.000 C 
BRANCH   9  10
ATOM     10  C   UNL     1      11.223  -5.665  -4.906  1.00  0.00     0.006 C 
BRANCH  10  11
ATOM     11  C   UNL     1      12.001  -5.038  -3.744  1.00  0.00     0.053 C 
BRANCH  11  12
ATOM     12  C   UNL     1      11.166  -5.008  -2.503  1.00  0.00     0.041 C 
ATOM     13  O   UNL     1       9.908  -5.040  -2.583  1.00  0.00    -0.550 OA
ATOM     14  O   UNL     1      11.776  -4.985  -1.255  1.00  0.00    -0.550 OA
ENDBRANCH  11  12
ENDBRANCH  10  11
ENDBRANCH   9  10
ENDBRANCH   8   9
ENDBRANCH   7   8
ENDBRANCH   6   7
ENDBRANCH   5   6
ENDBRANCH   4   5
ENDBRANCH   3   4
ENDBRANCH   2   3
ENDBRANCH   1   2
BRANCH   1  15
ATOM     15  C   UNL     1       7.219  -4.725  -6.811  1.00  0.00     0.000 C 
BRANCH  15  16
ATOM     16  C   UNL     1       6.259  -4.184  -7.886  1.00  0.00     0.000 C 
BRANCH  16  17
ATOM     17  C   UNL     1       6.988  -3.496  -9.048  1.00  0.00     0.000 C 
BRANCH  17  18
ATOM     18  C   UNL     1       6.194  -2.284  -9.554  1.00  0.00    -0.000 C 
BRANCH  18  19
ATOM     19  C   UNL     1       4.716  -2.314  -9.128  1.00  0.00    -0.000 C 
BRANCH  19  20
ATOM     20  C   UNL     1       3.761  -3.004 -10.120  1.00  0.00    -0.000 C 
BRANCH  20  21
ATOM     21  C   UNL     1       3.898  -4.536 -10.114  1.00  0.00    -0.000 C 
BRANCH  21  22
ATOM     22  C   UNL     1       2.578  -5.249  -9.774  1.00  0.00    -0.000 C 
BRANCH  22  23
ATOM     23  C   UNL     1       2.543  -6.750 -10.125  1.00  0.00    -0.000 C 
BRANCH  23  24
ATOM     24  C   UNL     1       1.145  -7.388  -9.975  1.00  0.00    -0.000 C 
BRANCH  24  25
ATOM     25  C   UNL     1       0.845  -7.792  -8.524  1.00  0.00    -0.003 C 
ATOM     26  C   UNL     1       0.843  -6.574  -7.603  1.00  0.00     0.004 C 
ENDBRANCH  24  25
ENDBRANCH  23  24
ENDBRANCH  22  23
ENDBRANCH  21  22
ENDBRANCH  20  21
ENDBRANCH  19  20
ENDBRANCH  18  19
ENDBRANCH  17  18
ENDBRANCH  16  17
ENDBRANCH  15  16
ENDBRANCH   1  15
TORSDOF 22
ENDMDL
MODEL 2
REMARK VINA RESULT:     1.408      5.590     11.693
REMARK INTER + INTRA:           4.007
REMARK INTER:                   5.260
REMARK INTRA:                  -1.253
REMARK UNBOUND:                 0.789
REMARK SMILES CCCCCCCCCCCCCCCCCCCCCCCC(=O)[O-]
REMARK SMILES IDX 13 1 14 2 15 3 16 4 17 5 18 6 19 7 20 8 21 9 22 10 23 11
REMARK SMILES IDX 24 12 25 13 26 14 12 15 11 16 10 17 9 18 8 19 7 20 6 21 5 22
REMARK SMILES IDX 4 23 3 24 2 25 1 26
REMARK H PARENT
REMARK Flexibility Score: inf
ROOT
ATOM      1  C   UNL     1       2.895  -4.339 -10.001  1.00  0.00     0.000 C 
ENDROOT
BRANCH   1   2
ATOM      2  C   UNL     1       2.951  -5.873  -9.899  1.00  0.00     0.000 C 
BRANCH   2   3
ATOM      3  C   UNL     1       1.574  -6.528 -10.095  1.00  0.00     0.000 C 
BRANCH   3   4
ATOM      4  C   UNL     1       1.107  -7.298  -8.848  1.00  0.00     0.000 C 
BRANCH   4   5
ATOM      5  C   UNL     1       0.582  -6.370  -7.741  1.00  0.00     0.000 C 
BRANCH   5   6
ATOM      6  C   UNL     1      -0.717  -6.884  -7.097  1.00  0.00     0.000 C 
BRANCH   6   7
ATOM      7  C   UNL     1      -1.612  -5.747  -6.579  1.00  0.00     0.000 C 
BRANCH   7   8
ATOM      8  C   UNL     1      -2.868  -6.266  -5.854  1.00  0.00     0.000 C 
BRANCH   8   9
ATOM      9  C   UNL     1      -4.159  -6.024  -6.652  1.00  0.00     0.000 C 
BRANCH   9  10
ATOM     10  C   UNL     1      -5.405  -6.582  -5.947  1.00  0.00     0.006 C 
BRANCH  10  11
ATOM     11  C   UNL     1      -6.661  -5.800  -6.348  1.00  0.00     0.053 C 
BRANCH  11  12
ATOM     12  C   UNL     1      -6.682  -4.457  -5.688  1.00  0.00     0.041 C 
ATOM     13  O   UNL     1      -6.426  -4.351  -4.457  1.00  0.00    -0.550 OA
ATOM     14  O   UNL     1      -6.944  -3.318  -6.438  1.00  0.00    -0.550 OA
ENDBRANCH  11  12
ENDBRANCH  10  11
ENDBRANCH   9  10
ENDBRANCH   8   9
ENDBRANCH   7   8
ENDBRANCH   6   7
ENDBRANCH   5   6
ENDBRANCH   4   5
ENDBRANCH   3   4
ENDBRANCH   2   3
ENDBRANCH   1   2
BRANCH   1  15
ATOM     15  C   UNL     1       4.222  -3.678  -9.573  1.00  0.00     0.000 C 
BRANCH  15  16
ATOM     16  C   UNL     1       5.472  -4.388 -10.122  1.00  0.00     0.000 C 
BRANCH  16  17
ATOM     17  C   UNL     1       6.770  -3.924  -9.448  1.00  0.00     0.000 C 
BRANCH  17  18
ATOM     18  C   UNL     1       6.864  -4.456  -8.011  1.00  0.00    -0.000 C 
BRANCH  18  19
ATOM     19  C   UNL     1       8.273  -4.952  -7.645  1.00  0.00    -0.000 C 
BRANCH  19  20
ATOM     20  C   UNL     1       8.321  -6.069  -6.586  1.00  0.00    -0.000 C 
BRANCH  20  21
ATOM     21  C   UNL     1       9.750  -6.560  -6.298  1.00  0.00    -0.000 C 
BRANCH  21  22
ATOM     22  C   UNL     1      10.823  -5.537  -6.710  1.00  0.00    -0.000 C 
BRANCH  22  23
ATOM     23  C   UNL     1      11.732  -5.053  -5.563  1.00  0.00    -0.000 C 
BRANCH  23  24
ATOM     24  C   UNL     1      10.966  -4.354  -4.419  1.00  0.00    -0.000 C 
BRANCH  24  25
ATOM     25  C   UNL     1      11.332  -4.926  -3.042  1.00  0.00    -0.003 C 
ATOM     26  C   UNL     1      11.699  -6.404  -3.140  1.00  0.00     0.004 C 
ENDBRANCH  24  25
ENDBRANCH  23  24
ENDBRANCH  22  23
ENDBRANCH  21  22
ENDBRANCH  20  21
ENDBRANCH  19  20
ENDBRANCH  18  19
ENDBRANCH  17  18
ENDBRANCH  16  17
ENDBRANCH  15  16
ENDBRANCH   1  15
TORSDOF 22
ENDMDL
MODEL 3
REMARK VINA RESULT:     1.654      3.431      5.810
REMARK INTER + INTRA:           4.571
REMARK INTER:                   5.662
REMARK INTRA:                  -1.091
REMARK UNBOUND:                 0.789
REMARK SMILES CCCCCCCCCCCCCCCCCCCCCCCC(=O)[O-]
REMARK SMILES IDX 13 1 14 2 15 3 16 4 17 5 18 6 19 7 20 8 21 9 22 10 23 11
REMARK SMILES IDX 24 12 25 13 26 14 12 15 11 16 10 17 9 18 8 19 7 20 6 21 5 22
REMARK SMILES IDX 4 23 3 24 2 25 1 26
REMARK H PARENT
REMARK Flexibility Score: inf
ROOT
ATOM      1  C   UNL     1       2.864  -4.365 -10.044  1.00  0.00     0.000 C 
ENDROOT
BRANCH   1   2
ATOM      2  C   UNL     1       3.971  -3.564  -9.337  1.00  0.00     0.000 C 
BRANCH   2   3
ATOM      3  C   UNL     1       5.380  -4.084  -9.670  1.00  0.00     0.000 C 
BRANCH   3   4
ATOM      4  C   UNL     1       6.282  -4.175  -8.427  1.00  0.00     0.000 C 
BRANCH   4   5
ATOM      5  C   UNL     1       7.770  -4.319  -8.785  1.00  0.00     0.000 C 
BRANCH   5   6
ATOM      6  C   UNL     1       8.114  -5.703  -9.362  1.00  0.00     0.000 C 
BRANCH   6   7
ATOM      7  C   UNL     1       8.705  -6.654  -8.309  1.00  0.00     0.000 C 
BRANCH   7   8
ATOM      8  C   UNL     1      10.216  -6.883  -8.501  1.00  0.00     0.000 C 
BRANCH   8   9
ATOM      9  C   UNL     1      10.971  -7.021  -7.169  1.00  0.00     0.000 C 
BRANCH   9  10
ATOM     10  C   UNL     1      10.945  -5.729  -6.336  1.00  0.00     0.006 C 
BRANCH  10  11
ATOM     11  C   UNL     1      11.494  -5.972  -4.926  1.00  0.00     0.053 C 
BRANCH  11  12
ATOM     12  C   UNL     1      11.095  -4.863  -4.004  1.00  0.00     0.041 C 
ATOM     13  O   UNL     1      10.563  -5.123  -2.891  1.00  0.00    -0.550 OA
ATOM     14  O   UNL     1      11.346  -3.542  -4.356  1.00  0.00    -0.550 OA
ENDBRANCH  11  12
ENDBRANCH  10  11
ENDBRANCH   9  10
ENDBRANCH   8   9
ENDBRANCH   7   8
ENDBRANCH   6   7
ENDBRANCH   5   6
ENDBRANCH   4   5
ENDBRANCH   3   4
ENDBRANCH   2   3
ENDBRANCH   1   2
BRANCH   1  15
ATOM     15  C   UNL     1       2.812  -5.832  -9.568  1.00  0.00     0.000 C 
BRANCH  15  16
ATOM     16  C   UNL     1       1.613  -6.620 -10.125  1.00  0.00     0.000 C 
BRANCH  16  17
ATOM     17  C   UNL     1       0.955  -7.529  -9.078  1.00  0.00     0.000 C 
BRANCH  17  18
ATOM     18  C   UNL     1       0.626  -6.745  -7.800  1.00  0.00    -0.000 C 
BRANCH  18  19
ATOM     19  C   UNL     1      -0.840  -6.903  -7.359  1.00  0.00    -0.000 C 
BRANCH  19  20
ATOM     20  C   UNL     1      -1.423  -5.711  -6.578  1.00  0.00    -0.000 C 
BRANCH  20  21
ATOM     21  C   UNL     1      -2.594  -6.109  -5.664  1.00  0.00    -0.000 C 
BRANCH  21  22
ATOM     22  C   UNL     1      -3.966  -5.861  -6.314  1.00  0.00    -0.000 C 
BRANCH  22  23
ATOM     23  C   UNL     1      -5.015  -6.959  -6.053  1.00  0.00    -0.000 C 
BRANCH  23  24
ATOM     24  C   UNL     1      -6.468  -6.436  -6.039  1.00  0.00    -0.000 C 
BRANCH  24  25
ATOM     25  C   UNL     1      -6.532  -4.903  -6.088  1.00  0.00    -0.003 C 
ATOM     26  C   UNL     1      -7.076  -4.332  -4.781  1.00  0.00     0.004 C 
ENDBRANCH  24  25
ENDBRANCH  23  24
ENDBRANCH  22  23
ENDBRANCH  21  22
ENDBRANCH  20  21
ENDBRANCH  19  20
ENDBRANCH  18  19
ENDBRANCH  17  18
ENDBRANCH  16  17
ENDBRANCH  15  16
ENDBRANCH   1  15
TORSDOF 22
ENDMDL
MODEL 4
REMARK VINA RESULT:     1.752      5.871     12.043
REMARK INTER + INTRA:           4.793
REMARK INTER:                   5.921
REMARK INTRA:                  -1.127
REMARK UNBOUND:                 0.789
REMARK SMILES CCCCCCCCCCCCCCCCCCCCCCCC(=O)[O-]
REMARK SMILES IDX 13 1 14 2 15 3 16 4 17 5 18 6 19 7 20 8 21 9 22 10 23 11
REMARK SMILES IDX 24 12 25 13 26 14 12 15 11 16 10 17 9 18 8 19 7 20 6 21 5 22
REMARK SMILES IDX 4 23 3 24 2 25 1 26
REMARK H PARENT
REMARK Flexibility Score: inf
ROOT
ATOM      1  C   UNL     1       2.065  -5.426  -9.920  1.00  0.00     0.000 C 
ENDROOT
BRANCH   1   2
ATOM      2  C   UNL     1       1.953  -6.955  -9.787  1.00  0.00     0.000 C 
BRANCH   2   3
ATOM      3  C   UNL     1       0.974  -7.382  -8.681  1.00  0.00     0.000 C 
BRANCH   3   4
ATOM      4  C   UNL     1       0.302  -6.179  -7.995  1.00  0.00     0.000 C 
BRANCH   4   5
ATOM      5  C   UNL     1      -0.454  -6.574  -6.716  1.00  0.00     0.000 C 
BRANCH   5   6
ATOM      6  C   UNL     1      -1.653  -5.654  -6.424  1.00  0.00     0.000 C 
BRANCH   6   7
ATOM      7  C   UNL     1      -2.913  -6.435  -6.017  1.00  0.00     0.000 C 
BRANCH   7   8
ATOM      8  C   UNL     1      -4.211  -5.671  -6.336  1.00  0.00     0.000 C 
BRANCH   8   9
ATOM      9  C   UNL     1      -5.223  -6.519  -7.123  1.00  0.00     0.000 C 
BRANCH   9  10
ATOM     10  C   UNL     1      -6.019  -5.694  -8.146  1.00  0.00     0.006 C 
BRANCH  10  11
ATOM     11  C   UNL     1      -6.941  -4.690  -7.447  1.00  0.00     0.053 C 
BRANCH  11  12
ATOM     12  C   UNL     1      -6.626  -3.292  -7.879  1.00  0.00     0.041 C 
ATOM     13  O   UNL     1      -7.363  -2.335  -7.518  1.00  0.00    -0.550 OA
ATOM     14  O   UNL     1      -5.497  -3.040  -8.647  1.00  0.00    -0.550 OA
ENDBRANCH  11  12
ENDBRANCH  10  11
ENDBRANCH   9  10
ENDBRANCH   8   9
ENDBRANCH   7   8
ENDBRANCH   6   7
ENDBRANCH   5   6
ENDBRANCH   4   5
ENDBRANCH   3   4
ENDBRANCH   2   3
ENDBRANCH   1   2
BRANCH   1  15
ATOM     15  C   UNL     1       3.523  -4.965 -10.125  1.00  0.00     0.000 C 
BRANCH  15  16
ATOM     16  C   UNL     1       3.843  -3.613  -9.463  1.00  0.00     0.000 C 
BRANCH  16  17
ATOM     17  C   UNL     1       5.291  -3.518  -8.965  1.00  0.00     0.000 C 
BRANCH  17  18
ATOM     18  C   UNL     1       6.262  -4.147  -9.975  1.00  0.00    -0.000 C 
BRANCH  18  19
ATOM     19  C   UNL     1       7.655  -4.419  -9.380  1.00  0.00    -0.000 C 
BRANCH  19  20
ATOM     20  C   UNL     1       7.672  -4.752  -7.876  1.00  0.00    -0.000 C 
BRANCH  20  21
ATOM     21  C   UNL     1       8.423  -6.057  -7.561  1.00  0.00    -0.000 C 
BRANCH  21  22
ATOM     22  C   UNL     1       9.371  -5.920  -6.357  1.00  0.00    -0.000 C 
BRANCH  22  23
ATOM     23  C   UNL     1      10.864  -6.125  -6.682  1.00  0.00    -0.000 C 
BRANCH  23  24
ATOM     24  C   UNL     1      11.793  -5.945  -5.462  1.00  0.00    -0.000 C 
BRANCH  24  25
ATOM     25  C   UNL     1      11.078  -5.266  -4.285  1.00  0.00    -0.003 C 
ATOM     26  C   UNL     1      11.490  -3.801  -4.162  1.00  0.00     0.004 C 
ENDBRANCH  24  25
ENDBRANCH  23  24
ENDBRANCH  22  23
ENDBRANCH  21  22
ENDBRANCH  20  21
ENDBRANCH  19  20
ENDBRANCH  18  19
ENDBRANCH  17  18
ENDBRANCH  16  17
ENDBRANCH  15  16
ENDBRANCH   1  15
TORSDOF 22
ENDMDL
MODEL 5
REMARK VINA RESULT:     1.801      3.998      6.837
REMARK INTER + INTRA:           4.907
REMARK INTER:                   6.023
REMARK INTRA:                  -1.116
REMARK UNBOUND:                 0.789
REMARK SMILES CCCCCCCCCCCCCCCCCCCCCCCC(=O)[O-]
REMARK SMILES IDX 13 1 14 2 15 3 16 4 17 5 18 6 19 7 20 8 21 9 22 10 23 11
REMARK SMILES IDX 24 12 25 13 26 14 12 15 11 16 10 17 9 18 8 19 7 20 6 21 5 22
REMARK SMILES IDX 4 23 3 24 2 25 1 26
REMARK H PARENT
REMARK Flexibility Score: inf
ROOT
ATOM      1  C   UNL     1       2.019  -5.804 -10.125  1.00  0.00     0.000 C 
ENDROOT
BRANCH   1   2
ATOM      2  C   UNL     1       3.230  -5.185  -9.406  1.00  0.00     0.000 C 
BRANCH   2   3
ATOM      3  C   UNL     1       3.393  -3.686  -9.707  1.00  0.00     0.000 C 
BRANCH   3   4
ATOM      4  C   UNL     1       4.861  -3.229  -9.640  1.00  0.00     0.000 C 
BRANCH   4   5
ATOM      5  C   UNL     1       5.837  -4.400  -9.443  1.00  0.00     0.000 C 
BRANCH   5   6
ATOM      6  C   UNL     1       6.563  -4.350  -8.087  1.00  0.00     0.000 C 
BRANCH   6   7
ATOM      7  C   UNL     1       8.076  -4.587  -8.216  1.00  0.00     0.000 C 
BRANCH   7   8
ATOM      8  C   UNL     1       8.481  -6.029  -7.860  1.00  0.00     0.000 C 
BRANCH   8   9
ATOM      9  C   UNL     1       8.965  -6.171  -6.408  1.00  0.00     0.000 C 
BRANCH   9  10
ATOM     10  C   UNL     1      10.495  -6.274  -6.301  1.00  0.00     0.006 C 
BRANCH  10  11
ATOM     11  C   UNL     1      11.064  -5.145  -5.435  1.00  0.00     0.053 C 
BRANCH  11  12
ATOM     12  C   UNL     1      11.050  -5.530  -3.988  1.00  0.00     0.041 C 
ATOM     13  O   UNL     1      11.064  -4.640  -3.095  1.00  0.00    -0.550 OA
ATOM     14  O   UNL     1      10.983  -6.869  -3.626  1.00  0.00    -0.550 OA
ENDBRANCH  11  12
ENDBRANCH  10  11
ENDBRANCH   9  10
ENDBRANCH   8   9
ENDBRANCH   7   8
ENDBRANCH   6   7
ENDBRANCH   5   6
ENDBRANCH   4   5
ENDBRANCH   3   4
ENDBRANCH   2   3
ENDBRANCH   1   2
BRANCH   1  15
ATOM     15  C   UNL     1       1.381  -6.949  -9.311  1.00  0.00     0.000 C 
BRANCH  15  16
ATOM     16  C   UNL     1       1.003  -6.550  -7.873  1.00  0.00     0.000 C 
BRANCH  16  17
ATOM     17  C   UNL     1      -0.430  -6.948  -7.498  1.00  0.00     0.000 C 
BRANCH  17  18
ATOM     18  C   UNL     1      -1.140  -5.809  -6.752  1.00  0.00    -0.000 C 
BRANCH  18  19
ATOM     19  C   UNL     1      -2.350  -6.290  -5.932  1.00  0.00    -0.000 C 
BRANCH  19  20
ATOM     20  C   UNL     1      -3.720  -6.091  -6.607  1.00  0.00    -0.000 C 
BRANCH  20  21
ATOM     21  C   UNL     1      -4.864  -5.907  -5.596  1.00  0.00    -0.000 C 
BRANCH  21  22
ATOM     22  C   UNL     1      -6.240  -6.261  -6.185  1.00  0.00    -0.000 C 
BRANCH  22  23
ATOM     23  C   UNL     1      -6.691  -5.371  -7.360  1.00  0.00    -0.000 C 
BRANCH  23  24
ATOM     24  C   UNL     1      -7.398  -4.073  -6.917  1.00  0.00    -0.000 C 
BRANCH  24  25
ATOM     25  C   UNL     1      -6.623  -2.817  -7.342  1.00  0.00    -0.003 C 
ATOM     26  C   UNL     1      -5.942  -3.022  -8.693  1.00  0.00     0.004 C 
ENDBRANCH  24  25
ENDBRANCH  23  24
ENDBRANCH  22  23
ENDBRANCH  21  22
ENDBRANCH  20  21
ENDBRANCH  19  20
ENDBRANCH  18  19
ENDBRANCH  17  18
ENDBRANCH  16  17
ENDBRANCH  15  16
ENDBRANCH   1  15
TORSDOF 22
ENDMDL
MODEL 6
REMARK VINA RESULT:     2.101      3.097      5.038
REMARK INTER + INTRA:           5.591
REMARK INTER:                   6.381
REMARK INTRA:                  -0.789
REMARK UNBOUND:                 0.789
REMARK SMILES CCCCCCCCCCCCCCCCCCCCCCCC(=O)[O-]
REMARK SMILES IDX 13 1 14 2 15 3 16 4 17 5 18 6 19 7 20 8 21 9 22 10 23 11
REMARK SMILES IDX 24 12 25 13 26 14 12 15 11 16 10 17 9 18 8 19 7 20 6 21 5 22
REMARK SMILES IDX 4 23 3 24 2 25 1 26
REMARK H PARENT
REMARK Flexibility Score: inf
ROOT
ATOM      1  C   UNL     1       4.673  -3.556  -9.115  1.00  0.00     0.000 C 
ENDROOT
BRANCH   1   2
ATOM      2  C   UNL     1       5.832  -3.678 -10.120  1.00  0.00     0.000 C 
BRANCH   2   3
ATOM      3  C   UNL     1       7.041  -4.428  -9.538  1.00  0.00     0.000 C 
BRANCH   3   4
ATOM      4  C   UNL     1       7.117  -4.321  -8.005  1.00  0.00     0.000 C 
BRANCH   4   5
ATOM      5  C   UNL     1       8.208  -5.221  -7.401  1.00  0.00     0.000 C 
BRANCH   5   6
ATOM      6  C   UNL     1       8.797  -6.210  -8.421  1.00  0.00     0.000 C 
BRANCH   6   7
ATOM      7  C   UNL     1      10.240  -5.862  -8.820  1.00  0.00     0.000 C 
BRANCH   7   8
ATOM      8  C   UNL     1      11.247  -6.125  -7.685  1.00  0.00     0.000 C 
BRANCH   8   9
ATOM      9  C   UNL     1      10.614  -6.840  -6.481  1.00  0.00     0.000 C 
BRANCH   9  10
ATOM     10  C   UNL     1      11.019  -6.212  -5.138  1.00  0.00     0.006 C 
BRANCH  10  11
ATOM     11  C   UNL     1      11.971  -5.030  -5.348  1.00  0.00     0.053 C 
BRANCH  11  12
ATOM     12  C   UNL     1      11.899  -4.081  -4.192  1.00  0.00     0.041 C 
ATOM     13  O   UNL     1      11.879  -2.836  -4.394  1.00  0.00    -0.550 OA
ATOM     14  O   UNL     1      11.814  -4.570  -2.895  1.00  0.00    -0.550 OA
ENDBRANCH  11  12
ENDBRANCH  10  11
ENDBRANCH   9  10
ENDBRANCH   8   9
ENDBRANCH   7   8
ENDBRANCH   6   7
ENDBRANCH   5   6
ENDBRANCH   4   5
ENDBRANCH   3   4
ENDBRANCH   2   3
ENDBRANCH   1   2
BRANCH   1  15
ATOM     15  C   UNL     1       3.323  -3.980  -9.730  1.00  0.00     0.000 C 
BRANCH  15  16
ATOM     16  C   UNL     1       3.262  -5.466 -10.124  1.00  0.00     0.000 C 
BRANCH  16  17
ATOM     17  C   UNL     1       1.873  -6.085  -9.915  1.00  0.00     0.000 C 
BRANCH  17  18
ATOM     18  C   UNL     1       1.831  -6.917  -8.626  1.00  0.00    -0.000 C 
BRANCH  18  19
ATOM     19  C   UNL     1       0.398  -7.210  -8.147  1.00  0.00    -0.000 C 
BRANCH  19  20
ATOM     20  C   UNL     1      -0.268  -6.078  -7.342  1.00  0.00    -0.000 C 
BRANCH  20  21
ATOM     21  C   UNL     1      -1.414  -6.576  -6.445  1.00  0.00    -0.000 C 
BRANCH  21  22
ATOM     22  C   UNL     1      -2.661  -5.679  -6.522  1.00  0.00    -0.000 C 
BRANCH  22  23
ATOM     23  C   UNL     1      -3.870  -6.177  -5.706  1.00  0.00    -0.000 C 
BRANCH  23  24
ATOM     24  C   UNL     1      -5.232  -5.863  -6.362  1.00  0.00    -0.000 C 
BRANCH  24  25
ATOM     25  C   UNL     1      -6.337  -5.633  -5.321  1.00  0.00    -0.003 C 
ATOM     26  C   UNL     1      -6.912  -4.223  -5.432  1.00  0.00     0.004 C 
ENDBRANCH  24  25
ENDBRANCH  23  24
ENDBRANCH  22  23
ENDBRANCH  21  22
ENDBRANCH  20  21
ENDBRANCH  19  20
ENDBRANCH  18  19
ENDBRANCH  17  18
ENDBRANCH  16  17
ENDBRANCH  15  16
ENDBRANCH   1  15
TORSDOF 22
ENDMDL
MODEL 7
REMARK VINA RESULT:     2.282      4.514      7.552
REMARK INTER + INTRA:           6.005
REMARK INTER:                   7.128
REMARK INTRA:                  -1.123
REMARK UNBOUND:                 0.789
REMARK SMILES CCCCCCCCCCCCCCCCCCCCCCCC(=O)[O-]
REMARK SMILES IDX 13 1 14 2 15 3 16 4 17 5 18 6 19 7 20 8 21 9 22 10 23 11
REMARK SMILES IDX 24 12 25 13 26 14 12 15 11 16 10 17 9 18 8 19 7 20 6 21 5 22
REMARK SMILES IDX 4 23 3 24 2 25 1 26
REMARK H PARENT
REMARK Flexibility Score: inf
ROOT
ATOM      1  C   UNL     1       1.993  -6.642  -8.677  1.00  0.00     0.000 C 
ENDROOT
BRANCH   1   2
ATOM      2  C   UNL     1       2.057  -5.728  -9.914  1.00  0.00     0.000 C 
BRANCH   2   3
ATOM      3  C   UNL     1       3.452  -5.117 -10.125  1.00  0.00     0.000 C 
BRANCH   3   4
ATOM      4  C   UNL     1       3.501  -3.624  -9.758  1.00  0.00     0.000 C 
BRANCH   4   5
ATOM      5  C   UNL     1       4.785  -3.241  -9.005  1.00  0.00     0.000 C 
BRANCH   5   6
ATOM      6  C   UNL     1       5.987  -4.122  -9.388  1.00  0.00     0.000 C 
BRANCH   6   7
ATOM      7  C   UNL     1       6.880  -4.464  -8.185  1.00  0.00     0.000 C 
BRANCH   7   8
ATOM      8  C   UNL     1       8.330  -4.777  -8.594  1.00  0.00     0.000 C 
BRANCH   8   9
ATOM      9  C   UNL     1       8.621  -6.285  -8.648  1.00  0.00     0.000 C 
BRANCH   9  10
ATOM     10  C   UNL     1       9.984  -6.649  -8.038  1.00  0.00     0.006 C 
BRANCH  10  11
ATOM     11  C   UNL     1      10.643  -5.425  -7.392  1.00  0.00     0.053 C 
BRANCH  11  12
ATOM     12  C   UNL     1      10.515  -5.479  -5.902  1.00  0.00     0.041 C 
ATOM     13  O   UNL     1      10.338  -6.584  -5.320  1.00  0.00    -0.550 OA
ATOM     14  O   UNL     1      10.632  -4.316  -5.151  1.00  0.00    -0.550 OA
ENDBRANCH  11  12
ENDBRANCH  10  11
ENDBRANCH   9  10
ENDBRANCH   8   9
ENDBRANCH   7   8
ENDBRANCH   6   7
ENDBRANCH   5   6
ENDBRANCH   4   5
ENDBRANCH   3   4
ENDBRANCH   2   3
ENDBRANCH   1   2
BRANCH   1  15
ATOM     15  C   UNL     1       0.552  -7.096  -8.362  1.00  0.00     0.000 C 
BRANCH  15  16
ATOM     16  C   UNL     1      -0.136  -6.255  -7.273  1.00  0.00     0.000 C 
BRANCH  16  17
ATOM     17  C   UNL     1      -1.479  -6.843  -6.820  1.00  0.00     0.000 C 
BRANCH  17  18
ATOM     18  C   UNL     1      -2.440  -5.735  -6.366  1.00  0.00    -0.000 C 
BRANCH  18  19
ATOM     19  C   UNL     1      -3.789  -6.279  -5.866  1.00  0.00    -0.000 C 
BRANCH  19  20
ATOM     20  C   UNL     1      -5.032  -5.550  -6.410  1.00  0.00    -0.000 C 
BRANCH  20  21
ATOM     21  C   UNL     1      -5.905  -6.445  -7.307  1.00  0.00    -0.000 C 
BRANCH  21  22
ATOM     22  C   UNL     1      -7.389  -6.041  -7.284  1.00  0.00    -0.000 C 
BRANCH  22  23
ATOM     23  C   UNL     1      -7.682  -4.620  -7.805  1.00  0.00    -0.000 C 
BRANCH  23  24
ATOM     24  C   UNL     1      -7.730  -4.524  -9.345  1.00  0.00    -0.000 C 
BRANCH  24  25
ATOM     25  C   UNL     1      -6.837  -3.397  -9.883  1.00  0.00    -0.003 C 
ATOM     26  C   UNL     1      -6.222  -2.590  -8.742  1.00  0.00     0.004 C 
ENDBRANCH  24  25
ENDBRANCH  23  24
ENDBRANCH  22  23
ENDBRANCH  21  22
ENDBRANCH  20  21
ENDBRANCH  19  20
ENDBRANCH  18  19
ENDBRANCH  17  18
ENDBRANCH  16  17
ENDBRANCH  15  16
ENDBRANCH   1  15
TORSDOF 22
ENDMDL
MODEL 8
REMARK VINA RESULT:     2.910      5.516      9.513
REMARK INTER + INTRA:           7.441
REMARK INTER:                   8.921
REMARK INTRA:                  -1.480
REMARK UNBOUND:                 0.789
REMARK SMILES CCCCCCCCCCCCCCCCCCCCCCCC(=O)[O-]
REMARK SMILES IDX 13 1 14 2 15 3 16 4 17 5 18 6 19 7 20 8 21 9 22 10 23 11
REMARK SMILES IDX 24 12 25 13 26 14 12 15 11 16 10 17 9 18 8 19 7 20 6 21 5 22
REMARK SMILES IDX 4 23 3 24 2 25 1 26
REMARK H PARENT
REMARK Flexibility Score: inf
ROOT
ATOM      1  C   UNL     1      -1.371  -5.723  -6.738  1.00  0.00     0.000 C 
ENDROOT
BRANCH   1   2
ATOM      2  C   UNL     1      -0.093  -6.524  -7.044  1.00  0.00     0.000 C 
BRANCH   2   3
ATOM      3  C   UNL     1       0.194  -6.626  -8.551  1.00  0.00     0.000 C 
BRANCH   3   4
ATOM      4  C   UNL     1       1.621  -7.119  -8.846  1.00  0.00     0.000 C 
BRANCH   4   5
ATOM      5  C   UNL     1       2.356  -6.231  -9.863  1.00  0.00     0.000 C 
BRANCH   5   6
ATOM      6  C   UNL     1       2.339  -4.742  -9.477  1.00  0.00     0.000 C 
BRANCH   6   7
ATOM      7  C   UNL     1       3.486  -3.949 -10.125  1.00  0.00     0.000 C 
BRANCH   7   8
ATOM      8  C   UNL     1       4.842  -4.668 -10.009  1.00  0.00     0.000 C 
BRANCH   8   9
ATOM      9  C   UNL     1       5.633  -4.251  -8.759  1.00  0.00     0.000 C 
BRANCH   9  10
ATOM     10  C   UNL     1       7.145  -4.480  -8.909  1.00  0.00     0.006 C 
BRANCH  10  11
ATOM     11  C   UNL     1       7.821  -4.609  -7.540  1.00  0.00     0.053 C 
BRANCH  11  12
ATOM     12  C   UNL     1       9.182  -5.218  -7.677  1.00  0.00     0.041 C 
ATOM     13  O   UNL     1      10.017  -4.729  -8.486  1.00  0.00    -0.550 OA
ATOM     14  O   UNL     1       9.543  -6.299  -6.884  1.00  0.00    -0.550 OA
ENDBRANCH  11  12
ENDBRANCH  10  11
ENDBRANCH   9  10
ENDBRANCH   8   9
ENDBRANCH   7   8
ENDBRANCH   6   7
ENDBRANCH   5   6
ENDBRANCH   4   5
ENDBRANCH   3   4
ENDBRANCH   2   3
ENDBRANCH   1   2
BRANCH   1  15
ATOM     15  C   UNL     1      -2.618  -6.628  -6.655  1.00  0.00     0.000 C 
BRANCH  15  16
ATOM     16  C   UNL     1      -3.875  -5.902  -6.145  1.00  0.00     0.000 C 
BRANCH  16  17
ATOM     17  C   UNL     1      -4.761  -6.788  -5.260  1.00  0.00     0.000 C 
BRANCH  17  18
ATOM     18  C   UNL     1      -6.183  -6.218  -5.160  1.00  0.00    -0.000 C 
BRANCH  18  19
ATOM     19  C   UNL     1      -6.650  -5.537  -6.458  1.00  0.00    -0.000 C 
BRANCH  19  20
ATOM     20  C   UNL     1      -7.097  -6.495  -7.578  1.00  0.00    -0.000 C 
BRANCH  20  21
ATOM     21  C   UNL     1      -7.112  -5.829  -8.964  1.00  0.00    -0.000 C 
BRANCH  21  22
ATOM     22  C   UNL     1      -6.039  -4.736  -9.110  1.00  0.00    -0.000 C 
BRANCH  22  23
ATOM     23  C   UNL     1      -6.589  -3.319  -9.369  1.00  0.00    -0.000 C 
BRANCH  23  24
ATOM     24  C   UNL     1      -6.638  -2.434  -8.105  1.00  0.00    -0.000 C 
BRANCH  24  25
ATOM     25  C   UNL     1      -8.060  -2.309  -7.540  1.00  0.00    -0.003 C 
ATOM     26  C   UNL     1      -8.111  -1.301  -6.395  1.00  0.00     0.004 C 
ENDBRANCH  24  25
ENDBRANCH  23  24
ENDBRANCH  22  23
ENDBRANCH  21  22
ENDBRANCH  20  21
ENDBRANCH  19  20
ENDBRANCH  18  19
ENDBRANCH  17  18
ENDBRANCH  16  17
ENDBRANCH  15  16
ENDBRANCH   1  15
TORSDOF 22
ENDMDL
