MODEL 1
REMARK VINA RESULT:    -4.837      0.000      0.000
REMARK INTER + INTRA:         -11.371
REMARK INTER:                  -9.079
REMARK INTRA:                  -2.292
REMARK UNBOUND:                -2.292
REMARK SMILES O=C([O-])CCCCCCCCCCCCCCC(=O)[O-]
REMARK SMILES IDX 10 1 9 2 8 3 7 4 6 5 5 6 4 7 2 8 1 9 3 10 11 11 12 12 13 13
REMARK SMILES IDX 14 14 15 15 16 16 17 17 18 18 19 19 20 20
REMARK H PARENT
REMARK Flexibility Score: inf
ROOT
ATOM      1  C   UNL     1     121.329 179.224 125.915  1.00  0.00     0.000 C 
ENDROOT
BRANCH   1   2
ATOM      2  C   UNL     1     121.598 178.154 124.846  1.00  0.00     0.000 C 
BRANCH   2   3
ATOM      3  C   UNL     1     122.982 177.503 124.994  1.00  0.00     0.000 C 
BRANCH   3   4
ATOM      4  C   UNL     1     122.930 175.968 124.895  1.00  0.00     0.000 C 
BRANCH   4   5
ATOM      5  C   UNL     1     121.515 175.438 124.596  1.00  0.00     0.000 C 
BRANCH   5   6
ATOM      6  C   UNL     1     121.134 174.142 125.336  1.00  0.00     0.006 C 
BRANCH   6   7
ATOM      7  C   UNL     1     121.797 174.024 126.714  1.00  0.00     0.053 C 
BRANCH   7   8
ATOM      8  C   UNL     1     122.550 172.735 126.822  1.00  0.00     0.041 C 
ATOM      9  O   UNL     1     123.450 172.455 125.986  1.00  0.00    -0.550 OA
ATOM     10  O   UNL     1     122.223 171.819 127.813  1.00  0.00    -0.550 OA
ENDBRANCH   7   8
ENDBRANCH   6   7
ENDBRANCH   5   6
ENDBRANCH   4   5
ENDBRANCH   3   4
ENDBRANCH   2   3
ENDBRANCH   1   2
BRANCH   1  11
ATOM     11  C   UNL     1     121.883 178.791 127.278  1.00  0.00     0.000 C 
BRANCH  11  12
ATOM     12  C   UNL     1     120.744 178.511 128.270  1.00  0.00     0.000 C 
BRANCH  12  13
ATOM     13  C   UNL     1     120.241 177.057 128.217  1.00  0.00     0.000 C 
BRANCH  13  14
ATOM     14  C   UNL     1     118.754 176.892 127.851  1.00  0.00     0.000 C 
BRANCH  14  15
ATOM     15  C   UNL     1     118.534 176.588 126.359  1.00  0.00     0.000 C 
BRANCH  15  16
ATOM     16  C   UNL     1     117.957 177.787 125.590  1.00  0.00     0.006 C 
BRANCH  16  17
ATOM     17  C   UNL     1     116.460 178.000 125.854  1.00  0.00     0.053 C 
BRANCH  17  18
ATOM     18  C   UNL     1     115.805 178.635 124.667  1.00  0.00     0.041 C 
ATOM     19  O   UNL     1     116.341 178.559 123.530  1.00  0.00    -0.550 OA
ATOM     20  O   UNL     1     114.618 179.340 124.822  1.00  0.00    -0.550 OA
ENDBRANCH  17  18
ENDBRANCH  16  17
ENDBRANCH  15  16
ENDBRANCH  14  15
ENDBRANCH  13  14
ENDBRANCH  12  13
ENDBRANCH  11  12
ENDBRANCH   1  11
TORSDOF 15
ENDMDL
MODEL 2
REMARK VINA RESULT:    -4.780      1.749      5.902
REMARK INTER + INTRA:         -11.263
REMARK INTER:                  -8.866
REMARK INTRA:                  -2.396
REMARK UNBOUND:                -2.292
REMARK SMILES O=C([O-])CCCCCCCCCCCCCCC(=O)[O-]
REMARK SMILES IDX 10 1 9 2 8 3 7 4 6 5 5 6 4 7 2 8 1 9 3 10 11 11 12 12 13 13
REMARK SMILES IDX 14 14 15 15 16 16 17 17 18 18 19 19 20 20
REMARK H PARENT
REMARK Flexibility Score: inf
ROOT
ATOM      1  C   UNL     1     122.502 178.039 126.133  1.00  0.00     0.000 C 
ENDROOT
BRANCH   1   2
ATOM      2  C   UNL     1     121.967 177.740 124.724  1.00  0.00     0.000 C 
BRANCH   2   3
ATOM      3  C   UNL     1     120.999 178.820 124.215  1.00  0.00     0.000 C 
BRANCH   3   4
ATOM      4  C   UNL     1     119.610 178.256 123.868  1.00  0.00     0.000 C 
BRANCH   4   5
ATOM      5  C   UNL     1     118.494 178.829 124.761  1.00  0.00     0.000 C 
BRANCH   5   6
ATOM      6  C   UNL     1     117.061 178.477 124.319  1.00  0.00     0.006 C 
BRANCH   6   7
ATOM      7  C   UNL     1     116.110 178.248 125.501  1.00  0.00     0.053 C 
BRANCH   7   8
ATOM      8  C   UNL     1     115.203 179.426 125.677  1.00  0.00     0.041 C 
ATOM      9  O   UNL     1     115.681 180.590 125.737  1.00  0.00    -0.550 OA
ATOM     10  O   UNL     1     113.836 179.234 125.829  1.00  0.00    -0.550 OA
ENDBRANCH   7   8
ENDBRANCH   6   7
ENDBRANCH   5   6
ENDBRANCH   4   5
ENDBRANCH   3   4
ENDBRANCH   2   3
ENDBRANCH   1   2
BRANCH   1  11
ATOM     11  C   UNL     1     121.754 179.218 126.766  1.00  0.00     0.000 C 
BRANCH  11  12
ATOM     12  C   UNL     1     120.779 178.734 127.849  1.00  0.00     0.000 C 
BRANCH  12  13
ATOM     13  C   UNL     1     121.210 177.407 128.499  1.00  0.00     0.000 C 
BRANCH  13  14
ATOM     14  C   UNL     1     120.213 176.243 128.337  1.00  0.00     0.000 C 
BRANCH  14  15
ATOM     15  C   UNL     1     118.981 176.623 127.499  1.00  0.00     0.000 C 
BRANCH  15  16
ATOM     16  C   UNL     1     118.724 175.642 126.345  1.00  0.00     0.006 C 
BRANCH  16  17
ATOM     17  C   UNL     1     119.992 174.899 125.900  1.00  0.00     0.053 C 
BRANCH  17  18
ATOM     18  C   UNL     1     119.737 173.426 125.832  1.00  0.00     0.041 C 
ATOM     19  O   UNL     1     118.664 172.945 126.283  1.00  0.00    -0.550 OA
ATOM     20  O   UNL     1     120.701 172.578 125.301  1.00  0.00    -0.550 OA
ENDBRANCH  17  18
ENDBRANCH  16  17
ENDBRANCH  15  16
ENDBRANCH  14  15
ENDBRANCH  13  14
ENDBRANCH  12  13
ENDBRANCH  11  12
ENDBRANCH   1  11
TORSDOF 15
ENDMDL
MODEL 3
REMARK VINA RESULT:    -4.776      2.295      3.708
REMARK INTER + INTRA:         -11.256
REMARK INTER:                  -8.863
REMARK INTRA:                  -2.392
REMARK UNBOUND:                -2.292
REMARK SMILES O=C([O-])CCCCCCCCCCCCCCC(=O)[O-]
REMARK SMILES IDX 10 1 9 2 8 3 7 4 6 5 5 6 4 7 2 8 1 9 3 10 11 11 12 12 13 13
REMARK SMILES IDX 14 14 15 15 16 16 17 17 18 18 19 19 20 20
REMARK H PARENT
REMARK Flexibility Score: inf
ROOT
ATOM      1  C   UNL     1     120.614 177.283 128.377  1.00  0.00     0.000 C 
ENDROOT
BRANCH   1   2
ATOM      2  C   UNL     1     119.227 176.751 127.981  1.00  0.00     0.000 C 
BRANCH   2   3
ATOM      3  C   UNL     1     119.299 175.634 126.928  1.00  0.00     0.000 C 
BRANCH   3   4
ATOM      4  C   UNL     1     120.740 175.335 126.478  1.00  0.00     0.000 C 
BRANCH   4   5
ATOM      5  C   UNL     1     120.988 175.685 124.998  1.00  0.00     0.000 C 
BRANCH   5   6
ATOM      6  C   UNL     1     122.386 176.248 124.687  1.00  0.00     0.006 C 
BRANCH   6   7
ATOM      7  C   UNL     1     122.402 177.163 123.456  1.00  0.00     0.053 C 
BRANCH   7   8
ATOM      8  C   UNL     1     123.746 177.131 122.798  1.00  0.00     0.041 C 
ATOM      9  O   UNL     1     123.930 177.724 121.702  1.00  0.00    -0.550 OA
ATOM     10  O   UNL     1     124.782 176.401 123.367  1.00  0.00    -0.550 OA
ENDBRANCH   7   8
ENDBRANCH   6   7
ENDBRANCH   5   6
ENDBRANCH   4   5
ENDBRANCH   3   4
ENDBRANCH   2   3
ENDBRANCH   1   2
BRANCH   1  11
ATOM     11  C   UNL     1     120.733 178.783 128.082  1.00  0.00     0.000 C 
BRANCH  11  12
ATOM     12  C   UNL     1     121.381 179.024 126.711  1.00  0.00     0.000 C 
BRANCH  12  13
ATOM     13  C   UNL     1     120.508 179.875 125.771  1.00  0.00     0.000 C 
BRANCH  13  14
ATOM     14  C   UNL     1     119.515 179.079 124.902  1.00  0.00     0.000 C 
BRANCH  14  15
ATOM     15  C   UNL     1     118.047 179.337 125.282  1.00  0.00     0.000 C 
BRANCH  15  16
ATOM     16  C   UNL     1     117.200 178.055 125.273  1.00  0.00     0.006 C 
BRANCH  16  17
ATOM     17  C   UNL     1     116.002 178.126 126.231  1.00  0.00     0.053 C 
BRANCH  17  18
ATOM     18  C   UNL     1     115.079 179.234 125.831  1.00  0.00     0.041 C 
ATOM     19  O   UNL     1     114.730 180.105 126.672  1.00  0.00    -0.550 OA
ATOM     20  O   UNL     1     114.576 179.288 124.537  1.00  0.00    -0.550 OA
ENDBRANCH  17  18
ENDBRANCH  16  17
ENDBRANCH  15  16
ENDBRANCH  14  15
ENDBRANCH  13  14
ENDBRANCH  12  13
ENDBRANCH  11  12
ENDBRANCH   1  11
TORSDOF 15
ENDMDL
MODEL 4
REMARK VINA RESULT:    -4.764      3.442      4.602
REMARK INTER + INTRA:         -11.233
REMARK INTER:                  -9.612
REMARK INTRA:                  -1.621
REMARK UNBOUND:                -2.292
REMARK SMILES O=C([O-])CCCCCCCCCCCCCCC(=O)[O-]
REMARK SMILES IDX 10 1 9 2 8 3 7 4 6 5 5 6 4 7 2 8 1 9 3 10 11 11 12 12 13 13
REMARK SMILES IDX 14 14 15 15 16 16 17 17 18 18 19 19 20 20
REMARK H PARENT
REMARK Flexibility Score: inf
ROOT
ATOM      1  C   UNL     1     123.279 178.272 127.158  1.00  0.00     0.000 C 
ENDROOT
BRANCH   1   2
ATOM      2  C   UNL     1     123.450 177.781 125.712  1.00  0.00     0.000 C 
BRANCH   2   3
ATOM      3  C   UNL     1     122.687 176.475 125.435  1.00  0.00     0.000 C 
BRANCH   3   4
ATOM      4  C   UNL     1     122.444 176.237 123.935  1.00  0.00     0.000 C 
BRANCH   4   5
ATOM      5  C   UNL     1     122.741 177.481 123.077  1.00  0.00     0.000 C 
BRANCH   5   6
ATOM      6  C   UNL     1     123.878 177.311 122.053  1.00  0.00     0.006 C 
BRANCH   6   7
ATOM      7  C   UNL     1     123.609 178.044 120.733  1.00  0.00     0.053 C 
BRANCH   7   8
ATOM      8  C   UNL     1     124.624 177.657 119.704  1.00  0.00     0.041 C 
ATOM      9  O   UNL     1     124.597 176.508 119.188  1.00  0.00    -0.550 OA
ATOM     10  O   UNL     1     125.634 178.544 119.354  1.00  0.00    -0.550 OA
ENDBRANCH   7   8
ENDBRANCH   6   7
ENDBRANCH   5   6
ENDBRANCH   4   5
ENDBRANCH   3   4
ENDBRANCH   2   3
ENDBRANCH   1   2
BRANCH   1  11
ATOM     11  C   UNL     1     122.296 179.448 127.226  1.00  0.00     0.000 C 
BRANCH  11  12
ATOM     12  C   UNL     1     120.846 178.960 127.091  1.00  0.00     0.000 C 
BRANCH  12  13
ATOM     13  C   UNL     1     120.029 179.772 126.070  1.00  0.00     0.000 C 
BRANCH  13  14
ATOM     14  C   UNL     1     119.908 179.135 124.672  1.00  0.00     0.000 C 
BRANCH  14  15
ATOM     15  C   UNL     1     119.209 177.766 124.697  1.00  0.00     0.000 C 
BRANCH  15  16
ATOM     16  C   UNL     1     117.807 177.828 125.323  1.00  0.00     0.006 C 
BRANCH  16  17
ATOM     17  C   UNL     1     116.767 178.473 124.396  1.00  0.00     0.053 C 
BRANCH  17  18
ATOM     18  C   UNL     1     116.035 179.565 125.111  1.00  0.00     0.041 C 
ATOM     19  O   UNL     1     116.604 180.664 125.346  1.00  0.00    -0.550 OA
ATOM     20  O   UNL     1     114.733 179.358 125.550  1.00  0.00    -0.550 OA
ENDBRANCH  17  18
ENDBRANCH  16  17
ENDBRANCH  15  16
ENDBRANCH  14  15
ENDBRANCH  13  14
ENDBRANCH  12  13
ENDBRANCH  11  12
ENDBRANCH   1  11
TORSDOF 15
ENDMDL
MODEL 5
REMARK VINA RESULT:    -4.754      1.874      2.598
REMARK INTER + INTRA:         -11.215
REMARK INTER:                  -9.036
REMARK INTRA:                  -2.179
REMARK UNBOUND:                -2.292
REMARK SMILES O=C([O-])CCCCCCCCCCCCCCC(=O)[O-]
REMARK SMILES IDX 10 1 9 2 8 3 7 4 6 5 5 6 4 7 2 8 1 9 3 10 11 11 12 12 13 13
REMARK SMILES IDX 14 14 15 15 16 16 17 17 18 18 19 19 20 20
REMARK H PARENT
REMARK Flexibility Score: inf
ROOT
ATOM      1  C   UNL     1     123.244 176.988 125.288  1.00  0.00     0.000 C 
ENDROOT
BRANCH   1   2
ATOM      2  C   UNL     1     122.364 176.794 124.042  1.00  0.00     0.000 C 
BRANCH   2   3
ATOM      3  C   UNL     1     121.159 175.877 124.305  1.00  0.00     0.000 C 
BRANCH   3   4
ATOM      4  C   UNL     1     121.516 174.664 125.181  1.00  0.00     0.000 C 
BRANCH   4   5
ATOM      5  C   UNL     1     120.709 174.616 126.492  1.00  0.00     0.000 C 
BRANCH   5   6
ATOM      6  C   UNL     1     119.181 174.542 126.314  1.00  0.00     0.006 C 
BRANCH   6   7
ATOM      7  C   UNL     1     118.707 173.188 125.771  1.00  0.00     0.053 C 
BRANCH   7   8
ATOM      8  C   UNL     1     118.697 172.162 126.861  1.00  0.00     0.041 C 
ATOM      9  O   UNL     1     119.339 171.087 126.725  1.00  0.00    -0.550 OA
ATOM     10  O   UNL     1     117.936 172.370 128.005  1.00  0.00    -0.550 OA
ENDBRANCH   7   8
ENDBRANCH   6   7
ENDBRANCH   5   6
ENDBRANCH   4   5
ENDBRANCH   3   4
ENDBRANCH   2   3
ENDBRANCH   1   2
BRANCH   1  11
ATOM     11  C   UNL     1     122.880 178.284 126.022  1.00  0.00     0.000 C 
BRANCH  11  12
ATOM     12  C   UNL     1     121.952 178.000 127.212  1.00  0.00     0.000 C 
BRANCH  12  13
ATOM     13  C   UNL     1     120.654 178.828 127.175  1.00  0.00     0.000 C 
BRANCH  13  14
ATOM     14  C   UNL     1     120.414 179.612 125.871  1.00  0.00     0.000 C 
BRANCH  14  15
ATOM     15  C   UNL     1     118.967 179.500 125.362  1.00  0.00     0.000 C 
BRANCH  15  16
ATOM     16  C   UNL     1     118.503 178.042 125.215  1.00  0.00     0.006 C 
BRANCH  16  17
ATOM     17  C   UNL     1     117.241 177.733 126.032  1.00  0.00     0.053 C 
BRANCH  17  18
ATOM     18  C   UNL     1     116.038 178.349 125.389  1.00  0.00     0.041 C 
ATOM     19  O   UNL     1     115.879 178.280 124.141  1.00  0.00    -0.550 OA
ATOM     20  O   UNL     1     115.108 179.031 126.163  1.00  0.00    -0.550 OA
ENDBRANCH  17  18
ENDBRANCH  16  17
ENDBRANCH  15  16
ENDBRANCH  14  15
ENDBRANCH  13  14
ENDBRANCH  12  13
ENDBRANCH  11  12
ENDBRANCH   1  11
TORSDOF 15
ENDMDL
MODEL 6
REMARK VINA RESULT:    -4.748      1.127      6.465
REMARK INTER + INTRA:         -11.203
REMARK INTER:                  -8.700
REMARK INTRA:                  -2.502
REMARK UNBOUND:                -2.292
REMARK SMILES O=C([O-])CCCCCCCCCCCCCCC(=O)[O-]
REMARK SMILES IDX 10 1 9 2 8 3 7 4 6 5 5 6 4 7 2 8 1 9 3 10 11 11 12 12 13 13
REMARK SMILES IDX 14 14 15 15 16 16 17 17 18 18 19 19 20 20
REMARK H PARENT
REMARK Flexibility Score: inf
ROOT
ATOM      1  C   UNL     1     121.717 179.108 126.893  1.00  0.00     0.000 C 
ENDROOT
BRANCH   1   2
ATOM      2  C   UNL     1     120.836 178.667 128.073  1.00  0.00     0.000 C 
BRANCH   2   3
ATOM      3  C   UNL     1     121.116 177.220 128.513  1.00  0.00     0.000 C 
BRANCH   3   4
ATOM      4  C   UNL     1     119.868 176.323 128.427  1.00  0.00     0.000 C 
BRANCH   4   5
ATOM      5  C   UNL     1     118.711 176.983 127.654  1.00  0.00     0.000 C 
BRANCH   5   6
ATOM      6  C   UNL     1     118.590 176.564 126.177  1.00  0.00     0.006 C 
BRANCH   6   7
ATOM      7  C   UNL     1     118.523 177.760 125.219  1.00  0.00     0.053 C 
BRANCH   7   8
ATOM      8  C   UNL     1     117.153 178.362 125.232  1.00  0.00     0.041 C 
ATOM      9  O   UNL     1     116.138 177.626 125.355  1.00  0.00    -0.550 OA
ATOM     10  O   UNL     1     116.993 179.731 125.053  1.00  0.00    -0.550 OA
ENDBRANCH   7   8
ENDBRANCH   6   7
ENDBRANCH   5   6
ENDBRANCH   4   5
ENDBRANCH   3   4
ENDBRANCH   2   3
ENDBRANCH   1   2
BRANCH   1  11
ATOM     11  C   UNL     1     122.927 178.180 126.733  1.00  0.00     0.000 C 
BRANCH  11  12
ATOM     12  C   UNL     1     123.105 177.758 125.267  1.00  0.00     0.000 C 
BRANCH  12  13
ATOM     13  C   UNL     1     122.082 176.700 124.815  1.00  0.00     0.000 C 
BRANCH  13  14
ATOM     14  C   UNL     1     122.374 175.263 125.288  1.00  0.00     0.000 C 
BRANCH  14  15
ATOM     15  C   UNL     1     121.193 174.306 125.058  1.00  0.00     0.000 C 
BRANCH  15  16
ATOM     16  C   UNL     1     120.838 173.491 126.312  1.00  0.00     0.006 C 
BRANCH  16  17
ATOM     17  C   UNL     1     121.994 173.413 127.320  1.00  0.00     0.053 C 
BRANCH  17  18
ATOM     18  C   UNL     1     122.371 171.986 127.572  1.00  0.00     0.041 C 
ATOM     19  O   UNL     1     123.418 171.507 127.063  1.00  0.00    -0.550 OA
ATOM     20  O   UNL     1     121.547 171.175 128.342  1.00  0.00    -0.550 OA
ENDBRANCH  17  18
ENDBRANCH  16  17
ENDBRANCH  15  16
ENDBRANCH  14  15
ENDBRANCH  13  14
ENDBRANCH  12  13
ENDBRANCH  11  12
ENDBRANCH   1  11
TORSDOF 15
ENDMDL
MODEL 7
REMARK VINA RESULT:    -4.719      2.422      6.307
REMARK INTER + INTRA:         -11.148
REMARK INTER:                  -8.652
REMARK INTRA:                  -2.496
REMARK UNBOUND:                -2.292
REMARK SMILES O=C([O-])CCCCCCCCCCCCCCC(=O)[O-]
REMARK SMILES IDX 10 1 9 2 8 3 7 4 6 5 5 6 4 7 2 8 1 9 3 10 11 11 12 12 13 13
REMARK SMILES IDX 14 14 15 15 16 16 17 17 18 18 19 19 20 20
REMARK H PARENT
REMARK Flexibility Score: inf
ROOT
ATOM      1  C   UNL     1     121.581 177.456 128.299  1.00  0.00     0.000 C 
ENDROOT
BRANCH   1   2
ATOM      2  C   UNL     1     120.796 178.648 127.730  1.00  0.00     0.000 C 
BRANCH   2   3
ATOM      3  C   UNL     1     121.478 179.277 126.505  1.00  0.00     0.000 C 
BRANCH   3   4
ATOM      4  C   UNL     1     120.472 179.890 125.515  1.00  0.00     0.000 C 
BRANCH   4   5
ATOM      5  C   UNL     1     120.127 178.941 124.352  1.00  0.00     0.000 C 
BRANCH   5   6
ATOM      6  C   UNL     1     118.637 178.571 124.233  1.00  0.00     0.006 C 
BRANCH   6   7
ATOM      7  C   UNL     1     117.795 179.098 125.401  1.00  0.00     0.053 C 
BRANCH   7   8
ATOM      8  C   UNL     1     116.604 178.220 125.625  1.00  0.00     0.041 C 
ATOM      9  O   UNL     1     115.866 177.893 124.657  1.00  0.00    -0.550 OA
ATOM     10  O   UNL     1     116.276 177.806 126.910  1.00  0.00    -0.550 OA
ENDBRANCH   7   8
ENDBRANCH   6   7
ENDBRANCH   5   6
ENDBRANCH   4   5
ENDBRANCH   3   4
ENDBRANCH   2   3
ENDBRANCH   1   2
BRANCH   1  11
ATOM     11  C   UNL     1     120.784 176.154 128.156  1.00  0.00     0.000 C 
BRANCH  11  12
ATOM     12  C   UNL     1     119.516 176.375 127.317  1.00  0.00     0.000 C 
BRANCH  12  13
ATOM     13  C   UNL     1     119.497 175.543 126.022  1.00  0.00     0.000 C 
BRANCH  13  14
ATOM     14  C   UNL     1     120.873 175.033 125.551  1.00  0.00     0.000 C 
BRANCH  14  15
ATOM     15  C   UNL     1     121.408 175.796 124.328  1.00  0.00     0.000 C 
BRANCH  15  16
ATOM     16  C   UNL     1     122.846 176.299 124.527  1.00  0.00     0.006 C 
BRANCH  16  17
ATOM     17  C   UNL     1     123.382 177.071 123.313  1.00  0.00     0.053 C 
BRANCH  17  18
ATOM     18  C   UNL     1     124.867 177.231 123.409  1.00  0.00     0.041 C 
ATOM     19  O   UNL     1     125.414 177.428 124.526  1.00  0.00    -0.550 OA
ATOM     20  O   UNL     1     125.646 177.196 122.259  1.00  0.00    -0.550 OA
ENDBRANCH  17  18
ENDBRANCH  16  17
ENDBRANCH  15  16
ENDBRANCH  14  15
ENDBRANCH  13  14
ENDBRANCH  12  13
ENDBRANCH  11  12
ENDBRANCH   1  11
TORSDOF 15
ENDMDL
MODEL 8
REMARK VINA RESULT:    -4.701      3.888      5.535
REMARK INTER + INTRA:         -11.115
REMARK INTER:                  -9.055
REMARK INTRA:                  -2.060
REMARK UNBOUND:                -2.292
REMARK SMILES O=C([O-])CCCCCCCCCCCCCCC(=O)[O-]
REMARK SMILES IDX 10 1 9 2 8 3 7 4 6 5 5 6 4 7 2 8 1 9 3 10 11 11 12 12 13 13
REMARK SMILES IDX 14 14 15 15 16 16 17 17 18 18 19 19 20 20
REMARK H PARENT
REMARK Flexibility Score: inf
ROOT
ATOM      1  C   UNL     1     121.622 176.653 123.909  1.00  0.00     0.000 C 
ENDROOT
BRANCH   1   2
ATOM      2  C   UNL     1     122.947 176.258 124.582  1.00  0.00     0.000 C 
BRANCH   2   3
ATOM      3  C   UNL     1     123.929 177.435 124.693  1.00  0.00     0.000 C 
BRANCH   3   4
ATOM      4  C   UNL     1     125.359 177.056 124.268  1.00  0.00     0.000 C 
BRANCH   4   5
ATOM      5  C   UNL     1     125.444 176.603 122.799  1.00  0.00     0.000 C 
BRANCH   5   6
ATOM      6  C   UNL     1     125.587 177.741 121.773  1.00  0.00     0.006 C 
BRANCH   6   7
ATOM      7  C   UNL     1     124.481 177.731 120.710  1.00  0.00     0.053 C 
BRANCH   7   8
ATOM      8  C   UNL     1     125.073 177.606 119.341  1.00  0.00     0.041 C 
ATOM      9  O   UNL     1     124.448 178.042 118.338  1.00  0.00    -0.550 OA
ATOM     10  O   UNL     1     126.289 176.958 119.166  1.00  0.00    -0.550 OA
ENDBRANCH   7   8
ENDBRANCH   6   7
ENDBRANCH   5   6
ENDBRANCH   4   5
ENDBRANCH   3   4
ENDBRANCH   2   3
ENDBRANCH   1   2
BRANCH   1  11
ATOM     11  C   UNL     1     121.545 178.170 123.697  1.00  0.00     0.000 C 
BRANCH  11  12
ATOM     12  C   UNL     1     120.177 178.716 124.131  1.00  0.00     0.000 C 
BRANCH  12  13
ATOM     13  C   UNL     1     120.273 179.744 125.273  1.00  0.00     0.000 C 
BRANCH  13  14
ATOM     14  C   UNL     1     121.245 179.372 126.409  1.00  0.00     0.000 C 
BRANCH  14  15
ATOM     15  C   UNL     1     120.549 178.667 127.585  1.00  0.00     0.000 C 
BRANCH  15  16
ATOM     16  C   UNL     1     120.721 177.140 127.546  1.00  0.00     0.006 C 
BRANCH  16  17
ATOM     17  C   UNL     1     119.398 176.386 127.740  1.00  0.00     0.053 C 
BRANCH  17  18
ATOM     18  C   UNL     1     118.824 175.990 126.416  1.00  0.00     0.041 C 
ATOM     19  O   UNL     1     117.977 176.727 125.845  1.00  0.00    -0.550 OA
ATOM     20  O   UNL     1     119.198 174.789 125.827  1.00  0.00    -0.550 OA
ENDBRANCH  17  18
ENDBRANCH  16  17
ENDBRANCH  15  16
ENDBRANCH  14  15
ENDBRANCH  13  14
ENDBRANCH  12  13
ENDBRANCH  11  12
ENDBRANCH   1  11
TORSDOF 15
ENDMDL
MODEL 9
REMARK VINA RESULT:    -4.698      1.628      2.093
REMARK INTER + INTRA:         -11.110
REMARK INTER:                  -9.161
REMARK INTRA:                  -1.949
REMARK UNBOUND:                -2.292
REMARK SMILES O=C([O-])CCCCCCCCCCCCCCC(=O)[O-]
REMARK SMILES IDX 10 1 9 2 8 3 7 4 6 5 5 6 4 7 2 8 1 9 3 10 11 11 12 12 13 13
REMARK SMILES IDX 14 14 15 15 16 16 17 17 18 18 19 19 20 20
REMARK H PARENT
REMARK Flexibility Score: inf
ROOT
ATOM      1  C   UNL     1     122.684 178.369 128.440  1.00  0.00     0.000 C 
ENDROOT
BRANCH   1   2
ATOM      2  C   UNL     1     123.202 179.112 127.199  1.00  0.00     0.000 C 
BRANCH   2   3
ATOM      3  C   UNL     1     123.726 178.158 126.113  1.00  0.00     0.000 C 
BRANCH   3   4
ATOM      4  C   UNL     1     122.595 177.543 125.270  1.00  0.00     0.000 C 
BRANCH   4   5
ATOM      5  C   UNL     1     122.807 176.042 124.993  1.00  0.00     0.000 C 
BRANCH   5   6
ATOM      6  C   UNL     1     122.082 175.092 125.963  1.00  0.00     0.006 C 
BRANCH   6   7
ATOM      7  C   UNL     1     120.996 174.253 125.279  1.00  0.00     0.053 C 
BRANCH   7   8
ATOM      8  C   UNL     1     120.057 173.683 126.297  1.00  0.00     0.041 C 
ATOM      9  O   UNL     1     120.382 173.657 127.514  1.00  0.00    -0.550 OA
ATOM     10  O   UNL     1     118.847 173.132 125.895  1.00  0.00    -0.550 OA
ENDBRANCH   7   8
ENDBRANCH   6   7
ENDBRANCH   5   6
ENDBRANCH   4   5
ENDBRANCH   3   4
ENDBRANCH   2   3
ENDBRANCH   1   2
BRANCH   1  11
ATOM     11  C   UNL     1     121.271 178.838 128.811  1.00  0.00     0.000 C 
BRANCH  11  12
ATOM     12  C   UNL     1     120.285 178.573 127.664  1.00  0.00     0.000 C 
BRANCH  12  13
ATOM     13  C   UNL     1     119.598 177.198 127.765  1.00  0.00     0.000 C 
BRANCH  13  14
ATOM     14  C   UNL     1     118.551 176.909 126.673  1.00  0.00     0.000 C 
BRANCH  14  15
ATOM     15  C   UNL     1     118.779 177.728 125.392  1.00  0.00     0.000 C 
BRANCH  15  16
ATOM     16  C   UNL     1     117.471 178.281 124.803  1.00  0.00     0.006 C 
BRANCH  16  17
ATOM     17  C   UNL     1     116.265 178.075 125.729  1.00  0.00     0.053 C 
BRANCH  17  18
ATOM     18  C   UNL     1     115.375 179.279 125.703  1.00  0.00     0.041 C 
ATOM     19  O   UNL     1     115.872 180.436 125.672  1.00  0.00    -0.550 OA
ATOM     20  O   UNL     1     113.995 179.124 125.748  1.00  0.00    -0.550 OA
ENDBRANCH  17  18
ENDBRANCH  16  17
ENDBRANCH  15  16
ENDBRANCH  14  15
ENDBRANCH  13  14
ENDBRANCH  12  13
ENDBRANCH  11  12
ENDBRANCH   1  11
TORSDOF 15
ENDMDL
