MODEL 1
REMARK VINA RESULT:    -2.438      0.000      0.000
REMARK INTER + INTRA:          -7.429
REMARK INTER:                  -5.574
REMARK INTRA:                  -1.855
REMARK UNBOUND:                -1.855
REMARK SMILES CCCCCCCCCCCCCCCCCCCCCCCC(=O)[O-]
REMARK SMILES IDX 13 1 14 2 15 3 16 4 17 5 18 6 19 7 20 8 21 9 22 10 23 11
REMARK SMILES IDX 24 12 25 13 26 14 12 15 11 16 10 17 9 18 8 19 7 20 6 21 5 22
REMARK SMILES IDX 4 23 3 24 2 25 1 26
REMARK H PARENT
REMARK Flexibility Score: inf
ROOT
ATOM      1  C   UNL     1      31.704  13.810  22.414  1.00  0.00     0.000 C 
ENDROOT
BRANCH   1   2
ATOM      2  C   UNL     1      32.989  14.182  21.654  1.00  0.00     0.000 C 
BRANCH   2   3
ATOM      3  C   UNL     1      33.467  15.634  21.856  1.00  0.00     0.000 C 
BRANCH   3   4
ATOM      4  C   UNL     1      32.362  16.672  21.589  1.00  0.00     0.000 C 
BRANCH   4   5
ATOM      5  C   UNL     1      32.302  17.112  20.117  1.00  0.00     0.000 C 
BRANCH   5   6
ATOM      6  C   UNL     1      30.899  16.970  19.509  1.00  0.00     0.000 C 
BRANCH   6   7
ATOM      7  C   UNL     1      30.941  17.123  17.983  1.00  0.00     0.000 C 
BRANCH   7   8
ATOM      8  C   UNL     1      29.644  16.603  17.346  1.00  0.00     0.000 C 
BRANCH   8   9
ATOM      9  C   UNL     1      29.863  15.971  15.960  1.00  0.00     0.000 C 
BRANCH   9  10
ATOM     10  C   UNL     1      31.085  16.500  15.188  1.00  0.00     0.006 C 
BRANCH  10  11
ATOM     11  C   UNL     1      30.800  16.729  13.698  1.00  0.00     0.053 C 
BRANCH  11  12
ATOM     12  C   UNL     1      31.164  15.516  12.903  1.00  0.00     0.041 C 
ATOM     13  O   UNL     1      31.209  15.572  11.645  1.00  0.00    -0.550 OA
ATOM     14  O   UNL     1      31.506  14.335  13.552  1.00  0.00    -0.550 OA
ENDBRANCH  11  12
ENDBRANCH  10  11
ENDBRANCH   9  10
ENDBRANCH   8   9
ENDBRANCH   7   8
ENDBRANCH   6   7
ENDBRANCH   5   6
ENDBRANCH   4   5
ENDBRANCH   3   4
ENDBRANCH   2   3
ENDBRANCH   1   2
BRANCH   1  15
ATOM     15  C   UNL     1      31.673  12.335  22.847  1.00  0.00     0.000 C 
BRANCH  15  16
ATOM     16  C   UNL     1      30.247  11.758  22.878  1.00  0.00     0.000 C 
BRANCH  16  17
ATOM     17  C   UNL     1      30.156  10.321  22.323  1.00  0.00     0.000 C 
BRANCH  17  18
ATOM     18  C   UNL     1      28.701   9.826  22.217  1.00  0.00    -0.000 C 
BRANCH  18  19
ATOM     19  C   UNL     1      27.681  10.984  22.286  1.00  0.00    -0.000 C 
BRANCH  19  20
ATOM     20  C   UNL     1      26.991  11.294  20.942  1.00  0.00    -0.000 C 
BRANCH  20  21
ATOM     21  C   UNL     1      26.973  12.778  20.539  1.00  0.00    -0.000 C 
BRANCH  21  22
ATOM     22  C   UNL     1      27.897  13.649  21.410  1.00  0.00    -0.000 C 
BRANCH  22  23
ATOM     23  C   UNL     1      28.967  14.388  20.585  1.00  0.00    -0.000 C 
BRANCH  23  24
ATOM     24  C   UNL     1      29.771  13.499  19.619  1.00  0.00    -0.000 C 
BRANCH  24  25
ATOM     25  C   UNL     1      29.395  13.723  18.148  1.00  0.00    -0.003 C 
ATOM     26  C   UNL     1      30.250  12.861  17.223  1.00  0.00     0.004 C 
ENDBRANCH  24  25
ENDBRANCH  23  24
ENDBRANCH  22  23
ENDBRANCH  21  22
ENDBRANCH  20  21
ENDBRANCH  19  20
ENDBRANCH  18  19
ENDBRANCH  17  18
ENDBRANCH  16  17
ENDBRANCH  15  16
ENDBRANCH   1  15
TORSDOF 22
ENDMDL
MODEL 2
REMARK VINA RESULT:    -2.392      1.661      2.315
REMARK INTER + INTRA:          -7.324
REMARK INTER:                  -4.602
REMARK INTRA:                  -2.722
REMARK UNBOUND:                -1.855
REMARK SMILES CCCCCCCCCCCCCCCCCCCCCCCC(=O)[O-]
REMARK SMILES IDX 13 1 14 2 15 3 16 4 17 5 18 6 19 7 20 8 21 9 22 10 23 11
REMARK SMILES IDX 24 12 25 13 26 14 12 15 11 16 10 17 9 18 8 19 7 20 6 21 5 22
REMARK SMILES IDX 4 23 3 24 2 25 1 26
REMARK H PARENT
REMARK Flexibility Score: inf
ROOT
ATOM      1  C   UNL     1      31.764  13.899  22.766  1.00  0.00     0.000 C 
ENDROOT
BRANCH   1   2
ATOM      2  C   UNL     1      32.983  14.578  22.117  1.00  0.00     0.000 C 
BRANCH   2   3
ATOM      3  C   UNL     1      33.175  16.062  22.489  1.00  0.00     0.000 C 
BRANCH   3   4
ATOM      4  C   UNL     1      31.843  16.819  22.645  1.00  0.00     0.000 C 
BRANCH   4   5
ATOM      5  C   UNL     1      31.147  17.081  21.300  1.00  0.00     0.000 C 
BRANCH   5   6
ATOM      6  C   UNL     1      29.642  16.777  21.339  1.00  0.00     0.000 C 
BRANCH   6   7
ATOM      7  C   UNL     1      28.974  17.124  20.002  1.00  0.00     0.000 C 
BRANCH   7   8
ATOM      8  C   UNL     1      27.484  16.754  20.022  1.00  0.00     0.000 C 
BRANCH   8   9
ATOM      9  C   UNL     1      26.886  16.581  18.615  1.00  0.00     0.000 C 
BRANCH   9  10
ATOM     10  C   UNL     1      27.753  17.125  17.466  1.00  0.00     0.006 C 
BRANCH  10  11
ATOM     11  C   UNL     1      28.459  16.019  16.671  1.00  0.00     0.053 C 
BRANCH  11  12
ATOM     12  C   UNL     1      29.642  16.573  15.941  1.00  0.00     0.041 C 
ATOM     13  O   UNL     1      30.746  16.707  16.532  1.00  0.00    -0.550 OA
ATOM     14  O   UNL     1      29.539  16.891  14.591  1.00  0.00    -0.550 OA
ENDBRANCH  11  12
ENDBRANCH  10  11
ENDBRANCH   9  10
ENDBRANCH   8   9
ENDBRANCH   7   8
ENDBRANCH   6   7
ENDBRANCH   5   6
ENDBRANCH   4   5
ENDBRANCH   3   4
ENDBRANCH   2   3
ENDBRANCH   1   2
BRANCH   1  15
ATOM     15  C   UNL     1      31.874  12.365  22.781  1.00  0.00     0.000 C 
BRANCH  15  16
ATOM     16  C   UNL     1      30.500  11.674  22.761  1.00  0.00     0.000 C 
BRANCH  16  17
ATOM     17  C   UNL     1      30.530  10.269  22.122  1.00  0.00     0.000 C 
BRANCH  17  18
ATOM     18  C   UNL     1      29.153   9.579  22.161  1.00  0.00    -0.000 C 
BRANCH  18  19
ATOM     19  C   UNL     1      28.005  10.576  22.433  1.00  0.00    -0.000 C 
BRANCH  19  20
ATOM     20  C   UNL     1      27.114  10.857  21.207  1.00  0.00    -0.000 C 
BRANCH  20  21
ATOM     21  C   UNL     1      26.974  12.340  20.822  1.00  0.00    -0.000 C 
BRANCH  21  22
ATOM     22  C   UNL     1      28.222  13.171  21.167  1.00  0.00    -0.000 C 
BRANCH  22  23
ATOM     23  C   UNL     1      28.799  13.909  19.945  1.00  0.00    -0.000 C 
BRANCH  23  24
ATOM     24  C   UNL     1      29.210  13.001  18.771  1.00  0.00    -0.000 C 
BRANCH  24  25
ATOM     25  C   UNL     1      30.552  13.404  18.147  1.00  0.00    -0.003 C 
ATOM     26  C   UNL     1      31.321  14.356  19.060  1.00  0.00     0.004 C 
ENDBRANCH  24  25
ENDBRANCH  23  24
ENDBRANCH  22  23
ENDBRANCH  21  22
ENDBRANCH  20  21
ENDBRANCH  19  20
ENDBRANCH  18  19
ENDBRANCH  17  18
ENDBRANCH  16  17
ENDBRANCH  15  16
ENDBRANCH   1  15
TORSDOF 22
ENDMDL
MODEL 3
REMARK VINA RESULT:    -1.834      1.545      2.511
REMARK INTER + INTRA:          -6.048
REMARK INTER:                  -4.359
REMARK INTRA:                  -1.689
REMARK UNBOUND:                -1.855
REMARK SMILES CCCCCCCCCCCCCCCCCCCCCCCC(=O)[O-]
REMARK SMILES IDX 13 1 14 2 15 3 16 4 17 5 18 6 19 7 20 8 21 9 22 10 23 11
REMARK SMILES IDX 24 12 25 13 26 14 12 15 11 16 10 17 9 18 8 19 7 20 6 21 5 22
REMARK SMILES IDX 4 23 3 24 2 25 1 26
REMARK H PARENT
REMARK Flexibility Score: inf
ROOT
ATOM      1  C   UNL     1      31.780  14.337  21.573  1.00  0.00     0.000 C 
ENDROOT
BRANCH   1   2
ATOM      2  C   UNL     1      32.835  14.929  20.622  1.00  0.00     0.000 C 
BRANCH   2   3
ATOM      3  C   UNL     1      32.514  16.340  20.091  1.00  0.00     0.000 C 
BRANCH   3   4
ATOM      4  C   UNL     1      31.023  16.527  19.750  1.00  0.00     0.000 C 
BRANCH   4   5
ATOM      5  C   UNL     1      30.804  17.125  18.350  1.00  0.00     0.000 C 
BRANCH   5   6
ATOM      6  C   UNL     1      29.328  17.125  17.927  1.00  0.00     0.000 C 
BRANCH   6   7
ATOM      7  C   UNL     1      29.130  16.352  16.617  1.00  0.00     0.000 C 
BRANCH   7   8
ATOM      8  C   UNL     1      29.534  14.880  16.783  1.00  0.00     0.000 C 
BRANCH   8   9
ATOM      9  C   UNL     1      30.524  14.401  15.707  1.00  0.00     0.000 C 
BRANCH   9  10
ATOM     10  C   UNL     1      31.805  15.242  15.577  1.00  0.00     0.006 C 
BRANCH  10  11
ATOM     11  C   UNL     1      31.590  16.547  14.799  1.00  0.00     0.053 C 
BRANCH  11  12
ATOM     12  C   UNL     1      30.879  16.277  13.511  1.00  0.00     0.041 C 
ATOM     13  O   UNL     1      29.853  16.940  13.202  1.00  0.00    -0.550 OA
ATOM     14  O   UNL     1      31.380  15.330  12.625  1.00  0.00    -0.550 OA
ENDBRANCH  11  12
ENDBRANCH  10  11
ENDBRANCH   9  10
ENDBRANCH   8   9
ENDBRANCH   7   8
ENDBRANCH   6   7
ENDBRANCH   5   6
ENDBRANCH   4   5
ENDBRANCH   3   4
ENDBRANCH   2   3
ENDBRANCH   1   2
BRANCH   1  15
ATOM     15  C   UNL     1      32.294  13.110  22.346  1.00  0.00     0.000 C 
BRANCH  15  16
ATOM     16  C   UNL     1      31.154  12.273  22.951  1.00  0.00     0.000 C 
BRANCH  16  17
ATOM     17  C   UNL     1      31.212  10.783  22.555  1.00  0.00     0.000 C 
BRANCH  17  18
ATOM     18  C   UNL     1      29.871  10.275  21.993  1.00  0.00    -0.000 C 
BRANCH  18  19
ATOM     19  C   UNL     1      28.690  11.195  22.370  1.00  0.00    -0.000 C 
BRANCH  19  20
ATOM     20  C   UNL     1      28.154  12.042  21.198  1.00  0.00    -0.000 C 
BRANCH  20  21
ATOM     21  C   UNL     1      27.164  13.153  21.588  1.00  0.00    -0.000 C 
BRANCH  21  22
ATOM     22  C   UNL     1      27.452  13.756  22.974  1.00  0.00    -0.000 C 
BRANCH  22  23
ATOM     23  C   UNL     1      26.901  15.186  23.125  1.00  0.00    -0.000 C 
BRANCH  23  24
ATOM     24  C   UNL     1      27.192  16.123  21.938  1.00  0.00    -0.000 C 
BRANCH  24  25
ATOM     25  C   UNL     1      28.415  17.020  22.172  1.00  0.00    -0.003 C 
ATOM     26  C   UNL     1      29.488  16.289  22.976  1.00  0.00     0.004 C 
ENDBRANCH  24  25
ENDBRANCH  23  24
ENDBRANCH  22  23
ENDBRANCH  21  22
ENDBRANCH  20  21
ENDBRANCH  19  20
ENDBRANCH  18  19
ENDBRANCH  17  18
ENDBRANCH  16  17
ENDBRANCH  15  16
ENDBRANCH   1  15
TORSDOF 22
ENDMDL
MODEL 4
REMARK VINA RESULT:    -1.489      2.632      7.391
REMARK INTER + INTRA:          -5.260
REMARK INTER:                  -3.575
REMARK INTRA:                  -1.684
REMARK UNBOUND:                -1.855
REMARK SMILES CCCCCCCCCCCCCCCCCCCCCCCC(=O)[O-]
REMARK SMILES IDX 13 1 14 2 15 3 16 4 17 5 18 6 19 7 20 8 21 9 22 10 23 11
REMARK SMILES IDX 24 12 25 13 26 14 12 15 11 16 10 17 9 18 8 19 7 20 6 21 5 22
REMARK SMILES IDX 4 23 3 24 2 25 1 26
REMARK H PARENT
REMARK Flexibility Score: inf
ROOT
ATOM      1  C   UNL     1      30.248  12.573  17.801  1.00  0.00     0.000 C 
ENDROOT
BRANCH   1   2
ATOM      2  C   UNL     1      29.767  13.032  19.188  1.00  0.00     0.000 C 
BRANCH   2   3
ATOM      3  C   UNL     1      28.649  12.170  19.808  1.00  0.00     0.000 C 
BRANCH   3   4
ATOM      4  C   UNL     1      28.114  12.745  21.133  1.00  0.00     0.000 C 
BRANCH   4   5
ATOM      5  C   UNL     1      28.079  11.702  22.262  1.00  0.00     0.000 C 
BRANCH   5   6
ATOM      6  C   UNL     1      28.939  10.467  21.959  1.00  0.00     0.000 C 
BRANCH   6   7
ATOM      7  C   UNL     1      30.432  10.818  21.973  1.00  0.00     0.000 C 
BRANCH   7   8
ATOM      8  C   UNL     1      30.757  11.782  23.124  1.00  0.00     0.000 C 
BRANCH   8   9
ATOM      9  C   UNL     1      32.026  12.615  22.873  1.00  0.00     0.000 C 
BRANCH   9  10
ATOM     10  C   UNL     1      31.853  14.135  23.039  1.00  0.00     0.006 C 
BRANCH  10  11
ATOM     11  C   UNL     1      31.169  14.795  21.835  1.00  0.00     0.053 C 
BRANCH  11  12
ATOM     12  C   UNL     1      32.040  15.869  21.263  1.00  0.00     0.041 C 
ATOM     13  O   UNL     1      33.294  15.746  21.284  1.00  0.00    -0.550 OA
ATOM     14  O   UNL     1      31.467  16.981  20.656  1.00  0.00    -0.550 OA
ENDBRANCH  11  12
ENDBRANCH  10  11
ENDBRANCH   9  10
ENDBRANCH   8   9
ENDBRANCH   7   8
ENDBRANCH   6   7
ENDBRANCH   5   6
ENDBRANCH   4   5
ENDBRANCH   3   4
ENDBRANCH   2   3
ENDBRANCH   1   2
BRANCH   1  15
ATOM     15  C   UNL     1      30.497  13.746  16.837  1.00  0.00     0.000 C 
BRANCH  15  16
ATOM     16  C   UNL     1      30.892  15.039  17.570  1.00  0.00     0.000 C 
BRANCH  16  17
ATOM     17  C   UNL     1      29.786  16.115  17.555  1.00  0.00     0.000 C 
BRANCH  17  18
ATOM     18  C   UNL     1      28.379  15.510  17.714  1.00  0.00    -0.000 C 
BRANCH  18  19
ATOM     19  C   UNL     1      27.457  15.845  16.521  1.00  0.00    -0.000 C 
BRANCH  19  20
ATOM     20  C   UNL     1      27.862  17.119  15.753  1.00  0.00    -0.000 C 
BRANCH  20  21
ATOM     21  C   UNL     1      28.420  16.885  14.338  1.00  0.00    -0.000 C 
BRANCH  21  22
ATOM     22  C   UNL     1      29.958  16.890  14.290  1.00  0.00    -0.000 C 
BRANCH  22  23
ATOM     23  C   UNL     1      30.506  17.046  12.859  1.00  0.00    -0.000 C 
BRANCH  23  24
ATOM     24  C   UNL     1      30.518  15.754  12.023  1.00  0.00    -0.000 C 
BRANCH  24  25
ATOM     25  C   UNL     1      31.881  15.047  12.037  1.00  0.00    -0.003 C 
ATOM     26  C   UNL     1      32.863  15.727  11.086  1.00  0.00     0.004 C 
ENDBRANCH  24  25
ENDBRANCH  23  24
ENDBRANCH  22  23
ENDBRANCH  21  22
ENDBRANCH  20  21
ENDBRANCH  19  20
ENDBRANCH  18  19
ENDBRANCH  17  18
ENDBRANCH  16  17
ENDBRANCH  15  16
ENDBRANCH   1  15
TORSDOF 22
ENDMDL
MODEL 5
REMARK VINA RESULT:    -1.061      1.720      2.897
REMARK INTER + INTRA:          -4.282
REMARK INTER:                  -3.299
REMARK INTRA:                  -0.983
REMARK UNBOUND:                -1.855
REMARK SMILES CCCCCCCCCCCCCCCCCCCCCCCC(=O)[O-]
REMARK SMILES IDX 13 1 14 2 15 3 16 4 17 5 18 6 19 7 20 8 21 9 22 10 23 11
REMARK SMILES IDX 24 12 25 13 26 14 12 15 11 16 10 17 9 18 8 19 7 20 6 21 5 22
REMARK SMILES IDX 4 23 3 24 2 25 1 26
REMARK H PARENT
REMARK Flexibility Score: inf
ROOT
ATOM      1  C   UNL     1      31.223  13.931  21.541  1.00  0.00     0.000 C 
ENDROOT
BRANCH   1   2
ATOM      2  C   UNL     1      32.590  14.437  21.050  1.00  0.00     0.000 C 
BRANCH   2   3
ATOM      3  C   UNL     1      32.545  15.741  20.229  1.00  0.00     0.000 C 
BRANCH   3   4
ATOM      4  C   UNL     1      31.112  16.162  19.851  1.00  0.00     0.000 C 
BRANCH   4   5
ATOM      5  C   UNL     1      30.882  16.189  18.331  1.00  0.00     0.000 C 
BRANCH   5   6
ATOM      6  C   UNL     1      29.667  17.036  17.926  1.00  0.00     0.000 C 
BRANCH   6   7
ATOM      7  C   UNL     1      29.534  17.116  16.400  1.00  0.00     0.000 C 
BRANCH   7   8
ATOM      8  C   UNL     1      30.916  17.116  15.730  1.00  0.00     0.000 C 
BRANCH   8   9
ATOM      9  C   UNL     1      31.049  16.056  14.622  1.00  0.00     0.000 C 
BRANCH   9  10
ATOM     10  C   UNL     1      31.502  14.666  15.100  1.00  0.00     0.006 C 
BRANCH  10  11
ATOM     11  C   UNL     1      31.240  14.430  16.593  1.00  0.00     0.053 C 
BRANCH  11  12
ATOM     12  C   UNL     1      30.361  13.236  16.789  1.00  0.00     0.041 C 
ATOM     13  O   UNL     1      30.442  12.254  16.004  1.00  0.00    -0.550 OA
ATOM     14  O   UNL     1      29.489  13.183  17.870  1.00  0.00    -0.550 OA
ENDBRANCH  11  12
ENDBRANCH  10  11
ENDBRANCH   9  10
ENDBRANCH   8   9
ENDBRANCH   7   8
ENDBRANCH   6   7
ENDBRANCH   5   6
ENDBRANCH   4   5
ENDBRANCH   3   4
ENDBRANCH   2   3
ENDBRANCH   1   2
BRANCH   1  15
ATOM     15  C   UNL     1      31.302  13.227  22.906  1.00  0.00     0.000 C 
BRANCH  15  16
ATOM     16  C   UNL     1      30.365  12.010  22.999  1.00  0.00     0.000 C 
BRANCH  16  17
ATOM     17  C   UNL     1      31.041  10.684  22.593  1.00  0.00     0.000 C 
BRANCH  17  18
ATOM     18  C   UNL     1      30.023   9.627  22.127  1.00  0.00    -0.000 C 
BRANCH  18  19
ATOM     19  C   UNL     1      28.628   9.840  22.753  1.00  0.00    -0.000 C 
BRANCH  19  20
ATOM     20  C   UNL     1      27.467   9.766  21.741  1.00  0.00    -0.000 C 
BRANCH  20  21
ATOM     21  C   UNL     1      27.471  10.854  20.653  1.00  0.00    -0.000 C 
BRANCH  21  22
ATOM     22  C   UNL     1      26.877  12.189  21.137  1.00  0.00    -0.000 C 
BRANCH  22  23
ATOM     23  C   UNL     1      27.713  13.405  20.694  1.00  0.00    -0.000 C 
BRANCH  23  24
ATOM     24  C   UNL     1      27.130  14.773  21.092  1.00  0.00    -0.000 C 
BRANCH  24  25
ATOM     25  C   UNL     1      28.206  15.773  21.536  1.00  0.00    -0.003 C 
ATOM     26  C   UNL     1      28.368  15.771  23.054  1.00  0.00     0.004 C 
ENDBRANCH  24  25
ENDBRANCH  23  24
ENDBRANCH  22  23
ENDBRANCH  21  22
ENDBRANCH  20  21
ENDBRANCH  19  20
ENDBRANCH  18  19
ENDBRANCH  17  18
ENDBRANCH  16  17
ENDBRANCH  15  16
ENDBRANCH   1  15
TORSDOF 22
ENDMDL
MODEL 6
REMARK VINA RESULT:    -0.059      3.284      7.198
REMARK INTER + INTRA:          -1.990
REMARK INTER:                  -2.058
REMARK INTRA:                   0.068
REMARK UNBOUND:                -1.855
REMARK SMILES CCCCCCCCCCCCCCCCCCCCCCCC(=O)[O-]
REMARK SMILES IDX 13 1 14 2 15 3 16 4 17 5 18 6 19 7 20 8 21 9 22 10 23 11
REMARK SMILES IDX 24 12 25 13 26 14 12 15 11 16 10 17 9 18 8 19 7 20 6 21 5 22
REMARK SMILES IDX 4 23 3 24 2 25 1 26
REMARK H PARENT
REMARK Flexibility Score: inf
ROOT
ATOM      1  C   UNL     1      30.856  13.064  17.583  1.00  0.00     0.000 C 
ENDROOT
BRANCH   1   2
ATOM      2  C   UNL     1      30.410  13.331  19.031  1.00  0.00     0.000 C 
BRANCH   2   3
ATOM      3  C   UNL     1      31.252  12.625  20.112  1.00  0.00     0.000 C 
BRANCH   3   4
ATOM      4  C   UNL     1      30.887  13.070  21.541  1.00  0.00     0.000 C 
BRANCH   4   5
ATOM      5  C   UNL     1      32.039  12.865  22.539  1.00  0.00     0.000 C 
BRANCH   5   6
ATOM      6  C   UNL     1      33.226  13.805  22.280  1.00  0.00     0.000 C 
BRANCH   6   7
ATOM      7  C   UNL     1      32.748  15.241  22.032  1.00  0.00     0.000 C 
BRANCH   7   8
ATOM      8  C   UNL     1      31.451  15.527  22.802  1.00  0.00     0.000 C 
BRANCH   8   9
ATOM      9  C   UNL     1      30.498  16.474  22.050  1.00  0.00     0.000 C 
BRANCH   9  10
ATOM     10  C   UNL     1      29.000  16.194  22.261  1.00  0.00     0.006 C 
BRANCH  10  11
ATOM     11  C   UNL     1      28.734  14.883  23.012  1.00  0.00     0.053 C 
BRANCH  11  12
ATOM     12  C   UNL     1      27.609  14.133  22.373  1.00  0.00     0.041 C 
ATOM     13  O   UNL     1      27.125  14.526  21.279  1.00  0.00    -0.550 OA
ATOM     14  O   UNL     1      27.128  12.967  22.960  1.00  0.00    -0.550 OA
ENDBRANCH  11  12
ENDBRANCH  10  11
ENDBRANCH   9  10
ENDBRANCH   8   9
ENDBRANCH   7   8
ENDBRANCH   6   7
ENDBRANCH   5   6
ENDBRANCH   4   5
ENDBRANCH   3   4
ENDBRANCH   2   3
ENDBRANCH   1   2
BRANCH   1  15
ATOM     15  C   UNL     1      30.599  14.259  16.649  1.00  0.00     0.000 C 
BRANCH  15  16
ATOM     16  C   UNL     1      30.969  15.605  17.295  1.00  0.00     0.000 C 
BRANCH  16  17
ATOM     17  C   UNL     1      29.823  16.221  18.125  1.00  0.00     0.000 C 
BRANCH  17  18
ATOM     18  C   UNL     1      28.531  15.386  18.049  1.00  0.00    -0.000 C 
BRANCH  18  19
ATOM     19  C   UNL     1      27.613  15.830  16.890  1.00  0.00    -0.000 C 
BRANCH  19  20
ATOM     20  C   UNL     1      28.070  17.123  16.186  1.00  0.00    -0.000 C 
BRANCH  20  21
ATOM     21  C   UNL     1      28.277  17.007  14.666  1.00  0.00    -0.000 C 
BRANCH  21  22
ATOM     22  C   UNL     1      29.625  16.366  14.291  1.00  0.00    -0.000 C 
BRANCH  22  23
ATOM     23  C   UNL     1      30.340  17.114  13.150  1.00  0.00    -0.000 C 
BRANCH  23  24
ATOM     24  C   UNL     1      30.952  16.210  12.064  1.00  0.00    -0.000 C 
BRANCH  24  25
ATOM     25  C   UNL     1      32.324  16.700  11.583  1.00  0.00    -0.003 C 
ATOM     26  C   UNL     1      33.172  15.542  11.062  1.00  0.00     0.004 C 
ENDBRANCH  24  25
ENDBRANCH  23  24
ENDBRANCH  22  23
ENDBRANCH  21  22
ENDBRANCH  20  21
ENDBRANCH  19  20
ENDBRANCH  18  19
ENDBRANCH  17  18
ENDBRANCH  16  17
ENDBRANCH  15  16
ENDBRANCH   1  15
TORSDOF 22
ENDMDL
