MODEL 1
REMARK VINA RESULT:    -2.052      0.000      0.000
REMARK INTER + INTRA:          -2.052
REMARK INTER:                  -2.052
REMARK INTRA:                   0.000
REMARK UNBOUND:                 0.000
REMARK SMILES CC(=O)[O-]
REMARK SMILES IDX 1 1 2 2 3 3 4 4
REMARK H PARENT
REMARK Flexibility Score: inf
ROOT
ATOM      1  C   UNL     1      -5.734  -1.429   2.706  1.00  0.00     0.063 C 
ATOM      2  C   UNL     1      -5.016  -0.480   1.808  1.00  0.00     0.038 C 
ATOM      3  O   UNL     1      -4.087   0.238   2.262  1.00  0.00    -0.550 OA
ATOM      4  O   UNL     1      -5.335  -0.422   0.458  1.00  0.00    -0.550 OA
ENDROOT
TORSDOF 0
ENDMDL
MODEL 2
REMARK VINA RESULT:    -2.033     14.135     14.454
REMARK INTER + INTRA:          -2.033
REMARK INTER:                  -2.033
REMARK INTRA:                   0.000
REMARK UNBOUND:                 0.000
REMARK SMILES CC(=O)[O-]
REMARK SMILES IDX 1 1 2 2 3 3 4 4
REMARK H PARENT
REMARK Flexibility Score: inf
ROOT
ATOM      1  C   UNL     1       6.230  -7.354   3.783  1.00  0.00     0.063 C 
ATOM      2  C   UNL     1       6.862  -7.915   5.011  1.00  0.00     0.038 C 
ATOM      3  O   UNL     1       8.061  -8.299   4.985  1.00  0.00    -0.550 OA
ATOM      4  O   UNL     1       6.148  -7.968   6.200  1.00  0.00    -0.550 OA
ENDROOT
TORSDOF 0
ENDMDL
MODEL 3
REMARK VINA RESULT:    -2.023     10.730     10.940
REMARK INTER + INTRA:          -2.023
REMARK INTER:                  -2.023
REMARK INTRA:                   0.000
REMARK UNBOUND:                 0.000
REMARK SMILES CC(=O)[O-]
REMARK SMILES IDX 1 1 2 2 3 3 4 4
REMARK H PARENT
REMARK Flexibility Score: inf
ROOT
ATOM      1  C   UNL     1       6.328  -0.259   0.507  1.00  0.00     0.063 C 
ATOM      2  C   UNL     1       5.673   0.333   1.708  1.00  0.00     0.038 C 
ATOM      3  O   UNL     1       5.412  -0.390   2.706  1.00  0.00    -0.550 OA
ATOM      4  O   UNL     1       5.395   1.693   1.751  1.00  0.00    -0.550 OA
ENDROOT
TORSDOF 0
ENDMDL
MODEL 4
REMARK VINA RESULT:    -2.017      9.059      9.399
REMARK INTER + INTRA:          -2.017
REMARK INTER:                  -2.017
REMARK INTRA:                   0.000
REMARK UNBOUND:                 0.000
REMARK SMILES CC(=O)[O-]
REMARK SMILES IDX 1 1 2 2 3 3 4 4
REMARK H PARENT
REMARK Flexibility Score: inf
ROOT
ATOM      1  C   UNL     1       2.579   4.631   0.904  1.00  0.00     0.063 C 
ATOM      2  C   UNL     1       3.063   3.793   2.038  1.00  0.00     0.038 C 
ATOM      3  O   UNL     1       4.135   3.141   1.927  1.00  0.00    -0.550 OA
ATOM      4  O   UNL     1       2.362   3.769   3.236  1.00  0.00    -0.550 OA
ENDROOT
TORSDOF 0
ENDMDL
MODEL 5
REMARK VINA RESULT:    -1.994     10.677     10.828
REMARK INTER + INTRA:          -1.994
REMARK INTER:                  -1.994
REMARK INTRA:                   0.000
REMARK UNBOUND:                 0.000
REMARK SMILES CC(=O)[O-]
REMARK SMILES IDX 1 1 2 2 3 3 4 4
REMARK H PARENT
REMARK Flexibility Score: inf
ROOT
ATOM      1  C   UNL     1       5.868   0.017   0.232  1.00  0.00     0.063 C 
ATOM      2  C   UNL     1       5.570   0.522   1.604  1.00  0.00     0.038 C 
ATOM      3  O   UNL     1       5.436   1.758   1.806  1.00  0.00    -0.550 OA
ATOM      4  O   UNL     1       5.388  -0.371   2.651  1.00  0.00    -0.550 OA
ENDROOT
TORSDOF 0
ENDMDL
MODEL 6
REMARK VINA RESULT:    -1.878      1.527      2.251
REMARK INTER + INTRA:          -1.878
REMARK INTER:                  -1.878
REMARK INTRA:                   0.000
REMARK UNBOUND:                 0.000
REMARK SMILES CC(=O)[O-]
REMARK SMILES IDX 1 1 2 2 3 3 4 4
REMARK H PARENT
REMARK Flexibility Score: inf
ROOT
ATOM      1  C   UNL     1      -4.427   0.368   2.359  1.00  0.00     0.063 C 
ATOM      2  C   UNL     1      -5.398  -0.735   2.107  1.00  0.00     0.038 C 
ATOM      3  O   UNL     1      -5.981  -0.821   0.994  1.00  0.00    -0.550 OA
ATOM      4  O   UNL     1      -5.623  -1.700   3.080  1.00  0.00    -0.550 OA
ENDROOT
TORSDOF 0
ENDMDL
MODEL 7
REMARK VINA RESULT:    -1.781      9.576      9.885
REMARK INTER + INTRA:          -1.781
REMARK INTER:                  -1.781
REMARK INTRA:                   0.000
REMARK UNBOUND:                 0.000
REMARK SMILES CC(=O)[O-]
REMARK SMILES IDX 1 1 2 2 3 3 4 4
REMARK H PARENT
REMARK Flexibility Score: inf
ROOT
ATOM      1  C   UNL     1       2.639  -2.510  -5.710  1.00  0.00     0.063 C 
ATOM      2  C   UNL     1       2.262  -2.480  -4.267  1.00  0.00     0.038 C 
ATOM      3  O   UNL     1       2.663  -1.541  -3.530  1.00  0.00    -0.550 OA
ATOM      4  O   UNL     1       1.425  -3.458  -3.746  1.00  0.00    -0.550 OA
ENDROOT
TORSDOF 0
ENDMDL
MODEL 8
REMARK VINA RESULT:    -1.753      9.420      9.757
REMARK INTER + INTRA:          -1.753
REMARK INTER:                  -1.753
REMARK INTRA:                   0.000
REMARK UNBOUND:                 0.000
REMARK SMILES CC(=O)[O-]
REMARK SMILES IDX 1 1 2 2 3 3 4 4
REMARK H PARENT
REMARK Flexibility Score: inf
ROOT
ATOM      1  C   UNL     1       1.429  -3.821  -3.685  1.00  0.00     0.063 C 
ATOM      2  C   UNL     1       2.139  -2.662  -4.297  1.00  0.00     0.038 C 
ATOM      3  O   UNL     1       2.243  -2.575  -5.549  1.00  0.00    -0.550 OA
ATOM      4  O   UNL     1       2.641  -1.648  -3.492  1.00  0.00    -0.550 OA
ENDROOT
TORSDOF 0
ENDMDL
MODEL 9
REMARK VINA RESULT:    -1.706      7.723      8.205
REMARK INTER + INTRA:          -1.706
REMARK INTER:                  -1.706
REMARK INTRA:                   0.000
REMARK UNBOUND:                 0.000
REMARK SMILES CC(=O)[O-]
REMARK SMILES IDX 1 1 2 2 3 3 4 4
REMARK H PARENT
REMARK Flexibility Score: inf
ROOT
ATOM      1  C   UNL     1      -2.243  -6.141   4.741  1.00  0.00     0.063 C 
ATOM      2  C   UNL     1      -2.061  -6.481   6.181  1.00  0.00     0.038 C 
ATOM      3  O   UNL     1      -2.773  -5.924   7.056  1.00  0.00    -0.550 OA
ATOM      4  O   UNL     1      -1.142  -7.453   6.556  1.00  0.00    -0.550 OA
ENDROOT
TORSDOF 0
ENDMDL
