MODEL 1
REMARK VINA RESULT:    -4.342      0.000      0.000
REMARK INTER + INTRA:         -15.183
REMARK INTER:                 -10.942
REMARK INTRA:                  -4.241
REMARK UNBOUND:                -4.241
REMARK SMILES CCCCCCCCCCCCCCCCCCCCCCCCCCCC(=O)[O-]
REMARK SMILES IDX 15 1 16 2 17 3 18 4 19 5 20 6 21 7 22 8 23 9 24 10 25 11
REMARK SMILES IDX 26 12 27 13 28 14 29 15 30 16 14 17 13 18 12 19 11 20 10 21
REMARK SMILES IDX 9 22 8 23 7 24 6 25 5 26 4 27 3 28 2 29 1 30
REMARK H PARENT
REMARK Flexibility Score: inf
ROOT
ATOM      1  C   UNL     1      99.167  83.302  81.405  1.00  0.00     0.000 C 
ENDROOT
BRANCH   1   2
ATOM      2  C   UNL     1     100.255  82.989  82.441  1.00  0.00     0.000 C 
BRANCH   2   3
ATOM      3  C   UNL     1     101.388  84.036  82.468  1.00  0.00     0.000 C 
BRANCH   3   4
ATOM      4  C   UNL     1     101.639  84.673  83.851  1.00  0.00     0.000 C 
BRANCH   4   5
ATOM      5  C   UNL     1     101.931  86.183  83.835  1.00  0.00     0.000 C 
BRANCH   5   6
ATOM      6  C   UNL     1     102.066  86.774  82.413  1.00  0.00     0.000 C 
BRANCH   6   7
ATOM      7  C   UNL     1     100.930  87.758  82.085  1.00  0.00     0.000 C 
BRANCH   7   8
ATOM      8  C   UNL     1      99.852  87.146  81.173  1.00  0.00     0.000 C 
BRANCH   8   9
ATOM      9  C   UNL     1      98.431  87.099  81.771  1.00  0.00     0.000 C 
BRANCH   9  10
ATOM     10  C   UNL     1      98.316  86.400  83.137  1.00  0.00     0.000 C 
BRANCH  10  11
ATOM     11  C   UNL     1      96.888  85.922  83.449  1.00  0.00     0.000 C 
BRANCH  11  12
ATOM     12  C   UNL     1      96.878  84.642  84.304  1.00  0.00     0.006 C 
BRANCH  12  13
ATOM     13  C   UNL     1      98.164  84.488  85.129  1.00  0.00     0.053 C 
BRANCH  13  14
ATOM     14  C   UNL     1      97.952  84.961  86.532  1.00  0.00     0.041 C 
ATOM     15  O   UNL     1      97.032  84.469  87.235  1.00  0.00    -0.550 OA
ATOM     16  O   UNL     1      98.760  85.960  87.060  1.00  0.00    -0.550 OA
ENDBRANCH  13  14
ENDBRANCH  12  13
ENDBRANCH  11  12
ENDBRANCH  10  11
ENDBRANCH   9  10
ENDBRANCH   8   9
ENDBRANCH   7   8
ENDBRANCH   6   7
ENDBRANCH   5   6
ENDBRANCH   4   5
ENDBRANCH   3   4
ENDBRANCH   2   3
ENDBRANCH   1   2
BRANCH   1  17
ATOM     17  C   UNL     1      97.983  82.335  81.541  1.00  0.00     0.000 C 
BRANCH  17  18
ATOM     18  C   UNL     1      96.748  82.786  80.741  1.00  0.00     0.000 C 
BRANCH  18  19
ATOM     19  C   UNL     1      96.812  84.230  80.204  1.00  0.00     0.000 C 
BRANCH  19  20
ATOM     20  C   UNL     1      95.540  84.718  79.480  1.00  0.00     0.000 C 
BRANCH  20  21
ATOM     21  C   UNL     1      94.511  85.423  80.382  1.00  0.00     0.000 C 
BRANCH  21  22
ATOM     22  C   UNL     1      94.017  84.528  81.531  1.00  0.00    -0.000 C 
BRANCH  22  23
ATOM     23  C   UNL     1      93.160  85.296  82.550  1.00  0.00    -0.000 C 
BRANCH  23  24
ATOM     24  C   UNL     1      92.166  84.389  83.290  1.00  0.00    -0.000 C 
BRANCH  24  25
ATOM     25  C   UNL     1      90.822  84.331  82.553  1.00  0.00    -0.000 C 
BRANCH  25  26
ATOM     26  C   UNL     1      90.805  83.187  81.528  1.00  0.00    -0.000 C 
BRANCH  26  27
ATOM     27  C   UNL     1      90.342  83.646  80.137  1.00  0.00    -0.000 C 
BRANCH  27  28
ATOM     28  C   UNL     1      88.844  83.389  79.896  1.00  0.00    -0.000 C 
BRANCH  28  29
ATOM     29  C   UNL     1      88.338  82.137  80.629  1.00  0.00    -0.003 C 
ATOM     30  C   UNL     1      87.444  81.260  79.751  1.00  0.00     0.004 C 
ENDBRANCH  28  29
ENDBRANCH  27  28
ENDBRANCH  26  27
ENDBRANCH  25  26
ENDBRANCH  24  25
ENDBRANCH  23  24
ENDBRANCH  22  23
ENDBRANCH  21  22
ENDBRANCH  20  21
ENDBRANCH  19  20
ENDBRANCH  18  19
ENDBRANCH  17  18
ENDBRANCH   1  17
TORSDOF 26
ENDMDL
MODEL 2
REMARK VINA RESULT:    -4.302      3.236      8.328
REMARK INTER + INTRA:         -15.082
REMARK INTER:                 -10.582
REMARK INTRA:                  -4.500
REMARK UNBOUND:                -4.241
REMARK SMILES CCCCCCCCCCCCCCCCCCCCCCCCCCCC(=O)[O-]
REMARK SMILES IDX 15 1 16 2 17 3 18 4 19 5 20 6 21 7 22 8 23 9 24 10 25 11
REMARK SMILES IDX 26 12 27 13 28 14 29 15 30 16 14 17 13 18 12 19 11 20 10 21
REMARK SMILES IDX 9 22 8 23 7 24 6 25 5 26 4 27 3 28 2 29 1 30
REMARK H PARENT
REMARK Flexibility Score: inf
ROOT
ATOM      1  C   UNL     1     100.595  83.477  82.989  1.00  0.00     0.000 C 
ENDROOT
BRANCH   1   2
ATOM      2  C   UNL     1      99.947  83.022  81.674  1.00  0.00     0.000 C 
BRANCH   2   3
ATOM      3  C   UNL     1      98.494  82.534  81.850  1.00  0.00     0.000 C 
BRANCH   3   4
ATOM      4  C   UNL     1      97.626  82.635  80.577  1.00  0.00     0.000 C 
BRANCH   4   5
ATOM      5  C   UNL     1      96.238  83.267  80.777  1.00  0.00     0.000 C 
BRANCH   5   6
ATOM      6  C   UNL     1      95.983  84.500  79.880  1.00  0.00     0.000 C 
BRANCH   6   7
ATOM      7  C   UNL     1      95.217  85.608  80.624  1.00  0.00     0.000 C 
BRANCH   7   8
ATOM      8  C   UNL     1      94.098  85.060  81.528  1.00  0.00     0.000 C 
BRANCH   8   9
ATOM      9  C   UNL     1      92.816  84.615  80.793  1.00  0.00     0.000 C 
BRANCH   9  10
ATOM     10  C   UNL     1      92.127  83.368  81.371  1.00  0.00     0.000 C 
BRANCH  10  11
ATOM     11  C   UNL     1      91.120  83.700  82.486  1.00  0.00     0.000 C 
BRANCH  11  12
ATOM     12  C   UNL     1      89.749  84.114  81.924  1.00  0.00     0.006 C 
BRANCH  12  13
ATOM     13  C   UNL     1      89.185  83.071  80.948  1.00  0.00     0.053 C 
BRANCH  13  14
ATOM     14  C   UNL     1      88.841  83.705  79.637  1.00  0.00     0.041 C 
ATOM     15  O   UNL     1      87.679  83.598  79.166  1.00  0.00    -0.550 OA
ATOM     16  O   UNL     1      89.810  84.402  78.925  1.00  0.00    -0.550 OA
ENDBRANCH  13  14
ENDBRANCH  12  13
ENDBRANCH  11  12
ENDBRANCH  10  11
ENDBRANCH   9  10
ENDBRANCH   8   9
ENDBRANCH   7   8
ENDBRANCH   6   7
ENDBRANCH   5   6
ENDBRANCH   4   5
ENDBRANCH   3   4
ENDBRANCH   2   3
ENDBRANCH   1   2
BRANCH   1  17
ATOM     17  C   UNL     1     101.723  84.484  82.726  1.00  0.00     0.000 C 
BRANCH  17  18
ATOM     18  C   UNL     1     101.658  85.712  83.653  1.00  0.00     0.000 C 
BRANCH  18  19
ATOM     19  C   UNL     1     102.256  87.004  83.063  1.00  0.00     0.000 C 
BRANCH  19  20
ATOM     20  C   UNL     1     101.877  87.293  81.595  1.00  0.00     0.000 C 
BRANCH  20  21
ATOM     21  C   UNL     1     100.642  88.191  81.409  1.00  0.00     0.000 C 
BRANCH  21  22
ATOM     22  C   UNL     1      99.554  87.534  80.544  1.00  0.00    -0.000 C 
BRANCH  22  23
ATOM     23  C   UNL     1      98.777  86.445  81.299  1.00  0.00    -0.000 C 
BRANCH  23  24
ATOM     24  C   UNL     1      98.294  86.912  82.681  1.00  0.00    -0.000 C 
BRANCH  24  25
ATOM     25  C   UNL     1      97.679  85.750  83.469  1.00  0.00    -0.000 C 
BRANCH  25  26
ATOM     26  C   UNL     1      98.067  85.824  84.954  1.00  0.00    -0.000 C 
BRANCH  26  27
ATOM     27  C   UNL     1      98.091  84.444  85.629  1.00  0.00    -0.000 C 
BRANCH  27  28
ATOM     28  C   UNL     1      98.931  84.429  86.917  1.00  0.00    -0.000 C 
BRANCH  28  29
ATOM     29  C   UNL     1     100.384  83.997  86.667  1.00  0.00    -0.003 C 
ATOM     30  C   UNL     1     101.401  84.946  87.302  1.00  0.00     0.004 C 
ENDBRANCH  28  29
ENDBRANCH  27  28
ENDBRANCH  26  27
ENDBRANCH  25  26
ENDBRANCH  24  25
ENDBRANCH  23  24
ENDBRANCH  22  23
ENDBRANCH  21  22
ENDBRANCH  20  21
ENDBRANCH  19  20
ENDBRANCH  18  19
ENDBRANCH  17  18
ENDBRANCH   1  17
TORSDOF 26
ENDMDL
MODEL 3
REMARK VINA RESULT:    -4.291      1.997      8.227
REMARK INTER + INTRA:         -15.054
REMARK INTER:                 -10.378
REMARK INTRA:                  -4.676
REMARK UNBOUND:                -4.241
REMARK SMILES CCCCCCCCCCCCCCCCCCCCCCCCCCCC(=O)[O-]
REMARK SMILES IDX 15 1 16 2 17 3 18 4 19 5 20 6 21 7 22 8 23 9 24 10 25 11
REMARK SMILES IDX 26 12 27 13 28 14 29 15 30 16 14 17 13 18 12 19 11 20 10 21
REMARK SMILES IDX 9 22 8 23 7 24 6 25 5 26 4 27 3 28 2 29 1 30
REMARK H PARENT
REMARK Flexibility Score: inf
ROOT
ATOM      1  C   UNL     1      94.244  84.817  81.316  1.00  0.00     0.000 C 
ENDROOT
BRANCH   1   2
ATOM      2  C   UNL     1      93.943  83.436  80.718  1.00  0.00     0.000 C 
BRANCH   2   3
ATOM      3  C   UNL     1      93.287  83.507  79.324  1.00  0.00     0.000 C 
BRANCH   3   4
ATOM      4  C   UNL     1      92.858  84.925  78.889  1.00  0.00     0.000 C 
BRANCH   4   5
ATOM      5  C   UNL     1      91.352  85.106  78.633  1.00  0.00     0.000 C 
BRANCH   5   6
ATOM      6  C   UNL     1      90.504  83.872  79.018  1.00  0.00     0.000 C 
BRANCH   6   7
ATOM      7  C   UNL     1      89.664  84.119  80.282  1.00  0.00     0.000 C 
BRANCH   7   8
ATOM      8  C   UNL     1      89.998  83.141  81.424  1.00  0.00     0.000 C 
BRANCH   8   9
ATOM      9  C   UNL     1      90.886  83.717  82.546  1.00  0.00     0.000 C 
BRANCH   9  10
ATOM     10  C   UNL     1      90.853  85.248  82.689  1.00  0.00     0.000 C 
BRANCH  10  11
ATOM     11  C   UNL     1      91.717  85.762  83.853  1.00  0.00     0.000 C 
BRANCH  11  12
ATOM     12  C   UNL     1      92.465  84.623  84.568  1.00  0.00     0.006 C 
BRANCH  12  13
ATOM     13  C   UNL     1      93.745  85.115  85.258  1.00  0.00     0.053 C 
BRANCH  13  14
ATOM     14  C   UNL     1      93.706  84.810  86.723  1.00  0.00     0.041 C 
ATOM     15  O   UNL     1      93.221  85.643  87.531  1.00  0.00    -0.550 OA
ATOM     16  O   UNL     1      94.224  83.611  87.198  1.00  0.00    -0.550 OA
ENDBRANCH  13  14
ENDBRANCH  12  13
ENDBRANCH  11  12
ENDBRANCH  10  11
ENDBRANCH   9  10
ENDBRANCH   8   9
ENDBRANCH   7   8
ENDBRANCH   6   7
ENDBRANCH   5   6
ENDBRANCH   4   5
ENDBRANCH   3   4
ENDBRANCH   2   3
ENDBRANCH   1   2
BRANCH   1  17
ATOM     17  C   UNL     1      95.697  84.902  81.802  1.00  0.00     0.000 C 
BRANCH  17  18
ATOM     18  C   UNL     1      96.694  85.174  80.660  1.00  0.00     0.000 C 
BRANCH  18  19
ATOM     19  C   UNL     1      97.566  83.968  80.256  1.00  0.00     0.000 C 
BRANCH  19  20
ATOM     20  C   UNL     1      97.421  82.723  81.156  1.00  0.00     0.000 C 
BRANCH  20  21
ATOM     21  C   UNL     1      98.746  82.156  81.696  1.00  0.00     0.000 C 
BRANCH  21  22
ATOM     22  C   UNL     1      99.835  83.232  81.845  1.00  0.00    -0.000 C 
BRANCH  22  23
ATOM     23  C   UNL     1     100.173  83.530  83.314  1.00  0.00    -0.000 C 
BRANCH  23  24
ATOM     24  C   UNL     1     100.155  85.033  83.633  1.00  0.00    -0.000 C 
BRANCH  24  25
ATOM     25  C   UNL     1      98.718  85.541  83.804  1.00  0.00    -0.000 C 
BRANCH  25  26
ATOM     26  C   UNL     1      97.900  84.590  84.692  1.00  0.00    -0.000 C 
BRANCH  26  27
ATOM     27  C   UNL     1      97.309  85.292  85.924  1.00  0.00    -0.000 C 
BRANCH  27  28
ATOM     28  C   UNL     1      97.808  84.687  87.247  1.00  0.00    -0.000 C 
BRANCH  28  29
ATOM     29  C   UNL     1      99.338  84.556  87.294  1.00  0.00    -0.003 C 
ATOM     30  C   UNL     1      99.930  85.018  88.626  1.00  0.00     0.004 C 
ENDBRANCH  28  29
ENDBRANCH  27  28
ENDBRANCH  26  27
ENDBRANCH  25  26
ENDBRANCH  24  25
ENDBRANCH  23  24
ENDBRANCH  22  23
ENDBRANCH  21  22
ENDBRANCH  20  21
ENDBRANCH  19  20
ENDBRANCH  18  19
ENDBRANCH  17  18
ENDBRANCH   1  17
TORSDOF 26
ENDMDL
MODEL 4
REMARK VINA RESULT:    -4.286      2.457      4.559
REMARK INTER + INTRA:         -15.042
REMARK INTER:                 -10.433
REMARK INTRA:                  -4.609
REMARK UNBOUND:                -4.241
REMARK SMILES CCCCCCCCCCCCCCCCCCCCCCCCCCCC(=O)[O-]
REMARK SMILES IDX 15 1 16 2 17 3 18 4 19 5 20 6 21 7 22 8 23 9 24 10 25 11
REMARK SMILES IDX 26 12 27 13 28 14 29 15 30 16 14 17 13 18 12 19 11 20 10 21
REMARK SMILES IDX 9 22 8 23 7 24 6 25 5 26 4 27 3 28 2 29 1 30
REMARK H PARENT
REMARK Flexibility Score: inf
ROOT
ATOM      1  C   UNL     1      95.758  84.242  80.569  1.00  0.00     0.000 C 
ENDROOT
BRANCH   1   2
ATOM      2  C   UNL     1      97.226  84.111  80.142  1.00  0.00     0.000 C 
BRANCH   2   3
ATOM      3  C   UNL     1      97.889  82.808  80.637  1.00  0.00     0.000 C 
BRANCH   3   4
ATOM      4  C   UNL     1      98.723  82.964  81.926  1.00  0.00     0.000 C 
BRANCH   4   5
ATOM      5  C   UNL     1     100.247  82.897  81.734  1.00  0.00     0.000 C 
BRANCH   5   6
ATOM      6  C   UNL     1     101.036  83.808  82.702  1.00  0.00     0.000 C 
BRANCH   6   7
ATOM      7  C   UNL     1     100.617  83.596  84.166  1.00  0.00     0.000 C 
BRANCH   7   8
ATOM      8  C   UNL     1     100.682  84.889  85.001  1.00  0.00     0.000 C 
BRANCH   8   9
ATOM      9  C   UNL     1      99.869  86.075  84.442  1.00  0.00     0.000 C 
BRANCH   9  10
ATOM     10  C   UNL     1      98.357  85.828  84.305  1.00  0.00     0.000 C 
BRANCH  10  11
ATOM     11  C   UNL     1      97.776  86.370  82.988  1.00  0.00     0.000 C 
BRANCH  11  12
ATOM     12  C   UNL     1      98.877  86.784  81.995  1.00  0.00     0.006 C 
BRANCH  12  13
ATOM     13  C   UNL     1      98.645  88.192  81.429  1.00  0.00     0.053 C 
BRANCH  13  14
ATOM     14  C   UNL     1      97.309  88.281  80.761  1.00  0.00     0.041 C 
ATOM     15  O   UNL     1      97.048  87.556  79.766  1.00  0.00    -0.550 OA
ATOM     16  O   UNL     1      96.356  89.178  81.227  1.00  0.00    -0.550 OA
ENDBRANCH  13  14
ENDBRANCH  12  13
ENDBRANCH  11  12
ENDBRANCH  10  11
ENDBRANCH   9  10
ENDBRANCH   8   9
ENDBRANCH   7   8
ENDBRANCH   6   7
ENDBRANCH   5   6
ENDBRANCH   4   5
ENDBRANCH   3   4
ENDBRANCH   2   3
ENDBRANCH   1   2
BRANCH   1  17
ATOM     17  C   UNL     1      95.067  82.871  80.589  1.00  0.00     0.000 C 
BRANCH  17  18
ATOM     18  C   UNL     1      93.558  82.958  80.296  1.00  0.00     0.000 C 
BRANCH  18  19
ATOM     19  C   UNL     1      93.145  84.095  79.341  1.00  0.00     0.000 C 
BRANCH  19  20
ATOM     20  C   UNL     1      91.718  83.982  78.764  1.00  0.00     0.000 C 
BRANCH  20  21
ATOM     21  C   UNL     1      91.110  85.309  78.276  1.00  0.00     0.000 C 
BRANCH  21  22
ATOM     22  C   UNL     1      89.649  85.490  78.719  1.00  0.00    -0.000 C 
BRANCH  22  23
ATOM     23  C   UNL     1      89.078  84.236  79.398  1.00  0.00    -0.000 C 
BRANCH  23  24
ATOM     24  C   UNL     1      88.159  84.570  80.583  1.00  0.00    -0.000 C 
BRANCH  24  25
ATOM     25  C   UNL     1      88.592  83.810  81.843  1.00  0.00    -0.000 C 
BRANCH  25  26
ATOM     26  C   UNL     1      90.072  83.406  81.763  1.00  0.00    -0.000 C 
BRANCH  26  27
ATOM     27  C   UNL     1      90.960  84.221  82.716  1.00  0.00    -0.000 C 
BRANCH  27  28
ATOM     28  C   UNL     1      91.284  85.623  82.171  1.00  0.00    -0.000 C 
BRANCH  28  29
ATOM     29  C   UNL     1      92.726  86.054  82.479  1.00  0.00    -0.003 C 
ATOM     30  C   UNL     1      93.432  85.104  83.448  1.00  0.00     0.004 C 
ENDBRANCH  28  29
ENDBRANCH  27  28
ENDBRANCH  26  27
ENDBRANCH  25  26
ENDBRANCH  24  25
ENDBRANCH  23  24
ENDBRANCH  22  23
ENDBRANCH  21  22
ENDBRANCH  20  21
ENDBRANCH  19  20
ENDBRANCH  18  19
ENDBRANCH  17  18
ENDBRANCH   1  17
TORSDOF 26
ENDMDL
MODEL 5
REMARK VINA RESULT:    -4.268      2.506      4.524
REMARK INTER + INTRA:         -14.997
REMARK INTER:                 -10.290
REMARK INTRA:                  -4.706
REMARK UNBOUND:                -4.241
REMARK SMILES CCCCCCCCCCCCCCCCCCCCCCCCCCCC(=O)[O-]
REMARK SMILES IDX 15 1 16 2 17 3 18 4 19 5 20 6 21 7 22 8 23 9 24 10 25 11
REMARK SMILES IDX 26 12 27 13 28 14 29 15 30 16 14 17 13 18 12 19 11 20 10 21
REMARK SMILES IDX 9 22 8 23 7 24 6 25 5 26 4 27 3 28 2 29 1 30
REMARK H PARENT
REMARK Flexibility Score: inf
ROOT
ATOM      1  C   UNL     1      97.977  84.531  85.043  1.00  0.00     0.000 C 
ENDROOT
BRANCH   1   2
ATOM      2  C   UNL     1      98.604  85.491  84.023  1.00  0.00     0.000 C 
BRANCH   2   3
ATOM      3  C   UNL     1     100.141  85.380  83.948  1.00  0.00     0.000 C 
BRANCH   3   4
ATOM      4  C   UNL     1     100.676  84.760  82.640  1.00  0.00     0.000 C 
BRANCH   4   5
ATOM      5  C   UNL     1     100.345  83.271  82.436  1.00  0.00     0.000 C 
BRANCH   5   6
ATOM      6  C   UNL     1      99.392  83.004  81.249  1.00  0.00     0.000 C 
BRANCH   6   7
ATOM      7  C   UNL     1      98.086  82.325  81.695  1.00  0.00     0.000 C 
BRANCH   7   8
ATOM      8  C   UNL     1      96.870  82.756  80.855  1.00  0.00     0.000 C 
BRANCH   8   9
ATOM      9  C   UNL     1      96.963  84.166  80.236  1.00  0.00     0.000 C 
BRANCH   9  10
ATOM     10  C   UNL     1      96.440  85.309  81.124  1.00  0.00     0.000 C 
BRANCH  10  11
ATOM     11  C   UNL     1      95.726  86.412  80.324  1.00  0.00     0.000 C 
BRANCH  11  12
ATOM     12  C   UNL     1      96.353  87.797  80.557  1.00  0.00     0.006 C 
BRANCH  12  13
ATOM     13  C   UNL     1      97.235  88.238  79.380  1.00  0.00     0.053 C 
BRANCH  13  14
ATOM     14  C   UNL     1      98.677  88.263  79.780  1.00  0.00     0.041 C 
ATOM     15  O   UNL     1      99.154  87.343  80.494  1.00  0.00    -0.550 OA
ATOM     16  O   UNL     1      99.492  89.315  79.379  1.00  0.00    -0.550 OA
ENDBRANCH  13  14
ENDBRANCH  12  13
ENDBRANCH  11  12
ENDBRANCH  10  11
ENDBRANCH   9  10
ENDBRANCH   8   9
ENDBRANCH   7   8
ENDBRANCH   6   7
ENDBRANCH   5   6
ENDBRANCH   4   5
ENDBRANCH   3   4
ENDBRANCH   2   3
ENDBRANCH   1   2
BRANCH   1  17
ATOM     17  C   UNL     1      96.454  84.706  85.099  1.00  0.00     0.000 C 
BRANCH  17  18
ATOM     18  C   UNL     1      96.006  86.147  84.792  1.00  0.00     0.000 C 
BRANCH  18  19
ATOM     19  C   UNL     1      94.482  86.377  84.834  1.00  0.00     0.000 C 
BRANCH  19  20
ATOM     20  C   UNL     1      93.765  86.270  83.472  1.00  0.00     0.000 C 
BRANCH  20  21
ATOM     21  C   UNL     1      93.125  84.900  83.182  1.00  0.00     0.000 C 
BRANCH  21  22
ATOM     22  C   UNL     1      92.643  84.765  81.728  1.00  0.00    -0.000 C 
BRANCH  22  23
ATOM     23  C   UNL     1      93.266  83.558  81.010  1.00  0.00    -0.000 C 
BRANCH  23  24
ATOM     24  C   UNL     1      92.934  83.524  79.511  1.00  0.00    -0.000 C 
BRANCH  24  25
ATOM     25  C   UNL     1      92.537  84.917  79.006  1.00  0.00    -0.000 C 
BRANCH  25  26
ATOM     26  C   UNL     1      91.185  84.875  78.278  1.00  0.00    -0.000 C 
BRANCH  26  27
ATOM     27  C   UNL     1      89.992  84.861  79.246  1.00  0.00    -0.000 C 
BRANCH  27  28
ATOM     28  C   UNL     1      89.382  83.458  79.415  1.00  0.00    -0.000 C 
BRANCH  28  29
ATOM     29  C   UNL     1      89.197  83.072  80.890  1.00  0.00    -0.003 C 
ATOM     30  C   UNL     1      89.129  84.288  81.815  1.00  0.00     0.004 C 
ENDBRANCH  28  29
ENDBRANCH  27  28
ENDBRANCH  26  27
ENDBRANCH  25  26
ENDBRANCH  24  25
ENDBRANCH  23  24
ENDBRANCH  22  23
ENDBRANCH  21  22
ENDBRANCH  20  21
ENDBRANCH  19  20
ENDBRANCH  18  19
ENDBRANCH  17  18
ENDBRANCH   1  17
TORSDOF 26
ENDMDL
MODEL 6
REMARK VINA RESULT:    -4.245      3.087      7.427
REMARK INTER + INTRA:         -14.939
REMARK INTER:                 -10.616
REMARK INTRA:                  -4.323
REMARK UNBOUND:                -4.241
REMARK SMILES CCCCCCCCCCCCCCCCCCCCCCCCCCCC(=O)[O-]
REMARK SMILES IDX 15 1 16 2 17 3 18 4 19 5 20 6 21 7 22 8 23 9 24 10 25 11
REMARK SMILES IDX 26 12 27 13 28 14 29 15 30 16 14 17 13 18 12 19 11 20 10 21
REMARK SMILES IDX 9 22 8 23 7 24 6 25 5 26 4 27 3 28 2 29 1 30
REMARK H PARENT
REMARK Flexibility Score: inf
ROOT
ATOM      1  C   UNL     1      99.184  85.194  85.608  1.00  0.00     0.000 C 
ENDROOT
BRANCH   1   2
ATOM      2  C   UNL     1      97.812  84.791  85.051  1.00  0.00     0.000 C 
BRANCH   2   3
ATOM      3  C   UNL     1      96.908  84.107  86.098  1.00  0.00     0.000 C 
BRANCH   3   4
ATOM      4  C   UNL     1      96.754  84.888  87.419  1.00  0.00     0.000 C 
BRANCH   4   5
ATOM      5  C   UNL     1      95.365  84.800  88.076  1.00  0.00     0.000 C 
BRANCH   5   6
ATOM      6  C   UNL     1      94.314  84.070  87.209  1.00  0.00     0.000 C 
BRANCH   6   7
ATOM      7  C   UNL     1      93.202  85.018  86.727  1.00  0.00     0.000 C 
BRANCH   7   8
ATOM      8  C   UNL     1      93.657  85.942  85.583  1.00  0.00     0.000 C 
BRANCH   8   9
ATOM      9  C   UNL     1      93.879  85.247  84.223  1.00  0.00     0.000 C 
BRANCH   9  10
ATOM     10  C   UNL     1      92.667  85.258  83.275  1.00  0.00     0.000 C 
BRANCH  10  11
ATOM     11  C   UNL     1      91.677  84.114  83.553  1.00  0.00     0.000 C 
BRANCH  11  12
ATOM     12  C   UNL     1      91.027  83.583  82.264  1.00  0.00     0.006 C 
BRANCH  12  13
ATOM     13  C   UNL     1      92.052  83.386  81.138  1.00  0.00     0.053 C 
BRANCH  13  14
ATOM     14  C   UNL     1      91.471  83.785  79.818  1.00  0.00     0.041 C 
ATOM     15  O   UNL     1      92.221  83.975  78.826  1.00  0.00    -0.550 OA
ATOM     16  O   UNL     1      90.099  83.964  79.687  1.00  0.00    -0.550 OA
ENDBRANCH  13  14
ENDBRANCH  12  13
ENDBRANCH  11  12
ENDBRANCH  10  11
ENDBRANCH   9  10
ENDBRANCH   8   9
ENDBRANCH   7   8
ENDBRANCH   6   7
ENDBRANCH   5   6
ENDBRANCH   4   5
ENDBRANCH   3   4
ENDBRANCH   2   3
ENDBRANCH   1   2
BRANCH   1  17
ATOM     17  C   UNL     1      99.944  83.970  86.137  1.00  0.00     0.000 C 
BRANCH  17  18
ATOM     18  C   UNL     1     100.892  83.357  85.090  1.00  0.00     0.000 C 
BRANCH  18  19
ATOM     19  C   UNL     1     101.264  84.292  83.922  1.00  0.00     0.000 C 
BRANCH  19  20
ATOM     20  C   UNL     1     100.932  83.751  82.516  1.00  0.00     0.000 C 
BRANCH  20  21
ATOM     21  C   UNL     1      99.568  83.047  82.399  1.00  0.00     0.000 C 
BRANCH  21  22
ATOM     22  C   UNL     1      98.864  83.336  81.063  1.00  0.00    -0.000 C 
BRANCH  22  23
ATOM     23  C   UNL     1      97.676  82.396  80.806  1.00  0.00    -0.000 C 
BRANCH  23  24
ATOM     24  C   UNL     1      96.320  83.099  80.962  1.00  0.00    -0.000 C 
BRANCH  24  25
ATOM     25  C   UNL     1      96.197  84.277  79.987  1.00  0.00    -0.000 C 
BRANCH  25  26
ATOM     26  C   UNL     1      95.181  85.311  80.497  1.00  0.00    -0.000 C 
BRANCH  26  27
ATOM     27  C   UNL     1      95.829  86.662  80.834  1.00  0.00    -0.000 C 
BRANCH  27  28
ATOM     28  C   UNL     1      96.978  86.532  81.849  1.00  0.00    -0.000 C 
BRANCH  28  29
ATOM     29  C   UNL     1      98.252  87.258  81.390  1.00  0.00    -0.003 C 
ATOM     30  C   UNL     1      99.418  87.077  82.363  1.00  0.00     0.004 C 
ENDBRANCH  28  29
ENDBRANCH  27  28
ENDBRANCH  26  27
ENDBRANCH  25  26
ENDBRANCH  24  25
ENDBRANCH  23  24
ENDBRANCH  22  23
ENDBRANCH  21  22
ENDBRANCH  20  21
ENDBRANCH  19  20
ENDBRANCH  18  19
ENDBRANCH  17  18
ENDBRANCH   1  17
TORSDOF 26
ENDMDL
MODEL 7
REMARK VINA RESULT:    -4.241      2.715      7.326
REMARK INTER + INTRA:         -14.927
REMARK INTER:                  -9.607
REMARK INTRA:                  -5.320
REMARK UNBOUND:                -4.241
REMARK SMILES CCCCCCCCCCCCCCCCCCCCCCCCCCCC(=O)[O-]
REMARK SMILES IDX 15 1 16 2 17 3 18 4 19 5 20 6 21 7 22 8 23 9 24 10 25 11
REMARK SMILES IDX 26 12 27 13 28 14 29 15 30 16 14 17 13 18 12 19 11 20 10 21
REMARK SMILES IDX 9 22 8 23 7 24 6 25 5 26 4 27 3 28 2 29 1 30
REMARK H PARENT
REMARK Flexibility Score: inf
ROOT
ATOM      1  C   UNL     1      92.795  86.576  83.184  1.00  0.00     0.000 C 
ENDROOT
BRANCH   1   2
ATOM      2  C   UNL     1      92.361  87.433  84.381  1.00  0.00     0.000 C 
BRANCH   2   3
ATOM      3  C   UNL     1      93.242  87.223  85.630  1.00  0.00     0.000 C 
BRANCH   3   4
ATOM      4  C   UNL     1      92.455  87.022  86.942  1.00  0.00     0.000 C 
BRANCH   4   5
ATOM      5  C   UNL     1      93.032  85.963  87.898  1.00  0.00     0.000 C 
BRANCH   5   6
ATOM      6  C   UNL     1      93.103  84.546  87.286  1.00  0.00     0.000 C 
BRANCH   6   7
ATOM      7  C   UNL     1      94.538  83.993  87.270  1.00  0.00     0.000 C 
BRANCH   7   8
ATOM      8  C   UNL     1      95.590  85.045  87.664  1.00  0.00     0.000 C 
BRANCH   8   9
ATOM      9  C   UNL     1      96.578  85.439  86.547  1.00  0.00     0.000 C 
BRANCH   9  10
ATOM     10  C   UNL     1      96.843  84.353  85.491  1.00  0.00     0.000 C 
BRANCH  10  11
ATOM     11  C   UNL     1      96.812  84.894  84.051  1.00  0.00     0.000 C 
BRANCH  11  12
ATOM     12  C   UNL     1      96.576  86.414  84.007  1.00  0.00     0.006 C 
BRANCH  12  13
ATOM     13  C   UNL     1      96.959  87.019  82.649  1.00  0.00     0.053 C 
BRANCH  13  14
ATOM     14  C   UNL     1      96.025  88.130  82.283  1.00  0.00     0.041 C 
ATOM     15  O   UNL     1      95.786  88.385  81.074  1.00  0.00    -0.550 OA
ATOM     16  O   UNL     1      95.431  88.897  83.278  1.00  0.00    -0.550 OA
ENDBRANCH  13  14
ENDBRANCH  12  13
ENDBRANCH  11  12
ENDBRANCH  10  11
ENDBRANCH   9  10
ENDBRANCH   8   9
ENDBRANCH   7   8
ENDBRANCH   6   7
ENDBRANCH   5   6
ENDBRANCH   4   5
ENDBRANCH   3   4
ENDBRANCH   2   3
ENDBRANCH   1   2
BRANCH   1  17
ATOM     17  C   UNL     1      93.156  85.152  83.629  1.00  0.00     0.000 C 
BRANCH  17  18
ATOM     18  C   UNL     1      91.933  84.218  83.692  1.00  0.00     0.000 C 
BRANCH  18  19
ATOM     19  C   UNL     1      91.038  84.232  82.437  1.00  0.00     0.000 C 
BRANCH  19  20
ATOM     20  C   UNL     1      91.485  83.288  81.302  1.00  0.00     0.000 C 
BRANCH  20  21
ATOM     21  C   UNL     1      91.856  83.990  79.984  1.00  0.00     0.000 C 
BRANCH  21  22
ATOM     22  C   UNL     1      93.202  83.510  79.414  1.00  0.00    -0.000 C 
BRANCH  22  23
ATOM     23  C   UNL     1      94.260  83.291  80.507  1.00  0.00    -0.000 C 
BRANCH  23  24
ATOM     24  C   UNL     1      95.234  84.471  80.633  1.00  0.00    -0.000 C 
BRANCH  24  25
ATOM     25  C   UNL     1      96.665  84.042  80.285  1.00  0.00    -0.000 C 
BRANCH  25  26
ATOM     26  C   UNL     1      96.898  82.565  80.639  1.00  0.00    -0.000 C 
BRANCH  26  27
ATOM     27  C   UNL     1      97.994  82.376  81.699  1.00  0.00    -0.000 C 
BRANCH  27  28
ATOM     28  C   UNL     1      99.317  83.061  81.313  1.00  0.00    -0.000 C 
BRANCH  28  29
ATOM     29  C   UNL     1      99.792  84.062  82.378  1.00  0.00    -0.003 C 
ATOM     30  C   UNL     1     100.581  83.395  83.505  1.00  0.00     0.004 C 
ENDBRANCH  28  29
ENDBRANCH  27  28
ENDBRANCH  26  27
ENDBRANCH  25  26
ENDBRANCH  24  25
ENDBRANCH  23  24
ENDBRANCH  22  23
ENDBRANCH  21  22
ENDBRANCH  20  21
ENDBRANCH  19  20
ENDBRANCH  18  19
ENDBRANCH  17  18
ENDBRANCH   1  17
TORSDOF 26
ENDMDL
MODEL 8
REMARK VINA RESULT:    -4.222      2.992      6.488
REMARK INTER + INTRA:         -14.880
REMARK INTER:                  -9.507
REMARK INTRA:                  -5.373
REMARK UNBOUND:                -4.241
REMARK SMILES CCCCCCCCCCCCCCCCCCCCCCCCCCCC(=O)[O-]
REMARK SMILES IDX 15 1 16 2 17 3 18 4 19 5 20 6 21 7 22 8 23 9 24 10 25 11
REMARK SMILES IDX 26 12 27 13 28 14 29 15 30 16 14 17 13 18 12 19 11 20 10 21
REMARK SMILES IDX 9 22 8 23 7 24 6 25 5 26 4 27 3 28 2 29 1 30
REMARK H PARENT
REMARK Flexibility Score: inf
ROOT
ATOM      1  C   UNL     1      99.650  87.523  80.804  1.00  0.00     0.000 C 
ENDROOT
BRANCH   1   2
ATOM      2  C   UNL     1      99.353  87.594  82.309  1.00  0.00     0.000 C 
BRANCH   2   3
ATOM      3  C   UNL     1      99.904  86.386  83.094  1.00  0.00     0.000 C 
BRANCH   3   4
ATOM      4  C   UNL     1     101.189  85.768  82.502  1.00  0.00     0.000 C 
BRANCH   4   5
ATOM      5  C   UNL     1     101.392  84.271  82.792  1.00  0.00     0.000 C 
BRANCH   5   6
ATOM      6  C   UNL     1     100.072  83.493  82.991  1.00  0.00     0.000 C 
BRANCH   6   7
ATOM      7  C   UNL     1      99.566  82.864  81.682  1.00  0.00     0.000 C 
BRANCH   7   8
ATOM      8  C   UNL     1      98.057  82.562  81.705  1.00  0.00     0.000 C 
BRANCH   8   9
ATOM      9  C   UNL     1      97.232  83.239  80.591  1.00  0.00     0.000 C 
BRANCH   9  10
ATOM     10  C   UNL     1      97.664  84.671  80.233  1.00  0.00     0.000 C 
BRANCH  10  11
ATOM     11  C   UNL     1      96.498  85.543  79.735  1.00  0.00     0.000 C 
BRANCH  11  12
ATOM     12  C   UNL     1      95.299  84.699  79.269  1.00  0.00     0.006 C 
BRANCH  12  13
ATOM     13  C   UNL     1      94.007  85.070  80.011  1.00  0.00     0.053 C 
BRANCH  13  14
ATOM     14  C   UNL     1      93.573  83.955  80.908  1.00  0.00     0.041 C 
ATOM     15  O   UNL     1      93.012  84.206  82.007  1.00  0.00    -0.550 OA
ATOM     16  O   UNL     1      93.804  82.635  80.541  1.00  0.00    -0.550 OA
ENDBRANCH  13  14
ENDBRANCH  12  13
ENDBRANCH  11  12
ENDBRANCH  10  11
ENDBRANCH   9  10
ENDBRANCH   8   9
ENDBRANCH   7   8
ENDBRANCH   6   7
ENDBRANCH   5   6
ENDBRANCH   4   5
ENDBRANCH   3   4
ENDBRANCH   2   3
ENDBRANCH   1   2
BRANCH   1  17
ATOM     17  C   UNL     1      99.645  88.924  80.177  1.00  0.00     0.000 C 
BRANCH  17  18
ATOM     18  C   UNL     1      98.904  88.973  78.828  1.00  0.00     0.000 C 
BRANCH  18  19
ATOM     19  C   UNL     1      97.499  89.605  78.881  1.00  0.00     0.000 C 
BRANCH  19  20
ATOM     20  C   UNL     1      97.168  90.362  80.184  1.00  0.00     0.000 C 
BRANCH  20  21
ATOM     21  C   UNL     1      95.709  90.234  80.654  1.00  0.00     0.000 C 
BRANCH  21  22
ATOM     22  C   UNL     1      95.482  89.011  81.559  1.00  0.00    -0.000 C 
BRANCH  22  23
ATOM     23  C   UNL     1      96.106  89.185  82.952  1.00  0.00    -0.000 C 
BRANCH  23  24
ATOM     24  C   UNL     1      96.014  87.911  83.806  1.00  0.00    -0.000 C 
BRANCH  24  25
ATOM     25  C   UNL     1      95.708  86.687  82.933  1.00  0.00    -0.000 C 
BRANCH  25  26
ATOM     26  C   UNL     1      96.009  85.383  83.687  1.00  0.00    -0.000 C 
BRANCH  26  27
ATOM     27  C   UNL     1      96.954  85.594  84.880  1.00  0.00    -0.000 C 
BRANCH  27  28
ATOM     28  C   UNL     1      97.435  84.269  85.496  1.00  0.00    -0.000 C 
BRANCH  28  29
ATOM     29  C   UNL     1      98.268  84.482  86.770  1.00  0.00    -0.003 C 
ATOM     30  C   UNL     1      99.746  84.743  86.472  1.00  0.00     0.004 C 
ENDBRANCH  28  29
ENDBRANCH  27  28
ENDBRANCH  26  27
ENDBRANCH  25  26
ENDBRANCH  24  25
ENDBRANCH  23  24
ENDBRANCH  22  23
ENDBRANCH  21  22
ENDBRANCH  20  21
ENDBRANCH  19  20
ENDBRANCH  18  19
ENDBRANCH  17  18
ENDBRANCH   1  17
TORSDOF 26
ENDMDL
MODEL 9
REMARK VINA RESULT:    -4.185      3.203      8.077
REMARK INTER + INTRA:         -14.788
REMARK INTER:                 -10.342
REMARK INTRA:                  -4.446
REMARK UNBOUND:                -4.241
REMARK SMILES CCCCCCCCCCCCCCCCCCCCCCCCCCCC(=O)[O-]
REMARK SMILES IDX 15 1 16 2 17 3 18 4 19 5 20 6 21 7 22 8 23 9 24 10 25 11
REMARK SMILES IDX 26 12 27 13 28 14 29 15 30 16 14 17 13 18 12 19 11 20 10 21
REMARK SMILES IDX 9 22 8 23 7 24 6 25 5 26 4 27 3 28 2 29 1 30
REMARK H PARENT
REMARK Flexibility Score: inf
ROOT
ATOM      1  C   UNL     1      96.619  85.142  85.969  1.00  0.00     0.000 C 
ENDROOT
BRANCH   1   2
ATOM      2  C   UNL     1      95.654  84.068  86.490  1.00  0.00     0.000 C 
BRANCH   2   3
ATOM      3  C   UNL     1      94.281  84.636  86.907  1.00  0.00     0.000 C 
BRANCH   3   4
ATOM      4  C   UNL     1      93.173  84.480  85.844  1.00  0.00     0.000 C 
BRANCH   4   5
ATOM      5  C   UNL     1      93.104  85.606  84.798  1.00  0.00     0.000 C 
BRANCH   5   6
ATOM      6  C   UNL     1      93.812  85.263  83.468  1.00  0.00     0.000 C 
BRANCH   6   7
ATOM      7  C   UNL     1      92.838  85.262  82.277  1.00  0.00     0.000 C 
BRANCH   7   8
ATOM      8  C   UNL     1      92.352  83.850  81.902  1.00  0.00     0.000 C 
BRANCH   8   9
ATOM      9  C   UNL     1      92.850  83.322  80.541  1.00  0.00     0.000 C 
BRANCH   9  10
ATOM     10  C   UNL     1      92.714  84.305  79.365  1.00  0.00     0.000 C 
BRANCH  10  11
ATOM     11  C   UNL     1      91.374  84.171  78.622  1.00  0.00     0.000 C 
BRANCH  11  12
ATOM     12  C   UNL     1      90.488  85.417  78.795  1.00  0.00     0.006 C 
BRANCH  12  13
ATOM     13  C   UNL     1      89.055  85.053  79.212  1.00  0.00     0.053 C 
BRANCH  13  14
ATOM     14  C   UNL     1      88.997  84.719  80.670  1.00  0.00     0.041 C 
ATOM     15  O   UNL     1      89.293  85.587  81.532  1.00  0.00    -0.550 OA
ATOM     16  O   UNL     1      88.634  83.442  81.077  1.00  0.00    -0.550 OA
ENDBRANCH  13  14
ENDBRANCH  12  13
ENDBRANCH  11  12
ENDBRANCH  10  11
ENDBRANCH   9  10
ENDBRANCH   8   9
ENDBRANCH   7   8
ENDBRANCH   6   7
ENDBRANCH   5   6
ENDBRANCH   4   5
ENDBRANCH   3   4
ENDBRANCH   2   3
ENDBRANCH   1   2
BRANCH   1  17
ATOM     17  C   UNL     1      97.329  84.670  84.693  1.00  0.00     0.000 C 
BRANCH  17  18
ATOM     18  C   UNL     1      98.099  85.799  83.984  1.00  0.00     0.000 C 
BRANCH  18  19
ATOM     19  C   UNL     1      99.387  85.356  83.263  1.00  0.00     0.000 C 
BRANCH  19  20
ATOM     20  C   UNL     1      99.494  83.843  82.982  1.00  0.00     0.000 C 
BRANCH  20  21
ATOM     21  C   UNL     1      99.105  83.421  81.554  1.00  0.00     0.000 C 
BRANCH  21  22
ATOM     22  C   UNL     1      98.072  82.282  81.532  1.00  0.00    -0.000 C 
BRANCH  22  23
ATOM     23  C   UNL     1      96.780  82.672  80.796  1.00  0.00    -0.000 C 
BRANCH  23  24
ATOM     24  C   UNL     1      96.388  84.140  81.024  1.00  0.00    -0.000 C 
BRANCH  24  25
ATOM     25  C   UNL     1      96.323  84.903  79.696  1.00  0.00    -0.000 C 
BRANCH  25  26
ATOM     26  C   UNL     1      95.805  86.334  79.907  1.00  0.00    -0.000 C 
BRANCH  26  27
ATOM     27  C   UNL     1      96.696  87.152  80.854  1.00  0.00    -0.000 C 
BRANCH  27  28
ATOM     28  C   UNL     1      98.128  87.327  80.318  1.00  0.00    -0.000 C 
BRANCH  28  29
ATOM     29  C   UNL     1      98.259  88.534  79.376  1.00  0.00    -0.003 C 
ATOM     30  C   UNL     1      99.000  89.707  80.020  1.00  0.00     0.004 C 
ENDBRANCH  28  29
ENDBRANCH  27  28
ENDBRANCH  26  27
ENDBRANCH  25  26
ENDBRANCH  24  25
ENDBRANCH  23  24
ENDBRANCH  22  23
ENDBRANCH  21  22
ENDBRANCH  20  21
ENDBRANCH  19  20
ENDBRANCH  18  19
ENDBRANCH  17  18
ENDBRANCH   1  17
TORSDOF 26
ENDMDL
