MODEL 1
REMARK VINA RESULT:    -6.420      0.000      0.000
REMARK INTER + INTRA:          -6.420
REMARK INTER:                  -6.420
REMARK INTRA:                   0.000
REMARK UNBOUND:                 0.000
REMARK SMILES CC1=CC(=O)[C@H]2C[C@@H]1C2(C)C
REMARK SMILES IDX 1 1 2 2 3 3 4 4 5 5 6 6 7 7 8 8 9 9 10 10 11 11
REMARK H PARENT
REMARK Flexibility Score: inf
ROOT
ATOM      1  C   UNL     1      26.384  14.375  77.820  1.00  0.00     0.040 C 
ATOM      2  C   UNL     1      26.903  14.783  79.162  1.00  0.00    -0.066 C 
ATOM      3  C   UNL     1      28.235  14.754  79.446  1.00  0.00     0.047 C 
ATOM      4  C   UNL     1      28.626  15.158  80.835  1.00  0.00     0.159 C 
ATOM      5  O   UNL     1      29.819  15.135  81.231  1.00  0.00    -0.295 OA
ATOM      6  C   UNL     1      27.473  15.597  81.738  1.00  0.00     0.067 C 
ATOM      7  C   UNL     1      26.636  16.543  80.849  1.00  0.00     0.021 C 
ATOM      8  C   UNL     1      25.961  15.274  80.283  1.00  0.00     0.022 C 
ATOM      9  C   UNL     1      26.323  14.556  81.615  1.00  0.00    -0.019 C 
ATOM     10  C   UNL     1      26.696  13.047  81.559  1.00  0.00     0.012 C 
ATOM     11  C   UNL     1      25.235  14.746  82.702  1.00  0.00     0.012 C 
ENDROOT
TORSDOF 0
ENDMDL
MODEL 2
REMARK VINA RESULT:    -6.269      1.392      2.780
REMARK INTER + INTRA:          -6.269
REMARK INTER:                  -6.269
REMARK INTRA:                   0.000
REMARK UNBOUND:                 0.000
REMARK SMILES CC1=CC(=O)[C@H]2C[C@@H]1C2(C)C
REMARK SMILES IDX 1 1 2 2 3 3 4 4 5 5 6 6 7 7 8 8 9 9 10 10 11 11
REMARK H PARENT
REMARK Flexibility Score: inf
ROOT
ATOM      1  C   UNL     1      23.858  16.194  81.626  1.00  0.00     0.040 C 
ATOM      2  C   UNL     1      25.269  15.757  81.856  1.00  0.00    -0.066 C 
ATOM      3  C   UNL     1      26.319  16.588  81.604  1.00  0.00     0.047 C 
ATOM      4  C   UNL     1      27.686  16.023  81.845  1.00  0.00     0.159 C 
ATOM      5  O   UNL     1      28.735  16.677  81.612  1.00  0.00    -0.295 OA
ATOM      6  C   UNL     1      27.716  14.596  82.392  1.00  0.00     0.067 C 
ATOM      7  C   UNL     1      26.655  14.598  83.514  1.00  0.00     0.021 C 
ATOM      8  C   UNL     1      25.607  14.354  82.406  1.00  0.00     0.022 C 
ATOM      9  C   UNL     1      26.743  13.722  81.550  1.00  0.00    -0.019 C 
ATOM     10  C   UNL     1      26.706  13.932  80.009  1.00  0.00     0.012 C 
ATOM     11  C   UNL     1      26.917  12.207  81.829  1.00  0.00     0.012 C 
ENDROOT
TORSDOF 0
ENDMDL
MODEL 3
REMARK VINA RESULT:    -6.223      1.807      2.409
REMARK INTER + INTRA:          -6.223
REMARK INTER:                  -6.223
REMARK INTRA:                   0.000
REMARK UNBOUND:                 0.000
REMARK SMILES CC1=CC(=O)[C@H]2C[C@@H]1C2(C)C
REMARK SMILES IDX 1 1 2 2 3 3 4 4 5 5 6 6 7 7 8 8 9 9 10 10 11 11
REMARK H PARENT
REMARK Flexibility Score: inf
ROOT
ATOM      1  C   UNL     1      27.131  13.411  79.162  1.00  0.00     0.040 C 
ATOM      2  C   UNL     1      27.058  14.197  80.432  1.00  0.00    -0.066 C 
ATOM      3  C   UNL     1      27.222  15.550  80.439  1.00  0.00     0.047 C 
ATOM      4  C   UNL     1      27.157  16.219  81.777  1.00  0.00     0.159 C 
ATOM      5  O   UNL     1      27.333  17.457  81.920  1.00  0.00    -0.295 OA
ATOM      6  C   UNL     1      26.865  15.293  82.959  1.00  0.00     0.067 C 
ATOM      7  C   UNL     1      25.702  14.406  82.464  1.00  0.00     0.021 C 
ATOM      8  C   UNL     1      26.775  13.522  81.791  1.00  0.00     0.022 C 
ATOM      9  C   UNL     1      27.789  14.046  82.850  1.00  0.00    -0.019 C 
ATOM     10  C   UNL     1      29.266  14.257  82.413  1.00  0.00     0.012 C 
ATOM     11  C   UNL     1      27.783  13.193  84.144  1.00  0.00     0.012 C 
ENDROOT
TORSDOF 0
ENDMDL
MODEL 4
REMARK VINA RESULT:    -6.190      1.829      3.489
REMARK INTER + INTRA:          -6.190
REMARK INTER:                  -6.190
REMARK INTRA:                   0.000
REMARK UNBOUND:                 0.000
REMARK SMILES CC1=CC(=O)[C@H]2C[C@@H]1C2(C)C
REMARK SMILES IDX 1 1 2 2 3 3 4 4 5 5 6 6 7 7 8 8 9 9 10 10 11 11
REMARK H PARENT
REMARK Flexibility Score: inf
ROOT
ATOM      1  C   UNL     1      27.893  12.773  84.256  1.00  0.00     0.040 C 
ATOM      2  C   UNL     1      27.420  13.419  82.993  1.00  0.00    -0.066 C 
ATOM      3  C   UNL     1      27.489  12.772  81.796  1.00  0.00     0.047 C 
ATOM      4  C   UNL     1      27.013  13.537  80.599  1.00  0.00     0.159 C 
ATOM      5  O   UNL     1      27.063  13.064  79.435  1.00  0.00    -0.295 OA
ATOM      6  C   UNL     1      26.464  14.934  80.892  1.00  0.00     0.067 C 
ATOM      7  C   UNL     1      25.542  14.729  82.114  1.00  0.00     0.021 C 
ATOM      8  C   UNL     1      26.814  14.840  82.983  1.00  0.00     0.022 C 
ATOM      9  C   UNL     1      27.458  15.670  81.835  1.00  0.00    -0.019 C 
ATOM     10  C   UNL     1      28.983  15.505  81.575  1.00  0.00     0.012 C 
ATOM     11  C   UNL     1      27.148  17.183  81.956  1.00  0.00     0.012 C 
ENDROOT
TORSDOF 0
ENDMDL
MODEL 5
REMARK VINA RESULT:    -6.090      1.626      2.552
REMARK INTER + INTRA:          -6.090
REMARK INTER:                  -6.090
REMARK INTRA:                   0.000
REMARK UNBOUND:                 0.000
REMARK SMILES CC1=CC(=O)[C@H]2C[C@@H]1C2(C)C
REMARK SMILES IDX 1 1 2 2 3 3 4 4 5 5 6 6 7 7 8 8 9 9 10 10 11 11
REMARK H PARENT
REMARK Flexibility Score: inf
ROOT
ATOM      1  C   UNL     1      23.904  16.196  81.630  1.00  0.00     0.040 C 
ATOM      2  C   UNL     1      25.316  15.792  81.351  1.00  0.00    -0.066 C 
ATOM      3  C   UNL     1      25.730  15.483  80.090  1.00  0.00     0.047 C 
ATOM      4  C   UNL     1      27.161  15.064  79.945  1.00  0.00     0.159 C 
ATOM      5  O   UNL     1      27.652  14.716  78.841  1.00  0.00    -0.295 OA
ATOM      6  C   UNL     1      27.983  15.087  81.235  1.00  0.00     0.067 C 
ATOM      7  C   UNL     1      27.620  16.437  81.891  1.00  0.00     0.021 C 
ATOM      8  C   UNL     1      26.379  15.724  82.470  1.00  0.00     0.022 C 
ATOM      9  C   UNL     1      27.165  14.385  82.357  1.00  0.00    -0.019 C 
ATOM     10  C   UNL     1      26.373  13.096  81.997  1.00  0.00     0.012 C 
ATOM     11  C   UNL     1      28.018  14.095  83.617  1.00  0.00     0.012 C 
ENDROOT
TORSDOF 0
ENDMDL
MODEL 6
REMARK VINA RESULT:    -6.041      1.263      3.132
REMARK INTER + INTRA:          -6.041
REMARK INTER:                  -6.041
REMARK INTRA:                   0.000
REMARK UNBOUND:                 0.000
REMARK SMILES CC1=CC(=O)[C@H]2C[C@@H]1C2(C)C
REMARK SMILES IDX 1 1 2 2 3 3 4 4 5 5 6 6 7 7 8 8 9 9 10 10 11 11
REMARK H PARENT
REMARK Flexibility Score: inf
ROOT
ATOM      1  C   UNL     1      26.924  11.391  81.458  1.00  0.00     0.040 C 
ATOM      2  C   UNL     1      27.497  12.601  80.791  1.00  0.00    -0.066 C 
ATOM      3  C   UNL     1      28.336  13.445  81.452  1.00  0.00     0.047 C 
ATOM      4  C   UNL     1      28.819  14.638  80.685  1.00  0.00     0.159 C 
ATOM      5  O   UNL     1      29.565  15.511  81.198  1.00  0.00    -0.295 OA
ATOM      6  C   UNL     1      28.339  14.721  79.235  1.00  0.00     0.067 C 
ATOM      7  C   UNL     1      28.547  13.293  78.686  1.00  0.00     0.021 C 
ATOM      8  C   UNL     1      27.183  12.943  79.318  1.00  0.00     0.022 C 
ATOM      9  C   UNL     1      26.807  14.449  79.204  1.00  0.00    -0.019 C 
ATOM     10  C   UNL     1      25.923  15.072  80.322  1.00  0.00     0.012 C 
ATOM     11  C   UNL     1      26.173  14.797  77.834  1.00  0.00     0.012 C 
ENDROOT
TORSDOF 0
ENDMDL
MODEL 7
REMARK VINA RESULT:    -5.973      1.876      3.076
REMARK INTER + INTRA:          -5.973
REMARK INTER:                  -5.973
REMARK INTRA:                   0.000
REMARK UNBOUND:                 0.000
REMARK SMILES CC1=CC(=O)[C@H]2C[C@@H]1C2(C)C
REMARK SMILES IDX 1 1 2 2 3 3 4 4 5 5 6 6 7 7 8 8 9 9 10 10 11 11
REMARK H PARENT
REMARK Flexibility Score: inf
ROOT
ATOM      1  C   UNL     1      29.956  15.098  81.275  1.00  0.00     0.040 C 
ATOM      2  C   UNL     1      28.619  14.500  81.577  1.00  0.00    -0.066 C 
ATOM      3  C   UNL     1      28.403  13.158  81.476  1.00  0.00     0.047 C 
ATOM      4  C   UNL     1      27.014  12.685  81.776  1.00  0.00     0.159 C 
ATOM      5  O   UNL     1      26.679  11.477  81.678  1.00  0.00    -0.295 OA
ATOM      6  C   UNL     1      26.030  13.774  82.206  1.00  0.00     0.067 C 
ATOM      7  C   UNL     1      26.819  14.608  83.239  1.00  0.00     0.021 C 
ATOM      8  C   UNL     1      27.426  15.365  82.037  1.00  0.00     0.022 C 
ATOM      9  C   UNL     1      26.158  14.974  81.224  1.00  0.00    -0.019 C 
ATOM     10  C   UNL     1      26.323  14.672  79.707  1.00  0.00     0.012 C 
ATOM     11  C   UNL     1      25.010  16.000  81.392  1.00  0.00     0.012 C 
ENDROOT
TORSDOF 0
ENDMDL
MODEL 8
REMARK VINA RESULT:    -5.814      1.530      3.311
REMARK INTER + INTRA:          -5.814
REMARK INTER:                  -5.814
REMARK INTRA:                   0.000
REMARK UNBOUND:                 0.000
REMARK SMILES CC1=CC(=O)[C@H]2C[C@@H]1C2(C)C
REMARK SMILES IDX 1 1 2 2 3 3 4 4 5 5 6 6 7 7 8 8 9 9 10 10 11 11
REMARK H PARENT
REMARK Flexibility Score: inf
ROOT
ATOM      1  C   UNL     1      27.856  13.196  84.265  1.00  0.00     0.040 C 
ATOM      2  C   UNL     1      28.045  13.484  82.810  1.00  0.00    -0.066 C 
ATOM      3  C   UNL     1      29.288  13.623  82.270  1.00  0.00     0.047 C 
ATOM      4  C   UNL     1      29.345  13.940  80.807  1.00  0.00     0.159 C 
ATOM      5  O   UNL     1      30.431  14.131  80.202  1.00  0.00    -0.295 OA
ATOM      6  C   UNL     1      27.990  14.019  80.102  1.00  0.00     0.067 C 
ATOM      7  C   UNL     1      27.228  12.776  80.610  1.00  0.00     0.021 C 
ATOM      8  C   UNL     1      26.847  13.620  81.846  1.00  0.00     0.022 C 
ATOM      9  C   UNL     1      27.032  14.890  80.965  1.00  0.00    -0.019 C 
ATOM     10  C   UNL     1      27.602  16.172  81.635  1.00  0.00     0.012 C 
ATOM     11  C   UNL     1      25.738  15.274  80.205  1.00  0.00     0.012 C 
ENDROOT
TORSDOF 0
ENDMDL
