MODEL 1
REMARK VINA RESULT:    -5.035      0.000      0.000
REMARK INTER + INTRA:          -5.724
REMARK INTER:                  -5.476
REMARK INTRA:                  -0.247
REMARK UNBOUND:                -0.247
REMARK SMILES O=C([O-])c1ccccc1O
REMARK SMILES IDX 4 1 9 2 5 3 8 4 6 5 7 6 2 7 1 8 3 9 10 10
REMARK H PARENT 10 11
REMARK Flexibility Score: inf
ROOT
ATOM      1  C   UNL     1       0.991 -13.355 -39.429  1.00  0.00     0.039 A 
ATOM      2  C   UNL     1       0.876 -14.389 -38.466  1.00  0.00     0.124 A 
ATOM      3  C   UNL     1      -0.176 -12.712 -39.881  1.00  0.00     0.014 A 
ATOM      4  C   UNL     1      -0.380 -14.706 -37.936  1.00  0.00     0.047 A 
ATOM      5  C   UNL     1      -1.425 -13.055 -39.357  1.00  0.00     0.001 A 
ATOM      6  C   UNL     1      -1.527 -14.044 -38.380  1.00  0.00     0.004 A 
ENDROOT
BRANCH   1   7
ATOM      7  C   UNL     1       2.298 -12.900 -39.954  1.00  0.00     0.075 C 
ATOM      8  O   UNL     1       3.190 -13.739 -40.245  1.00  0.00    -0.545 OA
ATOM      9  O   UNL     1       2.536 -11.553 -40.198  1.00  0.00    -0.545 OA
ENDBRANCH   1   7
BRANCH   2  10
ATOM     10  O   UNL     1       1.971 -15.143 -38.038  1.00  0.00    -0.507 OA
ATOM     11  H   UNL     1       2.599 -15.621 -38.669  1.00  0.00     0.293 HD
ENDBRANCH   2  10
TORSDOF 2
ENDMDL
MODEL 2
REMARK VINA RESULT:    -4.664     10.353     12.504
REMARK INTER + INTRA:          -5.320
REMARK INTER:                  -5.068
REMARK INTRA:                  -0.253
REMARK UNBOUND:                -0.247
REMARK SMILES O=C([O-])c1ccccc1O
REMARK SMILES IDX 4 1 9 2 5 3 8 4 6 5 7 6 2 7 1 8 3 9 10 10
REMARK H PARENT 10 11
REMARK Flexibility Score: inf
ROOT
ATOM      1  C   UNL     1       8.301  -4.695 -40.520  1.00  0.00     0.039 A 
ATOM      2  C   UNL     1       8.290  -3.442 -39.856  1.00  0.00     0.124 A 
ATOM      3  C   UNL     1       9.533  -5.342 -40.734  1.00  0.00     0.014 A 
ATOM      4  C   UNL     1       9.488  -2.905 -39.371  1.00  0.00     0.047 A 
ATOM      5  C   UNL     1      10.722  -4.781 -40.263  1.00  0.00     0.001 A 
ATOM      6  C   UNL     1      10.699  -3.569 -39.573  1.00  0.00     0.004 A 
ENDROOT
BRANCH   1   7
ATOM      7  C   UNL     1       7.061  -5.368 -40.966  1.00  0.00     0.075 C 
ATOM      8  O   UNL     1       6.904  -6.601 -40.766  1.00  0.00    -0.545 OA
ATOM      9  O   UNL     1       6.028  -4.643 -41.547  1.00  0.00    -0.545 OA
ENDBRANCH   1   7
BRANCH   2  10
ATOM     10  O   UNL     1       7.125  -2.690 -39.690  1.00  0.00    -0.507 OA
ATOM     11  H   UNL     1       6.196  -3.085 -39.734  1.00  0.00     0.293 HD
ENDBRANCH   2  10
TORSDOF 2
ENDMDL
MODEL 3
REMARK VINA RESULT:    -4.500      2.505      2.759
REMARK INTER + INTRA:          -5.142
REMARK INTER:                  -4.892
REMARK INTRA:                  -0.249
REMARK UNBOUND:                -0.247
REMARK SMILES O=C([O-])c1ccccc1O
REMARK SMILES IDX 4 1 9 2 5 3 8 4 6 5 7 6 2 7 1 8 3 9 10 10
REMARK H PARENT 10 11
REMARK Flexibility Score: inf
ROOT
ATOM      1  C   UNL     1       0.094 -12.114 -38.518  1.00  0.00     0.039 A 
ATOM      2  C   UNL     1      -0.501 -12.608 -37.330  1.00  0.00     0.124 A 
ATOM      3  C   UNL     1       0.135 -12.942 -39.655  1.00  0.00     0.014 A 
ATOM      4  C   UNL     1      -1.090 -13.878 -37.327  1.00  0.00     0.047 A 
ATOM      5  C   UNL     1      -0.439 -14.215 -39.629  1.00  0.00     0.001 A 
ATOM      6  C   UNL     1      -1.059 -14.680 -38.470  1.00  0.00     0.004 A 
ENDROOT
BRANCH   1   7
ATOM      7  C   UNL     1       0.642 -10.743 -38.620  1.00  0.00     0.075 C 
ATOM      8  O   UNL     1       0.270  -9.981 -39.550  1.00  0.00    -0.545 OA
ATOM      9  O   UNL     1       1.519 -10.254 -37.658  1.00  0.00    -0.545 OA
ENDBRANCH   1   7
BRANCH   2  10
ATOM     10  O   UNL     1      -0.497 -11.890 -36.132  1.00  0.00    -0.507 OA
ATOM     11  H   UNL     1      -1.164 -12.044 -35.389  1.00  0.00     0.293 HD
ENDBRANCH   2  10
TORSDOF 2
ENDMDL
MODEL 4
REMARK VINA RESULT:    -4.499      6.690      8.118
REMARK INTER + INTRA:          -5.141
REMARK INTER:                  -4.955
REMARK INTRA:                  -0.186
REMARK UNBOUND:                -0.247
REMARK SMILES O=C([O-])c1ccccc1O
REMARK SMILES IDX 4 1 9 2 5 3 8 4 6 5 7 6 2 7 1 8 3 9 10 10
REMARK H PARENT 10 11
REMARK Flexibility Score: inf
ROOT
ATOM      1  C   UNL     1       2.084  -9.693 -45.214  1.00  0.00     0.039 A 
ATOM      2  C   UNL     1       2.765 -10.904 -45.494  1.00  0.00     0.124 A 
ATOM      3  C   UNL     1       2.714  -8.471 -45.519  1.00  0.00     0.014 A 
ATOM      4  C   UNL     1       4.015 -10.867 -46.124  1.00  0.00     0.047 A 
ATOM      5  C   UNL     1       3.971  -8.451 -46.128  1.00  0.00     0.001 A 
ATOM      6  C   UNL     1       4.617  -9.647 -46.439  1.00  0.00     0.004 A 
ENDROOT
BRANCH   1   7
ATOM      7  C   UNL     1       0.719  -9.663 -44.644  1.00  0.00     0.075 C 
ATOM      8  O   UNL     1      -0.251  -9.276 -45.347  1.00  0.00    -0.545 OA
ATOM      9  O   UNL     1       0.475 -10.124 -43.356  1.00  0.00    -0.545 OA
ENDBRANCH   1   7
BRANCH   2  10
ATOM     10  O   UNL     1       2.255 -12.154 -45.135  1.00  0.00    -0.507 OA
ATOM     11  H   UNL     1       2.291 -12.520 -44.194  1.00  0.00     0.293 HD
ENDBRANCH   2  10
TORSDOF 2
ENDMDL
MODEL 5
REMARK VINA RESULT:    -4.473      1.075      2.214
REMARK INTER + INTRA:          -5.112
REMARK INTER:                  -4.859
REMARK INTRA:                  -0.253
REMARK UNBOUND:                -0.247
REMARK SMILES O=C([O-])c1ccccc1O
REMARK SMILES IDX 4 1 9 2 5 3 8 4 6 5 7 6 2 7 1 8 3 9 10 10
REMARK H PARENT 10 11
REMARK Flexibility Score: inf
ROOT
ATOM      1  C   UNL     1       0.928 -13.227 -39.495  1.00  0.00     0.039 A 
ATOM      2  C   UNL     1      -0.364 -12.903 -39.980  1.00  0.00     0.124 A 
ATOM      3  C   UNL     1       1.043 -14.079 -38.380  1.00  0.00     0.014 A 
ATOM      4  C   UNL     1      -1.493 -13.482 -39.388  1.00  0.00     0.047 A 
ATOM      5  C   UNL     1      -0.094 -14.632 -37.787  1.00  0.00     0.001 A 
ATOM      6  C   UNL     1      -1.360 -14.342 -38.295  1.00  0.00     0.004 A 
ENDROOT
BRANCH   1   7
ATOM      7  C   UNL     1       2.165 -12.732 -40.139  1.00  0.00     0.075 C 
ATOM      8  O   UNL     1       3.129 -13.516 -40.342  1.00  0.00    -0.545 OA
ATOM      9  O   UNL     1       2.257 -11.421 -40.589  1.00  0.00    -0.545 OA
ENDBRANCH   1   7
BRANCH   2  10
ATOM     10  O   UNL     1      -0.571 -11.991 -41.018  1.00  0.00    -0.507 OA
ATOM     11  H   UNL     1      -1.101 -12.206 -41.851  1.00  0.00     0.293 HD
ENDBRANCH   2  10
TORSDOF 2
ENDMDL
MODEL 6
REMARK VINA RESULT:    -4.432     11.073     12.771
REMARK INTER + INTRA:          -5.068
REMARK INTER:                  -4.836
REMARK INTRA:                  -0.232
REMARK UNBOUND:                -0.247
REMARK SMILES O=C([O-])c1ccccc1O
REMARK SMILES IDX 4 1 9 2 5 3 8 4 6 5 7 6 2 7 1 8 3 9 10 10
REMARK H PARENT 10 11
REMARK Flexibility Score: inf
ROOT
ATOM      1  C   UNL     1       9.330  -5.067 -38.261  1.00  0.00     0.039 A 
ATOM      2  C   UNL     1      10.702  -4.776 -38.464  1.00  0.00     0.124 A 
ATOM      3  C   UNL     1       8.362  -4.261 -38.889  1.00  0.00     0.014 A 
ATOM      4  C   UNL     1      11.070  -3.740 -39.332  1.00  0.00     0.047 A 
ATOM      5  C   UNL     1       8.745  -3.218 -39.734  1.00  0.00     0.001 A 
ATOM      6  C   UNL     1      10.097  -2.963 -39.964  1.00  0.00     0.004 A 
ENDROOT
BRANCH   1   7
ATOM      7  C   UNL     1       8.874  -6.211 -37.440  1.00  0.00     0.075 C 
ATOM      8  O   UNL     1       9.288  -7.374 -37.689  1.00  0.00    -0.545 OA
ATOM      9  O   UNL     1       8.042  -6.013 -36.344  1.00  0.00    -0.545 OA
ENDBRANCH   1   7
BRANCH   2  10
ATOM     10  O   UNL     1      11.723  -5.464 -37.803  1.00  0.00    -0.507 OA
ATOM     11  H   UNL     1      12.678  -5.137 -37.762  1.00  0.00     0.293 HD
ENDBRANCH   2  10
TORSDOF 2
ENDMDL
MODEL 7
REMARK VINA RESULT:    -4.406      2.763      3.832
REMARK INTER + INTRA:          -5.040
REMARK INTER:                  -4.789
REMARK INTRA:                  -0.250
REMARK UNBOUND:                -0.247
REMARK SMILES O=C([O-])c1ccccc1O
REMARK SMILES IDX 4 1 9 2 5 3 8 4 6 5 7 6 2 7 1 8 3 9 10 10
REMARK H PARENT 10 11
REMARK Flexibility Score: inf
ROOT
ATOM      1  C   UNL     1       0.583 -12.707 -38.182  1.00  0.00     0.039 A 
ATOM      2  C   UNL     1       0.199 -11.816 -37.147  1.00  0.00     0.124 A 
ATOM      3  C   UNL     1       1.586 -12.310 -39.086  1.00  0.00     0.014 A 
ATOM      4  C   UNL     1       0.866 -10.593 -37.004  1.00  0.00     0.047 A 
ATOM      5  C   UNL     1       2.227 -11.077 -38.941  1.00  0.00     0.001 A 
ATOM      6  C   UNL     1       1.874 -10.223 -37.896  1.00  0.00     0.004 A 
ENDROOT
BRANCH   1   7
ATOM      7  C   UNL     1      -0.008 -14.056 -38.328  1.00  0.00     0.075 C 
ATOM      8  O   UNL     1      -0.209 -14.772 -37.312  1.00  0.00    -0.545 OA
ATOM      9  O   UNL     1      -0.412 -14.524 -39.573  1.00  0.00    -0.545 OA
ENDBRANCH   1   7
BRANCH   2  10
ATOM     10  O   UNL     1      -0.852 -12.091 -36.271  1.00  0.00    -0.507 OA
ATOM     11  H   UNL     1      -1.641 -12.674 -36.513  1.00  0.00     0.293 HD
ENDBRANCH   2  10
TORSDOF 2
ENDMDL
MODEL 8
REMARK VINA RESULT:    -4.405     11.323     12.685
REMARK INTER + INTRA:          -5.039
REMARK INTER:                  -4.794
REMARK INTRA:                  -0.245
REMARK UNBOUND:                -0.247
REMARK SMILES O=C([O-])c1ccccc1O
REMARK SMILES IDX 4 1 9 2 5 3 8 4 6 5 7 6 2 7 1 8 3 9 10 10
REMARK H PARENT 10 11
REMARK Flexibility Score: inf
ROOT
ATOM      1  C   UNL     1       9.949  -5.619 -39.364  1.00  0.00     0.039 A 
ATOM      2  C   UNL     1       9.919  -4.640 -38.339  1.00  0.00     0.124 A 
ATOM      3  C   UNL     1       9.876  -5.202 -40.706  1.00  0.00     0.014 A 
ATOM      4  C   UNL     1       9.883  -3.282 -38.678  1.00  0.00     0.047 A 
ATOM      5  C   UNL     1       9.818  -3.844 -41.028  1.00  0.00     0.001 A 
ATOM      6  C   UNL     1       9.832  -2.885 -40.016  1.00  0.00     0.004 A 
ENDROOT
BRANCH   1   7
ATOM      7  C   UNL     1      10.091  -7.064 -39.078  1.00  0.00     0.075 C 
ATOM      8  O   UNL     1       9.497  -7.575 -38.092  1.00  0.00    -0.545 OA
ATOM      9  O   UNL     1      10.821  -7.888 -39.926  1.00  0.00    -0.545 OA
ENDBRANCH   1   7
BRANCH   2  10
ATOM     10  O   UNL     1       9.889  -4.972 -36.983  1.00  0.00    -0.507 OA
ATOM     11  H   UNL     1       9.150  -4.687 -36.356  1.00  0.00     0.293 HD
ENDBRANCH   2  10
TORSDOF 2
ENDMDL
MODEL 9
REMARK VINA RESULT:    -4.346      8.544      9.804
REMARK INTER + INTRA:          -4.975
REMARK INTER:                  -4.724
REMARK INTRA:                  -0.250
REMARK UNBOUND:                -0.247
REMARK SMILES O=C([O-])c1ccccc1O
REMARK SMILES IDX 4 1 9 2 5 3 8 4 6 5 7 6 2 7 1 8 3 9 10 10
REMARK H PARENT 10 11
REMARK Flexibility Score: inf
ROOT
ATOM      1  C   UNL     1       6.758  -9.265 -44.937  1.00  0.00     0.039 A 
ATOM      2  C   UNL     1       6.310  -8.240 -45.807  1.00  0.00     0.124 A 
ATOM      3  C   UNL     1       6.048 -10.480 -44.893  1.00  0.00     0.014 A 
ATOM      4  C   UNL     1       5.216  -8.474 -46.649  1.00  0.00     0.047 A 
ATOM      5  C   UNL     1       4.945 -10.690 -45.725  1.00  0.00     0.001 A 
ATOM      6  C   UNL     1       4.535  -9.692 -46.608  1.00  0.00     0.004 A 
ENDROOT
BRANCH   1   7
ATOM      7  C   UNL     1       7.967  -9.122 -44.096  1.00  0.00     0.075 C 
ATOM      8  O   UNL     1       9.007  -8.592 -44.569  1.00  0.00    -0.545 OA
ATOM      9  O   UNL     1       7.954  -9.503 -42.760  1.00  0.00    -0.545 OA
ENDBRANCH   1   7
BRANCH   2  10
ATOM     10  O   UNL     1       6.897  -6.973 -45.840  1.00  0.00    -0.507 OA
ATOM     11  H   UNL     1       6.367  -6.113 -45.807  1.00  0.00     0.293 HD
ENDBRANCH   2  10
TORSDOF 2
ENDMDL
