MODEL 1
REMARK VINA RESULT:    -5.694      0.000      0.000
REMARK INTER + INTRA:          -6.049
REMARK INTER:                  -6.027
REMARK INTRA:                  -0.022
REMARK UNBOUND:                -0.022
REMARK SMILES O=C([O-])c1cccnc1
REMARK SMILES IDX 4 1 5 2 9 3 6 4 8 5 7 6 2 7 1 8 3 9
REMARK H PARENT
REMARK Flexibility Score: inf
ROOT
ATOM      1  C   UNL     1      -2.104  -1.759  -0.935  1.00  0.00     0.016 A 
ATOM      2  C   UNL     1      -1.734  -0.550  -0.324  1.00  0.00     0.013 A 
ATOM      3  C   UNL     1      -1.335  -2.905  -0.671  1.00  0.00     0.120 A 
ATOM      4  C   UNL     1      -0.627  -0.503   0.524  1.00  0.00     0.021 A 
ATOM      5  N   UNL     1      -0.260  -2.833   0.159  1.00  0.00    -0.264 NA
ATOM      6  C   UNL     1       0.107  -1.668   0.756  1.00  0.00     0.111 A 
ENDROOT
BRANCH   1   7
ATOM      7  C   UNL     1      -3.276  -1.819  -1.836  1.00  0.00     0.073 C 
ATOM      8  O   UNL     1      -4.227  -1.002  -1.705  1.00  0.00    -0.545 OA
ATOM      9  O   UNL     1      -3.346  -2.780  -2.838  1.00  0.00    -0.545 OA
ENDBRANCH   1   7
TORSDOF 1
ENDMDL
MODEL 2
REMARK VINA RESULT:    -5.692      3.180      4.200
REMARK INTER + INTRA:          -6.048
REMARK INTER:                  -6.023
REMARK INTRA:                  -0.024
REMARK UNBOUND:                -0.022
REMARK SMILES O=C([O-])c1cccnc1
REMARK SMILES IDX 4 1 5 2 9 3 6 4 8 5 7 6 2 7 1 8 3 9
REMARK H PARENT
REMARK Flexibility Score: inf
ROOT
ATOM      1  C   UNL     1      -0.458  -1.931  -0.001  1.00  0.00     0.016 A 
ATOM      2  C   UNL     1      -1.152  -2.980  -0.626  1.00  0.00     0.013 A 
ATOM      3  C   UNL     1      -1.035  -0.649  -0.012  1.00  0.00     0.120 A 
ATOM      4  C   UNL     1      -2.383  -2.740  -1.239  1.00  0.00     0.021 A 
ATOM      5  N   UNL     1      -2.235  -0.442  -0.617  1.00  0.00    -0.264 NA
ATOM      6  C   UNL     1      -2.915  -1.450  -1.224  1.00  0.00     0.111 A 
ENDROOT
BRANCH   1   7
ATOM      7  C   UNL     1       0.847  -2.174   0.651  1.00  0.00     0.073 C 
ATOM      8  O   UNL     1       1.335  -3.335   0.693  1.00  0.00    -0.545 OA
ATOM      9  O   UNL     1       1.552  -1.124   1.228  1.00  0.00    -0.545 OA
ENDBRANCH   1   7
TORSDOF 1
ENDMDL
MODEL 3
REMARK VINA RESULT:    -5.583      1.085      1.740
REMARK INTER + INTRA:          -5.932
REMARK INTER:                  -5.908
REMARK INTRA:                  -0.024
REMARK UNBOUND:                -0.022
REMARK SMILES O=C([O-])c1cccnc1
REMARK SMILES IDX 4 1 5 2 9 3 6 4 8 5 7 6 2 7 1 8 3 9
REMARK H PARENT
REMARK Flexibility Score: inf
ROOT
ATOM      1  C   UNL     1      -1.544  -1.806  -0.584  1.00  0.00     0.016 A 
ATOM      2  C   UNL     1      -0.747  -2.945  -0.380  1.00  0.00     0.013 A 
ATOM      3  C   UNL     1      -1.196  -0.619   0.084  1.00  0.00     0.120 A 
ATOM      4  C   UNL     1       0.361  -2.883   0.466  1.00  0.00     0.021 A 
ATOM      5  N   UNL     1      -0.112  -0.586   0.904  1.00  0.00    -0.264 NA
ATOM      6  C   UNL     1       0.666  -1.682   1.108  1.00  0.00     0.111 A 
ENDROOT
BRANCH   1   7
ATOM      7  C   UNL     1      -2.720  -1.860  -1.479  1.00  0.00     0.073 C 
ATOM      8  O   UNL     1      -3.488  -0.868  -1.586  1.00  0.00    -0.545 OA
ATOM      9  O   UNL     1      -2.993  -3.008  -2.214  1.00  0.00    -0.545 OA
ENDBRANCH   1   7
TORSDOF 1
ENDMDL
MODEL 4
REMARK VINA RESULT:    -5.555      1.077      2.021
REMARK INTER + INTRA:          -5.902
REMARK INTER:                  -5.878
REMARK INTRA:                  -0.024
REMARK UNBOUND:                -0.022
REMARK SMILES O=C([O-])c1cccnc1
REMARK SMILES IDX 4 1 5 2 9 3 6 4 8 5 7 6 2 7 1 8 3 9
REMARK H PARENT
REMARK Flexibility Score: inf
ROOT
ATOM      1  C   UNL     1      -1.565  -1.840  -0.595  1.00  0.00     0.016 A 
ATOM      2  C   UNL     1      -0.728  -2.950  -0.390  1.00  0.00     0.013 A 
ATOM      3  C   UNL     1      -1.263  -0.643   0.076  1.00  0.00     0.120 A 
ATOM      4  C   UNL     1       0.372  -2.850   0.463  1.00  0.00     0.021 A 
ATOM      5  N   UNL     1      -0.185  -0.572   0.902  1.00  0.00    -0.264 NA
ATOM      6  C   UNL     1       0.631  -1.639   1.108  1.00  0.00     0.111 A 
ENDROOT
BRANCH   1   7
ATOM      7  C   UNL     1      -2.733  -1.935  -1.497  1.00  0.00     0.073 C 
ATOM      8  O   UNL     1      -2.974  -3.002  -2.123  1.00  0.00    -0.545 OA
ATOM      9  O   UNL     1      -3.582  -0.848  -1.666  1.00  0.00    -0.545 OA
ENDBRANCH   1   7
TORSDOF 1
ENDMDL
MODEL 5
REMARK VINA RESULT:    -5.073      2.104      2.991
REMARK INTER + INTRA:          -5.392
REMARK INTER:                  -5.370
REMARK INTRA:                  -0.021
REMARK UNBOUND:                -0.022
REMARK SMILES O=C([O-])c1cccnc1
REMARK SMILES IDX 4 1 5 2 9 3 6 4 8 5 7 6 2 7 1 8 3 9
REMARK H PARENT
REMARK Flexibility Score: inf
ROOT
ATOM      1  C   UNL     1      -0.255  -1.276   0.355  1.00  0.00     0.016 A 
ATOM      2  C   UNL     1      -0.220  -2.647   0.053  1.00  0.00     0.013 A 
ATOM      3  C   UNL     1       0.896  -0.682   0.900  1.00  0.00     0.120 A 
ATOM      4  C   UNL     1       0.938  -3.388   0.292  1.00  0.00     0.021 A 
ATOM      5  N   UNL     1       2.012  -1.427   1.124  1.00  0.00    -0.264 NA
ATOM      6  C   UNL     1       2.057  -2.754   0.835  1.00  0.00     0.111 A 
ENDROOT
BRANCH   1   7
ATOM      7  C   UNL     1      -1.477  -0.481   0.105  1.00  0.00     0.073 C 
ATOM      8  O   UNL     1      -1.766   0.498   0.844  1.00  0.00    -0.545 OA
ATOM      9  O   UNL     1      -2.324  -0.804  -0.949  1.00  0.00    -0.545 OA
ENDBRANCH   1   7
TORSDOF 1
ENDMDL
MODEL 6
REMARK VINA RESULT:    -4.870      2.717      3.545
REMARK INTER + INTRA:          -5.177
REMARK INTER:                  -5.153
REMARK INTRA:                  -0.024
REMARK UNBOUND:                -0.022
REMARK SMILES O=C([O-])c1cccnc1
REMARK SMILES IDX 4 1 5 2 9 3 6 4 8 5 7 6 2 7 1 8 3 9
REMARK H PARENT
REMARK Flexibility Score: inf
ROOT
ATOM      1  C   UNL     1      -1.261  -1.383  -0.192  1.00  0.00     0.016 A 
ATOM      2  C   UNL     1      -2.381  -0.717  -0.716  1.00  0.00     0.013 A 
ATOM      3  C   UNL     1      -1.048  -2.723  -0.559  1.00  0.00     0.120 A 
ATOM      4  C   UNL     1      -3.252  -1.382  -1.579  1.00  0.00     0.021 A 
ATOM      5  N   UNL     1      -1.913  -3.349  -1.402  1.00  0.00    -0.264 NA
ATOM      6  C   UNL     1      -3.000  -2.713  -1.915  1.00  0.00     0.111 A 
ENDROOT
BRANCH   1   7
ATOM      7  C   UNL     1      -0.331  -0.687   0.724  1.00  0.00     0.073 C 
ATOM      8  O   UNL     1      -0.587   0.476   1.134  1.00  0.00    -0.545 OA
ATOM      9  O   UNL     1       0.840  -1.308   1.144  1.00  0.00    -0.545 OA
ENDBRANCH   1   7
TORSDOF 1
ENDMDL
MODEL 7
REMARK VINA RESULT:    -4.851      3.290      4.113
REMARK INTER + INTRA:          -5.157
REMARK INTER:                  -5.134
REMARK INTRA:                  -0.024
REMARK UNBOUND:                -0.022
REMARK SMILES O=C([O-])c1cccnc1
REMARK SMILES IDX 4 1 5 2 9 3 6 4 8 5 7 6 2 7 1 8 3 9
REMARK H PARENT
REMARK Flexibility Score: inf
ROOT
ATOM      1  C   UNL     1       0.066  -1.932   0.222  1.00  0.00     0.016 A 
ATOM      2  C   UNL     1      -0.547  -0.670   0.293  1.00  0.00     0.013 A 
ATOM      3  C   UNL     1      -0.648  -2.990  -0.366  1.00  0.00     0.120 A 
ATOM      4  C   UNL     1      -1.834  -0.487  -0.214  1.00  0.00     0.021 A 
ATOM      5  N   UNL     1      -1.902  -2.784  -0.853  1.00  0.00    -0.264 NA
ATOM      6  C   UNL     1      -2.504  -1.567  -0.789  1.00  0.00     0.111 A 
ENDROOT
BRANCH   1   7
ATOM      7  C   UNL     1       1.430  -2.138   0.756  1.00  0.00     0.073 C 
ATOM      8  O   UNL     1       2.029  -3.233   0.579  1.00  0.00    -0.545 OA
ATOM      9  O   UNL     1       2.071  -1.126   1.462  1.00  0.00    -0.545 OA
ENDBRANCH   1   7
TORSDOF 1
ENDMDL
MODEL 8
REMARK VINA RESULT:    -3.977      7.582      8.537
REMARK INTER + INTRA:          -4.232
REMARK INTER:                  -4.215
REMARK INTRA:                  -0.017
REMARK UNBOUND:                -0.022
REMARK SMILES O=C([O-])c1cccnc1
REMARK SMILES IDX 4 1 5 2 9 3 6 4 8 5 7 6 2 7 1 8 3 9
REMARK H PARENT
REMARK Flexibility Score: inf
ROOT
ATOM      1  C   UNL     1       0.097  -2.812   6.980  1.00  0.00     0.016 A 
ATOM      2  C   UNL     1       0.818  -3.806   7.662  1.00  0.00     0.013 A 
ATOM      3  C   UNL     1       0.042  -1.524   7.539  1.00  0.00     0.120 A 
ATOM      4  C   UNL     1       1.460  -3.506   8.864  1.00  0.00     0.021 A 
ATOM      5  N   UNL     1       0.676  -1.257   8.712  1.00  0.00    -0.264 NA
ATOM      6  C   UNL     1       1.377  -2.211   9.380  1.00  0.00     0.111 A 
ENDROOT
BRANCH   1   7
ATOM      7  C   UNL     1      -0.588  -3.119   5.705  1.00  0.00     0.073 C 
ATOM      8  O   UNL     1      -1.663  -3.776   5.698  1.00  0.00    -0.545 OA
ATOM      9  O   UNL     1      -0.053  -2.687   4.497  1.00  0.00    -0.545 OA
ENDBRANCH   1   7
TORSDOF 1
ENDMDL
MODEL 9
REMARK VINA RESULT:    -3.970      7.573      8.415
REMARK INTER + INTRA:          -4.225
REMARK INTER:                  -4.208
REMARK INTRA:                  -0.016
REMARK UNBOUND:                -0.022
REMARK SMILES O=C([O-])c1cccnc1
REMARK SMILES IDX 4 1 5 2 9 3 6 4 8 5 7 6 2 7 1 8 3 9
REMARK H PARENT
REMARK Flexibility Score: inf
ROOT
ATOM      1  C   UNL     1       0.102  -2.848   7.000  1.00  0.00     0.016 A 
ATOM      2  C   UNL     1       0.063  -1.567   7.575  1.00  0.00     0.013 A 
ATOM      3  C   UNL     1       0.812  -3.860   7.670  1.00  0.00     0.120 A 
ATOM      4  C   UNL     1       0.717  -1.321   8.782  1.00  0.00     0.021 A 
ATOM      5  N   UNL     1       1.441  -3.593   8.845  1.00  0.00    -0.264 NA
ATOM      6  C   UNL     1       1.410  -2.357   9.410  1.00  0.00     0.111 A 
ENDROOT
BRANCH   1   7
ATOM      7  C   UNL     1      -0.589  -3.121   5.721  1.00  0.00     0.073 C 
ATOM      8  O   UNL     1      -1.683  -3.745   5.704  1.00  0.00    -0.545 OA
ATOM      9  O   UNL     1      -0.039  -2.693   4.518  1.00  0.00    -0.545 OA
ENDBRANCH   1   7
TORSDOF 1
ENDMDL
