MODEL 1
REMARK VINA RESULT:    -4.718      0.000      0.000
REMARK INTER + INTRA:         -14.863
REMARK INTER:                 -10.786
REMARK INTRA:                  -4.077
REMARK UNBOUND:                -4.077
REMARK SMILES CCCCCCCCCCCCCCCCCCCCCCCC(=O)[O-]
REMARK SMILES IDX 13 1 14 2 15 3 16 4 17 5 18 6 19 7 20 8 21 9 22 10 23 11
REMARK SMILES IDX 24 12 25 13 26 14 12 15 11 16 10 17 9 18 8 19 7 20 6 21 5 22
REMARK SMILES IDX 4 23 3 24 2 25 1 26
REMARK H PARENT
REMARK Flexibility Score: inf
ROOT
ATOM      1  C   UNL     1      32.718  56.069  33.590  1.00  0.00     0.000 C 
ENDROOT
BRANCH   1   2
ATOM      2  C   UNL     1      33.637  56.893  34.503  1.00  0.00     0.000 C 
BRANCH   2   3
ATOM      3  C   UNL     1      34.853  56.093  34.998  1.00  0.00     0.000 C 
BRANCH   3   4
ATOM      4  C   UNL     1      36.010  56.085  33.985  1.00  0.00     0.000 C 
BRANCH   4   5
ATOM      5  C   UNL     1      36.083  54.776  33.182  1.00  0.00     0.000 C 
BRANCH   5   6
ATOM      6  C   UNL     1      35.940  53.530  34.069  1.00  0.00     0.000 C 
BRANCH   6   7
ATOM      7  C   UNL     1      35.714  52.274  33.219  1.00  0.00     0.000 C 
BRANCH   7   8
ATOM      8  C   UNL     1      34.396  52.369  32.437  1.00  0.00     0.000 C 
BRANCH   8   9
ATOM      9  C   UNL     1      33.158  52.406  33.352  1.00  0.00     0.000 C 
BRANCH   9  10
ATOM     10  C   UNL     1      31.831  52.743  32.639  1.00  0.00     0.006 C 
BRANCH  10  11
ATOM     11  C   UNL     1      31.164  51.551  31.937  1.00  0.00     0.053 C 
BRANCH  11  12
ATOM     12  C   UNL     1      29.899  51.133  32.624  1.00  0.00     0.041 C 
ATOM     13  O   UNL     1      28.785  51.305  32.061  1.00  0.00    -0.550 OA
ATOM     14  O   UNL     1      29.949  50.587  33.899  1.00  0.00    -0.550 OA
ENDBRANCH  11  12
ENDBRANCH  10  11
ENDBRANCH   9  10
ENDBRANCH   8   9
ENDBRANCH   7   8
ENDBRANCH   6   7
ENDBRANCH   5   6
ENDBRANCH   4   5
ENDBRANCH   3   4
ENDBRANCH   2   3
ENDBRANCH   1   2
BRANCH   1  15
ATOM     15  C   UNL     1      32.511  56.769  32.242  1.00  0.00     0.000 C 
BRANCH  15  16
ATOM     16  C   UNL     1      32.701  55.788  31.076  1.00  0.00     0.000 C 
BRANCH  16  17
ATOM     17  C   UNL     1      34.091  55.896  30.429  1.00  0.00     0.000 C 
BRANCH  17  18
ATOM     18  C   UNL     1      34.665  57.320  30.491  1.00  0.00    -0.000 C 
BRANCH  18  19
ATOM     19  C   UNL     1      35.509  57.623  29.247  1.00  0.00    -0.000 C 
BRANCH  19  20
ATOM     20  C   UNL     1      35.318  56.542  28.173  1.00  0.00    -0.000 C 
BRANCH  20  21
ATOM     21  C   UNL     1      34.698  57.094  26.879  1.00  0.00    -0.000 C 
BRANCH  21  22
ATOM     22  C   UNL     1      33.699  56.119  26.237  1.00  0.00    -0.000 C 
BRANCH  22  23
ATOM     23  C   UNL     1      32.313  56.247  26.885  1.00  0.00    -0.000 C 
BRANCH  23  24
ATOM     24  C   UNL     1      31.793  54.912  27.439  1.00  0.00    -0.000 C 
BRANCH  24  25
ATOM     25  C   UNL     1      32.844  53.794  27.370  1.00  0.00    -0.003 C 
ATOM     26  C   UNL     1      32.836  52.952  28.643  1.00  0.00     0.004 C 
ENDBRANCH  24  25
ENDBRANCH  23  24
ENDBRANCH  22  23
ENDBRANCH  21  22
ENDBRANCH  20  21
ENDBRANCH  19  20
ENDBRANCH  18  19
ENDBRANCH  17  18
ENDBRANCH  16  17
ENDBRANCH  15  16
ENDBRANCH   1  15
TORSDOF 22
ENDMDL
MODEL 2
REMARK VINA RESULT:    -4.646      1.953      2.810
REMARK INTER + INTRA:         -14.698
REMARK INTER:                 -11.023
REMARK INTRA:                  -3.675
REMARK UNBOUND:                -4.077
REMARK SMILES CCCCCCCCCCCCCCCCCCCCCCCC(=O)[O-]
REMARK SMILES IDX 13 1 14 2 15 3 16 4 17 5 18 6 19 7 20 8 21 9 22 10 23 11
REMARK SMILES IDX 24 12 25 13 26 14 12 15 11 16 10 17 9 18 8 19 7 20 6 21 5 22
REMARK SMILES IDX 4 23 3 24 2 25 1 26
REMARK H PARENT
REMARK Flexibility Score: inf
ROOT
ATOM      1  C   UNL     1      32.771  55.542  34.856  1.00  0.00     0.000 C 
ENDROOT
BRANCH   1   2
ATOM      2  C   UNL     1      34.069  56.333  34.636  1.00  0.00     0.000 C 
BRANCH   2   3
ATOM      3  C   UNL     1      35.328  55.480  34.859  1.00  0.00     0.000 C 
BRANCH   3   4
ATOM      4  C   UNL     1      36.104  55.219  33.558  1.00  0.00     0.000 C 
BRANCH   4   5
ATOM      5  C   UNL     1      36.908  53.909  33.602  1.00  0.00     0.000 C 
BRANCH   5   6
ATOM      6  C   UNL     1      36.061  52.711  34.055  1.00  0.00     0.000 C 
BRANCH   6   7
ATOM      7  C   UNL     1      35.354  52.056  32.862  1.00  0.00     0.000 C 
BRANCH   7   8
ATOM      8  C   UNL     1      33.850  51.898  33.132  1.00  0.00     0.000 C 
BRANCH   8   9
ATOM      9  C   UNL     1      33.142  51.022  32.083  1.00  0.00     0.000 C 
BRANCH   9  10
ATOM     10  C   UNL     1      32.027  51.733  31.286  1.00  0.00     0.006 C 
BRANCH  10  11
ATOM     11  C   UNL     1      31.862  51.239  29.841  1.00  0.00     0.053 C 
BRANCH  11  12
ATOM     12  C   UNL     1      32.505  52.166  28.855  1.00  0.00     0.041 C 
ATOM     13  O   UNL     1      33.710  52.504  28.996  1.00  0.00    -0.550 OA
ATOM     14  O   UNL     1      31.764  52.683  27.802  1.00  0.00    -0.550 OA
ENDBRANCH  11  12
ENDBRANCH  10  11
ENDBRANCH   9  10
ENDBRANCH   8   9
ENDBRANCH   7   8
ENDBRANCH   6   7
ENDBRANCH   5   6
ENDBRANCH   4   5
ENDBRANCH   3   4
ENDBRANCH   2   3
ENDBRANCH   1   2
BRANCH   1  15
ATOM     15  C   UNL     1      32.246  54.969  33.534  1.00  0.00     0.000 C 
BRANCH  15  16
ATOM     16  C   UNL     1      32.408  55.982  32.391  1.00  0.00     0.000 C 
BRANCH  16  17
ATOM     17  C   UNL     1      32.913  55.335  31.091  1.00  0.00     0.000 C 
BRANCH  17  18
ATOM     18  C   UNL     1      34.143  56.050  30.512  1.00  0.00    -0.000 C 
BRANCH  18  19
ATOM     19  C   UNL     1      34.412  57.364  31.254  1.00  0.00    -0.000 C 
BRANCH  19  20
ATOM     20  C   UNL     1      35.354  58.270  30.448  1.00  0.00    -0.000 C 
BRANCH  20  21
ATOM     21  C   UNL     1      36.239  57.482  29.468  1.00  0.00    -0.000 C 
BRANCH  21  22
ATOM     22  C   UNL     1      36.073  57.946  28.014  1.00  0.00    -0.000 C 
BRANCH  22  23
ATOM     23  C   UNL     1      35.623  56.785  27.114  1.00  0.00    -0.000 C 
BRANCH  23  24
ATOM     24  C   UNL     1      34.167  56.930  26.646  1.00  0.00    -0.000 C 
BRANCH  24  25
ATOM     25  C   UNL     1      33.342  55.655  26.878  1.00  0.00    -0.003 C 
ATOM     26  C   UNL     1      31.849  55.968  26.932  1.00  0.00     0.004 C 
ENDBRANCH  24  25
ENDBRANCH  23  24
ENDBRANCH  22  23
ENDBRANCH  21  22
ENDBRANCH  20  21
ENDBRANCH  19  20
ENDBRANCH  18  19
ENDBRANCH  17  18
ENDBRANCH  16  17
ENDBRANCH  15  16
ENDBRANCH   1  15
TORSDOF 22
ENDMDL
MODEL 3
REMARK VINA RESULT:    -4.579      1.642      2.804
REMARK INTER + INTRA:         -14.546
REMARK INTER:                 -11.019
REMARK INTRA:                  -3.526
REMARK UNBOUND:                -4.077
REMARK SMILES CCCCCCCCCCCCCCCCCCCCCCCC(=O)[O-]
REMARK SMILES IDX 13 1 14 2 15 3 16 4 17 5 18 6 19 7 20 8 21 9 22 10 23 11
REMARK SMILES IDX 24 12 25 13 26 14 12 15 11 16 10 17 9 18 8 19 7 20 6 21 5 22
REMARK SMILES IDX 4 23 3 24 2 25 1 26
REMARK H PARENT
REMARK Flexibility Score: inf
ROOT
ATOM      1  C   UNL     1      32.531  56.216  33.473  1.00  0.00     0.000 C 
ENDROOT
BRANCH   1   2
ATOM      2  C   UNL     1      32.352  54.808  34.059  1.00  0.00     0.000 C 
BRANCH   2   3
ATOM      3  C   UNL     1      32.038  53.754  32.985  1.00  0.00     0.000 C 
BRANCH   3   4
ATOM      4  C   UNL     1      33.138  52.685  32.864  1.00  0.00     0.000 C 
BRANCH   4   5
ATOM      5  C   UNL     1      33.687  52.561  31.433  1.00  0.00     0.000 C 
BRANCH   5   6
ATOM      6  C   UNL     1      32.656  52.964  30.368  1.00  0.00     0.000 C 
BRANCH   6   7
ATOM      7  C   UNL     1      32.632  51.950  29.218  1.00  0.00     0.000 C 
BRANCH   7   8
ATOM      8  C   UNL     1      31.472  50.957  29.384  1.00  0.00     0.000 C 
BRANCH   8   9
ATOM      9  C   UNL     1      31.872  49.695  30.170  1.00  0.00     0.000 C 
BRANCH   9  10
ATOM     10  C   UNL     1      31.009  49.401  31.415  1.00  0.00     0.006 C 
BRANCH  10  11
ATOM     11  C   UNL     1      30.175  50.593  31.908  1.00  0.00     0.053 C 
BRANCH  11  12
ATOM     12  C   UNL     1      29.629  50.364  33.285  1.00  0.00     0.041 C 
ATOM     13  O   UNL     1      28.390  50.230  33.461  1.00  0.00    -0.550 OA
ATOM     14  O   UNL     1      30.487  50.332  34.376  1.00  0.00    -0.550 OA
ENDBRANCH  11  12
ENDBRANCH  10  11
ENDBRANCH   9  10
ENDBRANCH   8   9
ENDBRANCH   7   8
ENDBRANCH   6   7
ENDBRANCH   5   6
ENDBRANCH   4   5
ENDBRANCH   3   4
ENDBRANCH   2   3
ENDBRANCH   1   2
BRANCH   1  15
ATOM     15  C   UNL     1      32.335  56.207  31.952  1.00  0.00     0.000 C 
BRANCH  15  16
ATOM     16  C   UNL     1      33.678  56.352  31.222  1.00  0.00     0.000 C 
BRANCH  16  17
ATOM     17  C   UNL     1      34.603  57.389  31.880  1.00  0.00     0.000 C 
BRANCH  17  18
ATOM     18  C   UNL     1      35.337  58.265  30.853  1.00  0.00    -0.000 C 
BRANCH  18  19
ATOM     19  C   UNL     1      36.036  57.400  29.796  1.00  0.00    -0.000 C 
BRANCH  19  20
ATOM     20  C   UNL     1      35.956  58.053  28.409  1.00  0.00    -0.000 C 
BRANCH  20  21
ATOM     21  C   UNL     1      34.949  57.353  27.481  1.00  0.00    -0.000 C 
BRANCH  21  22
ATOM     22  C   UNL     1      34.848  55.843  27.747  1.00  0.00    -0.000 C 
BRANCH  22  23
ATOM     23  C   UNL     1      33.586  55.254  27.101  1.00  0.00    -0.000 C 
BRANCH  23  24
ATOM     24  C   UNL     1      32.313  55.558  27.907  1.00  0.00    -0.000 C 
BRANCH  24  25
ATOM     25  C   UNL     1      31.035  55.429  27.064  1.00  0.00    -0.003 C 
ATOM     26  C   UNL     1      31.158  54.295  26.049  1.00  0.00     0.004 C 
ENDBRANCH  24  25
ENDBRANCH  23  24
ENDBRANCH  22  23
ENDBRANCH  21  22
ENDBRANCH  20  21
ENDBRANCH  19  20
ENDBRANCH  18  19
ENDBRANCH  17  18
ENDBRANCH  16  17
ENDBRANCH  15  16
ENDBRANCH   1  15
TORSDOF 22
ENDMDL
MODEL 4
REMARK VINA RESULT:    -4.558      2.657      5.737
REMARK INTER + INTRA:         -14.497
REMARK INTER:                 -10.947
REMARK INTRA:                  -3.551
REMARK UNBOUND:                -4.077
REMARK SMILES CCCCCCCCCCCCCCCCCCCCCCCC(=O)[O-]
REMARK SMILES IDX 13 1 14 2 15 3 16 4 17 5 18 6 19 7 20 8 21 9 22 10 23 11
REMARK SMILES IDX 24 12 25 13 26 14 12 15 11 16 10 17 9 18 8 19 7 20 6 21 5 22
REMARK SMILES IDX 4 23 3 24 2 25 1 26
REMARK H PARENT
REMARK Flexibility Score: inf
ROOT
ATOM      1  C   UNL     1      32.907  56.073  34.095  1.00  0.00     0.000 C 
ENDROOT
BRANCH   1   2
ATOM      2  C   UNL     1      32.354  57.007  33.009  1.00  0.00     0.000 C 
BRANCH   2   3
ATOM      3  C   UNL     1      32.689  56.527  31.587  1.00  0.00     0.000 C 
BRANCH   3   4
ATOM      4  C   UNL     1      34.203  56.475  31.322  1.00  0.00     0.000 C 
BRANCH   4   5
ATOM      5  C   UNL     1      34.876  57.850  31.464  1.00  0.00     0.000 C 
BRANCH   5   6
ATOM      6  C   UNL     1      35.682  58.245  30.218  1.00  0.00     0.000 C 
BRANCH   6   7
ATOM      7  C   UNL     1      35.634  57.137  29.160  1.00  0.00     0.000 C 
BRANCH   7   8
ATOM      8  C   UNL     1      35.473  57.727  27.751  1.00  0.00     0.000 C 
BRANCH   8   9
ATOM      9  C   UNL     1      34.555  56.883  26.849  1.00  0.00     0.000 C 
BRANCH   9  10
ATOM     10  C   UNL     1      33.580  55.952  27.601  1.00  0.00     0.006 C 
BRANCH  10  11
ATOM     11  C   UNL     1      32.945  54.857  26.731  1.00  0.00     0.053 C 
BRANCH  11  12
ATOM     12  C   UNL     1      31.450  54.860  26.830  1.00  0.00     0.041 C 
ATOM     13  O   UNL     1      30.779  53.920  26.328  1.00  0.00    -0.550 OA
ATOM     14  O   UNL     1      30.797  55.919  27.446  1.00  0.00    -0.550 OA
ENDBRANCH  11  12
ENDBRANCH  10  11
ENDBRANCH   9  10
ENDBRANCH   8   9
ENDBRANCH   7   8
ENDBRANCH   6   7
ENDBRANCH   5   6
ENDBRANCH   4   5
ENDBRANCH   3   4
ENDBRANCH   2   3
ENDBRANCH   1   2
BRANCH   1  15
ATOM     15  C   UNL     1      31.913  54.950  34.412  1.00  0.00     0.000 C 
BRANCH  15  16
ATOM     16  C   UNL     1      32.511  53.574  34.081  1.00  0.00     0.000 C 
BRANCH  16  17
ATOM     17  C   UNL     1      32.128  53.083  32.676  1.00  0.00     0.000 C 
BRANCH  17  18
ATOM     18  C   UNL     1      33.347  52.908  31.756  1.00  0.00    -0.000 C 
BRANCH  18  19
ATOM     19  C   UNL     1      33.007  53.314  30.317  1.00  0.00    -0.000 C 
BRANCH  19  20
ATOM     20  C   UNL     1      33.183  52.131  29.354  1.00  0.00    -0.000 C 
BRANCH  20  21
ATOM     21  C   UNL     1      31.848  51.635  28.775  1.00  0.00    -0.000 C 
BRANCH  21  22
ATOM     22  C   UNL     1      31.515  50.196  29.199  1.00  0.00    -0.000 C 
BRANCH  22  23
ATOM     23  C   UNL     1      30.592  50.185  30.426  1.00  0.00    -0.000 C 
BRANCH  23  24
ATOM     24  C   UNL     1      31.308  49.710  31.701  1.00  0.00    -0.000 C 
BRANCH  24  25
ATOM     25  C   UNL     1      32.727  49.191  31.424  1.00  0.00    -0.003 C 
ATOM     26  C   UNL     1      33.431  48.799  32.719  1.00  0.00     0.004 C 
ENDBRANCH  24  25
ENDBRANCH  23  24
ENDBRANCH  22  23
ENDBRANCH  21  22
ENDBRANCH  20  21
ENDBRANCH  19  20
ENDBRANCH  18  19
ENDBRANCH  17  18
ENDBRANCH  16  17
ENDBRANCH  15  16
ENDBRANCH   1  15
TORSDOF 22
ENDMDL
MODEL 5
REMARK VINA RESULT:    -4.553      2.053      6.272
REMARK INTER + INTRA:         -14.486
REMARK INTER:                 -11.161
REMARK INTRA:                  -3.325
REMARK UNBOUND:                -4.077
REMARK SMILES CCCCCCCCCCCCCCCCCCCCCCCC(=O)[O-]
REMARK SMILES IDX 13 1 14 2 15 3 16 4 17 5 18 6 19 7 20 8 21 9 22 10 23 11
REMARK SMILES IDX 24 12 25 13 26 14 12 15 11 16 10 17 9 18 8 19 7 20 6 21 5 22
REMARK SMILES IDX 4 23 3 24 2 25 1 26
REMARK H PARENT
REMARK Flexibility Score: inf
ROOT
ATOM      1  C   UNL     1      31.638  55.177  27.576  1.00  0.00     0.000 C 
ENDROOT
BRANCH   1   2
ATOM      2  C   UNL     1      32.178  56.207  26.573  1.00  0.00     0.000 C 
BRANCH   2   3
ATOM      3  C   UNL     1      33.603  55.881  26.098  1.00  0.00     0.000 C 
BRANCH   3   4
ATOM      4  C   UNL     1      34.603  57.008  26.410  1.00  0.00     0.000 C 
BRANCH   4   5
ATOM      5  C   UNL     1      35.590  56.629  27.527  1.00  0.00     0.000 C 
BRANCH   5   6
ATOM      6  C   UNL     1      35.720  57.723  28.596  1.00  0.00     0.000 C 
BRANCH   6   7
ATOM      7  C   UNL     1      35.049  57.293  29.906  1.00  0.00     0.000 C 
BRANCH   7   8
ATOM      8  C   UNL     1      35.330  58.306  31.026  1.00  0.00     0.000 C 
BRANCH   8   9
ATOM      9  C   UNL     1      35.253  57.682  32.431  1.00  0.00     0.000 C 
BRANCH   9  10
ATOM     10  C   UNL     1      33.908  57.007  32.772  1.00  0.00     0.006 C 
BRANCH  10  11
ATOM     11  C   UNL     1      33.644  56.833  34.275  1.00  0.00     0.053 C 
BRANCH  11  12
ATOM     12  C   UNL     1      32.781  55.641  34.558  1.00  0.00     0.041 C 
ATOM     13  O   UNL     1      31.577  55.628  34.189  1.00  0.00    -0.550 OA
ATOM     14  O   UNL     1      33.298  54.561  35.261  1.00  0.00    -0.550 OA
ENDBRANCH  11  12
ENDBRANCH  10  11
ENDBRANCH   9  10
ENDBRANCH   8   9
ENDBRANCH   7   8
ENDBRANCH   6   7
ENDBRANCH   5   6
ENDBRANCH   4   5
ENDBRANCH   3   4
ENDBRANCH   2   3
ENDBRANCH   1   2
BRANCH   1  15
ATOM     15  C   UNL     1      32.254  53.794  27.329  1.00  0.00     0.000 C 
BRANCH  15  16
ATOM     16  C   UNL     1      32.781  53.184  28.636  1.00  0.00     0.000 C 
BRANCH  16  17
ATOM     17  C   UNL     1      33.260  54.247  29.638  1.00  0.00     0.000 C 
BRANCH  17  18
ATOM     18  C   UNL     1      32.814  53.949  31.077  1.00  0.00    -0.000 C 
BRANCH  18  19
ATOM     19  C   UNL     1      33.832  53.050  31.789  1.00  0.00    -0.000 C 
BRANCH  19  20
ATOM     20  C   UNL     1      33.142  52.150  32.825  1.00  0.00    -0.000 C 
BRANCH  20  21
ATOM     21  C   UNL     1      31.629  52.402  32.915  1.00  0.00    -0.000 C 
BRANCH  21  22
ATOM     22  C   UNL     1      30.854  51.185  33.442  1.00  0.00    -0.000 C 
BRANCH  22  23
ATOM     23  C   UNL     1      30.149  50.444  32.296  1.00  0.00    -0.000 C 
BRANCH  23  24
ATOM     24  C   UNL     1      30.553  50.973  30.912  1.00  0.00    -0.000 C 
BRANCH  24  25
ATOM     25  C   UNL     1      31.119  49.873  30.001  1.00  0.00    -0.003 C 
ATOM     26  C   UNL     1      32.369  49.245  30.609  1.00  0.00     0.004 C 
ENDBRANCH  24  25
ENDBRANCH  23  24
ENDBRANCH  22  23
ENDBRANCH  21  22
ENDBRANCH  20  21
ENDBRANCH  19  20
ENDBRANCH  18  19
ENDBRANCH  17  18
ENDBRANCH  16  17
ENDBRANCH  15  16
ENDBRANCH   1  15
TORSDOF 22
ENDMDL
MODEL 6
REMARK VINA RESULT:    -4.523      1.377      5.330
REMARK INTER + INTRA:         -14.417
REMARK INTER:                 -10.560
REMARK INTRA:                  -3.857
REMARK UNBOUND:                -4.077
REMARK SMILES CCCCCCCCCCCCCCCCCCCCCCCC(=O)[O-]
REMARK SMILES IDX 13 1 14 2 15 3 16 4 17 5 18 6 19 7 20 8 21 9 22 10 23 11
REMARK SMILES IDX 24 12 25 13 26 14 12 15 11 16 10 17 9 18 8 19 7 20 6 21 5 22
REMARK SMILES IDX 4 23 3 24 2 25 1 26
REMARK H PARENT
REMARK Flexibility Score: inf
ROOT
ATOM      1  C   UNL     1      35.752  56.797  27.784  1.00  0.00     0.000 C 
ENDROOT
BRANCH   1   2
ATOM      2  C   UNL     1      34.888  56.985  26.528  1.00  0.00     0.000 C 
BRANCH   2   3
ATOM      3  C   UNL     1      33.497  56.345  26.664  1.00  0.00     0.000 C 
BRANCH   3   4
ATOM      4  C   UNL     1      33.525  55.034  27.467  1.00  0.00     0.000 C 
BRANCH   4   5
ATOM      5  C   UNL     1      32.507  55.026  28.621  1.00  0.00     0.000 C 
BRANCH   5   6
ATOM      6  C   UNL     1      33.006  54.243  29.843  1.00  0.00     0.000 C 
BRANCH   6   7
ATOM      7  C   UNL     1      33.322  52.789  29.472  1.00  0.00     0.000 C 
BRANCH   7   8
ATOM      8  C   UNL     1      32.251  51.835  30.022  1.00  0.00     0.000 C 
BRANCH   8   9
ATOM      9  C   UNL     1      32.790  50.896  31.116  1.00  0.00     0.000 C 
BRANCH   9  10
ATOM     10  C   UNL     1      31.779  50.544  32.228  1.00  0.00     0.006 C 
BRANCH  10  11
ATOM     11  C   UNL     1      30.401  51.203  32.069  1.00  0.00     0.053 C 
BRANCH  11  12
ATOM     12  C   UNL     1      29.361  50.224  31.616  1.00  0.00     0.041 C 
ATOM     13  O   UNL     1      28.168  50.595  31.455  1.00  0.00    -0.550 OA
ATOM     14  O   UNL     1      29.703  48.895  31.406  1.00  0.00    -0.550 OA
ENDBRANCH  11  12
ENDBRANCH  10  11
ENDBRANCH   9  10
ENDBRANCH   8   9
ENDBRANCH   7   8
ENDBRANCH   6   7
ENDBRANCH   5   6
ENDBRANCH   4   5
ENDBRANCH   3   4
ENDBRANCH   2   3
ENDBRANCH   1   2
BRANCH   1  15
ATOM     15  C   UNL     1      36.176  58.150  28.367  1.00  0.00     0.000 C 
BRANCH  15  16
ATOM     16  C   UNL     1      35.931  58.199  29.883  1.00  0.00     0.000 C 
BRANCH  16  17
ATOM     17  C   UNL     1      35.270  56.920  30.420  1.00  0.00     0.000 C 
BRANCH  17  18
ATOM     18  C   UNL     1      34.188  57.208  31.472  1.00  0.00    -0.000 C 
BRANCH  18  19
ATOM     19  C   UNL     1      34.814  57.419  32.855  1.00  0.00    -0.000 C 
BRANCH  19  20
ATOM     20  C   UNL     1      33.891  56.895  33.964  1.00  0.00    -0.000 C 
BRANCH  20  21
ATOM     21  C   UNL     1      32.472  56.585  33.458  1.00  0.00    -0.000 C 
BRANCH  21  22
ATOM     22  C   UNL     1      31.870  55.331  34.109  1.00  0.00    -0.000 C 
BRANCH  22  23
ATOM     23  C   UNL     1      32.421  54.054  33.458  1.00  0.00    -0.000 C 
BRANCH  23  24
ATOM     24  C   UNL     1      33.105  53.122  34.469  1.00  0.00    -0.000 C 
BRANCH  24  25
ATOM     25  C   UNL     1      34.628  53.057  34.277  1.00  0.00    -0.003 C 
ATOM     26  C   UNL     1      35.021  53.467  32.861  1.00  0.00     0.004 C 
ENDBRANCH  24  25
ENDBRANCH  23  24
ENDBRANCH  22  23
ENDBRANCH  21  22
ENDBRANCH  20  21
ENDBRANCH  19  20
ENDBRANCH  18  19
ENDBRANCH  17  18
ENDBRANCH  16  17
ENDBRANCH  15  16
ENDBRANCH   1  15
TORSDOF 22
ENDMDL
MODEL 7
REMARK VINA RESULT:    -4.463      2.528      5.385
REMARK INTER + INTRA:         -14.280
REMARK INTER:                 -11.226
REMARK INTRA:                  -3.054
REMARK UNBOUND:                -4.077
REMARK SMILES CCCCCCCCCCCCCCCCCCCCCCCC(=O)[O-]
REMARK SMILES IDX 13 1 14 2 15 3 16 4 17 5 18 6 19 7 20 8 21 9 22 10 23 11
REMARK SMILES IDX 24 12 25 13 26 14 12 15 11 16 10 17 9 18 8 19 7 20 6 21 5 22
REMARK SMILES IDX 4 23 3 24 2 25 1 26
REMARK H PARENT
REMARK Flexibility Score: inf
ROOT
ATOM      1  C   UNL     1      32.758  53.614  27.773  1.00  0.00     0.000 C 
ENDROOT
BRANCH   1   2
ATOM      2  C   UNL     1      33.223  52.833  29.011  1.00  0.00     0.000 C 
BRANCH   2   3
ATOM      3  C   UNL     1      32.233  51.731  29.423  1.00  0.00     0.000 C 
BRANCH   3   4
ATOM      4  C   UNL     1      31.999  51.684  30.942  1.00  0.00     0.000 C 
BRANCH   4   5
ATOM      5  C   UNL     1      32.977  52.580  31.719  1.00  0.00     0.000 C 
BRANCH   5   6
ATOM      6  C   UNL     1      33.667  51.840  32.874  1.00  0.00     0.000 C 
BRANCH   6   7
ATOM      7  C   UNL     1      35.191  51.857  32.704  1.00  0.00     0.000 C 
BRANCH   7   8
ATOM      8  C   UNL     1      35.864  52.629  33.849  1.00  0.00     0.000 C 
BRANCH   8   9
ATOM      9  C   UNL     1      35.146  53.949  34.184  1.00  0.00     0.000 C 
BRANCH   9  10
ATOM     10  C   UNL     1      36.029  55.016  34.865  1.00  0.00     0.006 C 
BRANCH  10  11
ATOM     11  C   UNL     1      35.788  56.451  34.373  1.00  0.00     0.053 C 
BRANCH  11  12
ATOM     12  C   UNL     1      34.809  57.183  35.239  1.00  0.00     0.041 C 
ATOM     13  O   UNL     1      34.283  56.607  36.228  1.00  0.00    -0.550 OA
ATOM     14  O   UNL     1      34.451  58.489  34.933  1.00  0.00    -0.550 OA
ENDBRANCH  11  12
ENDBRANCH  10  11
ENDBRANCH   9  10
ENDBRANCH   8   9
ENDBRANCH   7   8
ENDBRANCH   6   7
ENDBRANCH   5   6
ENDBRANCH   4   5
ENDBRANCH   3   4
ENDBRANCH   2   3
ENDBRANCH   1   2
BRANCH   1  15
ATOM     15  C   UNL     1      32.212  54.993  28.165  1.00  0.00     0.000 C 
BRANCH  15  16
ATOM     16  C   UNL     1      31.958  55.859  26.923  1.00  0.00     0.000 C 
BRANCH  16  17
ATOM     17  C   UNL     1      33.123  55.820  25.922  1.00  0.00     0.000 C 
BRANCH  17  18
ATOM     18  C   UNL     1      34.073  57.019  26.070  1.00  0.00    -0.000 C 
BRANCH  18  19
ATOM     19  C   UNL     1      35.308  56.639  26.896  1.00  0.00    -0.000 C 
BRANCH  19  20
ATOM     20  C   UNL     1      35.632  57.723  27.934  1.00  0.00    -0.000 C 
BRANCH  20  21
ATOM     21  C   UNL     1      35.893  57.143  29.334  1.00  0.00    -0.000 C 
BRANCH  21  22
ATOM     22  C   UNL     1      35.592  58.147  30.457  1.00  0.00    -0.000 C 
BRANCH  22  23
ATOM     23  C   UNL     1      34.422  57.665  31.327  1.00  0.00    -0.000 C 
BRANCH  23  24
ATOM     24  C   UNL     1      34.079  56.186  31.091  1.00  0.00    -0.000 C 
BRANCH  24  25
ATOM     25  C   UNL     1      32.776  55.763  31.787  1.00  0.00    -0.003 C 
ATOM     26  C   UNL     1      32.189  56.913  32.600  1.00  0.00     0.004 C 
ENDBRANCH  24  25
ENDBRANCH  23  24
ENDBRANCH  22  23
ENDBRANCH  21  22
ENDBRANCH  20  21
ENDBRANCH  19  20
ENDBRANCH  18  19
ENDBRANCH  17  18
ENDBRANCH  16  17
ENDBRANCH  15  16
ENDBRANCH   1  15
TORSDOF 22
ENDMDL
MODEL 8
REMARK VINA RESULT:    -4.459      2.096      5.348
REMARK INTER + INTRA:         -14.271
REMARK INTER:                 -10.560
REMARK INTRA:                  -3.711
REMARK UNBOUND:                -4.077
REMARK SMILES CCCCCCCCCCCCCCCCCCCCCCCC(=O)[O-]
REMARK SMILES IDX 13 1 14 2 15 3 16 4 17 5 18 6 19 7 20 8 21 9 22 10 23 11
REMARK SMILES IDX 24 12 25 13 26 14 12 15 11 16 10 17 9 18 8 19 7 20 6 21 5 22
REMARK SMILES IDX 4 23 3 24 2 25 1 26
REMARK H PARENT
REMARK Flexibility Score: inf
ROOT
ATOM      1  C   UNL     1      32.174  55.356  28.237  1.00  0.00     0.000 C 
ENDROOT
BRANCH   1   2
ATOM      2  C   UNL     1      32.591  53.878  28.240  1.00  0.00     0.000 C 
BRANCH   2   3
ATOM      3  C   UNL     1      33.393  53.492  29.494  1.00  0.00     0.000 C 
BRANCH   3   4
ATOM      4  C   UNL     1      33.215  52.013  29.878  1.00  0.00     0.000 C 
BRANCH   4   5
ATOM      5  C   UNL     1      31.823  51.717  30.459  1.00  0.00     0.000 C 
BRANCH   5   6
ATOM      6  C   UNL     1      31.889  51.039  31.836  1.00  0.00     0.000 C 
BRANCH   6   7
ATOM      7  C   UNL     1      31.209  51.902  32.906  1.00  0.00     0.000 C 
BRANCH   7   8
ATOM      8  C   UNL     1      31.794  53.322  32.921  1.00  0.00     0.000 C 
BRANCH   8   9
ATOM      9  C   UNL     1      33.065  53.438  33.781  1.00  0.00     0.000 C 
BRANCH   9  10
ATOM     10  C   UNL     1      34.382  53.554  32.985  1.00  0.00     0.006 C 
BRANCH  10  11
ATOM     11  C   UNL     1      35.636  53.124  33.761  1.00  0.00     0.053 C 
BRANCH  11  12
ATOM     12  C   UNL     1      35.913  51.659  33.610  1.00  0.00     0.041 C 
ATOM     13  O   UNL     1      36.337  51.203  32.515  1.00  0.00    -0.550 OA
ATOM     14  O   UNL     1      35.669  50.794  34.668  1.00  0.00    -0.550 OA
ENDBRANCH  11  12
ENDBRANCH  10  11
ENDBRANCH   9  10
ENDBRANCH   8   9
ENDBRANCH   7   8
ENDBRANCH   6   7
ENDBRANCH   5   6
ENDBRANCH   4   5
ENDBRANCH   3   4
ENDBRANCH   2   3
ENDBRANCH   1   2
BRANCH   1  15
ATOM     15  C   UNL     1      32.201  55.932  26.816  1.00  0.00     0.000 C 
BRANCH  15  16
ATOM     16  C   UNL     1      33.629  55.936  26.249  1.00  0.00     0.000 C 
BRANCH  16  17
ATOM     17  C   UNL     1      34.497  57.063  26.832  1.00  0.00     0.000 C 
BRANCH  17  18
ATOM     18  C   UNL     1      35.910  56.591  27.205  1.00  0.00    -0.000 C 
BRANCH  18  19
ATOM     19  C   UNL     1      36.410  57.306  28.466  1.00  0.00    -0.000 C 
BRANCH  19  20
ATOM     20  C   UNL     1      35.241  57.677  29.390  1.00  0.00    -0.000 C 
BRANCH  20  21
ATOM     21  C   UNL     1      34.944  56.590  30.436  1.00  0.00    -0.000 C 
BRANCH  21  22
ATOM     22  C   UNL     1      34.560  57.173  31.804  1.00  0.00    -0.000 C 
BRANCH  22  23
ATOM     23  C   UNL     1      33.092  56.874  32.137  1.00  0.00    -0.000 C 
BRANCH  23  24
ATOM     24  C   UNL     1      32.786  57.003  33.638  1.00  0.00    -0.000 C 
BRANCH  24  25
ATOM     25  C   UNL     1      33.986  57.527  34.442  1.00  0.00    -0.003 C 
ATOM     26  C   UNL     1      34.468  56.487  35.450  1.00  0.00     0.004 C 
ENDBRANCH  24  25
ENDBRANCH  23  24
ENDBRANCH  22  23
ENDBRANCH  21  22
ENDBRANCH  20  21
ENDBRANCH  19  20
ENDBRANCH  18  19
ENDBRANCH  17  18
ENDBRANCH  16  17
ENDBRANCH  15  16
ENDBRANCH   1  15
TORSDOF 22
ENDMDL
MODEL 9
REMARK VINA RESULT:    -4.454      1.399      4.623
REMARK INTER + INTRA:         -14.259
REMARK INTER:                 -11.107
REMARK INTRA:                  -3.151
REMARK UNBOUND:                -4.077
REMARK SMILES CCCCCCCCCCCCCCCCCCCCCCCC(=O)[O-]
REMARK SMILES IDX 13 1 14 2 15 3 16 4 17 5 18 6 19 7 20 8 21 9 22 10 23 11
REMARK SMILES IDX 24 12 25 13 26 14 12 15 11 16 10 17 9 18 8 19 7 20 6 21 5 22
REMARK SMILES IDX 4 23 3 24 2 25 1 26
REMARK H PARENT
REMARK Flexibility Score: inf
ROOT
ATOM      1  C   UNL     1      31.518  55.033  27.222  1.00  0.00     0.000 C 
ENDROOT
BRANCH   1   2
ATOM      2  C   UNL     1      32.258  54.770  28.542  1.00  0.00     0.000 C 
BRANCH   2   3
ATOM      3  C   UNL     1      33.018  53.433  28.539  1.00  0.00     0.000 C 
BRANCH   3   4
ATOM      4  C   UNL     1      32.611  52.518  29.705  1.00  0.00     0.000 C 
BRANCH   4   5
ATOM      5  C   UNL     1      33.816  52.054  30.541  1.00  0.00     0.000 C 
BRANCH   5   6
ATOM      6  C   UNL     1      33.826  52.662  31.951  1.00  0.00     0.000 C 
BRANCH   6   7
ATOM      7  C   UNL     1      33.884  51.566  33.021  1.00  0.00     0.000 C 
BRANCH   7   8
ATOM      8  C   UNL     1      32.496  51.319  33.632  1.00  0.00     0.000 C 
BRANCH   8   9
ATOM      9  C   UNL     1      31.486  52.430  33.292  1.00  0.00     0.000 C 
BRANCH   9  10
ATOM     10  C   UNL     1      30.206  51.951  32.576  1.00  0.00     0.006 C 
BRANCH  10  11
ATOM     11  C   UNL     1      30.265  50.502  32.067  1.00  0.00     0.053 C 
BRANCH  11  12
ATOM     12  C   UNL     1      29.067  50.151  31.238  1.00  0.00     0.041 C 
ATOM     13  O   UNL     1      28.013  49.737  31.789  1.00  0.00    -0.550 OA
ATOM     14  O   UNL     1      29.128  50.248  29.854  1.00  0.00    -0.550 OA
ENDBRANCH  11  12
ENDBRANCH  10  11
ENDBRANCH   9  10
ENDBRANCH   8   9
ENDBRANCH   7   8
ENDBRANCH   6   7
ENDBRANCH   5   6
ENDBRANCH   4   5
ENDBRANCH   3   4
ENDBRANCH   2   3
ENDBRANCH   1   2
BRANCH   1  15
ATOM     15  C   UNL     1      32.087  56.265  26.509  1.00  0.00     0.000 C 
BRANCH  15  16
ATOM     16  C   UNL     1      33.451  55.954  25.875  1.00  0.00     0.000 C 
BRANCH  16  17
ATOM     17  C   UNL     1      34.516  57.012  26.208  1.00  0.00     0.000 C 
BRANCH  17  18
ATOM     18  C   UNL     1      35.426  56.591  27.372  1.00  0.00    -0.000 C 
BRANCH  18  19
ATOM     19  C   UNL     1      35.831  57.806  28.215  1.00  0.00    -0.000 C 
BRANCH  19  20
ATOM     20  C   UNL     1      35.689  57.508  29.715  1.00  0.00    -0.000 C 
BRANCH  20  21
ATOM     21  C   UNL     1      34.517  56.562  30.023  1.00  0.00    -0.000 C 
BRANCH  21  22
ATOM     22  C   UNL     1      34.285  56.375  31.530  1.00  0.00    -0.000 C 
BRANCH  22  23
ATOM     23  C   UNL     1      32.787  56.256  31.845  1.00  0.00    -0.000 C 
BRANCH  23  24
ATOM     24  C   UNL     1      32.517  55.923  33.320  1.00  0.00    -0.000 C 
BRANCH  24  25
ATOM     25  C   UNL     1      33.809  55.785  34.141  1.00  0.00    -0.003 C 
ATOM     26  C   UNL     1      34.004  56.984  35.064  1.00  0.00     0.004 C 
ENDBRANCH  24  25
ENDBRANCH  23  24
ENDBRANCH  22  23
ENDBRANCH  21  22
ENDBRANCH  20  21
ENDBRANCH  19  20
ENDBRANCH  18  19
ENDBRANCH  17  18
ENDBRANCH  16  17
ENDBRANCH  15  16
ENDBRANCH   1  15
TORSDOF 22
ENDMDL
