MODEL 1
REMARK VINA RESULT:    -4.952      0.000      0.000
REMARK INTER + INTRA:          -7.432
REMARK INTER:                  -6.689
REMARK INTRA:                  -0.743
REMARK UNBOUND:                -0.743
REMARK SMILES O=C[C@H](O)[C@@H](O)[C@@H](O)CO
REMARK SMILES IDX 7 1 9 2 10 3 5 5 3 6 2 7 1 8 4 9 6 11 8 13
REMARK H PARENT 10 4 4 10 6 12 8 14
REMARK Flexibility Score: inf
ROOT
ATOM      1  C   UNL     1     -28.856  28.673 -30.730  1.00  0.00     0.171 C 
ENDROOT
BRANCH   1   2
ATOM      2  C   UNL     1     -29.330  27.423 -31.495  1.00  0.00     0.190 C 
BRANCH   2   3
ATOM      3  O   UNL     1     -29.768  26.430 -30.604  1.00  0.00    -0.394 OA
ATOM      4  H   UNL     1     -29.667  25.557 -31.064  1.00  0.00     0.210 HD
ENDBRANCH   2   3
ENDBRANCH   1   2
BRANCH   1   5
ATOM      5  C   UNL     1     -27.377  28.545 -30.278  1.00  0.00     0.181 C 
BRANCH   5   6
ATOM      6  C   UNL     1     -27.052  29.442 -29.054  1.00  0.00     0.209 C 
BRANCH   6   7
ATOM      7  C   UNL     1     -27.653  28.876 -27.797  1.00  0.00     0.258 C 
ATOM      8  O   UNL     1     -27.146  27.915 -27.240  1.00  0.00    -0.300 OA
ENDBRANCH   6   7
BRANCH   6   9
ATOM      9  O   UNL     1     -27.533  30.749 -29.244  1.00  0.00    -0.383 OA
ATOM     10  H   UNL     1     -27.283  31.021 -30.165  1.00  0.00     0.211 HD
ENDBRANCH   6   9
ENDBRANCH   5   6
BRANCH   5  11
ATOM     11  O   UNL     1     -27.043  27.203 -30.012  1.00  0.00    -0.387 OA
ATOM     12  H   UNL     1     -27.254  26.673 -30.825  1.00  0.00     0.211 HD
ENDBRANCH   5  11
ENDBRANCH   1   5
BRANCH   1  13
ATOM     13  O   UNL     1     -28.988  29.792 -31.569  1.00  0.00    -0.388 OA
ATOM     14  H   UNL     1     -29.661  29.558 -32.262  1.00  0.00     0.211 HD
ENDBRANCH   1  13
TORSDOF 8
ENDMDL
MODEL 2
REMARK VINA RESULT:    -4.675     11.383     12.626
REMARK INTER + INTRA:          -7.058
REMARK INTER:                  -6.733
REMARK INTRA:                  -0.325
REMARK UNBOUND:                -0.743
REMARK SMILES O=C[C@H](O)[C@@H](O)[C@@H](O)CO
REMARK SMILES IDX 7 1 9 2 10 3 5 5 3 6 2 7 1 8 4 9 6 11 8 13
REMARK H PARENT 10 4 4 10 6 12 8 14
REMARK Flexibility Score: inf
ROOT
ATOM      1  C   UNL     1     -34.890  18.827 -26.135  1.00  0.00     0.171 C 
ENDROOT
BRANCH   1   2
ATOM      2  C   UNL     1     -36.091  18.957 -25.182  1.00  0.00     0.190 C 
BRANCH   2   3
ATOM      3  O   UNL     1     -36.782  17.739 -25.081  1.00  0.00    -0.394 OA
ATOM      4  H   UNL     1     -37.289  17.619 -25.926  1.00  0.00     0.210 HD
ENDBRANCH   2   3
ENDBRANCH   1   2
BRANCH   1   5
ATOM      5  C   UNL     1     -33.691  18.112 -25.457  1.00  0.00     0.181 C 
BRANCH   5   6
ATOM      6  C   UNL     1     -33.159  18.888 -24.223  1.00  0.00     0.209 C 
BRANCH   6   7
ATOM      7  C   UNL     1     -32.496  20.172 -24.641  1.00  0.00     0.258 C 
ATOM      8  O   UNL     1     -31.456  20.538 -24.115  1.00  0.00    -0.300 OA
ENDBRANCH   6   7
BRANCH   6   9
ATOM      9  O   UNL     1     -32.240  18.113 -23.497  1.00  0.00    -0.383 OA
ATOM     10  H   UNL     1     -32.762  17.573 -22.849  1.00  0.00     0.211 HD
ENDBRANCH   6   9
ENDBRANCH   5   6
BRANCH   5  11
ATOM     11  O   UNL     1     -34.023  16.789 -25.106  1.00  0.00    -0.387 OA
ATOM     12  H   UNL     1     -33.547  16.573 -24.262  1.00  0.00     0.211 HD
ENDBRANCH   5  11
ENDBRANCH   1   5
BRANCH   1  13
ATOM     13  O   UNL     1     -35.288  18.092 -27.265  1.00  0.00    -0.388 OA
ATOM     14  H   UNL     1     -34.592  17.400 -27.422  1.00  0.00     0.211 HD
ENDBRANCH   1  13
TORSDOF 8
ENDMDL
MODEL 3
REMARK VINA RESULT:    -4.652      1.609      2.964
REMARK INTER + INTRA:          -7.026
REMARK INTER:                  -6.565
REMARK INTRA:                  -0.462
REMARK UNBOUND:                -0.743
REMARK SMILES O=C[C@H](O)[C@@H](O)[C@@H](O)CO
REMARK SMILES IDX 7 1 9 2 10 3 5 5 3 6 2 7 1 8 4 9 6 11 8 13
REMARK H PARENT 10 4 4 10 6 12 8 14
REMARK Flexibility Score: inf
ROOT
ATOM      1  C   UNL     1     -27.028  28.936 -30.515  1.00  0.00     0.171 C 
ENDROOT
BRANCH   1   2
ATOM      2  C   UNL     1     -26.758  29.326 -31.980  1.00  0.00     0.190 C 
BRANCH   2   3
ATOM      3  O   UNL     1     -26.362  30.669 -32.073  1.00  0.00    -0.394 OA
ATOM      4  H   UNL     1     -25.898  30.779 -32.943  1.00  0.00     0.210 HD
ENDBRANCH   2   3
ENDBRANCH   1   2
BRANCH   1   5
ATOM      5  C   UNL     1     -28.262  29.680 -29.939  1.00  0.00     0.181 C 
BRANCH   5   6
ATOM      6  C   UNL     1     -28.678  29.145 -28.543  1.00  0.00     0.209 C 
BRANCH   6   7
ATOM      7  C   UNL     1     -27.483  29.011 -27.641  1.00  0.00     0.258 C 
ATOM      8  O   UNL     1     -27.119  27.915 -27.244  1.00  0.00    -0.300 OA
ENDBRANCH   6   7
BRANCH   6   9
ATOM      9  O   UNL     1     -29.314  27.897 -28.649  1.00  0.00    -0.383 OA
ATOM     10  H   UNL     1     -29.569  27.620 -27.731  1.00  0.00     0.211 HD
ENDBRANCH   6   9
ENDBRANCH   5   6
BRANCH   5  11
ATOM     11  O   UNL     1     -28.040  31.069 -29.892  1.00  0.00    -0.387 OA
ATOM     12  H   UNL     1     -28.898  31.519 -30.110  1.00  0.00     0.211 HD
ENDBRANCH   5  11
ENDBRANCH   1   5
BRANCH   1  13
ATOM     13  O   UNL     1     -27.251  27.550 -30.450  1.00  0.00    -0.388 OA
ATOM     14  H   UNL     1     -26.365  27.119 -30.322  1.00  0.00     0.211 HD
ENDBRANCH   1  13
TORSDOF 8
ENDMDL
MODEL 4
REMARK VINA RESULT:    -4.648      1.186      2.074
REMARK INTER + INTRA:          -7.022
REMARK INTER:                  -6.064
REMARK INTRA:                  -0.958
REMARK UNBOUND:                -0.743
REMARK SMILES O=C[C@H](O)[C@@H](O)[C@@H](O)CO
REMARK SMILES IDX 7 1 9 2 10 3 5 5 3 6 2 7 1 8 4 9 6 11 8 13
REMARK H PARENT 10 4 4 10 6 12 8 14
REMARK Flexibility Score: inf
ROOT
ATOM      1  C   UNL     1     -28.619  28.922 -30.813  1.00  0.00     0.171 C 
ENDROOT
BRANCH   1   2
ATOM      2  C   UNL     1     -27.338  28.159 -31.200  1.00  0.00     0.190 C 
BRANCH   2   3
ATOM      3  O   UNL     1     -26.977  27.249 -30.194  1.00  0.00    -0.394 OA
ATOM      4  H   UNL     1     -27.137  26.338 -30.551  1.00  0.00     0.210 HD
ENDBRANCH   2   3
ENDBRANCH   1   2
BRANCH   1   5
ATOM      5  C   UNL     1     -28.407  29.800 -29.552  1.00  0.00     0.181 C 
BRANCH   5   6
ATOM      6  C   UNL     1     -28.957  29.132 -28.265  1.00  0.00     0.209 C 
BRANCH   6   7
ATOM      7  C   UNL     1     -27.862  28.929 -27.254  1.00  0.00     0.258 C 
ATOM      8  O   UNL     1     -27.165  27.927 -27.280  1.00  0.00    -0.300 OA
ENDBRANCH   6   7
BRANCH   6   9
ATOM      9  O   UNL     1     -29.549  27.891 -28.553  1.00  0.00    -0.383 OA
ATOM     10  H   UNL     1     -30.190  28.039 -29.296  1.00  0.00     0.211 HD
ENDBRANCH   6   9
ENDBRANCH   5   6
BRANCH   5  11
ATOM     11  O   UNL     1     -27.049  30.140 -29.394  1.00  0.00    -0.387 OA
ATOM     12  H   UNL     1     -26.815  30.789 -30.107  1.00  0.00     0.211 HD
ENDBRANCH   5  11
ENDBRANCH   1   5
BRANCH   1  13
ATOM     13  O   UNL     1     -28.999  29.741 -31.890  1.00  0.00    -0.388 OA
ATOM     14  H   UNL     1     -28.344  29.583 -32.621  1.00  0.00     0.211 HD
ENDBRANCH   1  13
TORSDOF 8
ENDMDL
MODEL 5
REMARK VINA RESULT:    -4.634     11.146     12.190
REMARK INTER + INTRA:          -7.002
REMARK INTER:                  -6.523
REMARK INTRA:                  -0.480
REMARK UNBOUND:                -0.743
REMARK SMILES O=C[C@H](O)[C@@H](O)[C@@H](O)CO
REMARK SMILES IDX 7 1 9 2 10 3 5 5 3 6 2 7 1 8 4 9 6 11 8 13
REMARK H PARENT 10 4 4 10 6 12 8 14
REMARK Flexibility Score: inf
ROOT
ATOM      1  C   UNL     1     -33.901  18.310 -25.999  1.00  0.00     0.171 C 
ENDROOT
BRANCH   1   2
ATOM      2  C   UNL     1     -35.004  18.859 -26.923  1.00  0.00     0.190 C 
BRANCH   2   3
ATOM      3  O   UNL     1     -36.099  17.981 -26.967  1.00  0.00    -0.394 OA
ATOM      4  H   UNL     1     -35.774  17.125 -27.347  1.00  0.00     0.210 HD
ENDBRANCH   2   3
ENDBRANCH   1   2
BRANCH   1   5
ATOM      5  C   UNL     1     -33.257  19.432 -25.142  1.00  0.00     0.181 C 
BRANCH   5   6
ATOM      6  C   UNL     1     -33.176  19.057 -23.639  1.00  0.00     0.209 C 
BRANCH   6   7
ATOM      7  C   UNL     1     -32.870  20.266 -22.799  1.00  0.00     0.258 C 
ATOM      8  O   UNL     1     -31.729  20.692 -22.709  1.00  0.00    -0.300 OA
ENDBRANCH   6   7
BRANCH   6   9
ATOM      9  O   UNL     1     -32.190  18.081 -23.414  1.00  0.00    -0.383 OA
ATOM     10  H   UNL     1     -31.315  18.550 -23.396  1.00  0.00     0.211 HD
ENDBRANCH   6   9
ENDBRANCH   5   6
BRANCH   5  11
ATOM     11  O   UNL     1     -31.985  19.779 -25.636  1.00  0.00    -0.387 OA
ATOM     12  H   UNL     1     -32.059  20.674 -26.060  1.00  0.00     0.211 HD
ENDBRANCH   5  11
ENDBRANCH   1   5
BRANCH   1  13
ATOM     13  O   UNL     1     -34.464  17.343 -25.149  1.00  0.00    -0.388 OA
ATOM     14  H   UNL     1     -34.003  17.423 -24.273  1.00  0.00     0.211 HD
ENDBRANCH   1  13
TORSDOF 8
ENDMDL
MODEL 6
REMARK VINA RESULT:    -4.566     11.151     12.909
REMARK INTER + INTRA:          -6.910
REMARK INTER:                  -6.429
REMARK INTRA:                  -0.482
REMARK UNBOUND:                -0.743
REMARK SMILES O=C[C@H](O)[C@@H](O)[C@@H](O)CO
REMARK SMILES IDX 7 1 9 2 10 3 5 5 3 6 2 7 1 8 4 9 6 11 8 13
REMARK H PARENT 10 4 4 10 6 12 8 14
REMARK Flexibility Score: inf
ROOT
ATOM      1  C   UNL     1     -33.001  19.282 -23.459  1.00  0.00     0.171 C 
ENDROOT
BRANCH   1   2
ATOM      2  C   UNL     1     -32.011  20.446 -23.646  1.00  0.00     0.190 C 
BRANCH   2   3
ATOM      3  O   UNL     1     -30.697  19.967 -23.768  1.00  0.00    -0.394 OA
ATOM      4  H   UNL     1     -30.172  20.666 -24.238  1.00  0.00     0.210 HD
ENDBRANCH   2   3
ENDBRANCH   1   2
BRANCH   1   5
ATOM      5  C   UNL     1     -34.072  19.250 -24.581  1.00  0.00     0.181 C 
BRANCH   5   6
ATOM      6  C   UNL     1     -33.793  18.146 -25.635  1.00  0.00     0.209 C 
BRANCH   6   7
ATOM      7  C   UNL     1     -34.424  18.492 -26.956  1.00  0.00     0.258 C 
ATOM      8  O   UNL     1     -35.638  18.495 -27.086  1.00  0.00    -0.300 OA
ENDBRANCH   6   7
BRANCH   6   9
ATOM      9  O   UNL     1     -34.284  16.902 -25.205  1.00  0.00    -0.383 OA
ATOM     10  H   UNL     1     -34.969  17.083 -24.511  1.00  0.00     0.211 HD
ENDBRANCH   6   9
ENDBRANCH   5   6
BRANCH   5  11
ATOM     11  O   UNL     1     -35.365  19.108 -24.044  1.00  0.00    -0.387 OA
ATOM     12  H   UNL     1     -35.530  18.139 -23.905  1.00  0.00     0.211 HD
ENDBRANCH   5  11
ENDBRANCH   1   5
BRANCH   1  13
ATOM     13  O   UNL     1     -32.284  18.073 -23.469  1.00  0.00    -0.388 OA
ATOM     14  H   UNL     1     -31.436  18.235 -22.976  1.00  0.00     0.211 HD
ENDBRANCH   1  13
TORSDOF 8
ENDMDL
MODEL 7
REMARK VINA RESULT:    -4.503     11.544     12.503
REMARK INTER + INTRA:          -6.825
REMARK INTER:                  -6.505
REMARK INTRA:                  -0.320
REMARK UNBOUND:                -0.743
REMARK SMILES O=C[C@H](O)[C@@H](O)[C@@H](O)CO
REMARK SMILES IDX 7 1 9 2 10 3 5 5 3 6 2 7 1 8 4 9 6 11 8 13
REMARK H PARENT 10 4 4 10 6 12 8 14
REMARK Flexibility Score: inf
ROOT
ATOM      1  C   UNL     1     -34.769  18.763 -26.852  1.00  0.00     0.171 C 
ENDROOT
BRANCH   1   2
ATOM      2  C   UNL     1     -34.984  20.288 -26.877  1.00  0.00     0.190 C 
BRANCH   2   3
ATOM      3  O   UNL     1     -36.204  20.608 -27.493  1.00  0.00    -0.394 OA
ATOM      4  H   UNL     1     -36.004  20.837 -28.438  1.00  0.00     0.210 HD
ENDBRANCH   2   3
ENDBRANCH   1   2
BRANCH   1   5
ATOM      5  C   UNL     1     -34.024  18.307 -25.570  1.00  0.00     0.181 C 
BRANCH   5   6
ATOM      6  C   UNL     1     -34.043  19.389 -24.457  1.00  0.00     0.209 C 
BRANCH   6   7
ATOM      7  C   UNL     1     -32.781  19.341 -23.640  1.00  0.00     0.258 C 
ATOM      8  O   UNL     1     -32.368  18.285 -23.189  1.00  0.00    -0.300 OA
ENDBRANCH   6   7
BRANCH   6   9
ATOM      9  O   UNL     1     -35.147  19.217 -23.605  1.00  0.00    -0.383 OA
ATOM     10  H   UNL     1     -35.826  18.696 -24.108  1.00  0.00     0.211 HD
ENDBRANCH   6   9
ENDBRANCH   5   6
BRANCH   5  11
ATOM     11  O   UNL     1     -34.543  17.090 -25.088  1.00  0.00    -0.387 OA
ATOM     12  H   UNL     1     -35.325  16.852 -25.651  1.00  0.00     0.211 HD
ENDBRANCH   5  11
ENDBRANCH   1   5
BRANCH   1  13
ATOM     13  O   UNL     1     -36.022  18.129 -26.910  1.00  0.00    -0.388 OA
ATOM     14  H   UNL     1     -35.907  17.222 -26.521  1.00  0.00     0.211 HD
ENDBRANCH   1  13
TORSDOF 8
ENDMDL
MODEL 8
REMARK VINA RESULT:    -4.374      1.400      2.008
REMARK INTER + INTRA:          -6.651
REMARK INTER:                  -6.141
REMARK INTRA:                  -0.511
REMARK UNBOUND:                -0.743
REMARK SMILES O=C[C@H](O)[C@@H](O)[C@@H](O)CO
REMARK SMILES IDX 7 1 9 2 10 3 5 5 3 6 2 7 1 8 4 9 6 11 8 13
REMARK H PARENT 10 4 4 10 6 12 8 14
REMARK Flexibility Score: inf
ROOT
ATOM      1  C   UNL     1     -28.349  28.087 -31.162  1.00  0.00     0.171 C 
ENDROOT
BRANCH   1   2
ATOM      2  C   UNL     1     -29.807  27.607 -31.042  1.00  0.00     0.190 C 
BRANCH   2   3
ATOM      3  O   UNL     1     -29.859  26.221 -30.829  1.00  0.00    -0.394 OA
ATOM      4  H   UNL     1     -29.944  25.790 -31.719  1.00  0.00     0.210 HD
ENDBRANCH   2   3
ENDBRANCH   1   2
BRANCH   1   5
ATOM      5  C   UNL     1     -27.897  28.878 -29.906  1.00  0.00     0.181 C 
BRANCH   5   6
ATOM      6  C   UNL     1     -27.913  28.008 -28.621  1.00  0.00     0.209 C 
BRANCH   6   7
ATOM      7  C   UNL     1     -27.763  28.862 -27.392  1.00  0.00     0.258 C 
ATOM      8  O   UNL     1     -28.006  30.058 -27.429  1.00  0.00    -0.300 OA
ENDBRANCH   6   7
BRANCH   6   9
ATOM      9  O   UNL     1     -26.882  27.054 -28.644  1.00  0.00    -0.383 OA
ATOM     10  H   UNL     1     -26.163  27.416 -29.224  1.00  0.00     0.211 HD
ENDBRANCH   6   9
ENDBRANCH   5   6
BRANCH   5  11
ATOM     11  O   UNL     1     -26.627  29.454 -30.099  1.00  0.00    -0.387 OA
ATOM     12  H   UNL     1     -26.732  30.440 -30.045  1.00  0.00     0.211 HD
ENDBRANCH   5  11
ENDBRANCH   1   5
BRANCH   1  13
ATOM     13  O   UNL     1     -27.517  26.966 -31.327  1.00  0.00    -0.388 OA
ATOM     14  H   UNL     1     -27.941  26.388 -32.015  1.00  0.00     0.211 HD
ENDBRANCH   1  13
TORSDOF 8
ENDMDL
MODEL 9
REMARK VINA RESULT:    -4.152     10.646     11.896
REMARK INTER + INTRA:          -6.351
REMARK INTER:                  -5.355
REMARK INTRA:                  -0.996
REMARK UNBOUND:                -0.743
REMARK SMILES O=C[C@H](O)[C@@H](O)[C@@H](O)CO
REMARK SMILES IDX 7 1 9 2 10 3 5 5 3 6 2 7 1 8 4 9 6 11 8 13
REMARK H PARENT 10 4 4 10 6 12 8 14
REMARK Flexibility Score: inf
ROOT
ATOM      1  C   UNL     1     -35.046  18.520 -26.277  1.00  0.00     0.171 C 
ENDROOT
BRANCH   1   2
ATOM      2  C   UNL     1     -33.791  18.487 -27.169  1.00  0.00     0.190 C 
BRANCH   2   3
ATOM      3  O   UNL     1     -32.643  18.803 -26.425  1.00  0.00    -0.394 OA
ATOM      4  H   UNL     1     -32.454  19.766 -26.571  1.00  0.00     0.210 HD
ENDBRANCH   2   3
ENDBRANCH   1   2
BRANCH   1   5
ATOM      5  C   UNL     1     -35.363  19.955 -25.781  1.00  0.00     0.181 C 
BRANCH   5   6
ATOM      6  C   UNL     1     -34.877  20.201 -24.328  1.00  0.00     0.209 C 
BRANCH   6   7
ATOM      7  C   UNL     1     -33.896  21.340 -24.274  1.00  0.00     0.258 C 
ATOM      8  O   UNL     1     -32.740  21.186 -24.633  1.00  0.00    -0.300 OA
ENDBRANCH   6   7
BRANCH   6   9
ATOM      9  O   UNL     1     -34.273  19.050 -23.796  1.00  0.00    -0.383 OA
ATOM     10  H   UNL     1     -33.302  19.240 -23.720  1.00  0.00     0.211 HD
ENDBRANCH   6   9
ENDBRANCH   5   6
BRANCH   5  11
ATOM     11  O   UNL     1     -34.827  20.923 -26.653  1.00  0.00    -0.387 OA
ATOM     12  H   UNL     1     -35.254  20.798 -27.541  1.00  0.00     0.211 HD
ENDBRANCH   5  11
ENDBRANCH   1   5
BRANCH   1  13
ATOM     13  O   UNL     1     -36.138  18.034 -27.017  1.00  0.00    -0.388 OA
ATOM     14  H   UNL     1     -35.891  18.102 -27.977  1.00  0.00     0.211 HD
ENDBRANCH   1  13
TORSDOF 8
ENDMDL
