MODEL 1
REMARK VINA RESULT:    -3.379      0.000      0.000
REMARK INTER + INTRA:          -4.034
REMARK INTER:                  -3.972
REMARK INTRA:                  -0.062
REMARK UNBOUND:                -0.062
REMARK SMILES CCCCC(=O)[O-]
REMARK SMILES IDX 4 1 5 2 6 3 7 4 3 5 2 6 1 7
REMARK H PARENT
REMARK Flexibility Score: inf
ROOT
ATOM      1  C   UNL     1       4.723   4.775   0.358  1.00  0.00     0.053 C 
ENDROOT
BRANCH   1   2
ATOM      2  C   UNL     1       4.064   5.674   1.356  1.00  0.00     0.041 C 
ATOM      3  O   UNL     1       3.665   5.213   2.457  1.00  0.00    -0.550 OA
ATOM      4  O   UNL     1       3.937   7.033   1.091  1.00  0.00    -0.550 OA
ENDBRANCH   1   2
BRANCH   1   5
ATOM      5  C   UNL     1       5.865   3.992   1.015  1.00  0.00     0.006 C 
BRANCH   5   6
ATOM      6  C   UNL     1       7.221   4.702   0.881  1.00  0.00    -0.003 C 
ATOM      7  C   UNL     1       8.125   4.484   2.095  1.00  0.00     0.004 C 
ENDBRANCH   5   6
ENDBRANCH   1   5
TORSDOF 3
ENDMDL
MODEL 2
REMARK VINA RESULT:    -3.367      1.229      2.054
REMARK INTER + INTRA:          -4.020
REMARK INTER:                  -4.000
REMARK INTRA:                  -0.020
REMARK UNBOUND:                -0.062
REMARK SMILES CCCCC(=O)[O-]
REMARK SMILES IDX 4 1 5 2 6 3 7 4 3 5 2 6 1 7
REMARK H PARENT
REMARK Flexibility Score: inf
ROOT
ATOM      1  C   UNL     1       4.534   6.415   1.008  1.00  0.00     0.053 C 
ENDROOT
BRANCH   1   2
ATOM      2  C   UNL     1       3.284   7.126   1.416  1.00  0.00     0.041 C 
ATOM      3  O   UNL     1       2.881   8.125   0.763  1.00  0.00    -0.550 OA
ATOM      4  O   UNL     1       2.534   6.657   2.488  1.00  0.00    -0.550 OA
ENDBRANCH   1   2
BRANCH   1   5
ATOM      5  C   UNL     1       4.591   5.023   1.650  1.00  0.00     0.006 C 
BRANCH   5   6
ATOM      6  C   UNL     1       5.629   4.107   0.982  1.00  0.00    -0.003 C 
ATOM      7  C   UNL     1       7.065   4.458   1.373  1.00  0.00     0.004 C 
ENDBRANCH   5   6
ENDBRANCH   1   5
TORSDOF 3
ENDMDL
MODEL 3
REMARK VINA RESULT:    -3.194      2.265      3.583
REMARK INTER + INTRA:          -3.817
REMARK INTER:                  -3.726
REMARK INTRA:                  -0.091
REMARK UNBOUND:                -0.062
REMARK SMILES CCCCC(=O)[O-]
REMARK SMILES IDX 4 1 5 2 6 3 7 4 3 5 2 6 1 7
REMARK H PARENT
REMARK Flexibility Score: inf
ROOT
ATOM      1  C   UNL     1       5.909   4.343   1.067  1.00  0.00     0.053 C 
ENDROOT
BRANCH   1   2
ATOM      2  C   UNL     1       6.885   5.180   0.304  1.00  0.00     0.041 C 
ATOM      3  O   UNL     1       8.098   4.850   0.251  1.00  0.00    -0.550 OA
ATOM      4  O   UNL     1       6.445   6.300  -0.393  1.00  0.00    -0.550 OA
ENDBRANCH   1   2
BRANCH   1   5
ATOM      5  C   UNL     1       4.483   4.876   0.878  1.00  0.00     0.006 C 
BRANCH   5   6
ATOM      6  C   UNL     1       3.987   5.676   2.092  1.00  0.00    -0.003 C 
ATOM      7  C   UNL     1       3.367   7.018   1.702  1.00  0.00     0.004 C 
ENDBRANCH   5   6
ENDBRANCH   1   5
TORSDOF 3
ENDMDL
MODEL 4
REMARK VINA RESULT:    -3.134      1.517      2.225
REMARK INTER + INTRA:          -3.746
REMARK INTER:                  -3.712
REMARK INTRA:                  -0.033
REMARK UNBOUND:                -0.062
REMARK SMILES CCCCC(=O)[O-]
REMARK SMILES IDX 4 1 5 2 6 3 7 4 3 5 2 6 1 7
REMARK H PARENT
REMARK Flexibility Score: inf
ROOT
ATOM      1  C   UNL     1       4.649   6.357   2.114  1.00  0.00     0.053 C 
ENDROOT
BRANCH   1   2
ATOM      2  C   UNL     1       3.454   6.677   2.956  1.00  0.00     0.041 C 
ATOM      3  O   UNL     1       2.349   6.937   2.413  1.00  0.00    -0.550 OA
ATOM      4  O   UNL     1       3.549   6.638   4.342  1.00  0.00    -0.550 OA
ENDBRANCH   1   2
BRANCH   1   5
ATOM      5  C   UNL     1       4.325   5.225   1.132  1.00  0.00     0.006 C 
BRANCH   5   6
ATOM      6  C   UNL     1       5.474   4.213   0.999  1.00  0.00    -0.003 C 
ATOM      7  C   UNL     1       6.835   4.816   1.347  1.00  0.00     0.004 C 
ENDBRANCH   5   6
ENDBRANCH   1   5
TORSDOF 3
ENDMDL
MODEL 5
REMARK VINA RESULT:    -3.133      2.307      3.678
REMARK INTER + INTRA:          -3.744
REMARK INTER:                  -3.654
REMARK INTRA:                  -0.090
REMARK UNBOUND:                -0.062
REMARK SMILES CCCCC(=O)[O-]
REMARK SMILES IDX 4 1 5 2 6 3 7 4 3 5 2 6 1 7
REMARK H PARENT
REMARK Flexibility Score: inf
ROOT
ATOM      1  C   UNL     1       5.942   4.026   0.997  1.00  0.00     0.053 C 
ENDROOT
BRANCH   1   2
ATOM      2  C   UNL     1       7.126   4.932   0.885  1.00  0.00     0.041 C 
ATOM      3  O   UNL     1       7.360   5.539  -0.193  1.00  0.00    -0.550 OA
ATOM      4  O   UNL     1       7.946   5.145   1.987  1.00  0.00    -0.550 OA
ENDBRANCH   1   2
BRANCH   1   5
ATOM      5  C   UNL     1       4.651   4.791   0.678  1.00  0.00     0.006 C 
BRANCH   5   6
ATOM      6  C   UNL     1       4.144   5.615   1.872  1.00  0.00    -0.003 C 
ATOM      7  C   UNL     1       3.570   6.969   1.453  1.00  0.00     0.004 C 
ENDBRANCH   5   6
ENDBRANCH   1   5
TORSDOF 3
ENDMDL
MODEL 6
REMARK VINA RESULT:    -3.029      2.241      3.383
REMARK INTER + INTRA:          -3.623
REMARK INTER:                  -3.484
REMARK INTRA:                  -0.139
REMARK UNBOUND:                -0.062
REMARK SMILES CCCCC(=O)[O-]
REMARK SMILES IDX 4 1 5 2 6 3 7 4 3 5 2 6 1 7
REMARK H PARENT
REMARK Flexibility Score: inf
ROOT
ATOM      1  C   UNL     1       7.737   5.037   0.302  1.00  0.00     0.053 C 
ENDROOT
BRANCH   1   2
ATOM      2  C   UNL     1       7.418   6.497   0.247  1.00  0.00     0.041 C 
ATOM      3  O   UNL     1       7.186   7.054  -0.858  1.00  0.00    -0.550 OA
ATOM      4  O   UNL     1       7.326   7.234   1.422  1.00  0.00    -0.550 OA
ENDBRANCH   1   2
BRANCH   1   5
ATOM      5  C   UNL     1       6.759   4.310   1.232  1.00  0.00     0.006 C 
BRANCH   5   6
ATOM      6  C   UNL     1       5.312   4.354   0.718  1.00  0.00    -0.003 C 
ATOM      7  C   UNL     1       4.353   5.014   1.708  1.00  0.00     0.004 C 
ENDBRANCH   5   6
ENDBRANCH   1   5
TORSDOF 3
ENDMDL
MODEL 7
REMARK VINA RESULT:    -2.927      2.182      3.838
REMARK INTER + INTRA:          -3.503
REMARK INTER:                  -3.473
REMARK INTRA:                  -0.030
REMARK UNBOUND:                -0.062
REMARK SMILES CCCCC(=O)[O-]
REMARK SMILES IDX 4 1 5 2 6 3 7 4 3 5 2 6 1 7
REMARK H PARENT
REMARK Flexibility Score: inf
ROOT
ATOM      1  C   UNL     1       4.335   5.220   1.658  1.00  0.00     0.053 C 
ENDROOT
BRANCH   1   2
ATOM      2  C   UNL     1       5.419   4.835   0.701  1.00  0.00     0.041 C 
ATOM      3  O   UNL     1       5.562   5.463  -0.380  1.00  0.00    -0.550 OA
ATOM      4  O   UNL     1       6.303   3.812   1.026  1.00  0.00    -0.550 OA
ENDBRANCH   1   2
BRANCH   1   5
ATOM      5  C   UNL     1       3.820   6.630   1.344  1.00  0.00     0.006 C 
BRANCH   5   6
ATOM      6  C   UNL     1       2.851   7.156   2.414  1.00  0.00    -0.003 C 
ATOM      7  C   UNL     1       3.403   7.011   3.832  1.00  0.00     0.004 C 
ENDBRANCH   5   6
ENDBRANCH   1   5
TORSDOF 3
ENDMDL
MODEL 8
REMARK VINA RESULT:    -2.656     20.052     20.758
REMARK INTER + INTRA:          -3.184
REMARK INTER:                  -3.123
REMARK INTRA:                  -0.062
REMARK UNBOUND:                -0.062
REMARK SMILES CCCCC(=O)[O-]
REMARK SMILES IDX 4 1 5 2 6 3 7 4 3 5 2 6 1 7
REMARK H PARENT
REMARK Flexibility Score: inf
ROOT
ATOM      1  C   UNL     1      -6.411 -12.123   2.345  1.00  0.00     0.053 C 
ENDROOT
BRANCH   1   2
ATOM      2  C   UNL     1      -7.701 -11.897   1.621  1.00  0.00     0.041 C 
ATOM      3  O   UNL     1      -8.798 -12.125   2.195  1.00  0.00    -0.550 OA
ATOM      4  O   UNL     1      -7.692 -11.386   0.329  1.00  0.00    -0.550 OA
ENDBRANCH   1   2
BRANCH   1   5
ATOM      5  C   UNL     1      -5.760 -10.784   2.710  1.00  0.00     0.006 C 
BRANCH   5   6
ATOM      6  C   UNL     1      -5.168 -10.782   4.128  1.00  0.00    -0.003 C 
ATOM      7  C   UNL     1      -6.109 -11.402   5.161  1.00  0.00     0.004 C 
ENDBRANCH   5   6
ENDBRANCH   1   5
TORSDOF 3
ENDMDL
MODEL 9
REMARK VINA RESULT:    -2.562      1.847      2.408
REMARK INTER + INTRA:          -3.073
REMARK INTER:                  -2.992
REMARK INTRA:                  -0.082
REMARK UNBOUND:                -0.062
REMARK SMILES CCCCC(=O)[O-]
REMARK SMILES IDX 4 1 5 2 6 3 7 4 3 5 2 6 1 7
REMARK H PARENT
REMARK Flexibility Score: inf
ROOT
ATOM      1  C   UNL     1       5.267   6.719   1.874  1.00  0.00     0.053 C 
ENDROOT
BRANCH   1   2
ATOM      2  C   UNL     1       3.932   6.069   1.689  1.00  0.00     0.041 C 
ATOM      3  O   UNL     1       2.903   6.578   2.204  1.00  0.00    -0.550 OA
ATOM      4  O   UNL     1       3.817   4.927   0.905  1.00  0.00    -0.550 OA
ENDBRANCH   1   2
BRANCH   1   5
ATOM      5  C   UNL     1       5.571   7.660   0.702  1.00  0.00     0.006 C 
BRANCH   5   6
ATOM      6  C   UNL     1       6.812   7.229  -0.095  1.00  0.00    -0.003 C 
ATOM      7  C   UNL     1       7.296   5.827   0.279  1.00  0.00     0.004 C 
ENDBRANCH   5   6
ENDBRANCH   1   5
TORSDOF 3
ENDMDL
