MODEL 1
REMARK VINA RESULT:    -5.027      0.000      0.000
REMARK INTER + INTRA:         -10.928
REMARK INTER:                  -9.435
REMARK INTRA:                  -1.493
REMARK UNBOUND:                -1.493
REMARK SMILES O=C([O-])CCCCCCCCCCCCCCC(=O)[O-]
REMARK SMILES IDX 10 1 9 2 8 3 7 4 6 5 5 6 4 7 2 8 1 9 3 10 11 11 12 12 13 13
REMARK SMILES IDX 14 14 15 15 16 16 17 17 18 18 19 19 20 20
REMARK H PARENT
REMARK Flexibility Score: inf
ROOT
ATOM      1  C   UNL     1     -12.598 -13.148  13.832  1.00  0.00     0.000 C 
ENDROOT
BRANCH   1   2
ATOM      2  C   UNL     1     -13.331 -11.837  13.502  1.00  0.00     0.000 C 
BRANCH   2   3
ATOM      3  C   UNL     1     -14.614 -12.067  12.685  1.00  0.00     0.000 C 
BRANCH   3   4
ATOM      4  C   UNL     1     -15.281 -13.415  13.003  1.00  0.00     0.000 C 
BRANCH   4   5
ATOM      5  C   UNL     1     -16.809 -13.305  13.131  1.00  0.00     0.000 C 
BRANCH   5   6
ATOM      6  C   UNL     1     -17.268 -13.666  14.548  1.00  0.00     0.006 C 
BRANCH   6   7
ATOM      7  C   UNL     1     -16.087 -14.125  15.408  1.00  0.00     0.053 C 
BRANCH   7   8
ATOM      8  C   UNL     1     -15.891 -13.199  16.568  1.00  0.00     0.041 C 
ATOM      9  O   UNL     1     -16.301 -13.524  17.714  1.00  0.00    -0.550 OA
ATOM     10  O   UNL     1     -15.301 -11.957  16.374  1.00  0.00    -0.550 OA
ENDBRANCH   7   8
ENDBRANCH   6   7
ENDBRANCH   5   6
ENDBRANCH   4   5
ENDBRANCH   3   4
ENDBRANCH   2   3
ENDBRANCH   1   2
BRANCH   1  11
ATOM     11  C   UNL     1     -12.357 -13.329  15.340  1.00  0.00     0.000 C 
BRANCH  11  12
ATOM     12  C   UNL     1     -11.026 -12.713  15.802  1.00  0.00     0.000 C 
BRANCH  12  13
ATOM     13  C   UNL     1      -9.806 -13.560  15.397  1.00  0.00     0.000 C 
BRANCH  13  14
ATOM     14  C   UNL     1      -8.941 -12.878  14.324  1.00  0.00     0.000 C 
BRANCH  14  15
ATOM     15  C   UNL     1      -9.437 -11.463  13.981  1.00  0.00     0.000 C 
BRANCH  15  16
ATOM     16  C   UNL     1      -8.594 -10.355  14.637  1.00  0.00     0.006 C 
BRANCH  16  17
ATOM     17  C   UNL     1      -7.203 -10.821  15.109  1.00  0.00     0.053 C 
BRANCH  17  18
ATOM     18  C   UNL     1      -6.162 -10.714  14.038  1.00  0.00     0.041 C 
ATOM     19  O   UNL     1      -5.902  -9.599  13.513  1.00  0.00    -0.550 OA
ATOM     20  O   UNL     1      -5.502 -11.853  13.593  1.00  0.00    -0.550 OA
ENDBRANCH  17  18
ENDBRANCH  16  17
ENDBRANCH  15  16
ENDBRANCH  14  15
ENDBRANCH  13  14
ENDBRANCH  12  13
ENDBRANCH  11  12
ENDBRANCH   1  11
TORSDOF 15
ENDMDL
MODEL 2
REMARK VINA RESULT:    -5.006      2.465      3.914
REMARK INTER + INTRA:         -10.888
REMARK INTER:                  -9.459
REMARK INTRA:                  -1.429
REMARK UNBOUND:                -1.493
REMARK SMILES O=C([O-])CCCCCCCCCCCCCCC(=O)[O-]
REMARK SMILES IDX 10 1 9 2 8 3 7 4 6 5 5 6 4 7 2 8 1 9 3 10 11 11 12 12 13 13
REMARK SMILES IDX 14 14 15 15 16 16 17 17 18 18 19 19 20 20
REMARK H PARENT
REMARK Flexibility Score: inf
ROOT
ATOM      1  C   UNL     1     -15.829 -12.338  14.659  1.00  0.00     0.000 C 
ENDROOT
BRANCH   1   2
ATOM      2  C   UNL     1     -16.573 -13.543  15.261  1.00  0.00     0.000 C 
BRANCH   2   3
ATOM      3  C   UNL     1     -16.077 -13.898  16.673  1.00  0.00     0.000 C 
BRANCH   3   4
ATOM      4  C   UNL     1     -15.000 -12.925  17.180  1.00  0.00     0.000 C 
BRANCH   4   5
ATOM      5  C   UNL     1     -15.408 -12.215  18.481  1.00  0.00     0.000 C 
BRANCH   5   6
ATOM      6  C   UNL     1     -16.795 -12.678  18.946  1.00  0.00     0.006 C 
BRANCH   6   7
ATOM      7  C   UNL     1     -16.972 -12.455  20.451  1.00  0.00     0.053 C 
BRANCH   7   8
ATOM      8  C   UNL     1     -17.751 -11.203  20.707  1.00  0.00     0.041 C 
ATOM      9  O   UNL     1     -19.005 -11.202  20.587  1.00  0.00    -0.550 OA
ATOM     10  O   UNL     1     -17.089 -10.027  21.032  1.00  0.00    -0.550 OA
ENDBRANCH   7   8
ENDBRANCH   6   7
ENDBRANCH   5   6
ENDBRANCH   4   5
ENDBRANCH   3   4
ENDBRANCH   2   3
ENDBRANCH   1   2
BRANCH   1  11
ATOM     11  C   UNL     1     -14.995 -12.714  13.422  1.00  0.00     0.000 C 
BRANCH  11  12
ATOM     12  C   UNL     1     -13.502 -12.879  13.748  1.00  0.00     0.000 C 
BRANCH  12  13
ATOM     13  C   UNL     1     -13.146 -14.306  14.203  1.00  0.00     0.000 C 
BRANCH  13  14
ATOM     14  C   UNL     1     -11.816 -14.369  14.972  1.00  0.00     0.000 C 
BRANCH  14  15
ATOM     15  C   UNL     1     -11.464 -13.033  15.647  1.00  0.00     0.000 C 
BRANCH  15  16
ATOM     16  C   UNL     1      -9.956 -12.723  15.617  1.00  0.00     0.006 C 
BRANCH  16  17
ATOM     17  C   UNL     1      -9.559 -11.638  14.599  1.00  0.00     0.053 C 
BRANCH  17  18
ATOM     18  C   UNL     1      -8.080 -11.567  14.374  1.00  0.00     0.041 C 
ATOM     19  O   UNL     1      -7.413 -10.601  14.831  1.00  0.00    -0.550 OA
ATOM     20  O   UNL     1      -7.442 -12.549  13.626  1.00  0.00    -0.550 OA
ENDBRANCH  17  18
ENDBRANCH  16  17
ENDBRANCH  15  16
ENDBRANCH  14  15
ENDBRANCH  13  14
ENDBRANCH  12  13
ENDBRANCH  11  12
ENDBRANCH   1  11
TORSDOF 15
ENDMDL
MODEL 3
REMARK VINA RESULT:    -5.005      1.887      3.200
REMARK INTER + INTRA:         -10.887
REMARK INTER:                  -9.565
REMARK INTRA:                  -1.322
REMARK UNBOUND:                -1.493
REMARK SMILES O=C([O-])CCCCCCCCCCCCCCC(=O)[O-]
REMARK SMILES IDX 10 1 9 2 8 3 7 4 6 5 5 6 4 7 2 8 1 9 3 10 11 11 12 12 13 13
REMARK SMILES IDX 14 14 15 15 16 16 17 17 18 18 19 19 20 20
REMARK H PARENT
REMARK Flexibility Score: inf
ROOT
ATOM      1  C   UNL     1     -15.202 -12.614  13.100  1.00  0.00     0.000 C 
ENDROOT
BRANCH   1   2
ATOM      2  C   UNL     1     -15.829 -12.434  14.493  1.00  0.00     0.000 C 
BRANCH   2   3
ATOM      3  C   UNL     1     -16.334 -13.759  15.090  1.00  0.00     0.000 C 
BRANCH   3   4
ATOM      4  C   UNL     1     -16.242 -13.786  16.624  1.00  0.00     0.000 C 
BRANCH   4   5
ATOM      5  C   UNL     1     -15.002 -13.050  17.156  1.00  0.00     0.000 C 
BRANCH   5   6
ATOM      6  C   UNL     1     -15.268 -12.463  18.548  1.00  0.00     0.006 C 
BRANCH   6   7
ATOM      7  C   UNL     1     -16.757 -12.534  18.898  1.00  0.00     0.053 C 
BRANCH   7   8
ATOM      8  C   UNL     1     -17.048 -11.717  20.118  1.00  0.00     0.041 C 
ATOM      9  O   UNL     1     -18.238 -11.541  20.493  1.00  0.00    -0.550 OA
ATOM     10  O   UNL     1     -16.010 -11.111  20.813  1.00  0.00    -0.550 OA
ENDBRANCH   7   8
ENDBRANCH   6   7
ENDBRANCH   5   6
ENDBRANCH   4   5
ENDBRANCH   3   4
ENDBRANCH   2   3
ENDBRANCH   1   2
BRANCH   1  11
ATOM     11  C   UNL     1     -13.819 -11.952  12.983  1.00  0.00     0.000 C 
BRANCH  11  12
ATOM     12  C   UNL     1     -13.106 -11.832  14.340  1.00  0.00     0.000 C 
BRANCH  12  13
ATOM     13  C   UNL     1     -12.172 -13.021  14.628  1.00  0.00     0.000 C 
BRANCH  13  14
ATOM     14  C   UNL     1     -11.310 -12.807  15.883  1.00  0.00     0.000 C 
BRANCH  14  15
ATOM     15  C   UNL     1      -9.804 -12.854  15.578  1.00  0.00     0.000 C 
BRANCH  15  16
ATOM     16  C   UNL     1      -9.433 -12.134  14.268  1.00  0.00     0.006 C 
BRANCH  16  17
ATOM     17  C   UNL     1      -8.559 -10.881  14.468  1.00  0.00     0.053 C 
BRANCH  17  18
ATOM     18  C   UNL     1      -7.140 -11.089  14.035  1.00  0.00     0.041 C 
ATOM     19  O   UNL     1      -6.703 -12.251  13.826  1.00  0.00    -0.550 OA
ATOM     20  O   UNL     1      -6.289  -9.999  13.896  1.00  0.00    -0.550 OA
ENDBRANCH  17  18
ENDBRANCH  16  17
ENDBRANCH  15  16
ENDBRANCH  14  15
ENDBRANCH  13  14
ENDBRANCH  12  13
ENDBRANCH  11  12
ENDBRANCH   1  11
TORSDOF 15
ENDMDL
MODEL 4
REMARK VINA RESULT:    -4.997      1.365      8.055
REMARK INTER + INTRA:         -10.873
REMARK INTER:                  -9.386
REMARK INTRA:                  -1.487
REMARK UNBOUND:                -1.493
REMARK SMILES O=C([O-])CCCCCCCCCCCCCCC(=O)[O-]
REMARK SMILES IDX 10 1 9 2 8 3 7 4 6 5 5 6 4 7 2 8 1 9 3 10 11 11 12 12 13 13
REMARK SMILES IDX 14 14 15 15 16 16 17 17 18 18 19 19 20 20
REMARK H PARENT
REMARK Flexibility Score: inf
ROOT
ATOM      1  C   UNL     1     -13.111 -12.275  13.780  1.00  0.00     0.000 C 
ENDROOT
BRANCH   1   2
ATOM      2  C   UNL     1     -13.050 -13.593  14.570  1.00  0.00     0.000 C 
BRANCH   2   3
ATOM      3  C   UNL     1     -11.644 -13.889  15.120  1.00  0.00     0.000 C 
BRANCH   3   4
ATOM      4  C   UNL     1     -11.134 -12.782  16.058  1.00  0.00     0.000 C 
BRANCH   4   5
ATOM      5  C   UNL     1      -9.661 -12.425  15.806  1.00  0.00     0.000 C 
BRANCH   5   6
ATOM      6  C   UNL     1      -9.474 -11.817  14.410  1.00  0.00     0.006 C 
BRANCH   6   7
ATOM      7  C   UNL     1      -8.565 -10.586  14.464  1.00  0.00     0.053 C 
BRANCH   7   8
ATOM      8  C   UNL     1      -7.159 -10.987  14.783  1.00  0.00     0.041 C 
ATOM      9  O   UNL     1      -6.402 -11.421  13.874  1.00  0.00    -0.550 OA
ATOM     10  O   UNL     1      -6.699 -10.926  16.092  1.00  0.00    -0.550 OA
ENDBRANCH   7   8
ENDBRANCH   6   7
ENDBRANCH   5   6
ENDBRANCH   4   5
ENDBRANCH   3   4
ENDBRANCH   2   3
ENDBRANCH   1   2
BRANCH   1  11
ATOM     11  C   UNL     1     -14.245 -12.259  12.741  1.00  0.00     0.000 C 
BRANCH  11  12
ATOM     12  C   UNL     1     -15.637 -12.338  13.388  1.00  0.00     0.000 C 
BRANCH  12  13
ATOM     13  C   UNL     1     -16.341 -13.681  13.122  1.00  0.00     0.000 C 
BRANCH  13  14
ATOM     14  C   UNL     1     -16.855 -14.347  14.409  1.00  0.00     0.000 C 
BRANCH  14  15
ATOM     15  C   UNL     1     -16.836 -13.390  15.614  1.00  0.00     0.000 C 
BRANCH  15  16
ATOM     16  C   UNL     1     -16.009 -13.928  16.796  1.00  0.00     0.006 C 
BRANCH  16  17
ATOM     17  C   UNL     1     -15.211 -12.844  17.546  1.00  0.00     0.053 C 
BRANCH  17  18
ATOM     18  C   UNL     1     -15.924 -12.336  18.761  1.00  0.00     0.041 C 
ATOM     19  O   UNL     1     -17.044 -12.811  19.087  1.00  0.00    -0.550 OA
ATOM     20  O   UNL     1     -15.367 -11.311  19.516  1.00  0.00    -0.550 OA
ENDBRANCH  17  18
ENDBRANCH  16  17
ENDBRANCH  15  16
ENDBRANCH  14  15
ENDBRANCH  13  14
ENDBRANCH  12  13
ENDBRANCH  11  12
ENDBRANCH   1  11
TORSDOF 15
ENDMDL
MODEL 5
REMARK VINA RESULT:    -4.889      2.596      8.591
REMARK INTER + INTRA:         -10.670
REMARK INTER:                  -9.405
REMARK INTRA:                  -1.265
REMARK UNBOUND:                -1.493
REMARK SMILES O=C([O-])CCCCCCCCCCCCCCC(=O)[O-]
REMARK SMILES IDX 10 1 9 2 8 3 7 4 6 5 5 6 4 7 2 8 1 9 3 10 11 11 12 12 13 13
REMARK SMILES IDX 14 14 15 15 16 16 17 17 18 18 19 19 20 20
REMARK H PARENT
REMARK Flexibility Score: inf
ROOT
ATOM      1  C   UNL     1     -13.924 -12.656  14.005  1.00  0.00     0.000 C 
ENDROOT
BRANCH   1   2
ATOM      2  C   UNL     1     -13.474 -14.120  14.146  1.00  0.00     0.000 C 
BRANCH   2   3
ATOM      3  C   UNL     1     -12.155 -14.261  14.926  1.00  0.00     0.000 C 
BRANCH   3   4
ATOM      4  C   UNL     1     -11.760 -12.965  15.653  1.00  0.00     0.000 C 
BRANCH   4   5
ATOM      5  C   UNL     1     -10.239 -12.745  15.687  1.00  0.00     0.000 C 
BRANCH   5   6
ATOM      6  C   UNL     1      -9.768 -11.976  14.447  1.00  0.00     0.006 C 
BRANCH   6   7
ATOM      7  C   UNL     1      -8.356 -11.419  14.649  1.00  0.00     0.053 C 
BRANCH   7   8
ATOM      8  C   UNL     1      -7.409 -12.018  13.657  1.00  0.00     0.041 C 
ATOM      9  O   UNL     1      -7.850 -12.693  12.689  1.00  0.00    -0.550 OA
ATOM     10  O   UNL     1      -6.039 -11.870  13.827  1.00  0.00    -0.550 OA
ENDBRANCH   7   8
ENDBRANCH   6   7
ENDBRANCH   5   6
ENDBRANCH   4   5
ENDBRANCH   3   4
ENDBRANCH   2   3
ENDBRANCH   1   2
BRANCH   1  11
ATOM     11  C   UNL     1     -15.211 -12.354  14.792  1.00  0.00     0.000 C 
BRANCH  11  12
ATOM     12  C   UNL     1     -15.968 -13.630  15.195  1.00  0.00     0.000 C 
BRANCH  12  13
ATOM     13  C   UNL     1     -16.050 -13.816  16.720  1.00  0.00     0.000 C 
BRANCH  13  14
ATOM     14  C   UNL     1     -14.977 -13.015  17.475  1.00  0.00     0.000 C 
BRANCH  14  15
ATOM     15  C   UNL     1     -15.583 -12.023  18.481  1.00  0.00     0.000 C 
BRANCH  15  16
ATOM     16  C   UNL     1     -16.809 -12.590  19.221  1.00  0.00     0.006 C 
BRANCH  16  17
ATOM     17  C   UNL     1     -16.864 -12.221  20.716  1.00  0.00     0.053 C 
BRANCH  17  18
ATOM     18  C   UNL     1     -17.447 -10.862  20.957  1.00  0.00     0.041 C 
ATOM     19  O   UNL     1     -16.693  -9.879  21.186  1.00  0.00    -0.550 OA
ATOM     20  O   UNL     1     -18.825 -10.687  20.965  1.00  0.00    -0.550 OA
ENDBRANCH  17  18
ENDBRANCH  16  17
ENDBRANCH  15  16
ENDBRANCH  14  15
ENDBRANCH  13  14
ENDBRANCH  12  13
ENDBRANCH  11  12
ENDBRANCH   1  11
TORSDOF 15
ENDMDL
MODEL 6
REMARK VINA RESULT:    -4.869      1.985      8.431
REMARK INTER + INTRA:         -10.633
REMARK INTER:                  -9.454
REMARK INTRA:                  -1.179
REMARK UNBOUND:                -1.493
REMARK SMILES O=C([O-])CCCCCCCCCCCCCCC(=O)[O-]
REMARK SMILES IDX 10 1 9 2 8 3 7 4 6 5 5 6 4 7 2 8 1 9 3 10 11 11 12 12 13 13
REMARK SMILES IDX 14 14 15 15 16 16 17 17 18 18 19 19 20 20
REMARK H PARENT
REMARK Flexibility Score: inf
ROOT
ATOM      1  C   UNL     1     -13.851 -12.147  13.020  1.00  0.00     0.000 C 
ENDROOT
BRANCH   1   2
ATOM      2  C   UNL     1     -13.123 -11.958  14.361  1.00  0.00     0.000 C 
BRANCH   2   3
ATOM      3  C   UNL     1     -12.202 -13.141  14.706  1.00  0.00     0.000 C 
BRANCH   3   4
ATOM      4  C   UNL     1     -11.126 -12.769  15.739  1.00  0.00     0.000 C 
BRANCH   4   5
ATOM      5  C   UNL     1      -9.768 -13.423  15.441  1.00  0.00     0.000 C 
BRANCH   5   6
ATOM      6  C   UNL     1      -8.614 -12.477  15.796  1.00  0.00     0.006 C 
BRANCH   6   7
ATOM      7  C   UNL     1      -8.531 -11.314  14.803  1.00  0.00     0.053 C 
BRANCH   7   8
ATOM      8  C   UNL     1      -7.187 -11.280  14.147  1.00  0.00     0.041 C 
ATOM      9  O   UNL     1      -6.597 -12.354  13.855  1.00  0.00    -0.550 OA
ATOM     10  O   UNL     1      -6.564 -10.063  13.902  1.00  0.00    -0.550 OA
ENDBRANCH   7   8
ENDBRANCH   6   7
ENDBRANCH   5   6
ENDBRANCH   4   5
ENDBRANCH   3   4
ENDBRANCH   2   3
ENDBRANCH   1   2
BRANCH   1  11
ATOM     11  C   UNL     1     -15.231 -12.808  13.183  1.00  0.00     0.000 C 
BRANCH  11  12
ATOM     12  C   UNL     1     -15.863 -12.520  14.554  1.00  0.00     0.000 C 
BRANCH  12  13
ATOM     13  C   UNL     1     -16.484 -13.773  15.198  1.00  0.00     0.000 C 
BRANCH  13  14
ATOM     14  C   UNL     1     -16.261 -13.830  16.718  1.00  0.00     0.000 C 
BRANCH  14  15
ATOM     15  C   UNL     1     -15.132 -12.895  17.183  1.00  0.00     0.000 C 
BRANCH  15  16
ATOM     16  C   UNL     1     -15.389 -12.286  18.574  1.00  0.00     0.006 C 
BRANCH  16  17
ATOM     17  C   UNL     1     -16.780 -12.610  19.152  1.00  0.00     0.053 C 
BRANCH  17  18
ATOM     18  C   UNL     1     -17.033 -11.935  20.465  1.00  0.00     0.041 C 
ATOM     19  O   UNL     1     -18.000 -11.138  20.594  1.00  0.00    -0.550 OA
ATOM     20  O   UNL     1     -16.179 -12.158  21.538  1.00  0.00    -0.550 OA
ENDBRANCH  17  18
ENDBRANCH  16  17
ENDBRANCH  15  16
ENDBRANCH  14  15
ENDBRANCH  13  14
ENDBRANCH  12  13
ENDBRANCH  11  12
ENDBRANCH   1  11
TORSDOF 15
ENDMDL
MODEL 7
REMARK VINA RESULT:    -4.849      1.897      3.077
REMARK INTER + INTRA:         -10.594
REMARK INTER:                  -9.345
REMARK INTRA:                  -1.249
REMARK UNBOUND:                -1.493
REMARK SMILES O=C([O-])CCCCCCCCCCCCCCC(=O)[O-]
REMARK SMILES IDX 10 1 9 2 8 3 7 4 6 5 5 6 4 7 2 8 1 9 3 10 11 11 12 12 13 13
REMARK SMILES IDX 14 14 15 15 16 16 17 17 18 18 19 19 20 20
REMARK H PARENT
REMARK Flexibility Score: inf
ROOT
ATOM      1  C   UNL     1     -14.815 -13.168  17.179  1.00  0.00     0.000 C 
ENDROOT
BRANCH   1   2
ATOM      2  C   UNL     1     -16.126 -13.905  16.861  1.00  0.00     0.000 C 
BRANCH   2   3
ATOM      3  C   UNL     1     -16.771 -13.425  15.549  1.00  0.00     0.000 C 
BRANCH   3   4
ATOM      4  C   UNL     1     -17.209 -14.590  14.648  1.00  0.00     0.000 C 
BRANCH   4   5
ATOM      5  C   UNL     1     -17.070 -14.267  13.151  1.00  0.00     0.000 C 
BRANCH   5   6
ATOM      6  C   UNL     1     -16.364 -12.921  12.945  1.00  0.00     0.006 C 
BRANCH   6   7
ATOM      7  C   UNL     1     -14.886 -13.123  12.596  1.00  0.00     0.053 C 
BRANCH   7   8
ATOM      8  C   UNL     1     -14.264 -11.828  12.178  1.00  0.00     0.041 C 
ATOM      9  O   UNL     1     -13.377 -11.292  12.894  1.00  0.00    -0.550 OA
ATOM     10  O   UNL     1     -14.698 -11.189  11.024  1.00  0.00    -0.550 OA
ENDBRANCH   7   8
ENDBRANCH   6   7
ENDBRANCH   5   6
ENDBRANCH   4   5
ENDBRANCH   3   4
ENDBRANCH   2   3
ENDBRANCH   1   2
BRANCH   1  11
ATOM     11  C   UNL     1     -14.069 -12.713  15.913  1.00  0.00     0.000 C 
BRANCH  11  12
ATOM     12  C   UNL     1     -12.556 -12.975  15.995  1.00  0.00     0.000 C 
BRANCH  12  13
ATOM     13  C   UNL     1     -12.061 -13.949  14.911  1.00  0.00     0.000 C 
BRANCH  13  14
ATOM     14  C   UNL     1     -10.800 -13.444  14.191  1.00  0.00     0.000 C 
BRANCH  14  15
ATOM     15  C   UNL     1     -10.099 -12.310  14.958  1.00  0.00     0.000 C 
BRANCH  15  16
ATOM     16  C   UNL     1      -8.980 -11.636  14.145  1.00  0.00     0.006 C 
BRANCH  16  17
ATOM     17  C   UNL     1      -7.573 -11.816  14.745  1.00  0.00     0.053 C 
BRANCH  17  18
ATOM     18  C   UNL     1      -6.535 -10.988  14.051  1.00  0.00     0.041 C 
ATOM     19  O   UNL     1      -6.780  -9.793  13.738  1.00  0.00    -0.550 OA
ATOM     20  O   UNL     1      -5.308 -11.548  13.715  1.00  0.00    -0.550 OA
ENDBRANCH  17  18
ENDBRANCH  16  17
ENDBRANCH  15  16
ENDBRANCH  14  15
ENDBRANCH  13  14
ENDBRANCH  12  13
ENDBRANCH  11  12
ENDBRANCH   1  11
TORSDOF 15
ENDMDL
MODEL 8
REMARK VINA RESULT:    -4.777      3.060      4.974
REMARK INTER + INTRA:         -10.460
REMARK INTER:                  -8.962
REMARK INTRA:                  -1.497
REMARK UNBOUND:                -1.493
REMARK SMILES O=C([O-])CCCCCCCCCCCCCCC(=O)[O-]
REMARK SMILES IDX 10 1 9 2 8 3 7 4 6 5 5 6 4 7 2 8 1 9 3 10 11 11 12 12 13 13
REMARK SMILES IDX 14 14 15 15 16 16 17 17 18 18 19 19 20 20
REMARK H PARENT
REMARK Flexibility Score: inf
ROOT
ATOM      1  C   UNL     1     -16.497 -13.121  15.005  1.00  0.00     0.000 C 
ENDROOT
BRANCH   1   2
ATOM      2  C   UNL     1     -16.118 -13.888  16.283  1.00  0.00     0.000 C 
BRANCH   2   3
ATOM      3  C   UNL     1     -14.929 -13.253  17.024  1.00  0.00     0.000 C 
BRANCH   3   4
ATOM      4  C   UNL     1     -15.375 -12.338  18.177  1.00  0.00     0.000 C 
BRANCH   4   5
ATOM      5  C   UNL     1     -16.723 -12.761  18.782  1.00  0.00     0.000 C 
BRANCH   5   6
ATOM      6  C   UNL     1     -16.781 -12.429  20.278  1.00  0.00     0.006 C 
BRANCH   6   7
ATOM      7  C   UNL     1     -17.188 -10.969  20.501  1.00  0.00     0.053 C 
BRANCH   7   8
ATOM      8  C   UNL     1     -18.195 -10.869  21.604  1.00  0.00     0.041 C 
ATOM      9  O   UNL     1     -19.407 -11.132  21.380  1.00  0.00    -0.550 OA
ATOM     10  O   UNL     1     -17.804 -10.439  22.865  1.00  0.00    -0.550 OA
ENDBRANCH   7   8
ENDBRANCH   6   7
ENDBRANCH   5   6
ENDBRANCH   4   5
ENDBRANCH   3   4
ENDBRANCH   2   3
ENDBRANCH   1   2
BRANCH   1  11
ATOM     11  C   UNL     1     -16.331 -13.970  13.733  1.00  0.00     0.000 C 
BRANCH  11  12
ATOM     12  C   UNL     1     -14.992 -13.710  13.023  1.00  0.00     0.000 C 
BRANCH  12  13
ATOM     13  C   UNL     1     -14.411 -12.321  13.340  1.00  0.00     0.000 C 
BRANCH  13  14
ATOM     14  C   UNL     1     -13.001 -12.392  13.950  1.00  0.00     0.000 C 
BRANCH  14  15
ATOM     15  C   UNL     1     -12.510 -13.839  14.126  1.00  0.00     0.000 C 
BRANCH  15  16
ATOM     16  C   UNL     1     -11.477 -13.990  15.258  1.00  0.00     0.006 C 
BRANCH  16  17
ATOM     17  C   UNL     1     -10.838 -12.661  15.704  1.00  0.00     0.053 C 
BRANCH  17  18
ATOM     18  C   UNL     1      -9.413 -12.526  15.262  1.00  0.00     0.041 C 
ATOM     19  O   UNL     1      -8.507 -12.280  16.102  1.00  0.00    -0.550 OA
ATOM     20  O   UNL     1      -9.089 -12.635  13.915  1.00  0.00    -0.550 OA
ENDBRANCH  17  18
ENDBRANCH  16  17
ENDBRANCH  15  16
ENDBRANCH  14  15
ENDBRANCH  13  14
ENDBRANCH  12  13
ENDBRANCH  11  12
ENDBRANCH   1  11
TORSDOF 15
ENDMDL
MODEL 9
REMARK VINA RESULT:    -4.684      3.892      5.595
REMARK INTER + INTRA:         -10.285
REMARK INTER:                  -9.359
REMARK INTRA:                  -0.926
REMARK UNBOUND:                -1.493
REMARK SMILES O=C([O-])CCCCCCCCCCCCCCC(=O)[O-]
REMARK SMILES IDX 10 1 9 2 8 3 7 4 6 5 5 6 4 7 2 8 1 9 3 10 11 11 12 12 13 13
REMARK SMILES IDX 14 14 15 15 16 16 17 17 18 18 19 19 20 20
REMARK H PARENT
REMARK Flexibility Score: inf
ROOT
ATOM      1  C   UNL     1     -16.253 -13.492  17.301  1.00  0.00     0.000 C 
ENDROOT
BRANCH   1   2
ATOM      2  C   UNL     1     -15.105 -12.731  17.984  1.00  0.00     0.000 C 
BRANCH   2   3
ATOM      3  C   UNL     1     -15.607 -11.692  19.001  1.00  0.00     0.000 C 
BRANCH   3   4
ATOM      4  C   UNL     1     -16.507 -12.314  20.082  1.00  0.00     0.000 C 
BRANCH   4   5
ATOM      5  C   UNL     1     -17.912 -11.692  20.111  1.00  0.00     0.000 C 
BRANCH   5   6
ATOM      6  C   UNL     1     -17.975 -10.525  21.103  1.00  0.00     0.006 C 
BRANCH   6   7
ATOM      7  C   UNL     1     -18.925 -10.839  22.263  1.00  0.00     0.053 C 
BRANCH   7   8
ATOM      8  C   UNL     1     -20.349 -10.683  21.831  1.00  0.00     0.041 C 
ATOM      9  O   UNL     1     -21.250 -11.396  22.349  1.00  0.00    -0.550 OA
ATOM     10  O   UNL     1     -20.676  -9.786  20.822  1.00  0.00    -0.550 OA
ENDBRANCH   7   8
ENDBRANCH   6   7
ENDBRANCH   5   6
ENDBRANCH   4   5
ENDBRANCH   3   4
ENDBRANCH   2   3
ENDBRANCH   1   2
BRANCH   1  11
ATOM     11  C   UNL     1     -16.006 -13.716  15.799  1.00  0.00     0.000 C 
BRANCH  11  12
ATOM     12  C   UNL     1     -15.429 -12.471  15.106  1.00  0.00     0.000 C 
BRANCH  12  13
ATOM     13  C   UNL     1     -14.513 -12.821  13.920  1.00  0.00     0.000 C 
BRANCH  13  14
ATOM     14  C   UNL     1     -13.352 -13.746  14.320  1.00  0.00     0.000 C 
BRANCH  14  15
ATOM     15  C   UNL     1     -12.469 -13.138  15.423  1.00  0.00     0.000 C 
BRANCH  15  16
ATOM     16  C   UNL     1     -10.975 -13.463  15.246  1.00  0.00     0.006 C 
BRANCH  16  17
ATOM     17  C   UNL     1     -10.030 -12.488  15.974  1.00  0.00     0.053 C 
BRANCH  17  18
ATOM     18  C   UNL     1      -9.033 -11.852  15.055  1.00  0.00     0.041 C 
ATOM     19  O   UNL     1      -9.421 -11.138  14.092  1.00  0.00    -0.550 OA
ATOM     20  O   UNL     1      -7.674 -12.076  15.240  1.00  0.00    -0.550 OA
ENDBRANCH  17  18
ENDBRANCH  16  17
ENDBRANCH  15  16
ENDBRANCH  14  15
ENDBRANCH  13  14
ENDBRANCH  12  13
ENDBRANCH  11  12
ENDBRANCH   1  11
TORSDOF 15
ENDMDL
