MODEL 1
REMARK VINA RESULT:    -4.574      0.000      0.000
REMARK INTER + INTRA:          -4.864
REMARK INTER:                  -4.842
REMARK INTRA:                  -0.022
REMARK UNBOUND:                -0.022
REMARK SMILES O=C([O-])c1cccnc1
REMARK SMILES IDX 4 1 5 2 9 3 6 4 8 5 7 6 2 7 1 8 3 9
REMARK H PARENT
REMARK Flexibility Score: inf
ROOT
ATOM      1  C   UNL     1       7.195  -2.484 -11.401  1.00  0.00     0.016 A 
ATOM      2  C   UNL     1       8.389  -1.749 -11.475  1.00  0.00     0.013 A 
ATOM      3  C   UNL     1       6.070  -2.002 -12.094  1.00  0.00     0.120 A 
ATOM      4  C   UNL     1       8.442  -0.570 -12.221  1.00  0.00     0.021 A 
ATOM      5  N   UNL     1       6.148  -0.851 -12.814  1.00  0.00    -0.264 NA
ATOM      6  C   UNL     1       7.299  -0.132 -12.891  1.00  0.00     0.111 A 
ENDROOT
BRANCH   1   7
ATOM      7  C   UNL     1       7.126  -3.734 -10.614  1.00  0.00     0.073 C 
ATOM      8  O   UNL     1       8.160  -4.429 -10.423  1.00  0.00    -0.545 OA
ATOM      9  O   UNL     1       5.918  -4.160 -10.074  1.00  0.00    -0.545 OA
ENDBRANCH   1   7
TORSDOF 1
ENDMDL
MODEL 2
REMARK VINA RESULT:    -4.553      0.914      1.603
REMARK INTER + INTRA:          -4.841
REMARK INTER:                  -4.820
REMARK INTRA:                  -0.021
REMARK UNBOUND:                -0.022
REMARK SMILES O=C([O-])c1cccnc1
REMARK SMILES IDX 4 1 5 2 9 3 6 4 8 5 7 6 2 7 1 8 3 9
REMARK H PARENT
REMARK Flexibility Score: inf
ROOT
ATOM      1  C   UNL     1       7.186  -2.574 -11.345  1.00  0.00     0.016 A 
ATOM      2  C   UNL     1       6.109  -2.171 -12.151  1.00  0.00     0.013 A 
ATOM      3  C   UNL     1       8.349  -1.782 -11.338  1.00  0.00     0.120 A 
ATOM      4  C   UNL     1       6.206  -1.012 -12.923  1.00  0.00     0.021 A 
ATOM      5  N   UNL     1       8.417  -0.658 -12.098  1.00  0.00    -0.264 NA
ATOM      6  C   UNL     1       7.381  -0.259 -12.883  1.00  0.00     0.111 A 
ENDROOT
BRANCH   1   7
ATOM      7  C   UNL     1       7.096  -3.801 -10.524  1.00  0.00     0.073 C 
ATOM      8  O   UNL     1       8.119  -4.502 -10.304  1.00  0.00    -0.545 OA
ATOM      9  O   UNL     1       5.878  -4.197  -9.982  1.00  0.00    -0.545 OA
ENDBRANCH   1   7
TORSDOF 1
ENDMDL
MODEL 3
REMARK VINA RESULT:    -4.281      2.783      3.567
REMARK INTER + INTRA:          -4.553
REMARK INTER:                  -4.531
REMARK INTRA:                  -0.022
REMARK UNBOUND:                -0.022
REMARK SMILES O=C([O-])c1cccnc1
REMARK SMILES IDX 4 1 5 2 9 3 6 4 8 5 7 6 2 7 1 8 3 9
REMARK H PARENT
REMARK Flexibility Score: inf
ROOT
ATOM      1  C   UNL     1       7.450  -1.683 -11.862  1.00  0.00     0.016 A 
ATOM      2  C   UNL     1       8.563  -2.085 -11.107  1.00  0.00     0.013 A 
ATOM      3  C   UNL     1       6.271  -2.447 -11.773  1.00  0.00     0.120 A 
ATOM      4  C   UNL     1       8.488  -3.216 -10.293  1.00  0.00     0.021 A 
ATOM      5  N   UNL     1       6.224  -3.544 -10.972  1.00  0.00    -0.264 NA
ATOM      6  C   UNL     1       7.297  -3.941 -10.238  1.00  0.00     0.111 A 
ENDROOT
BRANCH   1   7
ATOM      7  C   UNL     1       7.517  -0.487 -12.729  1.00  0.00     0.073 C 
ATOM      8  O   UNL     1       8.614  -0.119 -13.229  1.00  0.00    -0.545 OA
ATOM      9  O   UNL     1       6.370   0.248 -13.004  1.00  0.00    -0.545 OA
ENDBRANCH   1   7
TORSDOF 1
ENDMDL
MODEL 4
REMARK VINA RESULT:    -4.122      2.809      3.718
REMARK INTER + INTRA:          -4.385
REMARK INTER:                  -4.366
REMARK INTRA:                  -0.019
REMARK UNBOUND:                -0.022
REMARK SMILES O=C([O-])c1cccnc1
REMARK SMILES IDX 4 1 5 2 9 3 6 4 8 5 7 6 2 7 1 8 3 9
REMARK H PARENT
REMARK Flexibility Score: inf
ROOT
ATOM      1  C   UNL     1       6.935  -1.770 -12.135  1.00  0.00     0.016 A 
ATOM      2  C   UNL     1       6.357  -2.908 -11.549  1.00  0.00     0.013 A 
ATOM      3  C   UNL     1       8.247  -1.421 -11.765  1.00  0.00     0.120 A 
ATOM      4  C   UNL     1       7.079  -3.663 -10.624  1.00  0.00     0.021 A 
ATOM      5  N   UNL     1       8.928  -2.174 -10.862  1.00  0.00    -0.264 NA
ATOM      6  C   UNL     1       8.378  -3.277 -10.289  1.00  0.00     0.111 A 
ENDROOT
BRANCH   1   7
ATOM      7  C   UNL     1       6.180  -0.961 -13.116  1.00  0.00     0.073 C 
ATOM      8  O   UNL     1       6.686  -0.671 -14.233  1.00  0.00    -0.545 OA
ATOM      9  O   UNL     1       4.899  -0.509 -12.819  1.00  0.00    -0.545 OA
ENDBRANCH   1   7
TORSDOF 1
ENDMDL
MODEL 5
REMARK VINA RESULT:    -4.029     15.070     15.870
REMARK INTER + INTRA:          -4.287
REMARK INTER:                  -4.263
REMARK INTRA:                  -0.024
REMARK UNBOUND:                -0.022
REMARK SMILES O=C([O-])c1cccnc1
REMARK SMILES IDX 4 1 5 2 9 3 6 4 8 5 7 6 2 7 1 8 3 9
REMARK H PARENT
REMARK Flexibility Score: inf
ROOT
ATOM      1  C   UNL     1      -4.085   5.859  -5.164  1.00  0.00     0.016 A 
ATOM      2  C   UNL     1      -4.684   4.602  -4.976  1.00  0.00     0.013 A 
ATOM      3  C   UNL     1      -4.390   6.887  -4.254  1.00  0.00     0.120 A 
ATOM      4  C   UNL     1      -5.559   4.395  -3.908  1.00  0.00     0.021 A 
ATOM      5  N   UNL     1      -5.245   6.659  -3.223  1.00  0.00    -0.264 NA
ATOM      6  C   UNL     1      -5.831   5.447  -3.032  1.00  0.00     0.111 A 
ENDROOT
BRANCH   1   7
ATOM      7  C   UNL     1      -3.157   6.091  -6.292  1.00  0.00     0.073 C 
ATOM      8  O   UNL     1      -2.542   7.185  -6.401  1.00  0.00    -0.545 OA
ATOM      9  O   UNL     1      -2.950   5.103  -7.248  1.00  0.00    -0.545 OA
ENDBRANCH   1   7
TORSDOF 1
ENDMDL
MODEL 6
REMARK VINA RESULT:    -3.988      8.684      9.768
REMARK INTER + INTRA:          -4.243
REMARK INTER:                  -4.224
REMARK INTRA:                  -0.019
REMARK UNBOUND:                -0.022
REMARK SMILES O=C([O-])c1cccnc1
REMARK SMILES IDX 4 1 5 2 9 3 6 4 8 5 7 6 2 7 1 8 3 9
REMARK H PARENT
REMARK Flexibility Score: inf
ROOT
ATOM      1  C   UNL     1       0.684  -8.455 -12.814  1.00  0.00     0.016 A 
ATOM      2  C   UNL     1       0.037  -7.659 -13.772  1.00  0.00     0.013 A 
ATOM      3  C   UNL     1      -0.099  -9.307 -12.013  1.00  0.00     0.120 A 
ATOM      4  C   UNL     1      -1.351  -7.721 -13.914  1.00  0.00     0.021 A 
ATOM      5  N   UNL     1      -1.448  -9.349 -12.172  1.00  0.00    -0.264 NA
ATOM      6  C   UNL     1      -2.085  -8.581 -13.096  1.00  0.00     0.111 A 
ENDROOT
BRANCH   1   7
ATOM      7  C   UNL     1       2.153  -8.398 -12.653  1.00  0.00     0.073 C 
ATOM      8  O   UNL     1       2.743  -7.291 -12.539  1.00  0.00    -0.545 OA
ATOM      9  O   UNL     1       2.904  -9.568 -12.626  1.00  0.00    -0.545 OA
ENDBRANCH   1   7
TORSDOF 1
ENDMDL
MODEL 7
REMARK VINA RESULT:    -3.946     13.950     14.859
REMARK INTER + INTRA:          -4.199
REMARK INTER:                  -4.183
REMARK INTRA:                  -0.016
REMARK UNBOUND:                -0.022
REMARK SMILES O=C([O-])c1cccnc1
REMARK SMILES IDX 4 1 5 2 9 3 6 4 8 5 7 6 2 7 1 8 3 9
REMARK H PARENT
REMARK Flexibility Score: inf
ROOT
ATOM      1  C   UNL     1       7.197  -4.655   2.891  1.00  0.00     0.016 A 
ATOM      2  C   UNL     1       6.712  -4.080   4.076  1.00  0.00     0.013 A 
ATOM      3  C   UNL     1       8.218  -3.985   2.192  1.00  0.00     0.120 A 
ATOM      4  C   UNL     1       7.238  -2.871   4.536  1.00  0.00     0.021 A 
ATOM      5  N   UNL     1       8.713  -2.810   2.662  1.00  0.00    -0.264 NA
ATOM      6  C   UNL     1       8.250  -2.244   3.808  1.00  0.00     0.111 A 
ENDROOT
BRANCH   1   7
ATOM      7  C   UNL     1       6.648  -5.935   2.393  1.00  0.00     0.073 C 
ATOM      8  O   UNL     1       7.013  -7.029   2.899  1.00  0.00    -0.545 OA
ATOM      9  O   UNL     1       5.718  -5.947   1.360  1.00  0.00    -0.545 OA
ENDBRANCH   1   7
TORSDOF 1
ENDMDL
MODEL 8
REMARK VINA RESULT:    -3.915      8.840     10.009
REMARK INTER + INTRA:          -4.166
REMARK INTER:                  -4.147
REMARK INTRA:                  -0.019
REMARK UNBOUND:                -0.022
REMARK SMILES O=C([O-])c1cccnc1
REMARK SMILES IDX 4 1 5 2 9 3 6 4 8 5 7 6 2 7 1 8 3 9
REMARK H PARENT
REMARK Flexibility Score: inf
ROOT
ATOM      1  C   UNL     1       0.683  -8.847 -12.503  1.00  0.00     0.016 A 
ATOM      2  C   UNL     1       0.123  -9.775 -11.609  1.00  0.00     0.013 A 
ATOM      3  C   UNL     1      -0.183  -8.115 -13.335  1.00  0.00     0.120 A 
ATOM      4  C   UNL     1      -1.260  -9.955 -11.561  1.00  0.00     0.021 A 
ATOM      5  N   UNL     1      -1.526  -8.309 -13.268  1.00  0.00    -0.264 NA
ATOM      6  C   UNL     1      -2.078  -9.205 -12.407  1.00  0.00     0.111 A 
ENDROOT
BRANCH   1   7
ATOM      7  C   UNL     1       2.147  -8.648 -12.564  1.00  0.00     0.073 C 
ATOM      8  O   UNL     1       2.926  -9.634 -12.653  1.00  0.00    -0.545 OA
ATOM      9  O   UNL     1       2.685  -7.366 -12.524  1.00  0.00    -0.545 OA
ENDBRANCH   1   7
TORSDOF 1
ENDMDL
MODEL 9
REMARK VINA RESULT:    -3.821      3.029      3.617
REMARK INTER + INTRA:          -4.067
REMARK INTER:                  -4.046
REMARK INTRA:                  -0.021
REMARK UNBOUND:                -0.022
REMARK SMILES O=C([O-])c1cccnc1
REMARK SMILES IDX 4 1 5 2 9 3 6 4 8 5 7 6 2 7 1 8 3 9
REMARK H PARENT
REMARK Flexibility Score: inf
ROOT
ATOM      1  C   UNL     1       7.773  -3.898 -11.962  1.00  0.00     0.016 A 
ATOM      2  C   UNL     1       7.908  -3.659 -13.339  1.00  0.00     0.013 A 
ATOM      3  C   UNL     1       8.697  -4.757 -11.340  1.00  0.00     0.120 A 
ATOM      4  C   UNL     1       8.937  -4.267 -14.060  1.00  0.00     0.021 A 
ATOM      5  N   UNL     1       9.691  -5.336 -12.065  1.00  0.00    -0.264 NA
ATOM      6  C   UNL     1       9.829  -5.112 -13.398  1.00  0.00     0.111 A 
ENDROOT
BRANCH   1   7
ATOM      7  C   UNL     1       6.686  -3.260 -11.188  1.00  0.00     0.073 C 
ATOM      8  O   UNL     1       6.342  -2.072 -11.426  1.00  0.00    -0.545 OA
ATOM      9  O   UNL     1       6.029  -3.965 -10.187  1.00  0.00    -0.545 OA
ENDBRANCH   1   7
TORSDOF 1
ENDMDL
