MODEL 1
REMARK VINA RESULT:    -4.040      0.000      0.000
REMARK INTER + INTRA:          -7.283
REMARK INTER:                  -6.402
REMARK INTRA:                  -0.881
REMARK UNBOUND:                -0.881
REMARK SMILES CCCCCCCCCCCC(=O)[O-]
REMARK SMILES IDX 7 1 8 2 9 3 10 4 11 5 12 6 13 7 14 8 6 9 5 10 4 11 3 12 2 13
REMARK SMILES IDX 1 14
REMARK H PARENT
REMARK Flexibility Score: inf
ROOT
ATOM      1  C   UNL     1      -3.746  11.455 -10.259  1.00  0.00     0.000 C 
ENDROOT
BRANCH   1   2
ATOM      2  C   UNL     1      -3.980  10.053 -10.846  1.00  0.00     0.000 C 
BRANCH   2   3
ATOM      3  C   UNL     1      -4.681   9.110  -9.856  1.00  0.00     0.000 C 
BRANCH   3   4
ATOM      4  C   UNL     1      -5.888   8.386 -10.479  1.00  0.00     0.006 C 
BRANCH   4   5
ATOM      5  C   UNL     1      -6.860   9.359 -11.158  1.00  0.00     0.053 C 
BRANCH   5   6
ATOM      6  C   UNL     1      -7.893   9.869 -10.199  1.00  0.00     0.041 C 
ATOM      7  O   UNL     1      -8.925   9.189  -9.959  1.00  0.00    -0.550 OA
ATOM      8  O   UNL     1      -7.730  11.110  -9.598  1.00  0.00    -0.550 OA
ENDBRANCH   5   6
ENDBRANCH   4   5
ENDBRANCH   3   4
ENDBRANCH   2   3
ENDBRANCH   1   2
BRANCH   1   9
ATOM      9  C   UNL     1      -2.291  11.672  -9.809  1.00  0.00     0.000 C 
BRANCH   9  10
ATOM     10  C   UNL     1      -1.900  10.783  -8.619  1.00  0.00    -0.000 C 
BRANCH  10  11
ATOM     11  C   UNL     1      -0.543  10.110  -8.859  1.00  0.00    -0.000 C 
BRANCH  11  12
ATOM     12  C   UNL     1      -0.683   8.907  -9.799  1.00  0.00    -0.000 C 
BRANCH  12  13
ATOM     13  C   UNL     1      -1.333   7.719  -9.078  1.00  0.00    -0.003 C 
ATOM     14  C   UNL     1      -0.280   6.758  -8.536  1.00  0.00     0.004 C 
ENDBRANCH  12  13
ENDBRANCH  11  12
ENDBRANCH  10  11
ENDBRANCH   9  10
ENDBRANCH   1   9
TORSDOF 10
ENDMDL
MODEL 2
REMARK VINA RESULT:    -3.980     15.719     17.534
REMARK INTER + INTRA:          -7.187
REMARK INTER:                  -6.022
REMARK INTRA:                  -1.166
REMARK UNBOUND:                -0.881
REMARK SMILES CCCCCCCCCCCC(=O)[O-]
REMARK SMILES IDX 7 1 8 2 9 3 10 4 11 5 12 6 13 7 14 8 6 9 5 10 4 11 3 12 2 13
REMARK SMILES IDX 1 14
REMARK H PARENT
REMARK Flexibility Score: inf
ROOT
ATOM      1  C   UNL     1     -14.795  15.283 -19.841  1.00  0.00     0.000 C 
ENDROOT
BRANCH   1   2
ATOM      2  C   UNL     1     -14.827  15.695 -21.322  1.00  0.00     0.000 C 
BRANCH   2   3
ATOM      3  C   UNL     1     -15.950  16.698 -21.630  1.00  0.00     0.000 C 
BRANCH   3   4
ATOM      4  C   UNL     1     -16.818  17.016 -20.400  1.00  0.00     0.006 C 
BRANCH   4   5
ATOM      5  C   UNL     1     -17.422  18.424 -20.466  1.00  0.00     0.053 C 
BRANCH   5   6
ATOM      6  C   UNL     1     -18.916  18.381 -20.570  1.00  0.00     0.041 C 
ATOM      7  O   UNL     1     -19.621  19.190 -19.911  1.00  0.00    -0.550 OA
ATOM      8  O   UNL     1     -19.529  17.426 -21.370  1.00  0.00    -0.550 OA
ENDBRANCH   5   6
ENDBRANCH   4   5
ENDBRANCH   3   4
ENDBRANCH   2   3
ENDBRANCH   1   2
BRANCH   1   9
ATOM      9  C   UNL     1     -13.459  15.628 -19.161  1.00  0.00     0.000 C 
BRANCH   9  10
ATOM     10  C   UNL     1     -12.641  16.662 -19.949  1.00  0.00    -0.000 C 
BRANCH  10  11
ATOM     11  C   UNL     1     -12.902  18.080 -19.430  1.00  0.00    -0.000 C 
BRANCH  11  12
ATOM     12  C   UNL     1     -13.449  18.051 -17.997  1.00  0.00    -0.000 C 
BRANCH  12  13
ATOM     13  C   UNL     1     -14.741  18.870 -17.885  1.00  0.00    -0.003 C 
ATOM     14  C   UNL     1     -14.485  20.216 -17.216  1.00  0.00     0.004 C 
ENDBRANCH  12  13
ENDBRANCH  11  12
ENDBRANCH  10  11
ENDBRANCH   9  10
ENDBRANCH   1   9
TORSDOF 10
ENDMDL
MODEL 3
REMARK VINA RESULT:    -3.964      4.160      6.247
REMARK INTER + INTRA:          -7.163
REMARK INTER:                  -6.245
REMARK INTRA:                  -0.918
REMARK UNBOUND:                -0.881
REMARK SMILES CCCCCCCCCCCC(=O)[O-]
REMARK SMILES IDX 7 1 8 2 9 3 10 4 11 5 12 6 13 7 14 8 6 9 5 10 4 11 3 12 2 13
REMARK SMILES IDX 1 14
REMARK H PARENT
REMARK Flexibility Score: inf
ROOT
ATOM      1  C   UNL     1      -3.672  12.456  -8.286  1.00  0.00     0.000 C 
ENDROOT
BRANCH   1   2
ATOM      2  C   UNL     1      -4.179  12.141  -9.703  1.00  0.00     0.000 C 
BRANCH   2   3
ATOM      3  C   UNL     1      -4.830  10.752  -9.801  1.00  0.00     0.000 C 
BRANCH   3   4
ATOM      4  C   UNL     1      -3.833   9.657 -10.220  1.00  0.00     0.006 C 
BRANCH   4   5
ATOM      5  C   UNL     1      -3.631   8.607  -9.120  1.00  0.00     0.053 C 
BRANCH   5   6
ATOM      6  C   UNL     1      -2.179   8.315  -8.893  1.00  0.00     0.041 C 
ATOM      7  O   UNL     1      -1.339   9.252  -8.880  1.00  0.00    -0.550 OA
ATOM      8  O   UNL     1      -1.752   7.003  -8.730  1.00  0.00    -0.550 OA
ENDBRANCH   5   6
ENDBRANCH   4   5
ENDBRANCH   3   4
ENDBRANCH   2   3
ENDBRANCH   1   2
BRANCH   1   9
ATOM      9  C   UNL     1      -3.904  13.924  -7.888  1.00  0.00     0.000 C 
BRANCH   9  10
ATOM     10  C   UNL     1      -4.716  14.066  -6.593  1.00  0.00    -0.000 C 
BRANCH  10  11
ATOM     11  C   UNL     1      -5.999  14.871  -6.835  1.00  0.00    -0.000 C 
BRANCH  11  12
ATOM     12  C   UNL     1      -7.144  13.959  -7.292  1.00  0.00    -0.000 C 
BRANCH  12  13
ATOM     13  C   UNL     1      -7.915  14.588  -8.459  1.00  0.00    -0.003 C 
ATOM     14  C   UNL     1      -7.136  14.467  -9.765  1.00  0.00     0.004 C 
ENDBRANCH  12  13
ENDBRANCH  11  12
ENDBRANCH  10  11
ENDBRANCH   9  10
ENDBRANCH   1   9
TORSDOF 10
ENDMDL
MODEL 4
REMARK VINA RESULT:    -3.962     14.224     16.251
REMARK INTER + INTRA:          -7.159
REMARK INTER:                  -5.834
REMARK INTRA:                  -1.325
REMARK UNBOUND:                -0.881
REMARK SMILES CCCCCCCCCCCC(=O)[O-]
REMARK SMILES IDX 7 1 8 2 9 3 10 4 11 5 12 6 13 7 14 8 6 9 5 10 4 11 3 12 2 13
REMARK SMILES IDX 1 14
REMARK H PARENT
REMARK Flexibility Score: inf
ROOT
ATOM      1  C   UNL     1     -18.153  17.445 -16.099  1.00  0.00     0.000 C 
ENDROOT
BRANCH   1   2
ATOM      2  C   UNL     1     -18.095  16.385 -17.212  1.00  0.00     0.000 C 
BRANCH   2   3
ATOM      3  C   UNL     1     -18.902  15.123 -16.866  1.00  0.00     0.000 C 
BRANCH   3   4
ATOM      4  C   UNL     1     -18.228  13.832 -17.364  1.00  0.00     0.006 C 
BRANCH   4   5
ATOM      5  C   UNL     1     -19.058  12.584 -17.041  1.00  0.00     0.053 C 
BRANCH   5   6
ATOM      6  C   UNL     1     -18.222  11.509 -16.415  1.00  0.00     0.041 C 
ATOM      7  O   UNL     1     -17.996  10.439 -17.038  1.00  0.00    -0.550 OA
ATOM      8  O   UNL     1     -17.720  11.679 -15.132  1.00  0.00    -0.550 OA
ENDBRANCH   5   6
ENDBRANCH   4   5
ENDBRANCH   3   4
ENDBRANCH   2   3
ENDBRANCH   1   2
BRANCH   1   9
ATOM      9  C   UNL     1     -19.173  17.095 -15.003  1.00  0.00     0.000 C 
BRANCH   9  10
ATOM     10  C   UNL     1     -18.685  17.472 -13.596  1.00  0.00    -0.000 C 
BRANCH  10  11
ATOM     11  C   UNL     1     -17.172  17.260 -13.465  1.00  0.00    -0.000 C 
BRANCH  11  12
ATOM     12  C   UNL     1     -16.860  15.995 -12.656  1.00  0.00    -0.000 C 
BRANCH  12  13
ATOM     13  C   UNL     1     -16.884  14.750 -13.551  1.00  0.00    -0.003 C 
ATOM     14  C   UNL     1     -15.811  14.827 -14.632  1.00  0.00     0.004 C 
ENDBRANCH  12  13
ENDBRANCH  11  12
ENDBRANCH  10  11
ENDBRANCH   9  10
ENDBRANCH   1   9
TORSDOF 10
ENDMDL
MODEL 5
REMARK VINA RESULT:    -3.961     13.728     15.557
REMARK INTER + INTRA:          -7.157
REMARK INTER:                  -5.883
REMARK INTRA:                  -1.274
REMARK UNBOUND:                -0.881
REMARK SMILES CCCCCCCCCCCC(=O)[O-]
REMARK SMILES IDX 7 1 8 2 9 3 10 4 11 5 12 6 13 7 14 8 6 9 5 10 4 11 3 12 2 13
REMARK SMILES IDX 1 14
REMARK H PARENT
REMARK Flexibility Score: inf
ROOT
ATOM      1  C   UNL     1     -18.748  16.314 -16.133  1.00  0.00     0.000 C 
ENDROOT
BRANCH   1   2
ATOM      2  C   UNL     1     -17.924  15.043 -15.871  1.00  0.00     0.000 C 
BRANCH   2   3
ATOM      3  C   UNL     1     -16.446  15.207 -16.257  1.00  0.00     0.000 C 
BRANCH   3   4
ATOM      4  C   UNL     1     -15.516  14.273 -15.463  1.00  0.00     0.006 C 
BRANCH   4   5
ATOM      5  C   UNL     1     -16.287  13.150 -14.760  1.00  0.00     0.053 C 
BRANCH   5   6
ATOM      6  C   UNL     1     -16.094  11.832 -15.445  1.00  0.00     0.041 C 
ATOM      7  O   UNL     1     -17.082  11.216 -15.925  1.00  0.00    -0.550 OA
ATOM      8  O   UNL     1     -14.827  11.269 -15.525  1.00  0.00    -0.550 OA
ENDBRANCH   5   6
ENDBRANCH   4   5
ENDBRANCH   3   4
ENDBRANCH   2   3
ENDBRANCH   1   2
BRANCH   1   9
ATOM      9  C   UNL     1     -18.316  17.492 -15.243  1.00  0.00     0.000 C 
BRANCH   9  10
ATOM     10  C   UNL     1     -19.139  17.591 -13.950  1.00  0.00    -0.000 C 
BRANCH  10  11
ATOM     11  C   UNL     1     -18.227  17.578 -12.717  1.00  0.00    -0.000 C 
BRANCH  11  12
ATOM     12  C   UNL     1     -16.769  17.315 -13.113  1.00  0.00    -0.000 C 
BRANCH  12  13
ATOM     13  C   UNL     1     -16.238  16.042 -12.441  1.00  0.00    -0.003 C 
ATOM     14  C   UNL     1     -16.976  15.758 -11.137  1.00  0.00     0.004 C 
ENDBRANCH  12  13
ENDBRANCH  11  12
ENDBRANCH  10  11
ENDBRANCH   9  10
ENDBRANCH   1   9
TORSDOF 10
ENDMDL
MODEL 6
REMARK VINA RESULT:    -3.929      5.048      6.428
REMARK INTER + INTRA:          -7.107
REMARK INTER:                  -5.998
REMARK INTRA:                  -1.109
REMARK UNBOUND:                -0.881
REMARK SMILES CCCCCCCCCCCC(=O)[O-]
REMARK SMILES IDX 7 1 8 2 9 3 10 4 11 5 12 6 13 7 14 8 6 9 5 10 4 11 3 12 2 13
REMARK SMILES IDX 1 14
REMARK H PARENT
REMARK Flexibility Score: inf
ROOT
ATOM      1  C   UNL     1      -2.602  10.714 -11.628  1.00  0.00     0.000 C 
ENDROOT
BRANCH   1   2
ATOM      2  C   UNL     1      -3.020  11.062 -13.066  1.00  0.00     0.000 C 
BRANCH   2   3
ATOM      3  C   UNL     1      -1.844  10.994 -14.054  1.00  0.00     0.000 C 
BRANCH   3   4
ATOM      4  C   UNL     1      -2.130  10.076 -15.255  1.00  0.00     0.006 C 
BRANCH   4   5
ATOM      5  C   UNL     1      -2.863  10.811 -16.384  1.00  0.00     0.053 C 
BRANCH   5   6
ATOM      6  C   UNL     1      -3.650   9.866 -17.241  1.00  0.00     0.041 C 
ATOM      7  O   UNL     1      -4.908   9.892 -17.222  1.00  0.00    -0.550 OA
ATOM      8  O   UNL     1      -2.991   8.936 -18.034  1.00  0.00    -0.550 OA
ENDBRANCH   5   6
ENDBRANCH   4   5
ENDBRANCH   3   4
ENDBRANCH   2   3
ENDBRANCH   1   2
BRANCH   1   9
ATOM      9  C   UNL     1      -1.202  11.243 -11.274  1.00  0.00     0.000 C 
BRANCH   9  10
ATOM     10  C   UNL     1      -1.247  12.575 -10.511  1.00  0.00    -0.000 C 
BRANCH  10  11
ATOM     11  C   UNL     1      -0.216  13.563 -11.070  1.00  0.00    -0.000 C 
BRANCH  11  12
ATOM     12  C   UNL     1      -0.681  14.144 -12.411  1.00  0.00    -0.000 C 
BRANCH  12  13
ATOM     13  C   UNL     1      -2.010  14.894 -12.255  1.00  0.00    -0.003 C 
ATOM     14  C   UNL     1      -2.902  14.694 -13.475  1.00  0.00     0.004 C 
ENDBRANCH  12  13
ENDBRANCH  11  12
ENDBRANCH  10  11
ENDBRANCH   9  10
ENDBRANCH   1   9
TORSDOF 10
ENDMDL
MODEL 7
REMARK VINA RESULT:    -3.928      3.315      3.867
REMARK INTER + INTRA:          -7.105
REMARK INTER:                  -6.188
REMARK INTRA:                  -0.918
REMARK UNBOUND:                -0.881
REMARK SMILES CCCCCCCCCCCC(=O)[O-]
REMARK SMILES IDX 7 1 8 2 9 3 10 4 11 5 12 6 13 7 14 8 6 9 5 10 4 11 3 12 2 13
REMARK SMILES IDX 1 14
REMARK H PARENT
REMARK Flexibility Score: inf
ROOT
ATOM      1  C   UNL     1      -1.628  12.239 -10.963  1.00  0.00     0.000 C 
ENDROOT
BRANCH   1   2
ATOM      2  C   UNL     1      -3.148  12.031 -11.054  1.00  0.00     0.000 C 
BRANCH   2   3
ATOM      3  C   UNL     1      -3.933  13.042 -10.204  1.00  0.00     0.000 C 
BRANCH   3   4
ATOM      4  C   UNL     1      -4.018  12.635  -8.723  1.00  0.00     0.006 C 
BRANCH   4   5
ATOM      5  C   UNL     1      -3.787  13.823  -7.781  1.00  0.00     0.053 C 
BRANCH   5   6
ATOM      6  C   UNL     1      -5.038  14.200  -7.047  1.00  0.00     0.041 C 
ATOM      7  O   UNL     1      -5.161  13.927  -5.824  1.00  0.00    -0.550 OA
ATOM      8  O   UNL     1      -6.078  14.822  -7.723  1.00  0.00    -0.550 OA
ENDBRANCH   5   6
ENDBRANCH   4   5
ENDBRANCH   3   4
ENDBRANCH   2   3
ENDBRANCH   1   2
BRANCH   1   9
ATOM      9  C   UNL     1      -0.884  10.969 -10.517  1.00  0.00     0.000 C 
BRANCH   9  10
ATOM     10  C   UNL     1      -0.661  10.914  -8.999  1.00  0.00    -0.000 C 
BRANCH  10  11
ATOM     11  C   UNL     1      -1.309   9.663  -8.394  1.00  0.00    -0.000 C 
BRANCH  11  12
ATOM     12  C   UNL     1      -1.463   8.558  -9.446  1.00  0.00    -0.000 C 
BRANCH  12  13
ATOM     13  C   UNL     1      -1.454   7.171  -8.792  1.00  0.00    -0.003 C 
ATOM     14  C   UNL     1      -0.030   6.702  -8.510  1.00  0.00     0.004 C 
ENDBRANCH  12  13
ENDBRANCH  11  12
ENDBRANCH  10  11
ENDBRANCH   9  10
ENDBRANCH   1   9
TORSDOF 10
ENDMDL
MODEL 8
REMARK VINA RESULT:    -3.920      4.992      6.882
REMARK INTER + INTRA:          -7.093
REMARK INTER:                  -5.733
REMARK INTRA:                  -1.360
REMARK UNBOUND:                -0.881
REMARK SMILES CCCCCCCCCCCC(=O)[O-]
REMARK SMILES IDX 7 1 8 2 9 3 10 4 11 5 12 6 13 7 14 8 6 9 5 10 4 11 3 12 2 13
REMARK SMILES IDX 1 14
REMARK H PARENT
REMARK Flexibility Score: inf
ROOT
ATOM      1  C   UNL     1      -0.216  13.434 -12.355  1.00  0.00     0.000 C 
ENDROOT
BRANCH   1   2
ATOM      2  C   UNL     1      -0.726  12.105 -12.937  1.00  0.00     0.000 C 
BRANCH   2   3
ATOM      3  C   UNL     1      -2.063  11.665 -12.320  1.00  0.00     0.000 C 
BRANCH   3   4
ATOM      4  C   UNL     1      -2.839  10.687 -13.219  1.00  0.00     0.006 C 
BRANCH   4   5
ATOM      5  C   UNL     1      -2.129  10.441 -14.557  1.00  0.00     0.053 C 
BRANCH   5   6
ATOM      6  C   UNL     1      -3.012  10.772 -15.721  1.00  0.00     0.041 C 
ATOM      7  O   UNL     1      -4.235  11.007 -15.542  1.00  0.00    -0.550 OA
ATOM      8  O   UNL     1      -2.488  10.787 -17.007  1.00  0.00    -0.550 OA
ENDBRANCH   5   6
ENDBRANCH   4   5
ENDBRANCH   3   4
ENDBRANCH   2   3
ENDBRANCH   1   2
BRANCH   1   9
ATOM      9  C   UNL     1      -1.352  14.307 -11.795  1.00  0.00     0.000 C 
BRANCH   9  10
ATOM     10  C   UNL     1      -1.405  15.699 -12.442  1.00  0.00    -0.000 C 
BRANCH  10  11
ATOM     11  C   UNL     1      -2.814  16.010 -12.962  1.00  0.00    -0.000 C 
BRANCH  11  12
ATOM     12  C   UNL     1      -3.802  14.906 -12.568  1.00  0.00    -0.000 C 
BRANCH  12  13
ATOM     13  C   UNL     1      -4.384  14.220 -13.810  1.00  0.00    -0.003 C 
ATOM     14  C   UNL     1      -3.685  14.693 -15.080  1.00  0.00     0.004 C 
ENDBRANCH  12  13
ENDBRANCH  11  12
ENDBRANCH  10  11
ENDBRANCH   9  10
ENDBRANCH   1   9
TORSDOF 10
ENDMDL
MODEL 9
REMARK VINA RESULT:    -3.914      4.255      6.637
REMARK INTER + INTRA:          -7.084
REMARK INTER:                  -5.676
REMARK INTRA:                  -1.407
REMARK UNBOUND:                -0.881
REMARK SMILES CCCCCCCCCCCC(=O)[O-]
REMARK SMILES IDX 7 1 8 2 9 3 10 4 11 5 12 6 13 7 14 8 6 9 5 10 4 11 3 12 2 13
REMARK SMILES IDX 1 14
REMARK H PARENT
REMARK Flexibility Score: inf
ROOT
ATOM      1  C   UNL     1      -8.125  14.219  -8.162  1.00  0.00     0.000 C 
ENDROOT
BRANCH   1   2
ATOM      2  C   UNL     1      -7.708  12.860  -8.749  1.00  0.00     0.000 C 
BRANCH   2   3
ATOM      3  C   UNL     1      -6.339  12.914  -9.446  1.00  0.00     0.000 C 
BRANCH   3   4
ATOM      4  C   UNL     1      -6.040  11.648 -10.268  1.00  0.00     0.006 C 
BRANCH   4   5
ATOM      5  C   UNL     1      -7.306  11.054 -10.898  1.00  0.00     0.053 C 
BRANCH   5   6
ATOM      6  C   UNL     1      -7.466   9.604 -10.559  1.00  0.00     0.041 C 
ATOM      7  O   UNL     1      -6.595   8.769 -10.919  1.00  0.00    -0.550 OA
ATOM      8  O   UNL     1      -8.593   9.171  -9.873  1.00  0.00    -0.550 OA
ENDBRANCH   5   6
ENDBRANCH   4   5
ENDBRANCH   3   4
ENDBRANCH   2   3
ENDBRANCH   1   2
BRANCH   1   9
ATOM      9  C   UNL     1      -7.279  15.382  -8.706  1.00  0.00     0.000 C 
BRANCH   9  10
ATOM     10  C   UNL     1      -8.114  16.410  -9.484  1.00  0.00    -0.000 C 
BRANCH  10  11
ATOM     11  C   UNL     1      -8.058  16.134 -10.992  1.00  0.00    -0.000 C 
BRANCH  11  12
ATOM     12  C   UNL     1      -6.611  16.133 -11.499  1.00  0.00    -0.000 C 
BRANCH  12  13
ATOM     13  C   UNL     1      -6.365  14.959 -12.456  1.00  0.00    -0.003 C 
ATOM     14  C   UNL     1      -7.669  14.250 -12.806  1.00  0.00     0.004 C 
ENDBRANCH  12  13
ENDBRANCH  11  12
ENDBRANCH  10  11
ENDBRANCH   9  10
ENDBRANCH   1   9
TORSDOF 10
ENDMDL
