MODEL 1
REMARK VINA RESULT:    -0.965      0.000      0.000
REMARK INTER + INTRA:          -0.965
REMARK INTER:                  -0.965
REMARK INTRA:                   0.000
REMARK UNBOUND:                 0.000
REMARK SMILES CC1(C)[C@H]2CC[C@]1(C)C(=O)C2
REMARK SMILES IDX 1 1 2 2 4 3 5 4 6 5 7 6 9 7 10 8 11 9 8 10 3 11
REMARK H PARENT
REMARK Flexibility Score: inf
ROOT
ATOM      1  C   UNL     1      50.520 -59.325 320.703  1.00  0.00     0.012 C 
ATOM      2  C   UNL     1      50.922 -58.014 319.961  1.00  0.00    -0.020 C 
ATOM      3  C   UNL     1      49.743 -57.316 319.241  1.00  0.00     0.003 C 
ATOM      4  C   UNL     1      48.815 -56.911 320.419  1.00  0.00     0.005 C 
ATOM      5  C   UNL     1      49.818 -56.542 321.541  1.00  0.00     0.015 C 
ATOM      6  C   UNL     1      51.188 -56.793 320.867  1.00  0.00     0.032 C 
ATOM      7  C   UNL     1      51.314 -55.702 319.832  1.00  0.00     0.139 C 
ATOM      8  O   UNL     1      52.001 -54.697 319.930  1.00  0.00    -0.299 OA
ATOM      9  C   UNL     1      50.374 -55.999 318.707  1.00  0.00     0.080 C 
ATOM     10  C   UNL     1      52.371 -56.905 321.837  1.00  0.00     0.020 C 
ATOM     11  C   UNL     1      52.101 -58.390 319.010  1.00  0.00     0.012 C 
ENDROOT
TORSDOF 0
ENDMDL
MODEL 2
REMARK VINA RESULT:    -0.921      1.383      2.948
REMARK INTER + INTRA:          -0.921
REMARK INTER:                  -0.921
REMARK INTRA:                   0.000
REMARK UNBOUND:                 0.000
REMARK SMILES CC1(C)[C@H]2CC[C@]1(C)C(=O)C2
REMARK SMILES IDX 1 1 2 2 4 3 5 4 6 5 7 6 9 7 10 8 11 9 8 10 3 11
REMARK H PARENT
REMARK Flexibility Score: inf
ROOT
ATOM      1  C   UNL     1      51.679 -58.399 318.402  1.00  0.00     0.012 C 
ATOM      2  C   UNL     1      51.241 -58.032 319.852  1.00  0.00    -0.020 C 
ATOM      3  C   UNL     1      52.334 -57.304 320.670  1.00  0.00     0.003 C 
ATOM      4  C   UNL     1      52.512 -55.971 319.893  1.00  0.00     0.005 C 
ATOM      5  C   UNL     1      51.073 -55.652 319.416  1.00  0.00     0.015 C 
ATOM      6  C   UNL     1      50.259 -56.847 319.970  1.00  0.00     0.032 C 
ATOM      7  C   UNL     1      50.247 -56.644 321.465  1.00  0.00     0.139 C 
ATOM      8  O   UNL     1      49.311 -56.221 322.124  1.00  0.00    -0.299 OA
ATOM      9  C   UNL     1      51.613 -56.944 321.999  1.00  0.00     0.080 C 
ATOM     10  C   UNL     1      48.878 -57.036 319.331  1.00  0.00     0.020 C 
ATOM     11  C   UNL     1      50.745 -59.357 320.511  1.00  0.00     0.012 C 
ENDROOT
TORSDOF 0
ENDMDL
MODEL 3
REMARK VINA RESULT:    -0.817      3.883      5.553
REMARK INTER + INTRA:          -0.817
REMARK INTER:                  -0.817
REMARK INTRA:                   0.000
REMARK UNBOUND:                 0.000
REMARK SMILES CC1(C)[C@H]2CC[C@]1(C)C(=O)C2
REMARK SMILES IDX 1 1 2 2 4 3 5 4 6 5 7 6 9 7 10 8 11 9 8 10 3 11
REMARK H PARENT
REMARK Flexibility Score: inf
ROOT
ATOM      1  C   UNL     1      53.211 -62.121 315.998  1.00  0.00     0.012 C 
ATOM      2  C   UNL     1      52.334 -61.652 317.197  1.00  0.00    -0.020 C 
ATOM      3  C   UNL     1      52.855 -62.125 318.575  1.00  0.00     0.003 C 
ATOM      4  C   UNL     1      54.222 -61.395 318.693  1.00  0.00     0.005 C 
ATOM      5  C   UNL     1      53.949 -60.033 318.007  1.00  0.00     0.015 C 
ATOM      6  C   UNL     1      52.468 -60.162 317.576  1.00  0.00     0.032 C 
ATOM      7  C   UNL     1      51.687 -60.132 318.866  1.00  0.00     0.139 C 
ATOM      8  O   UNL     1      51.057 -59.180 319.302  1.00  0.00    -0.299 OA
ATOM      9  C   UNL     1      51.898 -61.428 319.583  1.00  0.00     0.080 C 
ATOM     10  C   UNL     1      52.014 -59.145 316.521  1.00  0.00     0.020 C 
ATOM     11  C   UNL     1      50.877 -62.118 316.887  1.00  0.00     0.012 C 
ENDROOT
TORSDOF 0
ENDMDL
MODEL 4
REMARK VINA RESULT:    -0.385      3.466      5.194
REMARK INTER + INTRA:          -0.385
REMARK INTER:                  -0.385
REMARK INTRA:                   0.000
REMARK UNBOUND:                 0.000
REMARK SMILES CC1(C)[C@H]2CC[C@]1(C)C(=O)C2
REMARK SMILES IDX 1 1 2 2 4 3 5 4 6 5 7 6 9 7 10 8 11 9 8 10 3 11
REMARK H PARENT
REMARK Flexibility Score: inf
ROOT
ATOM      1  C   UNL     1      49.881 -59.157 318.666  1.00  0.00     0.012 C 
ATOM      2  C   UNL     1      51.008 -60.051 319.263  1.00  0.00    -0.020 C 
ATOM      3  C   UNL     1      50.498 -61.382 319.866  1.00  0.00     0.003 C 
ATOM      4  C   UNL     1      49.932 -62.125 318.624  1.00  0.00     0.005 C 
ATOM      5  C   UNL     1      50.909 -61.709 317.496  1.00  0.00     0.015 C 
ATOM      6  C   UNL     1      51.899 -60.775 318.232  1.00  0.00     0.032 C 
ATOM      7  C   UNL     1      52.688 -61.688 319.138  1.00  0.00     0.139 C 
ATOM      8  O   UNL     1      53.829 -62.080 318.945  1.00  0.00    -0.299 OA
ATOM      9  C   UNL     1      51.804 -62.125 320.264  1.00  0.00     0.080 C 
ATOM     10  C   UNL     1      52.746 -59.885 317.314  1.00  0.00     0.020 C 
ATOM     11  C   UNL     1      51.784 -59.160 320.283  1.00  0.00     0.012 C 
ENDROOT
TORSDOF 0
ENDMDL
MODEL 5
REMARK VINA RESULT:    -0.239      1.254      2.933
REMARK INTER + INTRA:          -0.239
REMARK INTER:                  -0.239
REMARK INTRA:                   0.000
REMARK UNBOUND:                 0.000
REMARK SMILES CC1(C)[C@H]2CC[C@]1(C)C(=O)C2
REMARK SMILES IDX 1 1 2 2 4 3 5 4 6 5 7 6 9 7 10 8 11 9 8 10 3 11
REMARK H PARENT
REMARK Flexibility Score: inf
ROOT
ATOM      1  C   UNL     1      49.123 -57.012 318.713  1.00  0.00     0.012 C 
ATOM      2  C   UNL     1      49.878 -57.023 320.076  1.00  0.00    -0.020 C 
ATOM      3  C   UNL     1      50.281 -58.438 320.556  1.00  0.00     0.003 C 
ATOM      4  C   UNL     1      51.291 -58.894 319.467  1.00  0.00     0.005 C 
ATOM      5  C   UNL     1      52.031 -57.581 319.108  1.00  0.00     0.015 C 
ATOM      6  C   UNL     1      51.344 -56.542 320.027  1.00  0.00     0.032 C 
ATOM      7  C   UNL     1      51.801 -56.900 321.420  1.00  0.00     0.139 C 
ATOM      8  O   UNL     1      52.652 -56.312 322.069  1.00  0.00    -0.299 OA
ATOM      9  C   UNL     1      51.115 -58.162 321.839  1.00  0.00     0.080 C 
ATOM     10  C   UNL     1      51.572 -55.079 319.627  1.00  0.00     0.020 C 
ATOM     11  C   UNL     1      48.973 -56.254 321.089  1.00  0.00     0.012 C 
ENDROOT
TORSDOF 0
ENDMDL
MODEL 6
REMARK VINA RESULT:    -0.084      1.047      2.760
REMARK INTER + INTRA:          -0.084
REMARK INTER:                  -0.084
REMARK INTRA:                   0.000
REMARK UNBOUND:                 0.000
REMARK SMILES CC1(C)[C@H]2CC[C@]1(C)C(=O)C2
REMARK SMILES IDX 1 1 2 2 4 3 5 4 6 5 7 6 9 7 10 8 11 9 8 10 3 11
REMARK H PARENT
REMARK Flexibility Score: inf
ROOT
ATOM      1  C   UNL     1      50.495 -58.841 321.405  1.00  0.00     0.012 C 
ATOM      2  C   UNL     1      50.856 -57.401 320.931  1.00  0.00    -0.020 C 
ATOM      3  C   UNL     1      52.304 -57.261 320.404  1.00  0.00     0.003 C 
ATOM      4  C   UNL     1      52.299 -58.171 319.145  1.00  0.00     0.005 C 
ATOM      5  C   UNL     1      50.875 -57.964 318.572  1.00  0.00     0.015 C 
ATOM      6  C   UNL     1      50.244 -56.973 319.580  1.00  0.00     0.032 C 
ATOM      7  C   UNL     1      50.971 -55.671 319.346  1.00  0.00     0.139 C 
ATOM      8  O   UNL     1      50.534 -54.705 318.741  1.00  0.00    -0.299 OA
ATOM      9  C   UNL     1      52.361 -55.796 319.886  1.00  0.00     0.080 C 
ATOM     10  C   UNL     1      48.715 -56.881 319.520  1.00  0.00     0.020 C 
ATOM     11  C   UNL     1      50.530 -56.449 322.125  1.00  0.00     0.012 C 
ENDROOT
TORSDOF 0
ENDMDL
MODEL 7
REMARK VINA RESULT:    -0.053      1.633      2.907
REMARK INTER + INTRA:          -0.053
REMARK INTER:                  -0.053
REMARK INTRA:                   0.000
REMARK UNBOUND:                 0.000
REMARK SMILES CC1(C)[C@H]2CC[C@]1(C)C(=O)C2
REMARK SMILES IDX 1 1 2 2 4 3 5 4 6 5 7 6 9 7 10 8 11 9 8 10 3 11
REMARK H PARENT
REMARK Flexibility Score: inf
ROOT
ATOM      1  C   UNL     1      48.766 -56.499 320.932  1.00  0.00     0.012 C 
ATOM      2  C   UNL     1      50.011 -56.804 320.046  1.00  0.00    -0.020 C 
ATOM      3  C   UNL     1      51.293 -56.059 320.490  1.00  0.00     0.003 C 
ATOM      4  C   UNL     1      51.570 -56.663 321.895  1.00  0.00     0.005 C 
ATOM      5  C   UNL     1      51.135 -58.141 321.730  1.00  0.00     0.015 C 
ATOM      6  C   UNL     1      50.655 -58.191 320.259  1.00  0.00     0.032 C 
ATOM      7  C   UNL     1      51.913 -58.042 319.438  1.00  0.00     0.139 C 
ATOM      8  O   UNL     1      52.499 -58.940 318.855  1.00  0.00    -0.299 OA
ATOM      9  C   UNL     1      52.389 -56.627 319.545  1.00  0.00     0.080 C 
ATOM     10  C   UNL     1      49.792 -59.408 319.905  1.00  0.00     0.020 C 
ATOM     11  C   UNL     1      49.590 -56.500 318.574  1.00  0.00     0.012 C 
ENDROOT
TORSDOF 0
ENDMDL
MODEL 8
REMARK VINA RESULT:     0.142      1.785      3.183
REMARK INTER + INTRA:           0.142
REMARK INTER:                   0.142
REMARK INTRA:                   0.000
REMARK UNBOUND:                 0.000
REMARK SMILES CC1(C)[C@H]2CC[C@]1(C)C(=O)C2
REMARK SMILES IDX 1 1 2 2 4 3 5 4 6 5 7 6 9 7 10 8 11 9 8 10 3 11
REMARK H PARENT
REMARK Flexibility Score: inf
ROOT
ATOM      1  C   UNL     1      51.648 -55.275 319.487  1.00  0.00     0.012 C 
ATOM      2  C   UNL     1      51.452 -56.535 320.383  1.00  0.00    -0.020 C 
ATOM      3  C   UNL     1      50.165 -56.498 321.241  1.00  0.00     0.003 C 
ATOM      4  C   UNL     1      49.040 -56.517 320.170  1.00  0.00     0.005 C 
ATOM      5  C   UNL     1      49.624 -57.435 319.068  1.00  0.00     0.015 C 
ATOM      6  C   UNL     1      51.010 -57.815 319.642  1.00  0.00     0.032 C 
ATOM      7  C   UNL     1      50.708 -58.721 320.810  1.00  0.00     0.139 C 
ATOM      8  O   UNL     1      50.819 -59.937 320.822  1.00  0.00    -0.299 OA
ATOM      9  C   UNL     1      50.144 -57.895 321.923  1.00  0.00     0.080 C 
ATOM     10  C   UNL     1      51.996 -58.387 318.617  1.00  0.00     0.020 C 
ATOM     11  C   UNL     1      52.759 -56.686 321.223  1.00  0.00     0.012 C 
ENDROOT
TORSDOF 0
ENDMDL
MODEL 9
REMARK VINA RESULT:     1.029      1.696      2.623
REMARK INTER + INTRA:           1.029
REMARK INTER:                   1.029
REMARK INTRA:                   0.000
REMARK UNBOUND:                 0.000
REMARK SMILES CC1(C)[C@H]2CC[C@]1(C)C(=O)C2
REMARK SMILES IDX 1 1 2 2 4 3 5 4 6 5 7 6 9 7 10 8 11 9 8 10 3 11
REMARK H PARENT
REMARK Flexibility Score: inf
ROOT
ATOM      1  C   UNL     1      50.103 -56.111 321.973  1.00  0.00     0.012 C 
ATOM      2  C   UNL     1      50.557 -57.342 321.131  1.00  0.00    -0.020 C 
ATOM      3  C   UNL     1      49.417 -57.997 320.316  1.00  0.00     0.003 C 
ATOM      4  C   UNL     1      49.025 -56.876 319.314  1.00  0.00     0.005 C 
ATOM      5  C   UNL     1      50.384 -56.202 318.997  1.00  0.00     0.015 C 
ATOM      6  C   UNL     1      51.375 -57.015 319.864  1.00  0.00     0.032 C 
ATOM      7  C   UNL     1      51.432 -58.375 319.212  1.00  0.00     0.139 C 
ATOM      8  O   UNL     1      52.335 -58.794 318.504  1.00  0.00    -0.299 OA
ATOM      9  C   UNL     1      50.147 -59.090 319.486  1.00  0.00     0.080 C 
ATOM     10  C   UNL     1      52.737 -56.345 320.083  1.00  0.00     0.020 C 
ATOM     11  C   UNL     1      51.257 -58.321 322.125  1.00  0.00     0.012 C 
ENDROOT
TORSDOF 0
ENDMDL
