MODEL 1
REMARK VINA RESULT:    -4.012      0.000      0.000
REMARK INTER + INTRA:          -4.679
REMARK INTER:                  -4.598
REMARK INTRA:                  -0.081
REMARK UNBOUND:                -0.081
REMARK SMILES COc1cc(C(=O)[O-])ccc1O
REMARK SMILES IDX 5 1 9 2 4 3 10 4 3 5 11 6 6 7 7 8 8 9 2 10 1 11 12 12
REMARK H PARENT 12 13
REMARK Flexibility Score: inf
ROOT
ATOM      1  C   UNL     1      63.586   4.742  21.876  1.00  0.00     0.001 A 
ATOM      2  C   UNL     1      63.088   4.218  23.082  1.00  0.00     0.014 A 
ATOM      3  C   UNL     1      64.567   5.747  21.922  1.00  0.00     0.060 A 
ATOM      4  C   UNL     1      63.562   4.690  24.307  1.00  0.00     0.051 A 
ATOM      5  C   UNL     1      65.050   6.228  23.157  1.00  0.00     0.161 A 
ATOM      6  C   UNL     1      64.538   5.690  24.352  1.00  0.00     0.157 A 
ENDROOT
BRANCH   1   7
ATOM      7  C   UNL     1      63.085   4.243  20.576  1.00  0.00     0.072 C 
ATOM      8  O   UNL     1      63.611   4.624  19.497  1.00  0.00    -0.545 OA
ATOM      9  O   UNL     1      62.024   3.345  20.528  1.00  0.00    -0.545 OA
ENDBRANCH   1   7
BRANCH   5  10
ATOM     10  O   UNL     1      66.030   7.231  23.233  1.00  0.00    -0.493 OA
ATOM     11  C   UNL     1      66.431   8.054  22.142  1.00  0.00     0.278 C 
ENDBRANCH   5  10
BRANCH   6  12
ATOM     12  O   UNL     1      64.987   6.136  25.594  1.00  0.00    -0.504 OA
ATOM     13  H   UNL     1      65.202   5.499  26.351  1.00  0.00     0.293 HD
ENDBRANCH   6  12
TORSDOF 3
ENDMDL
MODEL 2
REMARK VINA RESULT:    -3.891      7.382     10.337
REMARK INTER + INTRA:          -4.540
REMARK INTER:                  -4.454
REMARK INTRA:                  -0.087
REMARK UNBOUND:                -0.081
REMARK SMILES COc1cc(C(=O)[O-])ccc1O
REMARK SMILES IDX 5 1 9 2 4 3 10 4 3 5 11 6 6 7 7 8 8 9 2 10 1 11 12 12
REMARK H PARENT 12 13
REMARK Flexibility Score: inf
ROOT
ATOM      1  C   UNL     1      68.599  14.307  26.055  1.00  0.00     0.001 A 
ATOM      2  C   UNL     1      68.958  14.316  27.414  1.00  0.00     0.014 A 
ATOM      3  C   UNL     1      68.410  13.074  25.408  1.00  0.00     0.060 A 
ATOM      4  C   UNL     1      69.124  13.118  28.109  1.00  0.00     0.051 A 
ATOM      5  C   UNL     1      68.575  11.860  26.105  1.00  0.00     0.161 A 
ATOM      6  C   UNL     1      68.935  11.892  27.465  1.00  0.00     0.157 A 
ENDROOT
BRANCH   1   7
ATOM      7  C   UNL     1      68.423  15.577  25.315  1.00  0.00     0.072 C 
ATOM      8  O   UNL     1      67.301  16.148  25.281  1.00  0.00    -0.545 OA
ATOM      9  O   UNL     1      69.495  16.158  24.647  1.00  0.00    -0.545 OA
ENDBRANCH   1   7
BRANCH   5  10
ATOM     10  O   UNL     1      68.392  10.614  25.485  1.00  0.00    -0.493 OA
ATOM     11  C   UNL     1      67.188  10.196  24.848  1.00  0.00     0.278 C 
ENDBRANCH   5  10
BRANCH   6  12
ATOM     12  O   UNL     1      69.110  10.715  28.193  1.00  0.00    -0.504 OA
ATOM     13  H   UNL     1      68.607  10.533  29.052  1.00  0.00     0.293 HD
ENDBRANCH   6  12
TORSDOF 3
ENDMDL
MODEL 3
REMARK VINA RESULT:    -3.725      9.304     10.714
REMARK INTER + INTRA:          -4.350
REMARK INTER:                  -4.265
REMARK INTRA:                  -0.085
REMARK UNBOUND:                -0.081
REMARK SMILES COc1cc(C(=O)[O-])ccc1O
REMARK SMILES IDX 5 1 9 2 4 3 10 4 3 5 11 6 6 7 7 8 8 9 2 10 1 11 12 12
REMARK H PARENT 12 13
REMARK Flexibility Score: inf
ROOT
ATOM      1  C   UNL     1      68.963  13.426  26.394  1.00  0.00     0.001 A 
ATOM      2  C   UNL     1      68.503  12.110  26.213  1.00  0.00     0.014 A 
ATOM      3  C   UNL     1      69.126  13.918  27.700  1.00  0.00     0.060 A 
ATOM      4  C   UNL     1      68.212  11.305  27.315  1.00  0.00     0.051 A 
ATOM      5  C   UNL     1      68.835  13.109  28.818  1.00  0.00     0.161 A 
ATOM      6  C   UNL     1      68.375  11.795  28.614  1.00  0.00     0.157 A 
ENDROOT
BRANCH   1   7
ATOM      7  C   UNL     1      69.272  14.282  25.227  1.00  0.00     0.072 C 
ATOM      8  O   UNL     1      69.995  13.851  24.289  1.00  0.00    -0.545 OA
ATOM      9  O   UNL     1      68.767  15.575  25.148  1.00  0.00    -0.545 OA
ENDBRANCH   1   7
BRANCH   5  10
ATOM     10  O   UNL     1      68.989  13.574  30.134  1.00  0.00    -0.493 OA
ATOM     11  C   UNL     1      70.184  13.453  30.900  1.00  0.00     0.278 C 
ENDBRANCH   5  10
BRANCH   6  12
ATOM     12  O   UNL     1      68.074  10.961  29.691  1.00  0.00    -0.504 OA
ATOM     13  H   UNL     1      67.192  11.013  30.184  1.00  0.00     0.293 HD
ENDBRANCH   6  12
TORSDOF 3
ENDMDL
MODEL 4
REMARK VINA RESULT:    -3.693      9.214     10.934
REMARK INTER + INTRA:          -4.314
REMARK INTER:                  -4.218
REMARK INTRA:                  -0.095
REMARK UNBOUND:                -0.081
REMARK SMILES COc1cc(C(=O)[O-])ccc1O
REMARK SMILES IDX 5 1 9 2 4 3 10 4 3 5 11 6 6 7 7 8 8 9 2 10 1 11 12 12
REMARK H PARENT 12 13
REMARK Flexibility Score: inf
ROOT
ATOM      1  C   UNL     1      68.559  14.250  26.111  1.00  0.00     0.001 A 
ATOM      2  C   UNL     1      68.563  13.008  25.453  1.00  0.00     0.014 A 
ATOM      3  C   UNL     1      68.760  14.287  27.501  1.00  0.00     0.060 A 
ATOM      4  C   UNL     1      68.764  11.829  26.171  1.00  0.00     0.051 A 
ATOM      5  C   UNL     1      68.965  13.099  28.232  1.00  0.00     0.161 A 
ATOM      6  C   UNL     1      68.964  11.867  27.554  1.00  0.00     0.157 A 
ENDROOT
BRANCH   1   7
ATOM      7  C   UNL     1      68.347  15.503  25.351  1.00  0.00     0.072 C 
ATOM      8  O   UNL     1      67.183  15.886  25.060  1.00  0.00    -0.545 OA
ATOM      9  O   UNL     1      69.431  16.275  24.947  1.00  0.00    -0.545 OA
ENDBRANCH   1   7
BRANCH   5  10
ATOM     10  O   UNL     1      69.168  13.106  29.622  1.00  0.00    -0.493 OA
ATOM     11  C   UNL     1      70.422  13.343  30.254  1.00  0.00     0.278 C 
ENDBRANCH   5  10
BRANCH   6  12
ATOM     12  O   UNL     1      69.162  10.667  28.238  1.00  0.00    -0.504 OA
ATOM     13  H   UNL     1      69.009   9.766  27.803  1.00  0.00     0.293 HD
ENDBRANCH   6  12
TORSDOF 3
ENDMDL
MODEL 5
REMARK VINA RESULT:    -3.501      8.156      9.299
REMARK INTER + INTRA:          -4.094
REMARK INTER:                  -4.010
REMARK INTRA:                  -0.083
REMARK UNBOUND:                -0.081
REMARK SMILES COc1cc(C(=O)[O-])ccc1O
REMARK SMILES IDX 5 1 9 2 4 3 10 4 3 5 11 6 6 7 7 8 8 9 2 10 1 11 12 12
REMARK H PARENT 12 13
REMARK Flexibility Score: inf
ROOT
ATOM      1  C   UNL     1      71.945   8.707  21.617  1.00  0.00     0.001 A 
ATOM      2  C   UNL     1      71.400   9.724  22.419  1.00  0.00     0.014 A 
ATOM      3  C   UNL     1      73.073   8.006  22.076  1.00  0.00     0.060 A 
ATOM      4  C   UNL     1      71.971  10.033  23.654  1.00  0.00     0.051 A 
ATOM      5  C   UNL     1      73.654   8.313  23.323  1.00  0.00     0.161 A 
ATOM      6  C   UNL     1      73.093   9.335  24.110  1.00  0.00     0.157 A 
ENDROOT
BRANCH   1   7
ATOM      7  C   UNL     1      71.340   8.378  20.306  1.00  0.00     0.072 C 
ATOM      8  O   UNL     1      70.177   8.768  20.020  1.00  0.00    -0.545 OA
ATOM      9  O   UNL     1      72.049   7.632  19.371  1.00  0.00    -0.545 OA
ENDBRANCH   1   7
BRANCH   5  10
ATOM     10  O   UNL     1      74.781   7.629  23.808  1.00  0.00    -0.493 OA
ATOM     11  C   UNL     1      75.046   6.247  23.585  1.00  0.00     0.278 C 
ENDBRANCH   5  10
BRANCH   6  12
ATOM     12  O   UNL     1      73.637   9.671  25.350  1.00  0.00    -0.504 OA
ATOM     13  H   UNL     1      73.357   9.208  26.206  1.00  0.00     0.293 HD
ENDBRANCH   6  12
TORSDOF 3
ENDMDL
MODEL 6
REMARK VINA RESULT:    -3.450      7.529      9.781
REMARK INTER + INTRA:          -4.035
REMARK INTER:                  -3.938
REMARK INTRA:                  -0.097
REMARK UNBOUND:                -0.081
REMARK SMILES COc1cc(C(=O)[O-])ccc1O
REMARK SMILES IDX 5 1 9 2 4 3 10 4 3 5 11 6 6 7 7 8 8 9 2 10 1 11 12 12
REMARK H PARENT 12 13
REMARK Flexibility Score: inf
ROOT
ATOM      1  C   UNL     1      68.500  11.787  26.362  1.00  0.00     0.001 A 
ATOM      2  C   UNL     1      68.324  11.334  27.681  1.00  0.00     0.014 A 
ATOM      3  C   UNL     1      68.764  13.149  26.137  1.00  0.00     0.060 A 
ATOM      4  C   UNL     1      68.410  12.225  28.751  1.00  0.00     0.051 A 
ATOM      5  C   UNL     1      68.853  14.054  27.215  1.00  0.00     0.161 A 
ATOM      6  C   UNL     1      68.673  13.579  28.527  1.00  0.00     0.157 A 
ENDROOT
BRANCH   1   7
ATOM      7  C   UNL     1      68.409  10.844  25.225  1.00  0.00     0.072 C 
ATOM      8  O   UNL     1      67.322  10.269  24.954  1.00  0.00    -0.545 OA
ATOM      9  O   UNL     1      69.525  10.579  24.438  1.00  0.00    -0.545 OA
ENDBRANCH   1   7
BRANCH   5  10
ATOM     10  O   UNL     1      69.115  15.420  27.021  1.00  0.00    -0.493 OA
ATOM     11  C   UNL     1      68.138  16.386  26.646  1.00  0.00     0.278 C 
ENDBRANCH   5  10
BRANCH   6  12
ATOM     12  O   UNL     1      68.752  14.440  29.622  1.00  0.00    -0.504 OA
ATOM     13  H   UNL     1      68.865  14.100  30.569  1.00  0.00     0.293 HD
ENDBRANCH   6  12
TORSDOF 3
ENDMDL
MODEL 7
REMARK VINA RESULT:    -3.424      9.087     10.994
REMARK INTER + INTRA:          -4.005
REMARK INTER:                  -3.914
REMARK INTRA:                  -0.091
REMARK UNBOUND:                -0.081
REMARK SMILES COc1cc(C(=O)[O-])ccc1O
REMARK SMILES IDX 5 1 9 2 4 3 10 4 3 5 11 6 6 7 7 8 8 9 2 10 1 11 12 12
REMARK H PARENT 12 13
REMARK Flexibility Score: inf
ROOT
ATOM      1  C   UNL     1      74.142   9.052  24.909  1.00  0.00     0.001 A 
ATOM      2  C   UNL     1      74.803   7.955  24.329  1.00  0.00     0.014 A 
ATOM      3  C   UNL     1      73.017   9.591  24.263  1.00  0.00     0.060 A 
ATOM      4  C   UNL     1      74.347   7.410  23.128  1.00  0.00     0.051 A 
ATOM      5  C   UNL     1      72.551   9.043  23.050  1.00  0.00     0.161 A 
ATOM      6  C   UNL     1      73.227   7.946  22.486  1.00  0.00     0.157 A 
ENDROOT
BRANCH   1   7
ATOM      7  C   UNL     1      74.624   9.632  26.183  1.00  0.00     0.072 C 
ATOM      8  O   UNL     1      74.924  10.853  26.259  1.00  0.00    -0.545 OA
ATOM      9  O   UNL     1      74.752   8.835  27.316  1.00  0.00    -0.545 OA
ENDBRANCH   1   7
BRANCH   5  10
ATOM     10  O   UNL     1      71.429   9.561  22.382  1.00  0.00    -0.493 OA
ATOM     11  C   UNL     1      71.471  10.624  21.435  1.00  0.00     0.278 C 
ENDBRANCH   5  10
BRANCH   6  12
ATOM     12  O   UNL     1      72.801   7.375  21.287  1.00  0.00    -0.504 OA
ATOM     13  H   UNL     1      72.845   7.872  20.407  1.00  0.00     0.293 HD
ENDBRANCH   6  12
TORSDOF 3
ENDMDL
MODEL 8
REMARK VINA RESULT:    -3.413      8.387      9.914
REMARK INTER + INTRA:          -3.993
REMARK INTER:                  -3.894
REMARK INTRA:                  -0.099
REMARK UNBOUND:                -0.081
REMARK SMILES COc1cc(C(=O)[O-])ccc1O
REMARK SMILES IDX 5 1 9 2 4 3 10 4 3 5 11 6 6 7 7 8 8 9 2 10 1 11 12 12
REMARK H PARENT 12 13
REMARK Flexibility Score: inf
ROOT
ATOM      1  C   UNL     1      71.824  11.203  21.734  1.00  0.00     0.001 A 
ATOM      2  C   UNL     1      72.863  10.948  22.645  1.00  0.00     0.014 A 
ATOM      3  C   UNL     1      71.273  10.132  21.009  1.00  0.00     0.060 A 
ATOM      4  C   UNL     1      73.340   9.649  22.827  1.00  0.00     0.051 A 
ATOM      5  C   UNL     1      71.750   8.817  21.190  1.00  0.00     0.161 A 
ATOM      6  C   UNL     1      72.791   8.585  22.107  1.00  0.00     0.157 A 
ENDROOT
BRANCH   1   7
ATOM      7  C   UNL     1      71.316  12.579  21.538  1.00  0.00     0.072 C 
ATOM      8  O   UNL     1      71.171  13.051  20.379  1.00  0.00    -0.545 OA
ATOM      9  O   UNL     1      70.992  13.373  22.633  1.00  0.00    -0.545 OA
ENDBRANCH   1   7
BRANCH   5  10
ATOM     10  O   UNL     1      71.219   7.728  20.481  1.00  0.00    -0.493 OA
ATOM     11  C   UNL     1      71.584   7.374  19.150  1.00  0.00     0.278 C 
ENDBRANCH   5  10
BRANCH   6  12
ATOM     12  O   UNL     1      73.294   7.300  22.317  1.00  0.00    -0.504 OA
ATOM     13  H   UNL     1      72.788   6.603  22.848  1.00  0.00     0.293 HD
ENDBRANCH   6  12
TORSDOF 3
ENDMDL
MODEL 9
REMARK VINA RESULT:    -3.382      7.716     10.248
REMARK INTER + INTRA:          -3.957
REMARK INTER:                  -3.861
REMARK INTRA:                  -0.096
REMARK UNBOUND:                -0.081
REMARK SMILES COc1cc(C(=O)[O-])ccc1O
REMARK SMILES IDX 5 1 9 2 4 3 10 4 3 5 11 6 6 7 7 8 8 9 2 10 1 11 12 12
REMARK H PARENT 12 13
REMARK Flexibility Score: inf
ROOT
ATOM      1  C   UNL     1      68.717  12.173  26.141  1.00  0.00     0.001 A 
ATOM      2  C   UNL     1      68.679  13.390  25.439  1.00  0.00     0.014 A 
ATOM      3  C   UNL     1      68.769  12.197  27.545  1.00  0.00     0.060 A 
ATOM      4  C   UNL     1      68.693  14.604  26.126  1.00  0.00     0.051 A 
ATOM      5  C   UNL     1      68.782  13.420  28.246  1.00  0.00     0.161 A 
ATOM      6  C   UNL     1      68.744  14.627  27.523  1.00  0.00     0.157 A 
ENDROOT
BRANCH   1   7
ATOM      7  C   UNL     1      68.703  10.884  25.414  1.00  0.00     0.072 C 
ATOM      8  O   UNL     1      67.613  10.313  25.141  1.00  0.00    -0.545 OA
ATOM      9  O   UNL     1      69.894  10.284  25.020  1.00  0.00    -0.545 OA
ENDBRANCH   1   7
BRANCH   5  10
ATOM     10  O   UNL     1      68.833  13.475  29.648  1.00  0.00    -0.493 OA
ATOM     11  C   UNL     1      70.011  13.271  30.423  1.00  0.00     0.278 C 
ENDBRANCH   5  10
BRANCH   6  12
ATOM     12  O   UNL     1      68.756  15.859  28.176  1.00  0.00    -0.504 OA
ATOM     13  H   UNL     1      68.091  16.091  28.903  1.00  0.00     0.293 HD
ENDBRANCH   6  12
TORSDOF 3
ENDMDL
