MODEL 1
REMARK VINA RESULT:    -4.120      0.000      0.000
REMARK INTER + INTRA:          -4.919
REMARK INTER:                  -4.722
REMARK INTRA:                  -0.197
REMARK UNBOUND:                -0.197
REMARK SMILES O=C([O-])C=Cc1ccc(O)cc1
REMARK SMILES IDX 6 1 7 2 12 3 8 4 11 5 9 6 5 7 4 8 2 9 1 10 3 11 10 12
REMARK H PARENT 10 13
REMARK Flexibility Score: inf
ROOT
ATOM      1  C   UNL     1     -30.886 -20.784 -33.443  1.00  0.00    -0.025 A 
ATOM      2  C   UNL     1     -30.968 -22.123 -33.855  1.00  0.00     0.012 A 
ATOM      3  C   UNL     1     -31.877 -19.875 -33.857  1.00  0.00     0.012 A 
ATOM      4  C   UNL     1     -32.051 -22.560 -34.623  1.00  0.00     0.047 A 
ATOM      5  C   UNL     1     -32.959 -20.315 -34.625  1.00  0.00     0.047 A 
ATOM      6  C   UNL     1     -33.051 -21.660 -35.008  1.00  0.00     0.115 A 
ENDROOT
BRANCH   1   7
ATOM      7  C   UNL     1     -29.706 -20.333 -32.676  1.00  0.00     0.010 C 
ATOM      8  C   UNL     1     -29.536 -20.481 -31.353  1.00  0.00     0.025 C 
BRANCH   8   9
ATOM      9  C   UNL     1     -30.399 -21.282 -30.465  1.00  0.00     0.064 C 
ATOM     10  O   UNL     1     -31.124 -20.697 -29.619  1.00  0.00    -0.545 OA
ATOM     11  O   UNL     1     -30.375 -22.671 -30.489  1.00  0.00    -0.545 OA
ENDBRANCH   8   9
ENDBRANCH   1   7
BRANCH   6  12
ATOM     12  O   UNL     1     -34.125 -22.109 -35.772  1.00  0.00    -0.508 OA
ATOM     13  H   UNL     1     -34.761 -21.463 -36.222  1.00  0.00     0.293 HD
ENDBRANCH   6  12
TORSDOF 3
ENDMDL
MODEL 2
REMARK VINA RESULT:    -3.656      2.423      3.366
REMARK INTER + INTRA:          -4.387
REMARK INTER:                  -4.329
REMARK INTRA:                  -0.058
REMARK UNBOUND:                -0.197
REMARK SMILES O=C([O-])C=Cc1ccc(O)cc1
REMARK SMILES IDX 6 1 7 2 12 3 8 4 11 5 9 6 5 7 4 8 2 9 1 10 3 11 10 12
REMARK H PARENT 10 13
REMARK Flexibility Score: inf
ROOT
ATOM      1  C   UNL     1     -31.862 -22.829 -35.012  1.00  0.00    -0.025 A 
ATOM      2  C   UNL     1     -33.004 -22.099 -35.374  1.00  0.00     0.012 A 
ATOM      3  C   UNL     1     -31.126 -23.495 -36.009  1.00  0.00     0.012 A 
ATOM      4  C   UNL     1     -33.375 -21.991 -36.718  1.00  0.00     0.047 A 
ATOM      5  C   UNL     1     -31.500 -23.384 -37.352  1.00  0.00     0.047 A 
ATOM      6  C   UNL     1     -32.624 -22.628 -37.710  1.00  0.00     0.115 A 
ENDROOT
BRANCH   1   7
ATOM      7  C   UNL     1     -31.519 -22.974 -33.583  1.00  0.00     0.010 C 
ATOM      8  C   UNL     1     -30.869 -22.062 -32.843  1.00  0.00     0.025 C 
BRANCH   8   9
ATOM      9  C   UNL     1     -30.554 -20.684 -33.267  1.00  0.00     0.064 C 
ATOM     10  O   UNL     1     -31.495 -19.875 -33.476  1.00  0.00    -0.545 OA
ATOM     11  O   UNL     1     -29.248 -20.281 -33.514  1.00  0.00    -0.545 OA
ENDBRANCH   8   9
ENDBRANCH   1   7
BRANCH   6  12
ATOM     12  O   UNL     1     -33.005 -22.511 -39.045  1.00  0.00    -0.508 OA
ATOM     13  H   UNL     1     -33.334 -23.309 -39.574  1.00  0.00     0.293 HD
ENDBRANCH   6  12
TORSDOF 3
ENDMDL
MODEL 3
REMARK VINA RESULT:    -3.573      2.321      5.298
REMARK INTER + INTRA:          -4.292
REMARK INTER:                  -4.207
REMARK INTRA:                  -0.086
REMARK UNBOUND:                -0.197
REMARK SMILES O=C([O-])C=Cc1ccc(O)cc1
REMARK SMILES IDX 6 1 7 2 12 3 8 4 11 5 9 6 5 7 4 8 2 9 1 10 3 11 10 12
REMARK H PARENT 10 13
REMARK Flexibility Score: inf
ROOT
ATOM      1  C   UNL     1     -32.783 -21.966 -35.244  1.00  0.00    -0.025 A 
ATOM      2  C   UNL     1     -31.866 -22.675 -34.454  1.00  0.00     0.012 A 
ATOM      3  C   UNL     1     -32.984 -20.596 -35.002  1.00  0.00     0.012 A 
ATOM      4  C   UNL     1     -31.120 -22.014 -33.472  1.00  0.00     0.047 A 
ATOM      5  C   UNL     1     -32.238 -19.937 -34.021  1.00  0.00     0.047 A 
ATOM      6  C   UNL     1     -31.300 -20.644 -33.255  1.00  0.00     0.115 A 
ENDROOT
BRANCH   1   7
ATOM      7  C   UNL     1     -33.597 -22.696 -36.238  1.00  0.00     0.010 C 
ATOM      8  C   UNL     1     -33.144 -23.196 -37.398  1.00  0.00     0.025 C 
BRANCH   8   9
ATOM      9  C   UNL     1     -31.726 -23.277 -37.797  1.00  0.00     0.064 C 
ATOM     10  O   UNL     1     -31.289 -22.494 -38.680  1.00  0.00    -0.545 OA
ATOM     11  O   UNL     1     -30.879 -24.247 -37.275  1.00  0.00    -0.545 OA
ENDBRANCH   8   9
ENDBRANCH   1   7
BRANCH   6  12
ATOM     12  O   UNL     1     -30.551 -19.998 -32.276  1.00  0.00    -0.508 OA
ATOM     13  H   UNL     1     -29.972 -20.514 -31.625  1.00  0.00     0.293 HD
ENDBRANCH   6  12
TORSDOF 3
ENDMDL
MODEL 4
REMARK VINA RESULT:    -3.474      2.361      5.453
REMARK INTER + INTRA:          -4.178
REMARK INTER:                  -4.143
REMARK INTRA:                  -0.035
REMARK UNBOUND:                -0.197
REMARK SMILES O=C([O-])C=Cc1ccc(O)cc1
REMARK SMILES IDX 6 1 7 2 12 3 8 4 11 5 9 6 5 7 4 8 2 9 1 10 3 11 10 12
REMARK H PARENT 10 13
REMARK Flexibility Score: inf
ROOT
ATOM      1  C   UNL     1     -32.853 -22.053 -35.245  1.00  0.00    -0.025 A 
ATOM      2  C   UNL     1     -33.058 -20.674 -35.088  1.00  0.00     0.012 A 
ATOM      3  C   UNL     1     -31.868 -22.694 -34.472  1.00  0.00     0.012 A 
ATOM      4  C   UNL     1     -32.329 -19.956 -34.135  1.00  0.00     0.047 A 
ATOM      5  C   UNL     1     -31.141 -21.974 -33.520  1.00  0.00     0.047 A 
ATOM      6  C   UNL     1     -31.372 -20.602 -33.347  1.00  0.00     0.115 A 
ENDROOT
BRANCH   1   7
ATOM      7  C   UNL     1     -33.597 -22.781 -36.294  1.00  0.00     0.010 C 
ATOM      8  C   UNL     1     -33.073 -23.244 -37.439  1.00  0.00     0.025 C 
BRANCH   8   9
ATOM      9  C   UNL     1     -31.636 -23.280 -37.769  1.00  0.00     0.064 C 
ATOM     10  O   UNL     1     -31.182 -22.481 -38.629  1.00  0.00    -0.545 OA
ATOM     11  O   UNL     1     -30.785 -24.223 -37.207  1.00  0.00    -0.545 OA
ENDBRANCH   8   9
ENDBRANCH   1   7
BRANCH   6  12
ATOM     12  O   UNL     1     -30.654 -19.875 -32.401  1.00  0.00    -0.508 OA
ATOM     13  H   UNL     1     -29.830 -19.344 -32.655  1.00  0.00     0.293 HD
ENDBRANCH   6  12
TORSDOF 3
ENDMDL
MODEL 5
REMARK VINA RESULT:    -3.466      1.680      4.816
REMARK INTER + INTRA:          -4.169
REMARK INTER:                  -4.468
REMARK INTRA:                   0.299
REMARK UNBOUND:                -0.197
REMARK SMILES O=C([O-])C=Cc1ccc(O)cc1
REMARK SMILES IDX 6 1 7 2 12 3 8 4 11 5 9 6 5 7 4 8 2 9 1 10 3 11 10 12
REMARK H PARENT 10 13
REMARK Flexibility Score: inf
ROOT
ATOM      1  C   UNL     1     -30.701 -22.005 -33.361  1.00  0.00    -0.025 A 
ATOM      2  C   UNL     1     -30.928 -22.079 -31.979  1.00  0.00     0.012 A 
ATOM      3  C   UNL     1     -29.671 -21.179 -33.846  1.00  0.00     0.012 A 
ATOM      4  C   UNL     1     -30.105 -21.381 -31.090  1.00  0.00     0.047 A 
ATOM      5  C   UNL     1     -28.850 -20.482 -32.955  1.00  0.00     0.047 A 
ATOM      6  C   UNL     1     -29.062 -20.584 -31.574  1.00  0.00     0.115 A 
ENDROOT
BRANCH   1   7
ATOM      7  C   UNL     1     -31.616 -22.709 -34.284  1.00  0.00     0.010 C 
ATOM      8  C   UNL     1     -32.664 -22.155 -34.912  1.00  0.00     0.025 C 
BRANCH   8   9
ATOM      9  C   UNL     1     -32.976 -20.714 -34.947  1.00  0.00     0.064 C 
ATOM     10  O   UNL     1     -33.483 -20.219 -35.987  1.00  0.00    -0.545 OA
ATOM     11  O   UNL     1     -32.653 -19.875 -33.887  1.00  0.00    -0.545 OA
ENDBRANCH   8   9
ENDBRANCH   1   7
BRANCH   6  12
ATOM     12  O   UNL     1     -28.250 -19.895 -30.677  1.00  0.00    -0.508 OA
ATOM     13  H   UNL     1     -27.336 -19.550 -30.947  1.00  0.00     0.293 HD
ENDBRANCH   6  12
TORSDOF 3
ENDMDL
MODEL 6
REMARK VINA RESULT:    -3.339      1.918      3.012
REMARK INTER + INTRA:          -4.023
REMARK INTER:                  -4.563
REMARK INTRA:                   0.540
REMARK UNBOUND:                -0.197
REMARK SMILES O=C([O-])C=Cc1ccc(O)cc1
REMARK SMILES IDX 6 1 7 2 12 3 8 4 11 5 9 6 5 7 4 8 2 9 1 10 3 11 10 12
REMARK H PARENT 10 13
REMARK Flexibility Score: inf
ROOT
ATOM      1  C   UNL     1     -32.673 -21.289 -35.047  1.00  0.00    -0.025 A 
ATOM      2  C   UNL     1     -33.377 -21.256 -36.260  1.00  0.00     0.012 A 
ATOM      3  C   UNL     1     -32.118 -22.503 -34.607  1.00  0.00     0.012 A 
ATOM      4  C   UNL     1     -33.479 -22.407 -37.048  1.00  0.00     0.047 A 
ATOM      5  C   UNL     1     -32.221 -23.652 -35.396  1.00  0.00     0.047 A 
ATOM      6  C   UNL     1     -32.899 -23.606 -36.622  1.00  0.00     0.115 A 
ENDROOT
BRANCH   1   7
ATOM      7  C   UNL     1     -32.623 -20.075 -34.206  1.00  0.00     0.010 C 
ATOM      8  C   UNL     1     -31.783 -19.875 -33.178  1.00  0.00     0.025 C 
BRANCH   8   9
ATOM      9  C   UNL     1     -30.642 -20.741 -32.827  1.00  0.00     0.064 C 
ATOM     10  O   UNL     1     -30.748 -21.537 -31.858  1.00  0.00    -0.545 OA
ATOM     11  O   UNL     1     -29.426 -20.645 -33.493  1.00  0.00    -0.545 OA
ENDBRANCH   8   9
ENDBRANCH   1   7
BRANCH   6  12
ATOM     12  O   UNL     1     -33.008 -24.744 -37.417  1.00  0.00    -0.508 OA
ATOM     13  H   UNL     1     -32.338 -24.943 -38.150  1.00  0.00     0.293 HD
ENDBRANCH   6  12
TORSDOF 3
ENDMDL
MODEL 7
REMARK VINA RESULT:    -3.339      4.049      6.508
REMARK INTER + INTRA:          -4.023
REMARK INTER:                  -4.226
REMARK INTRA:                   0.203
REMARK UNBOUND:                -0.197
REMARK SMILES O=C([O-])C=Cc1ccc(O)cc1
REMARK SMILES IDX 6 1 7 2 12 3 8 4 11 5 9 6 5 7 4 8 2 9 1 10 3 11 10 12
REMARK H PARENT 10 13
REMARK Flexibility Score: inf
ROOT
ATOM      1  C   UNL     1     -31.784 -23.794 -37.307  1.00  0.00    -0.025 A 
ATOM      2  C   UNL     1     -32.550 -22.890 -38.059  1.00  0.00     0.012 A 
ATOM      3  C   UNL     1     -31.771 -23.682 -35.905  1.00  0.00     0.012 A 
ATOM      4  C   UNL     1     -33.332 -21.924 -37.419  1.00  0.00     0.047 A 
ATOM      5  C   UNL     1     -32.554 -22.715 -35.268  1.00  0.00     0.047 A 
ATOM      6  C   UNL     1     -33.340 -21.835 -36.024  1.00  0.00     0.115 A 
ENDROOT
BRANCH   1   7
ATOM      7  C   UNL     1     -30.925 -24.772 -38.005  1.00  0.00     0.010 C 
ATOM      8  C   UNL     1     -31.278 -26.025 -38.329  1.00  0.00     0.025 C 
BRANCH   8   9
ATOM      9  C   UNL     1     -32.639 -26.585 -38.220  1.00  0.00     0.064 C 
ATOM     10  O   UNL     1     -33.366 -26.249 -37.249  1.00  0.00    -0.545 OA
ATOM     11  O   UNL     1     -33.110 -27.529 -39.123  1.00  0.00    -0.545 OA
ENDBRANCH   8   9
ENDBRANCH   1   7
BRANCH   6  12
ATOM     12  O   UNL     1     -34.125 -20.869 -35.400  1.00  0.00    -0.508 OA
ATOM     13  H   UNL     1     -33.802 -20.374 -34.578  1.00  0.00     0.293 HD
ENDBRANCH   6  12
TORSDOF 3
ENDMDL
MODEL 8
REMARK VINA RESULT:    -2.916      3.508      5.232
REMARK INTER + INTRA:          -3.539
REMARK INTER:                  -3.864
REMARK INTRA:                   0.325
REMARK UNBOUND:                -0.197
REMARK SMILES O=C([O-])C=Cc1ccc(O)cc1
REMARK SMILES IDX 6 1 7 2 12 3 8 4 11 5 9 6 5 7 4 8 2 9 1 10 3 11 10 12
REMARK H PARENT 10 13
REMARK Flexibility Score: inf
ROOT
ATOM      1  C   UNL     1     -33.108 -22.761 -37.492  1.00  0.00    -0.025 A 
ATOM      2  C   UNL     1     -33.364 -23.993 -36.872  1.00  0.00     0.012 A 
ATOM      3  C   UNL     1     -31.933 -22.603 -38.249  1.00  0.00     0.012 A 
ATOM      4  C   UNL     1     -32.488 -25.069 -37.051  1.00  0.00     0.047 A 
ATOM      5  C   UNL     1     -31.059 -23.680 -38.426  1.00  0.00     0.047 A 
ATOM      6  C   UNL     1     -31.337 -24.918 -37.829  1.00  0.00     0.115 A 
ENDROOT
BRANCH   1   7
ATOM      7  C   UNL     1     -34.019 -21.624 -37.247  1.00  0.00     0.010 C 
ATOM      8  C   UNL     1     -34.054 -20.883 -36.128  1.00  0.00     0.025 C 
BRANCH   8   9
ATOM      9  C   UNL     1     -33.071 -20.946 -35.030  1.00  0.00     0.064 C 
ATOM     10  O   UNL     1     -32.647 -19.875 -34.523  1.00  0.00    -0.545 OA
ATOM     11  O   UNL     1     -32.547 -22.155 -34.593  1.00  0.00    -0.545 OA
ENDBRANCH   8   9
ENDBRANCH   1   7
BRANCH   6  12
ATOM     12  O   UNL     1     -30.474 -25.997 -37.999  1.00  0.00    -0.508 OA
ATOM     13  H   UNL     1     -29.678 -26.141 -37.389  1.00  0.00     0.293 HD
ENDBRANCH   6  12
TORSDOF 3
ENDMDL
