MODEL 1
REMARK VINA RESULT:     0.636      0.000      0.000
REMARK INTER + INTRA:           0.644
REMARK INTER:                   0.860
REMARK INTRA:                  -0.215
REMARK UNBOUND:                -0.215
REMARK SMILES CCCCCCCC(=O)[O-]
REMARK SMILES IDX 5 1 6 2 7 3 8 4 9 5 10 6 4 7 3 8 2 9 1 10
REMARK H PARENT
REMARK Flexibility Score: inf
ROOT
ATOM      1  C   UNL     1     104.680 106.338 103.409  1.00  0.00     0.000 C 
ENDROOT
BRANCH   1   2
ATOM      2  C   UNL     1     104.697 105.487 104.692  1.00  0.00     0.006 C 
BRANCH   2   3
ATOM      3  C   UNL     1     104.666 106.303 105.996  1.00  0.00     0.053 C 
BRANCH   3   4
ATOM      4  C   UNL     1     104.425 105.439 107.195  1.00  0.00     0.041 C 
ATOM      5  O   UNL     1     104.605 105.899 108.353  1.00  0.00    -0.550 OA
ATOM      6  O   UNL     1     104.032 104.118 107.033  1.00  0.00    -0.550 OA
ENDBRANCH   3   4
ENDBRANCH   2   3
ENDBRANCH   1   2
BRANCH   1   7
ATOM      7  C   UNL     1     104.201 105.548 102.179  1.00  0.00     0.000 C 
BRANCH   7   8
ATOM      8  C   UNL     1     104.519 104.047 102.281  1.00  0.00    -0.000 C 
BRANCH   8   9
ATOM      9  C   UNL     1     103.255 103.174 102.297  1.00  0.00    -0.003 C 
ATOM     10  C   UNL     1     103.592 101.728 102.654  1.00  0.00     0.004 C 
ENDBRANCH   8   9
ENDBRANCH   7   8
ENDBRANCH   1   7
TORSDOF 6
ENDMDL
MODEL 2
REMARK VINA RESULT:     0.649      1.813      3.336
REMARK INTER + INTRA:           0.662
REMARK INTER:                   0.879
REMARK INTRA:                  -0.217
REMARK UNBOUND:                -0.215
REMARK SMILES CCCCCCCC(=O)[O-]
REMARK SMILES IDX 5 1 6 2 7 3 8 4 9 5 10 6 4 7 3 8 2 9 1 10
REMARK H PARENT
REMARK Flexibility Score: inf
ROOT
ATOM      1  C   UNL     1     103.295 101.984 103.376  1.00  0.00     0.000 C 
ENDROOT
BRANCH   1   2
ATOM      2  C   UNL     1     103.266 102.810 104.674  1.00  0.00     0.006 C 
BRANCH   2   3
ATOM      3  C   UNL     1     103.444 101.983 105.958  1.00  0.00     0.053 C 
BRANCH   3   4
ATOM      4  C   UNL     1     103.568 102.848 107.174  1.00  0.00     0.041 C 
ATOM      5  O   UNL     1     103.308 102.380 108.314  1.00  0.00    -0.550 OA
ATOM      6  O   UNL     1     103.937 104.180 107.045  1.00  0.00    -0.550 OA
ENDBRANCH   3   4
ENDBRANCH   2   3
ENDBRANCH   1   2
BRANCH   1   7
ATOM      7  C   UNL     1     103.867 102.769 102.183  1.00  0.00     0.000 C 
BRANCH   7   8
ATOM      8  C   UNL     1     103.522 104.266 102.243  1.00  0.00    -0.000 C 
BRANCH   8   9
ATOM      9  C   UNL     1     104.770 105.158 102.336  1.00  0.00    -0.003 C 
ATOM     10  C   UNL     1     104.389 106.602 102.656  1.00  0.00     0.004 C 
ENDBRANCH   8   9
ENDBRANCH   7   8
ENDBRANCH   1   7
TORSDOF 6
ENDMDL
MODEL 3
REMARK VINA RESULT:     0.714      3.864      5.792
REMARK INTER + INTRA:           0.750
REMARK INTER:                   0.911
REMARK INTRA:                  -0.161
REMARK UNBOUND:                -0.215
REMARK SMILES CCCCCCCC(=O)[O-]
REMARK SMILES IDX 5 1 6 2 7 3 8 4 9 5 10 6 4 7 3 8 2 9 1 10
REMARK H PARENT
REMARK Flexibility Score: inf
ROOT
ATOM      1  C   UNL     1     103.336 101.981  98.645  1.00  0.00     0.000 C 
ENDROOT
BRANCH   1   2
ATOM      2  C   UNL     1     103.300 102.833  99.927  1.00  0.00     0.006 C 
BRANCH   2   3
ATOM      3  C   UNL     1     103.509 102.035 101.225  1.00  0.00     0.053 C 
BRANCH   3   4
ATOM      4  C   UNL     1     103.598 102.926 102.426  1.00  0.00     0.041 C 
ATOM      5  O   UNL     1     103.267 102.494 103.561  1.00  0.00    -0.550 OA
ATOM      6  O   UNL     1     104.013 104.243 102.286  1.00  0.00    -0.550 OA
ENDBRANCH   3   4
ENDBRANCH   2   3
ENDBRANCH   1   2
BRANCH   1   7
ATOM      7  C   UNL     1     103.819 102.774  97.419  1.00  0.00     0.000 C 
BRANCH   7   8
ATOM      8  C   UNL     1     103.490 104.273  97.518  1.00  0.00    -0.000 C 
BRANCH   8   9
ATOM      9  C   UNL     1     104.741 105.141  97.722  1.00  0.00    -0.003 C 
ATOM     10  C   UNL     1     104.373 106.621  97.810  1.00  0.00     0.004 C 
ENDBRANCH   8   9
ENDBRANCH   7   8
ENDBRANCH   1   7
TORSDOF 6
ENDMDL
MODEL 4
REMARK VINA RESULT:     0.730      3.855      5.766
REMARK INTER + INTRA:           0.771
REMARK INTER:                   0.953
REMARK INTRA:                  -0.182
REMARK UNBOUND:                -0.215
REMARK SMILES CCCCCCCC(=O)[O-]
REMARK SMILES IDX 5 1 6 2 7 3 8 4 9 5 10 6 4 7 3 8 2 9 1 10
REMARK H PARENT
REMARK Flexibility Score: inf
ROOT
ATOM      1  C   UNL     1     103.338 101.994 108.062  1.00  0.00     0.000 C 
ENDROOT
BRANCH   1   2
ATOM      2  C   UNL     1     103.311 102.818 109.363  1.00  0.00     0.006 C 
BRANCH   2   3
ATOM      3  C   UNL     1     103.358 101.976 110.649  1.00  0.00     0.053 C 
BRANCH   3   4
ATOM      4  C   UNL     1     103.536 102.823 111.871  1.00  0.00     0.041 C 
ATOM      5  O   UNL     1     103.302 102.346 113.012  1.00  0.00    -0.550 OA
ATOM      6  O   UNL     1     103.930 104.149 111.747  1.00  0.00    -0.550 OA
ENDBRANCH   3   4
ENDBRANCH   2   3
ENDBRANCH   1   2
BRANCH   1   7
ATOM      7  C   UNL     1     103.784 102.821 106.844  1.00  0.00     0.000 C 
BRANCH   7   8
ATOM      8  C   UNL     1     103.488 104.321 107.009  1.00  0.00    -0.000 C 
BRANCH   8   9
ATOM      9  C   UNL     1     104.764 105.166 107.138  1.00  0.00    -0.003 C 
ATOM     10  C   UNL     1     104.427 106.640 107.354  1.00  0.00     0.004 C 
ENDBRANCH   8   9
ENDBRANCH   7   8
ENDBRANCH   1   7
TORSDOF 6
ENDMDL
MODEL 5
REMARK VINA RESULT:     0.744      2.814      4.711
REMARK INTER + INTRA:           0.790
REMARK INTER:                   0.984
REMARK INTRA:                  -0.194
REMARK UNBOUND:                -0.215
REMARK SMILES CCCCCCCC(=O)[O-]
REMARK SMILES IDX 5 1 6 2 7 3 8 4 9 5 10 6 4 7 3 8 2 9 1 10
REMARK H PARENT
REMARK Flexibility Score: inf
ROOT
ATOM      1  C   UNL     1     103.390 102.106 103.471  1.00  0.00     0.000 C 
ENDROOT
BRANCH   1   2
ATOM      2  C   UNL     1     103.843 102.921 102.246  1.00  0.00     0.006 C 
BRANCH   2   3
ATOM      3  C   UNL     1     103.372 104.385 102.247  1.00  0.00     0.053 C 
BRANCH   3   4
ATOM      4  C   UNL     1     104.505 105.340 102.460  1.00  0.00     0.041 C 
ATOM      5  O   UNL     1     105.685 104.911 102.562  1.00  0.00    -0.550 OA
ATOM      6  O   UNL     1     104.255 106.701 102.579  1.00  0.00    -0.550 OA
ENDBRANCH   3   4
ENDBRANCH   2   3
ENDBRANCH   1   2
BRANCH   1   7
ATOM      7  C   UNL     1     103.356 102.942 104.761  1.00  0.00     0.000 C 
BRANCH   7   8
ATOM      8  C   UNL     1     103.423 102.075 106.029  1.00  0.00    -0.000 C 
BRANCH   8   9
ATOM      9  C   UNL     1     103.434 102.910 107.318  1.00  0.00    -0.003 C 
ATOM     10  C   UNL     1     104.049 104.286 107.076  1.00  0.00     0.004 C 
ENDBRANCH   8   9
ENDBRANCH   7   8
ENDBRANCH   1   7
TORSDOF 6
ENDMDL
MODEL 6
REMARK VINA RESULT:     0.757      3.835      4.725
REMARK INTER + INTRA:           0.807
REMARK INTER:                   1.013
REMARK INTRA:                  -0.206
REMARK UNBOUND:                -0.215
REMARK SMILES CCCCCCCC(=O)[O-]
REMARK SMILES IDX 5 1 6 2 7 3 8 4 9 5 10 6 4 7 3 8 2 9 1 10
REMARK H PARENT
REMARK Flexibility Score: inf
ROOT
ATOM      1  C   UNL     1     104.708 106.349 108.117  1.00  0.00     0.000 C 
ENDROOT
BRANCH   1   2
ATOM      2  C   UNL     1     104.728 105.505 109.405  1.00  0.00     0.006 C 
BRANCH   2   3
ATOM      3  C   UNL     1     104.547 106.317 110.699  1.00  0.00     0.053 C 
BRANCH   3   4
ATOM      4  C   UNL     1     104.472 105.438 111.909  1.00  0.00     0.041 C 
ATOM      5  O   UNL     1     104.822 105.879 113.035  1.00  0.00    -0.550 OA
ATOM      6  O   UNL     1     104.047 104.122 111.787  1.00  0.00    -0.550 OA
ENDBRANCH   3   4
ENDBRANCH   2   3
ENDBRANCH   1   2
BRANCH   1   7
ATOM      7  C   UNL     1     104.240 105.549 106.890  1.00  0.00     0.000 C 
BRANCH   7   8
ATOM      8  C   UNL     1     104.521 104.044 107.023  1.00  0.00    -0.000 C 
BRANCH   8   9
ATOM      9  C   UNL     1     103.236 103.204 107.084  1.00  0.00    -0.003 C 
ATOM     10  C   UNL     1     103.551 101.741 107.385  1.00  0.00     0.004 C 
ENDBRANCH   8   9
ENDBRANCH   7   8
ENDBRANCH   1   7
TORSDOF 6
ENDMDL
MODEL 7
REMARK VINA RESULT:     0.784      1.782      2.900
REMARK INTER + INTRA:           0.843
REMARK INTER:                   1.133
REMARK INTRA:                  -0.290
REMARK UNBOUND:                -0.215
REMARK SMILES CCCCCCCC(=O)[O-]
REMARK SMILES IDX 5 1 6 2 7 3 8 4 9 5 10 6 4 7 3 8 2 9 1 10
REMARK H PARENT
REMARK Flexibility Score: inf
ROOT
ATOM      1  C   UNL     1     103.451 102.087 105.966  1.00  0.00     0.000 C 
ENDROOT
BRANCH   1   2
ATOM      2  C   UNL     1     103.655 102.974 107.208  1.00  0.00     0.006 C 
BRANCH   2   3
ATOM      3  C   UNL     1     103.326 104.460 106.988  1.00  0.00     0.053 C 
BRANCH   3   4
ATOM      4  C   UNL     1     104.510 105.342 107.236  1.00  0.00     0.041 C 
ATOM      5  O   UNL     1     105.667 104.847 107.293  1.00  0.00    -0.550 OA
ATOM      6  O   UNL     1     104.334 106.704 107.437  1.00  0.00    -0.550 OA
ENDBRANCH   3   4
ENDBRANCH   2   3
ENDBRANCH   1   2
BRANCH   1   7
ATOM      7  C   UNL     1     103.314 102.903 104.669  1.00  0.00     0.000 C 
BRANCH   7   8
ATOM      8  C   UNL     1     103.337 102.019 103.411  1.00  0.00    -0.000 C 
BRANCH   8   9
ATOM      9  C   UNL     1     103.662 102.812 102.136  1.00  0.00    -0.003 C 
ATOM     10  C   UNL     1     103.992 104.266 102.464  1.00  0.00     0.004 C 
ENDBRANCH   8   9
ENDBRANCH   7   8
ENDBRANCH   1   7
TORSDOF 6
ENDMDL
MODEL 8
REMARK VINA RESULT:     0.797      3.463      4.770
REMARK INTER + INTRA:           0.861
REMARK INTER:                   1.144
REMARK INTRA:                  -0.283
REMARK UNBOUND:                -0.215
REMARK SMILES CCCCCCCC(=O)[O-]
REMARK SMILES IDX 5 1 6 2 7 3 8 4 9 5 10 6 4 7 3 8 2 9 1 10
REMARK H PARENT
REMARK Flexibility Score: inf
ROOT
ATOM      1  C   UNL     1     103.469 102.081 101.178  1.00  0.00     0.000 C 
ENDROOT
BRANCH   1   2
ATOM      2  C   UNL     1     103.741 102.938 102.428  1.00  0.00     0.006 C 
BRANCH   2   3
ATOM      3  C   UNL     1     103.344 104.417 102.282  1.00  0.00     0.053 C 
BRANCH   3   4
ATOM      4  C   UNL     1     104.509 105.335 102.490  1.00  0.00     0.041 C 
ATOM      5  O   UNL     1     105.680 104.874 102.531  1.00  0.00    -0.550 OA
ATOM      6  O   UNL     1     104.299 106.696 102.671  1.00  0.00    -0.550 OA
ENDBRANCH   3   4
ENDBRANCH   2   3
ENDBRANCH   1   2
BRANCH   1   7
ATOM      7  C   UNL     1     103.339 102.922  99.897  1.00  0.00     0.000 C 
BRANCH   7   8
ATOM      8  C   UNL     1     103.395 102.067  98.620  1.00  0.00    -0.000 C 
BRANCH   8   9
ATOM      9  C   UNL     1     103.683 102.898  97.362  1.00  0.00    -0.003 C 
ATOM     10  C   UNL     1     104.073 104.329  97.726  1.00  0.00     0.004 C 
ENDBRANCH   8   9
ENDBRANCH   7   8
ENDBRANCH   1   7
TORSDOF 6
ENDMDL
MODEL 9
REMARK VINA RESULT:     0.825      3.866      4.797
REMARK INTER + INTRA:           0.900
REMARK INTER:                   1.083
REMARK INTRA:                  -0.184
REMARK UNBOUND:                -0.215
REMARK SMILES CCCCCCCC(=O)[O-]
REMARK SMILES IDX 5 1 6 2 7 3 8 4 9 5 10 6 4 7 3 8 2 9 1 10
REMARK H PARENT
REMARK Flexibility Score: inf
ROOT
ATOM      1  C   UNL     1     104.747 106.240  98.540  1.00  0.00     0.000 C 
ENDROOT
BRANCH   1   2
ATOM      2  C   UNL     1     104.777 105.460  99.868  1.00  0.00     0.006 C 
BRANCH   2   3
ATOM      3  C   UNL     1     104.498 106.315 101.114  1.00  0.00     0.053 C 
BRANCH   3   4
ATOM      4  C   UNL     1     104.409 105.486 102.358  1.00  0.00     0.041 C 
ATOM      5  O   UNL     1     104.763 105.967 103.467  1.00  0.00    -0.550 OA
ATOM      6  O   UNL     1     103.968 104.172 102.288  1.00  0.00    -0.550 OA
ENDBRANCH   3   4
ENDBRANCH   2   3
ENDBRANCH   1   2
BRANCH   1   7
ATOM      7  C   UNL     1     104.045 105.465  97.412  1.00  0.00     0.000 C 
BRANCH   7   8
ATOM      8  C   UNL     1     104.385 103.966  97.425  1.00  0.00    -0.000 C 
BRANCH   8   9
ATOM      9  C   UNL     1     103.173 103.087  97.769  1.00  0.00    -0.003 C 
ATOM     10  C   UNL     1     103.579 101.621  97.904  1.00  0.00     0.004 C 
ENDBRANCH   8   9
ENDBRANCH   7   8
ENDBRANCH   1   7
TORSDOF 6
ENDMDL
