MODEL 1
REMARK VINA RESULT:    -4.055      0.000      0.000
REMARK INTER + INTRA:          -4.464
REMARK INTER:                  -4.292
REMARK INTRA:                  -0.172
REMARK UNBOUND:                -0.172
REMARK SMILES C=C1CC=C(C(C)C)CC1
REMARK SMILES IDX 5 1 4 2 3 3 2 4 1 5 10 6 9 7 6 8 7 9 8 10
REMARK H PARENT
REMARK Flexibility Score: inf
ROOT
ATOM      1  C   UNL     1     139.107 139.012 134.771  1.00  0.00    -0.071 C 
ATOM      2  C   UNL     1     138.969 138.367 133.591  1.00  0.00    -0.023 C 
ATOM      3  C   UNL     1     139.964 137.323 133.153  1.00  0.00     0.057 C 
ATOM      4  C   UNL     1     140.474 136.527 134.337  1.00  0.00    -0.073 C 
ATOM      5  C   UNL     1     140.917 135.274 134.165  1.00  0.00     0.008 C 
ATOM      6  C   UNL     1     140.517 137.159 135.713  1.00  0.00     0.035 C 
ATOM      7  C   UNL     1     140.296 138.677 135.644  1.00  0.00     0.035 C 
ENDROOT
BRANCH   1   8
ATOM      8  C   UNL     1     138.085 140.039 135.235  1.00  0.00     0.008 C 
ATOM      9  C   UNL     1     137.457 140.779 134.048  1.00  0.00     0.012 C 
ATOM     10  C   UNL     1     137.011 139.391 136.116  1.00  0.00     0.012 C 
ENDBRANCH   1   8
TORSDOF 1
ENDMDL
MODEL 2
REMARK VINA RESULT:    -4.043      3.981      5.798
REMARK INTER + INTRA:          -4.452
REMARK INTER:                  -4.279
REMARK INTRA:                  -0.173
REMARK UNBOUND:                -0.172
REMARK SMILES C=C1CC=C(C(C)C)CC1
REMARK SMILES IDX 5 1 4 2 3 3 2 4 1 5 10 6 9 7 6 8 7 9 8 10
REMARK H PARENT
REMARK Flexibility Score: inf
ROOT
ATOM      1  C   UNL     1     139.042 133.517 134.780  1.00  0.00    -0.071 C 
ATOM      2  C   UNL     1     138.406 133.609 133.592  1.00  0.00    -0.023 C 
ATOM      3  C   UNL     1     137.376 132.591 133.178  1.00  0.00     0.057 C 
ATOM      4  C   UNL     1     136.574 132.113 134.372  1.00  0.00    -0.073 C 
ATOM      5  C   UNL     1     135.327 131.653 134.204  1.00  0.00     0.008 C 
ATOM      6  C   UNL     1     137.194 132.122 135.754  1.00  0.00     0.035 C 
ATOM      7  C   UNL     1     138.710 132.355 135.691  1.00  0.00     0.035 C 
ENDROOT
BRANCH   1   8
ATOM      8  C   UNL     1     140.056 134.564 135.219  1.00  0.00     0.008 C 
ATOM      9  C   UNL     1     140.777 135.182 134.015  1.00  0.00     0.012 C 
ATOM     10  C   UNL     1     139.397 135.644 136.084  1.00  0.00     0.012 C 
ENDBRANCH   1   8
TORSDOF 1
ENDMDL
MODEL 3
REMARK VINA RESULT:    -4.030      6.543      8.195
REMARK INTER + INTRA:          -4.437
REMARK INTER:                  -4.264
REMARK INTRA:                  -0.174
REMARK UNBOUND:                -0.172
REMARK SMILES C=C1CC=C(C(C)C)CC1
REMARK SMILES IDX 5 1 4 2 3 3 2 4 1 5 10 6 9 7 6 8 7 9 8 10
REMARK H PARENT
REMARK Flexibility Score: inf
ROOT
ATOM      1  C   UNL     1     133.542 133.603 134.812  1.00  0.00    -0.071 C 
ATOM      2  C   UNL     1     133.627 134.220 133.613  1.00  0.00    -0.023 C 
ATOM      3  C   UNL     1     132.615 135.257 133.197  1.00  0.00     0.057 C 
ATOM      4  C   UNL     1     132.162 136.082 134.384  1.00  0.00    -0.073 C 
ATOM      5  C   UNL     1     131.714 137.331 134.203  1.00  0.00     0.008 C 
ATOM      6  C   UNL     1     132.182 135.482 135.775  1.00  0.00     0.035 C 
ATOM      7  C   UNL     1     132.396 133.962 135.732  1.00  0.00     0.035 C 
ENDROOT
BRANCH   1   8
ATOM      8  C   UNL     1     134.583 132.584 135.253  1.00  0.00     0.008 C 
ATOM      9  C   UNL     1     135.202 131.863 134.050  1.00  0.00     0.012 C 
ATOM     10  C   UNL     1     135.662 133.237 136.124  1.00  0.00     0.012 C 
ENDBRANCH   1   8
TORSDOF 1
ENDMDL
MODEL 4
REMARK VINA RESULT:    -4.030      3.977      5.784
REMARK INTER + INTRA:          -4.437
REMARK INTER:                  -4.264
REMARK INTRA:                  -0.173
REMARK UNBOUND:                -0.172
REMARK SMILES C=C1CC=C(C(C)C)CC1
REMARK SMILES IDX 5 1 4 2 3 3 2 4 1 5 10 6 9 7 6 8 7 9 8 10
REMARK H PARENT
REMARK Flexibility Score: inf
ROOT
ATOM      1  C   UNL     1     133.634 139.131 134.855  1.00  0.00    -0.071 C 
ATOM      2  C   UNL     1     134.246 139.042 133.654  1.00  0.00    -0.023 C 
ATOM      3  C   UNL     1     135.291 140.043 133.235  1.00  0.00     0.057 C 
ATOM      4  C   UNL     1     136.124 140.487 134.420  1.00  0.00    -0.073 C 
ATOM      5  C   UNL     1     137.378 140.923 134.235  1.00  0.00     0.008 C 
ATOM      6  C   UNL     1     135.529 140.473 135.813  1.00  0.00     0.035 C 
ATOM      7  C   UNL     1     134.007 140.273 135.774  1.00  0.00     0.035 C 
ENDROOT
BRANCH   1   8
ATOM      8  C   UNL     1     132.606 138.101 135.298  1.00  0.00     0.008 C 
ATOM      9  C   UNL     1     131.876 137.488 134.097  1.00  0.00     0.012 C 
ATOM     10  C   UNL     1     133.250 137.016 136.168  1.00  0.00     0.012 C 
ENDBRANCH   1   8
TORSDOF 1
ENDMDL
MODEL 5
REMARK VINA RESULT:    -3.974      6.119      7.893
REMARK INTER + INTRA:          -4.378
REMARK INTER:                  -4.241
REMARK INTRA:                  -0.137
REMARK UNBOUND:                -0.172
REMARK SMILES C=C1CC=C(C(C)C)CC1
REMARK SMILES IDX 5 1 4 2 3 3 2 4 1 5 10 6 9 7 6 8 7 9 8 10
REMARK H PARENT
REMARK Flexibility Score: inf
ROOT
ATOM      1  C   UNL     1     135.598 133.026 135.927  1.00  0.00    -0.071 C 
ATOM      2  C   UNL     1     134.549 132.586 135.198  1.00  0.00    -0.023 C 
ATOM      3  C   UNL     1     133.132 132.808 135.659  1.00  0.00     0.057 C 
ATOM      4  C   UNL     1     132.992 134.142 136.363  1.00  0.00    -0.073 C 
ATOM      5  C   UNL     1     131.809 134.772 136.381  1.00  0.00     0.008 C 
ATOM      6  C   UNL     1     134.180 134.750 137.078  1.00  0.00     0.035 C 
ATOM      7  C   UNL     1     135.324 133.738 137.233  1.00  0.00     0.035 C 
ENDROOT
BRANCH   1   8
ATOM      8  C   UNL     1     137.030 132.839 135.446  1.00  0.00     0.008 C 
ATOM      9  C   UNL     1     137.765 131.781 136.279  1.00  0.00     0.012 C 
ATOM     10  C   UNL     1     137.073 132.496 133.953  1.00  0.00     0.012 C 
ENDBRANCH   1   8
TORSDOF 1
ENDMDL
MODEL 6
REMARK VINA RESULT:    -3.966      5.465      7.179
REMARK INTER + INTRA:          -4.370
REMARK INTER:                  -4.233
REMARK INTRA:                  -0.137
REMARK UNBOUND:                -0.172
REMARK SMILES C=C1CC=C(C(C)C)CC1
REMARK SMILES IDX 5 1 4 2 3 3 2 4 1 5 10 6 9 7 6 8 7 9 8 10
REMARK H PARENT
REMARK Flexibility Score: inf
ROOT
ATOM      1  C   UNL     1     133.042 137.080 135.906  1.00  0.00    -0.071 C 
ATOM      2  C   UNL     1     132.603 138.142 135.195  1.00  0.00    -0.023 C 
ATOM      3  C   UNL     1     132.833 139.551 135.676  1.00  0.00     0.057 C 
ATOM      4  C   UNL     1     134.172 139.675 136.375  1.00  0.00    -0.073 C 
ATOM      5  C   UNL     1     134.807 140.854 136.407  1.00  0.00     0.008 C 
ATOM      6  C   UNL     1     134.778 138.473 137.069  1.00  0.00     0.035 C 
ATOM      7  C   UNL     1     133.762 137.331 137.212  1.00  0.00     0.035 C 
ENDROOT
BRANCH   1   8
ATOM      8  C   UNL     1     132.846 135.656 135.405  1.00  0.00     0.008 C 
ATOM      9  C   UNL     1     131.822 134.900 136.259  1.00  0.00     0.012 C 
ATOM     10  C   UNL     1     132.453 135.640 133.924  1.00  0.00     0.012 C 
ENDBRANCH   1   8
TORSDOF 1
ENDMDL
MODEL 7
REMARK VINA RESULT:    -3.966      2.025      2.966
REMARK INTER + INTRA:          -4.370
REMARK INTER:                  -4.233
REMARK INTRA:                  -0.137
REMARK UNBOUND:                -0.172
REMARK SMILES C=C1CC=C(C(C)C)CC1
REMARK SMILES IDX 5 1 4 2 3 3 2 4 1 5 10 6 9 7 6 8 7 9 8 10
REMARK H PARENT
REMARK Flexibility Score: inf
ROOT
ATOM      1  C   UNL     1     137.052 139.635 135.901  1.00  0.00    -0.071 C 
ATOM      2  C   UNL     1     138.101 140.040 135.151  1.00  0.00    -0.023 C 
ATOM      3  C   UNL     1     139.519 139.817 135.610  1.00  0.00     0.057 C 
ATOM      4  C   UNL     1     139.650 138.505 136.354  1.00  0.00    -0.073 C 
ATOM      5  C   UNL     1     140.825 137.862 136.384  1.00  0.00     0.008 C 
ATOM      6  C   UNL     1     138.460 137.933 137.097  1.00  0.00     0.035 C 
ATOM      7  C   UNL     1     137.328 138.962 137.227  1.00  0.00     0.035 C 
ENDROOT
BRANCH   1   8
ATOM      8  C   UNL     1     135.619 139.823 135.425  1.00  0.00     0.008 C 
ATOM      9  C   UNL     1     134.881 140.866 136.273  1.00  0.00     0.012 C 
ATOM     10  C   UNL     1     135.574 140.188 133.937  1.00  0.00     0.012 C 
ENDBRANCH   1   8
TORSDOF 1
ENDMDL
MODEL 8
REMARK VINA RESULT:    -3.961      2.903      4.394
REMARK INTER + INTRA:          -4.364
REMARK INTER:                  -4.227
REMARK INTRA:                  -0.137
REMARK UNBOUND:                -0.172
REMARK SMILES C=C1CC=C(C(C)C)CC1
REMARK SMILES IDX 5 1 4 2 3 3 2 4 1 5 10 6 9 7 6 8 7 9 8 10
REMARK H PARENT
REMARK Flexibility Score: inf
ROOT
ATOM      1  C   UNL     1     139.583 135.595 135.908  1.00  0.00    -0.071 C 
ATOM      2  C   UNL     1     140.025 134.543 135.185  1.00  0.00    -0.023 C 
ATOM      3  C   UNL     1     139.799 133.127 135.649  1.00  0.00     0.057 C 
ATOM      4  C   UNL     1     138.461 132.991 136.345  1.00  0.00    -0.073 C 
ATOM      5  C   UNL     1     137.830 131.809 136.363  1.00  0.00     0.008 C 
ATOM      6  C   UNL     1     137.850 134.182 137.054  1.00  0.00     0.035 C 
ATOM      7  C   UNL     1     138.863 135.325 137.212  1.00  0.00     0.035 C 
ENDROOT
BRANCH   1   8
ATOM      8  C   UNL     1     139.774 137.025 135.425  1.00  0.00     0.008 C 
ATOM      9  C   UNL     1     140.804 137.771 136.283  1.00  0.00     0.012 C 
ATOM     10  C   UNL     1     140.158 137.061 133.942  1.00  0.00     0.012 C 
ENDBRANCH   1   8
TORSDOF 1
ENDMDL
MODEL 9
REMARK VINA RESULT:    -3.917      1.011      4.405
REMARK INTER + INTRA:          -4.318
REMARK INTER:                  -4.140
REMARK INTRA:                  -0.178
REMARK UNBOUND:                -0.172
REMARK SMILES C=C1CC=C(C(C)C)CC1
REMARK SMILES IDX 5 1 4 2 3 3 2 4 1 5 10 6 9 7 6 8 7 9 8 10
REMARK H PARENT
REMARK Flexibility Score: inf
ROOT
ATOM      1  C   UNL     1     140.092 137.490 134.848  1.00  0.00    -0.071 C 
ATOM      2  C   UNL     1     139.935 138.341 135.886  1.00  0.00    -0.023 C 
ATOM      3  C   UNL     1     139.423 139.743 135.675  1.00  0.00     0.057 C 
ATOM      4  C   UNL     1     138.390 139.783 134.568  1.00  0.00    -0.073 C 
ATOM      5  C   UNL     1     137.453 140.741 134.557  1.00  0.00     0.008 C 
ATOM      6  C   UNL     1     138.437 138.761 133.451  1.00  0.00     0.035 C 
ATOM      7  C   UNL     1     139.757 137.978 133.456  1.00  0.00     0.035 C 
ENDROOT
BRANCH   1   8
ATOM      8  C   UNL     1     140.571 136.062 135.061  1.00  0.00     0.008 C 
ATOM      9  C   UNL     1     139.512 135.218 135.779  1.00  0.00     0.012 C 
ATOM     10  C   UNL     1     140.989 135.416 133.735  1.00  0.00     0.012 C 
ENDBRANCH   1   8
TORSDOF 1
ENDMDL
