MODEL 1
REMARK VINA RESULT:    -3.805      0.000      0.000
REMARK INTER + INTRA:          -9.073
REMARK INTER:                  -6.919
REMARK INTRA:                  -2.154
REMARK UNBOUND:                -2.154
REMARK SMILES CCCCCCCCCCCCCCCC(=O)[O-]
REMARK SMILES IDX 9 1 10 2 11 3 12 4 13 5 14 6 15 7 16 8 17 9 18 10 8 11 7 12
REMARK SMILES IDX 6 13 5 14 4 15 3 16 2 17 1 18
REMARK H PARENT
REMARK Flexibility Score: inf
ROOT
ATOM      1  C   UNL     1      21.372  39.147  34.783  1.00  0.00     0.000 C 
ENDROOT
BRANCH   1   2
ATOM      2  C   UNL     1      22.228  37.953  35.243  1.00  0.00     0.000 C 
BRANCH   2   3
ATOM      3  C   UNL     1      21.404  36.867  35.957  1.00  0.00     0.000 C 
BRANCH   3   4
ATOM      4  C   UNL     1      22.082  36.361  37.240  1.00  0.00     0.000 C 
BRANCH   4   5
ATOM      5  C   UNL     1      21.435  36.926  38.517  1.00  0.00     0.000 C 
BRANCH   5   6
ATOM      6  C   UNL     1      19.954  37.295  38.319  1.00  0.00     0.006 C 
BRANCH   6   7
ATOM      7  C   UNL     1      19.282  37.894  39.565  1.00  0.00     0.053 C 
BRANCH   7   8
ATOM      8  C   UNL     1      20.144  38.924  40.227  1.00  0.00     0.041 C 
ATOM      9  O   UNL     1      20.775  38.641  41.279  1.00  0.00    -0.550 OA
ATOM     10  O   UNL     1      20.276  40.186  39.662  1.00  0.00    -0.550 OA
ENDBRANCH   7   8
ENDBRANCH   6   7
ENDBRANCH   5   6
ENDBRANCH   4   5
ENDBRANCH   3   4
ENDBRANCH   2   3
ENDBRANCH   1   2
BRANCH   1  11
ATOM     11  C   UNL     1      20.915  40.097  35.907  1.00  0.00     0.000 C 
BRANCH  11  12
ATOM     12  C   UNL     1      19.403  40.076  36.206  1.00  0.00    -0.000 C 
BRANCH  12  13
ATOM     13  C   UNL     1      18.521  39.530  35.065  1.00  0.00    -0.000 C 
BRANCH  13  14
ATOM     14  C   UNL     1      17.853  38.174  35.355  1.00  0.00    -0.000 C 
BRANCH  14  15
ATOM     15  C   UNL     1      16.781  37.802  34.316  1.00  0.00    -0.000 C 
BRANCH  15  16
ATOM     16  C   UNL     1      17.386  37.238  33.021  1.00  0.00    -0.000 C 
BRANCH  16  17
ATOM     17  C   UNL     1      18.593  36.325  33.282  1.00  0.00    -0.003 C 
ATOM     18  C   UNL     1      19.794  36.750  32.444  1.00  0.00     0.004 C 
ENDBRANCH  16  17
ENDBRANCH  15  16
ENDBRANCH  14  15
ENDBRANCH  13  14
ENDBRANCH  12  13
ENDBRANCH  11  12
ENDBRANCH   1  11
TORSDOF 14
ENDMDL
MODEL 2
REMARK VINA RESULT:    -3.763      1.325      2.158
REMARK INTER + INTRA:          -8.997
REMARK INTER:                  -6.711
REMARK INTRA:                  -2.286
REMARK UNBOUND:                -2.154
REMARK SMILES CCCCCCCCCCCCCCCC(=O)[O-]
REMARK SMILES IDX 9 1 10 2 11 3 12 4 13 5 14 6 15 7 16 8 17 9 18 10 8 11 7 12
REMARK SMILES IDX 6 13 5 14 4 15 3 16 2 17 1 18
REMARK H PARENT
REMARK Flexibility Score: inf
ROOT
ATOM      1  C   UNL     1      20.411  39.763  34.836  1.00  0.00     0.000 C 
ENDROOT
BRANCH   1   2
ATOM      2  C   UNL     1      21.776  39.393  35.444  1.00  0.00     0.000 C 
BRANCH   2   3
ATOM      3  C   UNL     1      22.336  38.069  34.896  1.00  0.00     0.000 C 
BRANCH   3   4
ATOM      4  C   UNL     1      21.594  36.843  35.450  1.00  0.00     0.000 C 
BRANCH   4   5
ATOM      5  C   UNL     1      21.995  36.510  36.899  1.00  0.00     0.000 C 
BRANCH   5   6
ATOM      6  C   UNL     1      20.852  36.755  37.901  1.00  0.00     0.006 C 
BRANCH   6   7
ATOM      7  C   UNL     1      21.015  38.031  38.743  1.00  0.00     0.053 C 
BRANCH   7   8
ATOM      8  C   UNL     1      19.806  38.307  39.583  1.00  0.00     0.041 C 
ATOM      9  O   UNL     1      18.665  37.954  39.187  1.00  0.00    -0.550 OA
ATOM     10  O   UNL     1      19.946  38.925  40.819  1.00  0.00    -0.550 OA
ENDBRANCH   7   8
ENDBRANCH   6   7
ENDBRANCH   5   6
ENDBRANCH   4   5
ENDBRANCH   3   4
ENDBRANCH   2   3
ENDBRANCH   1   2
BRANCH   1  11
ATOM     11  C   UNL     1      19.217  39.677  35.806  1.00  0.00     0.000 C 
BRANCH  11  12
ATOM     12  C   UNL     1      18.284  38.470  35.588  1.00  0.00    -0.000 C 
BRANCH  12  13
ATOM     13  C   UNL     1      18.037  38.095  34.113  1.00  0.00    -0.000 C 
BRANCH  13  14
ATOM     14  C   UNL     1      18.541  36.699  33.707  1.00  0.00    -0.000 C 
BRANCH  14  15
ATOM     15  C   UNL     1      18.706  36.543  32.185  1.00  0.00    -0.000 C 
BRANCH  15  16
ATOM     16  C   UNL     1      19.402  37.751  31.540  1.00  0.00    -0.000 C 
BRANCH  16  17
ATOM     17  C   UNL     1      20.710  37.369  30.831  1.00  0.00    -0.003 C 
ATOM     18  C   UNL     1      21.857  38.276  31.268  1.00  0.00     0.004 C 
ENDBRANCH  16  17
ENDBRANCH  15  16
ENDBRANCH  14  15
ENDBRANCH  13  14
ENDBRANCH  12  13
ENDBRANCH  11  12
ENDBRANCH   1  11
TORSDOF 14
ENDMDL
MODEL 3
REMARK VINA RESULT:    -3.742      3.086      5.455
REMARK INTER + INTRA:          -8.958
REMARK INTER:                  -6.871
REMARK INTRA:                  -2.087
REMARK UNBOUND:                -2.154
REMARK SMILES CCCCCCCCCCCCCCCC(=O)[O-]
REMARK SMILES IDX 9 1 10 2 11 3 12 4 13 5 14 6 15 7 16 8 17 9 18 10 8 11 7 12
REMARK SMILES IDX 6 13 5 14 4 15 3 16 2 17 1 18
REMARK H PARENT
REMARK Flexibility Score: inf
ROOT
ATOM      1  C   UNL     1      22.272  36.531  36.821  1.00  0.00     0.000 C 
ENDROOT
BRANCH   1   2
ATOM      2  C   UNL     1      22.715  37.953  36.432  1.00  0.00     0.000 C 
BRANCH   2   3
ATOM      3  C   UNL     1      22.391  38.301  34.969  1.00  0.00     0.000 C 
BRANCH   3   4
ATOM      4  C   UNL     1      21.539  37.221  34.283  1.00  0.00     0.000 C 
BRANCH   4   5
ATOM      5  C   UNL     1      21.102  37.622  32.862  1.00  0.00     0.000 C 
BRANCH   5   6
ATOM      6  C   UNL     1      19.948  36.754  32.329  1.00  0.00     0.006 C 
BRANCH   6   7
ATOM      7  C   UNL     1      18.886  36.402  33.383  1.00  0.00     0.053 C 
BRANCH   7   8
ATOM      8  C   UNL     1      17.501  36.419  32.812  1.00  0.00     0.041 C 
ATOM      9  O   UNL     1      17.155  35.558  31.961  1.00  0.00    -0.550 OA
ATOM     10  O   UNL     1      16.582  37.366  33.247  1.00  0.00    -0.550 OA
ENDBRANCH   7   8
ENDBRANCH   6   7
ENDBRANCH   5   6
ENDBRANCH   4   5
ENDBRANCH   3   4
ENDBRANCH   2   3
ENDBRANCH   1   2
BRANCH   1  11
ATOM     11  C   UNL     1      21.907  36.343  38.307  1.00  0.00     0.000 C 
BRANCH  11  12
ATOM     12  C   UNL     1      22.168  37.568  39.205  1.00  0.00    -0.000 C 
BRANCH  12  13
ATOM     13  C   UNL     1      20.901  38.284  39.715  1.00  0.00    -0.000 C 
BRANCH  13  14
ATOM     14  C   UNL     1      19.575  37.694  39.204  1.00  0.00    -0.000 C 
BRANCH  14  15
ATOM     15  C   UNL     1      18.846  38.626  38.221  1.00  0.00    -0.000 C 
BRANCH  15  16
ATOM     16  C   UNL     1      19.088  38.242  36.753  1.00  0.00    -0.000 C 
BRANCH  16  17
ATOM     17  C   UNL     1      18.097  38.919  35.795  1.00  0.00    -0.003 C 
ATOM     18  C   UNL     1      18.812  39.889  34.861  1.00  0.00     0.004 C 
ENDBRANCH  16  17
ENDBRANCH  15  16
ENDBRANCH  14  15
ENDBRANCH  13  14
ENDBRANCH  12  13
ENDBRANCH  11  12
ENDBRANCH   1  11
TORSDOF 14
ENDMDL
MODEL 4
REMARK VINA RESULT:    -3.725      3.152      5.942
REMARK INTER + INTRA:          -8.928
REMARK INTER:                  -6.480
REMARK INTRA:                  -2.449
REMARK UNBOUND:                -2.154
REMARK SMILES CCCCCCCCCCCCCCCC(=O)[O-]
REMARK SMILES IDX 9 1 10 2 11 3 12 4 13 5 14 6 15 7 16 8 17 9 18 10 8 11 7 12
REMARK SMILES IDX 6 13 5 14 4 15 3 16 2 17 1 18
REMARK H PARENT
REMARK Flexibility Score: inf
ROOT
ATOM      1  C   UNL     1      21.398  40.222  34.997  1.00  0.00     0.000 C 
ENDROOT
BRANCH   1   2
ATOM      2  C   UNL     1      20.715  40.772  36.262  1.00  0.00     0.000 C 
BRANCH   2   3
ATOM      3  C   UNL     1      19.413  40.029  36.609  1.00  0.00     0.000 C 
BRANCH   3   4
ATOM      4  C   UNL     1      18.625  39.607  35.359  1.00  0.00     0.000 C 
BRANCH   4   5
ATOM      5  C   UNL     1      18.124  38.154  35.434  1.00  0.00     0.000 C 
BRANCH   5   6
ATOM      6  C   UNL     1      17.720  37.593  34.058  1.00  0.00     0.006 C 
BRANCH   6   7
ATOM      7  C   UNL     1      18.706  36.563  33.485  1.00  0.00     0.053 C 
BRANCH   7   8
ATOM      8  C   UNL     1      19.171  36.935  32.111  1.00  0.00     0.041 C 
ATOM      9  O   UNL     1      20.335  36.639  31.734  1.00  0.00    -0.550 OA
ATOM     10  O   UNL     1      18.305  37.577  31.235  1.00  0.00    -0.550 OA
ENDBRANCH   7   8
ENDBRANCH   6   7
ENDBRANCH   5   6
ENDBRANCH   4   5
ENDBRANCH   3   4
ENDBRANCH   2   3
ENDBRANCH   1   2
BRANCH   1  11
ATOM     11  C   UNL     1      22.415  39.089  35.242  1.00  0.00     0.000 C 
BRANCH  11  12
ATOM     12  C   UNL     1      22.034  37.726  34.632  1.00  0.00    -0.000 C 
BRANCH  12  13
ATOM     13  C   UNL     1      21.580  36.660  35.651  1.00  0.00    -0.000 C 
BRANCH  13  14
ATOM     14  C   UNL     1      22.154  36.834  37.068  1.00  0.00    -0.000 C 
BRANCH  14  15
ATOM     15  C   UNL     1      21.061  36.995  38.139  1.00  0.00    -0.000 C 
BRANCH  15  16
ATOM     16  C   UNL     1      21.369  38.127  39.131  1.00  0.00    -0.000 C 
BRANCH  16  17
ATOM     17  C   UNL     1      20.125  38.584  39.908  1.00  0.00    -0.003 C 
ATOM     18  C   UNL     1      18.903  37.755  39.525  1.00  0.00     0.004 C 
ENDBRANCH  16  17
ENDBRANCH  15  16
ENDBRANCH  14  15
ENDBRANCH  13  14
ENDBRANCH  12  13
ENDBRANCH  11  12
ENDBRANCH   1  11
TORSDOF 14
ENDMDL
MODEL 5
REMARK VINA RESULT:    -3.670      2.201      4.172
REMARK INTER + INTRA:          -8.828
REMARK INTER:                  -6.843
REMARK INTRA:                  -1.985
REMARK UNBOUND:                -2.154
REMARK SMILES CCCCCCCCCCCCCCCC(=O)[O-]
REMARK SMILES IDX 9 1 10 2 11 3 12 4 13 5 14 6 15 7 16 8 17 9 18 10 8 11 7 12
REMARK SMILES IDX 6 13 5 14 4 15 3 16 2 17 1 18
REMARK H PARENT
REMARK Flexibility Score: inf
ROOT
ATOM      1  C   UNL     1      17.989  36.448  32.977  1.00  0.00     0.000 C 
ENDROOT
BRANCH   1   2
ATOM      2  C   UNL     1      16.978  37.551  33.342  1.00  0.00     0.000 C 
BRANCH   2   3
ATOM      3  C   UNL     1      17.155  38.073  34.778  1.00  0.00     0.000 C 
BRANCH   3   4
ATOM      4  C   UNL     1      17.626  39.535  34.818  1.00  0.00     0.000 C 
BRANCH   4   5
ATOM      5  C   UNL     1      18.911  39.724  35.644  1.00  0.00     0.000 C 
BRANCH   5   6
ATOM      6  C   UNL     1      19.127  38.598  36.672  1.00  0.00     0.006 C 
BRANCH   6   7
ATOM      7  C   UNL     1      19.207  39.082  38.128  1.00  0.00     0.053 C 
BRANCH   7   8
ATOM      8  C   UNL     1      19.607  37.983  39.064  1.00  0.00     0.041 C 
ATOM      9  O   UNL     1      20.005  36.878  38.611  1.00  0.00    -0.550 OA
ATOM     10  O   UNL     1      19.574  38.193  40.437  1.00  0.00    -0.550 OA
ENDBRANCH   7   8
ENDBRANCH   6   7
ENDBRANCH   5   6
ENDBRANCH   4   5
ENDBRANCH   3   4
ENDBRANCH   2   3
ENDBRANCH   1   2
BRANCH   1  11
ATOM     11  C   UNL     1      19.358  36.559  33.676  1.00  0.00     0.000 C 
BRANCH  11  12
ATOM     12  C   UNL     1      20.513  37.042  32.777  1.00  0.00    -0.000 C 
BRANCH  12  13
ATOM     13  C   UNL     1      20.459  38.535  32.392  1.00  0.00    -0.000 C 
BRANCH  13  14
ATOM     14  C   UNL     1      20.349  38.809  30.882  1.00  0.00    -0.000 C 
BRANCH  14  15
ATOM     15  C   UNL     1      18.892  38.938  30.403  1.00  0.00    -0.000 C 
BRANCH  15  16
ATOM     16  C   UNL     1      18.565  37.985  29.242  1.00  0.00    -0.000 C 
BRANCH  16  17
ATOM     17  C   UNL     1      19.257  36.622  29.387  1.00  0.00    -0.003 C 
ATOM     18  C   UNL     1      19.152  35.814  28.097  1.00  0.00     0.004 C 
ENDBRANCH  16  17
ENDBRANCH  15  16
ENDBRANCH  14  15
ENDBRANCH  13  14
ENDBRANCH  12  13
ENDBRANCH  11  12
ENDBRANCH   1  11
TORSDOF 14
ENDMDL
MODEL 6
REMARK VINA RESULT:    -3.643      1.483      2.470
REMARK INTER + INTRA:          -8.779
REMARK INTER:                  -6.414
REMARK INTRA:                  -2.365
REMARK UNBOUND:                -2.154
REMARK SMILES CCCCCCCCCCCCCCCC(=O)[O-]
REMARK SMILES IDX 9 1 10 2 11 3 12 4 13 5 14 6 15 7 16 8 17 9 18 10 8 11 7 12
REMARK SMILES IDX 6 13 5 14 4 15 3 16 2 17 1 18
REMARK H PARENT
REMARK Flexibility Score: inf
ROOT
ATOM      1  C   UNL     1      20.903  37.002  34.983  1.00  0.00     0.000 C 
ENDROOT
BRANCH   1   2
ATOM      2  C   UNL     1      20.835  37.357  36.479  1.00  0.00     0.000 C 
BRANCH   2   3
ATOM      3  C   UNL     1      20.965  38.868  36.741  1.00  0.00     0.000 C 
BRANCH   3   4
ATOM      4  C   UNL     1      19.853  39.405  37.656  1.00  0.00     0.000 C 
BRANCH   4   5
ATOM      5  C   UNL     1      19.003  38.283  38.280  1.00  0.00     0.000 C 
BRANCH   5   6
ATOM      6  C   UNL     1      19.370  38.009  39.750  1.00  0.00     0.006 C 
BRANCH   6   7
ATOM      7  C   UNL     1      20.260  39.087  40.389  1.00  0.00     0.053 C 
BRANCH   7   8
ATOM      8  C   UNL     1      21.654  38.595  40.627  1.00  0.00     0.041 C 
ATOM      9  O   UNL     1      22.133  37.676  39.912  1.00  0.00    -0.550 OA
ATOM     10  O   UNL     1      22.436  39.176  41.618  1.00  0.00    -0.550 OA
ENDBRANCH   7   8
ENDBRANCH   6   7
ENDBRANCH   5   6
ENDBRANCH   4   5
ENDBRANCH   3   4
ENDBRANCH   2   3
ENDBRANCH   1   2
BRANCH   1  11
ATOM     11  C   UNL     1      21.590  38.054  34.091  1.00  0.00     0.000 C 
BRANCH  11  12
ATOM     12  C   UNL     1      20.691  38.676  33.004  1.00  0.00    -0.000 C 
BRANCH  12  13
ATOM     13  C   UNL     1      19.957  39.965  33.424  1.00  0.00    -0.000 C 
BRANCH  13  14
ATOM     14  C   UNL     1      18.422  39.891  33.341  1.00  0.00    -0.000 C 
BRANCH  14  15
ATOM     15  C   UNL     1      17.766  39.573  34.696  1.00  0.00    -0.000 C 
BRANCH  15  16
ATOM     16  C   UNL     1      17.444  38.079  34.860  1.00  0.00    -0.000 C 
BRANCH  16  17
ATOM     17  C   UNL     1      16.854  37.460  33.584  1.00  0.00    -0.003 C 
ATOM     18  C   UNL     1      17.763  36.365  33.035  1.00  0.00     0.004 C 
ENDBRANCH  16  17
ENDBRANCH  15  16
ENDBRANCH  14  15
ENDBRANCH  13  14
ENDBRANCH  12  13
ENDBRANCH  11  12
ENDBRANCH   1  11
TORSDOF 14
ENDMDL
MODEL 7
REMARK VINA RESULT:    -3.639      2.017      3.320
REMARK INTER + INTRA:          -8.772
REMARK INTER:                  -6.153
REMARK INTRA:                  -2.619
REMARK UNBOUND:                -2.154
REMARK SMILES CCCCCCCCCCCCCCCC(=O)[O-]
REMARK SMILES IDX 9 1 10 2 11 3 12 4 13 5 14 6 15 7 16 8 17 9 18 10 8 11 7 12
REMARK SMILES IDX 6 13 5 14 4 15 3 16 2 17 1 18
REMARK H PARENT
REMARK Flexibility Score: inf
ROOT
ATOM      1  C   UNL     1      18.441  36.221  33.127  1.00  0.00     0.000 C 
ENDROOT
BRANCH   1   2
ATOM      2  C   UNL     1      19.804  36.926  33.002  1.00  0.00     0.000 C 
BRANCH   2   3
ATOM      3  C   UNL     1      20.561  37.003  34.340  1.00  0.00     0.000 C 
BRANCH   3   4
ATOM      4  C   UNL     1      20.996  38.435  34.688  1.00  0.00     0.000 C 
BRANCH   4   5
ATOM      5  C   UNL     1      20.215  39.020  35.879  1.00  0.00     0.000 C 
BRANCH   5   6
ATOM      6  C   UNL     1      19.531  37.936  36.731  1.00  0.00     0.006 C 
BRANCH   6   7
ATOM      7  C   UNL     1      20.306  37.550  38.001  1.00  0.00     0.053 C 
BRANCH   7   8
ATOM      8  C   UNL     1      19.665  38.098  39.238  1.00  0.00     0.041 C 
ATOM      9  O   UNL     1      18.473  37.806  39.518  1.00  0.00    -0.550 OA
ATOM     10  O   UNL     1      20.397  38.905  40.101  1.00  0.00    -0.550 OA
ENDBRANCH   7   8
ENDBRANCH   6   7
ENDBRANCH   5   6
ENDBRANCH   4   5
ENDBRANCH   3   4
ENDBRANCH   2   3
ENDBRANCH   1   2
BRANCH   1  11
ATOM     11  C   UNL     1      17.213  37.145  33.004  1.00  0.00     0.000 C 
BRANCH  11  12
ATOM     12  C   UNL     1      16.751  37.796  34.323  1.00  0.00    -0.000 C 
BRANCH  12  13
ATOM     13  C   UNL     1      16.854  39.334  34.361  1.00  0.00    -0.000 C 
BRANCH  13  14
ATOM     14  C   UNL     1      17.137  39.997  33.001  1.00  0.00    -0.000 C 
BRANCH  14  15
ATOM     15  C   UNL     1      18.534  40.637  32.928  1.00  0.00    -0.000 C 
BRANCH  15  16
ATOM     16  C   UNL     1      19.292  40.257  31.647  1.00  0.00    -0.000 C 
BRANCH  16  17
ATOM     17  C   UNL     1      18.349  39.901  30.488  1.00  0.00    -0.003 C 
ATOM     18  C   UNL     1      18.735  38.568  29.855  1.00  0.00     0.004 C 
ENDBRANCH  16  17
ENDBRANCH  15  16
ENDBRANCH  14  15
ENDBRANCH  13  14
ENDBRANCH  12  13
ENDBRANCH  11  12
ENDBRANCH   1  11
TORSDOF 14
ENDMDL
MODEL 8
REMARK VINA RESULT:    -3.626      3.258      5.697
REMARK INTER + INTRA:          -8.747
REMARK INTER:                  -6.248
REMARK INTRA:                  -2.499
REMARK UNBOUND:                -2.154
REMARK SMILES CCCCCCCCCCCCCCCC(=O)[O-]
REMARK SMILES IDX 9 1 10 2 11 3 12 4 13 5 14 6 15 7 16 8 17 9 18 10 8 11 7 12
REMARK SMILES IDX 6 13 5 14 4 15 3 16 2 17 1 18
REMARK H PARENT
REMARK Flexibility Score: inf
ROOT
ATOM      1  C   UNL     1      19.527  37.748  38.787  1.00  0.00     0.000 C 
ENDROOT
BRANCH   1   2
ATOM      2  C   UNL     1      19.760  39.224  38.417  1.00  0.00     0.000 C 
BRANCH   2   3
ATOM      3  C   UNL     1      19.447  39.526  36.940  1.00  0.00     0.000 C 
BRANCH   3   4
ATOM      4  C   UNL     1      18.598  38.426  36.283  1.00  0.00     0.000 C 
BRANCH   4   5
ATOM      5  C   UNL     1      18.128  38.805  34.867  1.00  0.00     0.000 C 
BRANCH   5   6
ATOM      6  C   UNL     1      17.545  37.608  34.094  1.00  0.00     0.006 C 
BRANCH   6   7
ATOM      7  C   UNL     1      18.603  36.655  33.516  1.00  0.00     0.053 C 
BRANCH   7   8
ATOM      8  C   UNL     1      18.975  37.016  32.111  1.00  0.00     0.041 C 
ATOM      9  O   UNL     1      20.097  36.684  31.647  1.00  0.00    -0.550 OA
ATOM     10  O   UNL     1      18.066  37.688  31.302  1.00  0.00    -0.550 OA
ENDBRANCH   7   8
ENDBRANCH   6   7
ENDBRANCH   5   6
ENDBRANCH   4   5
ENDBRANCH   3   4
ENDBRANCH   2   3
ENDBRANCH   1   2
BRANCH   1  11
ATOM     11  C   UNL     1      20.797  36.875  38.827  1.00  0.00     0.000 C 
BRANCH  11  12
ATOM     12  C   UNL     1      22.116  37.627  38.560  1.00  0.00    -0.000 C 
BRANCH  12  13
ATOM     13  C   UNL     1      22.766  37.337  37.192  1.00  0.00    -0.000 C 
BRANCH  13  14
ATOM     14  C   UNL     1      21.943  36.426  36.265  1.00  0.00    -0.000 C 
BRANCH  14  15
ATOM     15  C   UNL     1      21.782  37.005  34.849  1.00  0.00    -0.000 C 
BRANCH  15  16
ATOM     16  C   UNL     1      22.279  38.455  34.743  1.00  0.00    -0.000 C 
BRANCH  16  17
ATOM     17  C   UNL     1      21.752  39.168  33.490  1.00  0.00    -0.003 C 
ATOM     18  C   UNL     1      21.230  40.561  33.829  1.00  0.00     0.004 C 
ENDBRANCH  16  17
ENDBRANCH  15  16
ENDBRANCH  14  15
ENDBRANCH  13  14
ENDBRANCH  12  13
ENDBRANCH  11  12
ENDBRANCH   1  11
TORSDOF 14
ENDMDL
MODEL 9
REMARK VINA RESULT:    -3.620      1.817      3.161
REMARK INTER + INTRA:          -8.736
REMARK INTER:                  -6.444
REMARK INTRA:                  -2.292
REMARK UNBOUND:                -2.154
REMARK SMILES CCCCCCCCCCCCCCCC(=O)[O-]
REMARK SMILES IDX 9 1 10 2 11 3 12 4 13 5 14 6 15 7 16 8 17 9 18 10 8 11 7 12
REMARK SMILES IDX 6 13 5 14 4 15 3 16 2 17 1 18
REMARK H PARENT
REMARK Flexibility Score: inf
ROOT
ATOM      1  C   UNL     1      18.202  38.345  35.620  1.00  0.00     0.000 C 
ENDROOT
BRANCH   1   2
ATOM      2  C   UNL     1      19.450  37.712  34.978  1.00  0.00     0.000 C 
BRANCH   2   3
ATOM      3  C   UNL     1      20.611  38.709  34.818  1.00  0.00     0.000 C 
BRANCH   3   4
ATOM      4  C   UNL     1      21.979  38.068  35.100  1.00  0.00     0.000 C 
BRANCH   4   5
ATOM      5  C   UNL     1      21.864  36.619  35.607  1.00  0.00     0.000 C 
BRANCH   5   6
ATOM      6  C   UNL     1      22.382  36.451  37.047  1.00  0.00     0.006 C 
BRANCH   6   7
ATOM      7  C   UNL     1      21.278  36.213  38.089  1.00  0.00     0.053 C 
BRANCH   7   8
ATOM      8  C   UNL     1      20.642  37.493  38.536  1.00  0.00     0.041 C 
ATOM      9  O   UNL     1      19.431  37.513  38.881  1.00  0.00    -0.550 OA
ATOM     10  O   UNL     1      21.398  38.657  38.605  1.00  0.00    -0.550 OA
ENDBRANCH   7   8
ENDBRANCH   6   7
ENDBRANCH   5   6
ENDBRANCH   4   5
ENDBRANCH   3   4
ENDBRANCH   2   3
ENDBRANCH   1   2
BRANCH   1  11
ATOM     11  C   UNL     1      17.485  39.401  34.756  1.00  0.00     0.000 C 
BRANCH  11  12
ATOM     12  C   UNL     1      16.556  38.833  33.667  1.00  0.00    -0.000 C 
BRANCH  12  13
ATOM     13  C   UNL     1      17.178  38.748  32.258  1.00  0.00    -0.000 C 
BRANCH  13  14
ATOM     14  C   UNL     1      18.006  39.976  31.842  1.00  0.00    -0.000 C 
BRANCH  14  15
ATOM     15  C   UNL     1      19.429  39.610  31.384  1.00  0.00    -0.000 C 
BRANCH  15  16
ATOM     16  C   UNL     1      19.515  38.190  30.804  1.00  0.00    -0.000 C 
BRANCH  16  17
ATOM     17  C   UNL     1      20.751  37.424  31.300  1.00  0.00    -0.003 C 
ATOM     18  C   UNL     1      21.986  38.320  31.306  1.00  0.00     0.004 C 
ENDBRANCH  16  17
ENDBRANCH  15  16
ENDBRANCH  14  15
ENDBRANCH  13  14
ENDBRANCH  12  13
ENDBRANCH  11  12
ENDBRANCH   1  11
TORSDOF 14
ENDMDL
