MODEL 1
REMARK VINA RESULT:    -3.251      0.000      0.000
REMARK INTER + INTRA:          -5.080
REMARK INTER:                  -4.961
REMARK INTRA:                  -0.119
REMARK UNBOUND:                -0.119
REMARK SMILES CC1=CCC[C@@H](C)C(=O)C[C@@H](C(C)C)C(=O)C1
REMARK SMILES IDX 8 1 9 2 6 3 7 4 5 5 4 6 3 7 2 8 1 9 10 11 11 12 15 13 16 14
REMARK SMILES IDX 17 15 12 17 13 18 14 19
REMARK H PARENT
REMARK Flexibility Score: 70.00
ROOT
ATOM      1  C   UNL     1      24.190 -31.489 -12.444  1.00  0.00     0.136 C 
ATOM      2  O   UNL     1      23.904 -30.300 -12.472  1.00  0.00    -0.299 OA
ENDROOT
BRANCH   1   3
ATOM      3  C   UNL     1      24.733 -32.080 -11.155  1.00  0.00     0.053 C 
ATOM      4  C   UNL     1      23.581 -32.502 -10.237  1.00  0.00     0.016 C 
BRANCH   3   5
ATOM      5  C   UNL     1      25.691 -31.117 -10.424  1.00  0.00     0.015 C 
BRANCH   5   6
ATOM      6  C   UNL     1      27.007 -30.920 -11.197  1.00  0.00     0.028 C 
BRANCH   6   7
ATOM      7  C   UNL     1      27.740 -32.214 -11.438  1.00  0.00    -0.028 C 
ATOM      8  C   UNL     1      28.077 -32.725 -12.649  1.00  0.00    -0.070 CG0
ATOM      9  C   UNL     1      28.719 -34.092 -12.664  1.00  0.00     0.039 C 
ATOM     10  G   UNL     1      27.904 -31.991 -13.977  1.00  0.00     0.000 G0
ENDBRANCH   6   7
ENDBRANCH   5   6
ENDBRANCH   3   5
ENDBRANCH   1   3
BRANCH   1  11
ATOM     11  C   UNL     1      24.059 -32.302 -13.713  1.00  0.00     0.087 C 
BRANCH  11  12
ATOM     12  C   UNL     1      25.407 -32.918 -14.179  1.00  0.00     0.066 C 
BRANCH  12  13
ATOM     13  C   UNL     1      26.485 -31.883 -14.500  1.00  0.00     0.140 C 
ATOM     14  O   UNL     1      26.155 -30.867 -15.096  1.00  0.00    -0.299 OA
BRANCH  13  15
ATOM     15  C   UNL     1      27.906 -31.991 -13.994  1.00  0.00     0.106 CG0
ATOM     16  G   UNL     1      28.051 -32.738 -12.671  1.00  0.00     0.000 G0
ENDBRANCH  13  15
ENDBRANCH  12  13
BRANCH  12  17
ATOM     17  C   UNL     1      25.208 -33.975 -15.310  1.00  0.00    -0.006 C 
ATOM     18  C   UNL     1      26.364 -34.977 -15.463  1.00  0.00     0.008 C 
ATOM     19  C   UNL     1      23.874 -34.724 -15.161  1.00  0.00     0.008 C 
ENDBRANCH  12  17
ENDBRANCH  11  12
ENDBRANCH   1  11
TORSDOF 1
ENDMDL
MODEL 2
REMARK VINA RESULT:    -3.033      1.687      2.228
REMARK INTER + INTRA:          -4.748
REMARK INTER:                  -4.592
REMARK INTRA:                  -0.156
REMARK UNBOUND:                -0.119
REMARK SMILES CC1=CCC[C@@H](C)C(=O)C[C@@H](C(C)C)C(=O)C1
REMARK SMILES IDX 8 1 9 2 6 3 7 4 5 5 4 6 3 7 2 8 1 9 10 11 11 12 15 13 16 14
REMARK SMILES IDX 17 15 12 17 13 18 14 19
REMARK H PARENT
REMARK Flexibility Score: 70.00
ROOT
ATOM      1  C   UNL     1      24.520 -32.786 -12.954  1.00  0.00     0.136 C 
ATOM      2  O   UNL     1      23.431 -33.244 -13.267  1.00  0.00    -0.299 OA
ENDROOT
BRANCH   1   3
ATOM      3  C   UNL     1      24.666 -32.110 -11.601  1.00  0.00     0.053 C 
ATOM      4  C   UNL     1      23.518 -32.521 -10.674  1.00  0.00     0.016 C 
BRANCH   3   5
ATOM      5  C   UNL     1      24.754 -30.574 -11.718  1.00  0.00     0.015 C 
BRANCH   5   6
ATOM      6  C   UNL     1      26.192 -30.099 -11.981  1.00  0.00     0.028 C 
BRANCH   6   7
ATOM      7  C   UNL     1      27.197 -30.743 -11.062  1.00  0.00    -0.028 C 
ATOM      8  C   UNL     1      28.096 -31.700 -11.408  1.00  0.00    -0.070 CG0
ATOM      9  C   UNL     1      28.940 -32.282 -10.299  1.00  0.00     0.039 C 
ATOM     10  G   UNL     1      28.346 -32.175 -12.837  1.00  0.00     0.000 G0
ENDBRANCH   6   7
ENDBRANCH   5   6
ENDBRANCH   3   5
ENDBRANCH   1   3
BRANCH   1  11
ATOM     11  C   UNL     1      25.654 -32.847 -13.952  1.00  0.00     0.087 C 
BRANCH  11  12
ATOM     12  C   UNL     1      26.618 -34.039 -13.701  1.00  0.00     0.066 C 
BRANCH  12  13
ATOM     13  C   UNL     1      27.967 -33.634 -13.107  1.00  0.00     0.140 C 
ATOM     14  O   UNL     1      28.810 -34.503 -12.935  1.00  0.00    -0.299 OA
BRANCH  13  15
ATOM     15  C   UNL     1      28.355 -32.195 -12.854  1.00  0.00     0.106 CG0
ATOM     16  G   UNL     1      28.095 -31.711 -11.429  1.00  0.00     0.000 G0
ENDBRANCH  13  15
ENDBRANCH  12  13
BRANCH  12  17
ATOM     17  C   UNL     1      26.746 -34.963 -14.953  1.00  0.00    -0.006 C 
ATOM     18  C   UNL     1      25.405 -35.392 -15.572  1.00  0.00     0.008 C 
ATOM     19  C   UNL     1      27.651 -34.342 -16.029  1.00  0.00     0.008 C 
ENDBRANCH  12  17
ENDBRANCH  11  12
ENDBRANCH   1  11
TORSDOF 1
ENDMDL
MODEL 3
REMARK VINA RESULT:    -2.859     12.397     13.872
REMARK INTER + INTRA:          -4.482
REMARK INTER:                  -3.918
REMARK INTRA:                  -0.564
REMARK UNBOUND:                -0.119
REMARK SMILES CC1=CCC[C@@H](C)C(=O)C[C@@H](C(C)C)C(=O)C1
REMARK SMILES IDX 8 1 9 2 6 3 7 4 5 5 4 6 3 7 2 8 1 9 10 11 11 12 15 13 16 14
REMARK SMILES IDX 17 15 12 17 13 18 14 19
REMARK H PARENT
REMARK Flexibility Score: 70.00
ROOT
ATOM      1  C   UNL     1      25.791 -43.665  -9.495  1.00  0.00     0.136 C 
ATOM      2  O   UNL     1      25.133 -42.741  -9.038  1.00  0.00    -0.299 OA
ENDROOT
BRANCH   1   3
ATOM      3  C   UNL     1      26.917 -43.351 -10.465  1.00  0.00     0.053 C 
ATOM      4  C   UNL     1      27.887 -42.340  -9.844  1.00  0.00     0.016 C 
BRANCH   3   5
ATOM      5  C   UNL     1      26.397 -42.846 -11.827  1.00  0.00     0.015 C 
BRANCH   5   6
ATOM      6  C   UNL     1      25.691 -43.958 -12.620  1.00  0.00     0.028 C 
BRANCH   6   7
ATOM      7  C   UNL     1      26.644 -45.012 -13.121  1.00  0.00    -0.028 C 
ATOM      8  C   UNL     1      26.747 -46.282 -12.652  1.00  0.00    -0.070 CG0
ATOM      9  C   UNL     1      27.846 -47.141 -13.230  1.00  0.00     0.039 C 
ATOM     10  G   UNL     1      25.795 -46.908 -11.635  1.00  0.00     0.000 G0
ENDBRANCH   6   7
ENDBRANCH   5   6
ENDBRANCH   3   5
ENDBRANCH   1   3
BRANCH   1  11
ATOM     11  C   UNL     1      25.410 -45.083  -9.132  1.00  0.00     0.087 C 
BRANCH  11  12
ATOM     12  C   UNL     1      26.607 -46.071  -9.214  1.00  0.00     0.066 C 
BRANCH  12  13
ATOM     13  C   UNL     1      26.444 -47.158 -10.276  1.00  0.00     0.140 C 
ATOM     14  O   UNL     1      26.745 -48.306  -9.982  1.00  0.00    -0.299 OA
BRANCH  13  15
ATOM     15  C   UNL     1      25.801 -46.904 -11.621  1.00  0.00     0.106 CG0
ATOM     16  G   UNL     1      26.734 -46.290 -12.662  1.00  0.00     0.000 G0
ENDBRANCH  13  15
ENDBRANCH  12  13
BRANCH  12  17
ATOM     17  C   UNL     1      27.001 -46.630  -7.811  1.00  0.00    -0.006 C 
ATOM     18  C   UNL     1      28.380 -46.176  -7.305  1.00  0.00     0.008 C 
ATOM     19  C   UNL     1      25.925 -46.331  -6.756  1.00  0.00     0.008 C 
ENDBRANCH  12  17
ENDBRANCH  11  12
ENDBRANCH   1  11
TORSDOF 1
ENDMDL
MODEL 4
REMARK VINA RESULT:    -2.821      1.770      2.481
REMARK INTER + INTRA:          -4.424
REMARK INTER:                  -3.895
REMARK INTRA:                  -0.529
REMARK UNBOUND:                -0.119
REMARK SMILES CC1=CCC[C@@H](C)C(=O)C[C@@H](C(C)C)C(=O)C1
REMARK SMILES IDX 8 1 9 2 6 3 7 4 5 5 4 6 3 7 2 8 1 9 10 11 11 12 15 13 16 14
REMARK SMILES IDX 17 15 12 17 13 18 14 19
REMARK H PARENT
REMARK Flexibility Score: 70.00
ROOT
ATOM      1  C   UNL     1      24.185 -30.646 -11.541  1.00  0.00     0.136 C 
ATOM      2  O   UNL     1      23.130 -30.035 -11.630  1.00  0.00    -0.299 OA
ENDROOT
BRANCH   1   3
ATOM      3  C   UNL     1      24.388 -31.588 -10.367  1.00  0.00     0.053 C 
ATOM      4  C   UNL     1      23.199 -32.546 -10.243  1.00  0.00     0.016 C 
BRANCH   3   5
ATOM      5  C   UNL     1      24.625 -30.834  -9.042  1.00  0.00     0.015 C 
BRANCH   5   6
ATOM      6  C   UNL     1      26.061 -30.294  -8.938  1.00  0.00     0.028 C 
BRANCH   6   7
ATOM      7  C   UNL     1      27.098 -31.387  -8.955  1.00  0.00    -0.028 C 
ATOM      8  C   UNL     1      27.945 -31.665  -9.978  1.00  0.00    -0.070 CG0
ATOM      9  C   UNL     1      28.835 -32.875  -9.824  1.00  0.00     0.039 C 
ATOM     10  G   UNL     1      28.097 -30.809 -11.234  1.00  0.00     0.000 G0
ENDBRANCH   6   7
ENDBRANCH   5   6
ENDBRANCH   3   5
ENDBRANCH   1   3
BRANCH   1  11
ATOM     11  C   UNL     1      25.270 -30.383 -12.562  1.00  0.00     0.087 C 
BRANCH  11  12
ATOM     12  C   UNL     1      26.140 -31.637 -12.857  1.00  0.00     0.066 C 
BRANCH  12  13
ATOM     13  C   UNL     1      27.619 -31.462 -12.517  1.00  0.00     0.140 C 
ATOM     14  O   UNL     1      28.449 -31.757 -13.366  1.00  0.00    -0.299 OA
BRANCH  13  15
ATOM     15  C   UNL     1      28.098 -30.813 -11.238  1.00  0.00     0.106 CG0
ATOM     16  G   UNL     1      27.947 -31.684  -9.993  1.00  0.00     0.000 G0
ENDBRANCH  13  15
ENDBRANCH  12  13
BRANCH  12  17
ATOM     17  C   UNL     1      25.896 -32.192 -14.296  1.00  0.00    -0.006 C 
ATOM     18  C   UNL     1      24.844 -33.310 -14.383  1.00  0.00     0.008 C 
ATOM     19  C   UNL     1      25.560 -31.070 -15.290  1.00  0.00     0.008 C 
ENDBRANCH  12  17
ENDBRANCH  11  12
ENDBRANCH   1  11
TORSDOF 1
ENDMDL
MODEL 5
REMARK VINA RESULT:    -2.809     12.417     14.031
REMARK INTER + INTRA:          -4.405
REMARK INTER:                  -4.187
REMARK INTRA:                  -0.218
REMARK UNBOUND:                -0.119
REMARK SMILES CC1=CCC[C@@H](C)C(=O)C[C@@H](C(C)C)C(=O)C1
REMARK SMILES IDX 8 1 9 2 6 3 7 4 5 5 4 6 3 7 2 8 1 9 10 11 11 12 15 13 16 14
REMARK SMILES IDX 17 15 12 17 13 18 14 19
REMARK H PARENT
REMARK Flexibility Score: 70.00
ROOT
ATOM      1  C   UNL     1      26.832 -43.355 -10.849  1.00  0.00     0.136 C 
ATOM      2  O   UNL     1      27.449 -42.688 -10.031  1.00  0.00    -0.299 OA
ENDROOT
BRANCH   1   3
ATOM      3  C   UNL     1      27.100 -43.129 -12.327  1.00  0.00     0.053 C 
ATOM      4  C   UNL     1      25.811 -42.717 -13.045  1.00  0.00     0.016 C 
BRANCH   3   5
ATOM      5  C   UNL     1      27.735 -44.361 -13.004  1.00  0.00     0.015 C 
BRANCH   5   6
ATOM      6  C   UNL     1      26.676 -45.275 -13.643  1.00  0.00     0.028 C 
BRANCH   6   7
ATOM      7  C   UNL     1      27.002 -46.738 -13.492  1.00  0.00    -0.028 C 
ATOM      8  C   UNL     1      26.618 -47.539 -12.466  1.00  0.00    -0.070 CG0
ATOM      9  C   UNL     1      27.146 -48.954 -12.463  1.00  0.00     0.039 C 
ATOM     10  G   UNL     1      25.650 -47.123 -11.360  1.00  0.00     0.000 G0
ENDBRANCH   6   7
ENDBRANCH   5   6
ENDBRANCH   3   5
ENDBRANCH   1   3
BRANCH   1  11
ATOM     11  C   UNL     1      25.778 -44.322 -10.359  1.00  0.00     0.087 C 
BRANCH  11  12
ATOM     12  C   UNL     1      26.355 -45.427  -9.430  1.00  0.00     0.066 C 
BRANCH  12  13
ATOM     13  C   UNL     1      26.280 -46.835 -10.020  1.00  0.00     0.140 C 
ATOM     14  O   UNL     1      26.649 -47.773  -9.327  1.00  0.00    -0.299 OA
BRANCH  13  15
ATOM     15  C   UNL     1      25.647 -47.134 -11.359  1.00  0.00     0.106 CG0
ATOM     16  G   UNL     1      26.637 -47.533 -12.452  1.00  0.00     0.000 G0
ENDBRANCH  13  15
ENDBRANCH  12  13
BRANCH  12  17
ATOM     17  C   UNL     1      25.783 -45.331  -7.981  1.00  0.00    -0.006 C 
ATOM     18  C   UNL     1      26.844 -45.371  -6.869  1.00  0.00     0.008 C 
ATOM     19  C   UNL     1      24.879 -44.101  -7.806  1.00  0.00     0.008 C 
ENDBRANCH  12  17
ENDBRANCH  11  12
ENDBRANCH   1  11
TORSDOF 1
ENDMDL
MODEL 6
REMARK VINA RESULT:    -2.759     12.617     13.811
REMARK INTER + INTRA:          -4.329
REMARK INTER:                  -4.164
REMARK INTRA:                  -0.165
REMARK UNBOUND:                -0.119
REMARK SMILES CC1=CCC[C@@H](C)C(=O)C[C@@H](C(C)C)C(=O)C1
REMARK SMILES IDX 8 1 9 2 6 3 7 4 5 5 4 6 3 7 2 8 1 9 10 11 11 12 15 13 16 14
REMARK SMILES IDX 17 15 12 17 13 18 14 19
REMARK H PARENT
REMARK Flexibility Score: 70.00
ROOT
ATOM      1  C   UNL     1      26.263 -43.988  -9.108  1.00  0.00     0.136 C 
ATOM      2  O   UNL     1      25.683 -42.919  -8.984  1.00  0.00    -0.299 OA
ENDROOT
BRANCH   1   3
ATOM      3  C   UNL     1      25.955 -45.105  -8.126  1.00  0.00     0.053 C 
ATOM      4  C   UNL     1      24.616 -44.846  -7.429  1.00  0.00     0.016 C 
BRANCH   3   5
ATOM      5  C   UNL     1      27.082 -45.306  -7.091  1.00  0.00     0.015 C 
BRANCH   5   6
ATOM      6  C   UNL     1      28.274 -46.076  -7.682  1.00  0.00     0.028 C 
BRANCH   6   7
ATOM      7  C   UNL     1      27.876 -47.406  -8.268  1.00  0.00    -0.028 C 
ATOM      8  C   UNL     1      27.877 -47.728  -9.587  1.00  0.00    -0.070 CG0
ATOM      9  C   UNL     1      27.338 -49.088  -9.962  1.00  0.00     0.039 C 
ATOM     10  G   UNL     1      28.436 -46.838 -10.695  1.00  0.00     0.000 G0
ENDBRANCH   6   7
ENDBRANCH   5   6
ENDBRANCH   3   5
ENDBRANCH   1   3
BRANCH   1  11
ATOM     11  C   UNL     1      27.314 -44.129 -10.188  1.00  0.00     0.087 C 
BRANCH  11  12
ATOM     12  C   UNL     1      26.793 -44.879 -11.445  1.00  0.00     0.066 C 
BRANCH  12  13
ATOM     13  C   UNL     1      27.406 -46.265 -11.640  1.00  0.00     0.140 C 
ATOM     14  O   UNL     1      27.132 -46.883 -12.659  1.00  0.00    -0.299 OA
BRANCH  13  15
ATOM     15  C   UNL     1      28.439 -46.848 -10.702  1.00  0.00     0.106 CG0
ATOM     16  G   UNL     1      27.862 -47.723  -9.591  1.00  0.00     0.000 G0
ENDBRANCH  13  15
ENDBRANCH  12  13
BRANCH  12  17
ATOM     17  C   UNL     1      26.856 -43.988 -12.725  1.00  0.00    -0.006 C 
ATOM     18  C   UNL     1      25.596 -43.145 -12.982  1.00  0.00     0.008 C 
ATOM     19  C   UNL     1      28.104 -43.092 -12.735  1.00  0.00     0.008 C 
ENDBRANCH  12  17
ENDBRANCH  11  12
ENDBRANCH   1  11
TORSDOF 1
ENDMDL
MODEL 7
REMARK VINA RESULT:    -2.653      1.814      2.982
REMARK INTER + INTRA:          -4.167
REMARK INTER:                  -3.651
REMARK INTRA:                  -0.515
REMARK UNBOUND:                -0.119
REMARK SMILES CC1=CCC[C@@H](C)C(=O)C[C@@H](C(C)C)C(=O)C1
REMARK SMILES IDX 8 1 9 2 6 3 7 4 5 5 4 6 3 7 2 8 1 9 10 11 11 12 15 13 16 14
REMARK SMILES IDX 17 15 12 17 13 18 14 19
REMARK H PARENT
REMARK Flexibility Score: 70.00
ROOT
ATOM      1  C   UNL     1      24.532 -31.850 -14.079  1.00  0.00     0.136 C 
ATOM      2  O   UNL     1      23.497 -31.458 -14.598  1.00  0.00    -0.299 OA
ENDROOT
BRANCH   1   3
ATOM      3  C   UNL     1      24.462 -32.996 -13.084  1.00  0.00     0.053 C 
ATOM      4  C   UNL     1      23.858 -34.238 -13.746  1.00  0.00     0.016 C 
BRANCH   3   5
ATOM      5  C   UNL     1      23.681 -32.619 -11.808  1.00  0.00     0.015 C 
BRANCH   5   6
ATOM      6  C   UNL     1      24.236 -31.345 -11.149  1.00  0.00     0.028 C 
BRANCH   6   7
ATOM      7  C   UNL     1      25.406 -31.620 -10.241  1.00  0.00    -0.028 C 
ATOM      8  C   UNL     1      26.709 -31.362 -10.519  1.00  0.00    -0.070 CG0
ATOM      9  C   UNL     1      27.731 -31.816  -9.505  1.00  0.00     0.039 C 
ATOM     10  G   UNL     1      27.196 -30.597 -11.748  1.00  0.00     0.000 G0
ENDBRANCH   6   7
ENDBRANCH   5   6
ENDBRANCH   3   5
ENDBRANCH   1   3
BRANCH   1  11
ATOM     11  C   UNL     1      25.826 -31.132 -14.393  1.00  0.00     0.087 C 
BRANCH  11  12
ATOM     12  C   UNL     1      27.085 -31.973 -14.045  1.00  0.00     0.066 C 
BRANCH  12  13
ATOM     13  C   UNL     1      27.844 -31.478 -12.815  1.00  0.00     0.140 C 
ATOM     14  O   UNL     1      29.044 -31.702 -12.744  1.00  0.00    -0.299 OA
BRANCH  13  15
ATOM     15  C   UNL     1      27.211 -30.607 -11.753  1.00  0.00     0.106 CG0
ATOM     16  G   UNL     1      26.722 -31.367 -10.521  1.00  0.00     0.000 G0
ENDBRANCH  13  15
ENDBRANCH  12  13
BRANCH  12  17
ATOM     17  C   UNL     1      28.002 -32.197 -15.289  1.00  0.00    -0.006 C 
ATOM     18  C   UNL     1      28.385 -33.663 -15.548  1.00  0.00     0.008 C 
ATOM     19  C   UNL     1      27.400 -31.575 -16.559  1.00  0.00     0.008 C 
ENDBRANCH  12  17
ENDBRANCH  11  12
ENDBRANCH   1  11
TORSDOF 1
ENDMDL
MODEL 8
REMARK VINA RESULT:    -2.532     14.166     15.491
REMARK INTER + INTRA:          -3.983
REMARK INTER:                  -3.893
REMARK INTRA:                  -0.091
REMARK UNBOUND:                -0.119
REMARK SMILES CC1=CCC[C@@H](C)C(=O)C[C@@H](C(C)C)C(=O)C1
REMARK SMILES IDX 8 1 9 2 6 3 7 4 5 5 4 6 3 7 2 8 1 9 10 11 11 12 15 13 16 14
REMARK SMILES IDX 17 15 12 17 13 18 14 19
REMARK H PARENT
REMARK Flexibility Score: 70.00
ROOT
ATOM      1  C   UNL     1      26.822 -45.677  -7.618  1.00  0.00     0.136 C 
ATOM      2  O   UNL     1      27.870 -45.344  -7.084  1.00  0.00    -0.299 OA
ENDROOT
BRANCH   1   3
ATOM      3  C   UNL     1      25.829 -44.598  -8.014  1.00  0.00     0.053 C 
ATOM      4  C   UNL     1      24.625 -44.609  -7.066  1.00  0.00     0.016 C 
BRANCH   3   5
ATOM      5  C   UNL     1      25.372 -44.729  -9.482  1.00  0.00     0.015 C 
BRANCH   5   6
ATOM      6  C   UNL     1      26.565 -44.820 -10.449  1.00  0.00     0.028 C 
BRANCH   6   7
ATOM      7  C   UNL     1      26.231 -45.561 -11.717  1.00  0.00    -0.028 C 
ATOM      8  C   UNL     1      26.023 -46.897 -11.829  1.00  0.00    -0.070 CG0
ATOM      9  C   UNL     1      25.804 -47.445 -13.219  1.00  0.00     0.039 C 
ATOM     10  G   UNL     1      25.938 -47.862 -10.648  1.00  0.00     0.000 G0
ENDBRANCH   6   7
ENDBRANCH   5   6
ENDBRANCH   3   5
ENDBRANCH   1   3
BRANCH   1  11
ATOM     11  C   UNL     1      26.528 -47.150  -7.796  1.00  0.00     0.087 C 
BRANCH  11  12
ATOM     12  C   UNL     1      27.641 -47.900  -8.579  1.00  0.00     0.066 C 
BRANCH  12  13
ATOM     13  C   UNL     1      27.266 -48.239 -10.021  1.00  0.00     0.140 C 
ATOM     14  O   UNL     1      28.033 -48.935 -10.671  1.00  0.00    -0.299 OA
BRANCH  13  15
ATOM     15  C   UNL     1      25.934 -47.870 -10.634  1.00  0.00     0.106 CG0
ATOM     16  G   UNL     1      26.026 -46.911 -11.818  1.00  0.00     0.000 G0
ENDBRANCH  13  15
ENDBRANCH  12  13
BRANCH  12  17
ATOM     17  C   UNL     1      28.197 -49.120  -7.780  1.00  0.00    -0.006 C 
ATOM     18  C   UNL     1      29.110 -48.751  -6.599  1.00  0.00     0.008 C 
ATOM     19  C   UNL     1      27.071 -50.053  -7.308  1.00  0.00     0.008 C 
ENDBRANCH  12  17
ENDBRANCH  11  12
ENDBRANCH   1  11
TORSDOF 1
ENDMDL
MODEL 9
REMARK VINA RESULT:    -2.412     12.621     13.992
REMARK INTER + INTRA:          -3.800
REMARK INTER:                  -3.278
REMARK INTRA:                  -0.522
REMARK UNBOUND:                -0.119
REMARK SMILES CC1=CCC[C@@H](C)C(=O)C[C@@H](C(C)C)C(=O)C1
REMARK SMILES IDX 8 1 9 2 6 3 7 4 5 5 4 6 3 7 2 8 1 9 10 11 11 12 15 13 16 14
REMARK SMILES IDX 17 15 12 17 13 18 14 19
REMARK H PARENT
REMARK Flexibility Score: 70.00
ROOT
ATOM      1  C   UNL     1      27.803 -43.942 -11.504  1.00  0.00     0.136 C 
ATOM      2  O   UNL     1      28.485 -42.938 -11.650  1.00  0.00    -0.299 OA
ENDROOT
BRANCH   1   3
ATOM      3  C   UNL     1      26.298 -43.788 -11.364  1.00  0.00     0.053 C 
ATOM      4  C   UNL     1      25.754 -42.857 -12.453  1.00  0.00     0.016 C 
BRANCH   3   5
ATOM      5  C   UNL     1      25.885 -43.293  -9.963  1.00  0.00     0.015 C 
BRANCH   5   6
ATOM      6  C   UNL     1      25.455 -44.451  -9.047  1.00  0.00     0.028 C 
BRANCH   6   7
ATOM      7  C   UNL     1      26.546 -44.884  -8.103  1.00  0.00    -0.028 C 
ATOM      8  C   UNL     1      27.070 -46.133  -8.010  1.00  0.00    -0.070 CG0
ATOM      9  C   UNL     1      28.086 -46.372  -6.918  1.00  0.00     0.039 C 
ATOM     10  G   UNL     1      26.747 -47.280  -8.965  1.00  0.00     0.000 G0
ENDBRANCH   6   7
ENDBRANCH   5   6
ENDBRANCH   3   5
ENDBRANCH   1   3
BRANCH   1  11
ATOM     11  C   UNL     1      28.491 -45.285 -11.397  1.00  0.00     0.087 C 
BRANCH  11  12
ATOM     12  C   UNL     1      27.494 -46.477 -11.395  1.00  0.00     0.066 C 
BRANCH  12  13
ATOM     13  C   UNL     1      27.632 -47.400 -10.185  1.00  0.00     0.140 C 
ATOM     14  O   UNL     1      28.575 -48.179 -10.154  1.00  0.00    -0.299 OA
BRANCH  13  15
ATOM     15  C   UNL     1      26.742 -47.300  -8.967  1.00  0.00     0.106 CG0
ATOM     16  G   UNL     1      27.078 -46.141  -8.031  1.00  0.00     0.000 G0
ENDBRANCH  13  15
ENDBRANCH  12  13
BRANCH  12  17
ATOM     17  C   UNL     1      27.490 -47.238 -12.757  1.00  0.00    -0.006 C 
ATOM     18  C   UNL     1      26.090 -47.537 -13.320  1.00  0.00     0.008 C 
ATOM     19  C   UNL     1      28.343 -46.519 -13.814  1.00  0.00     0.008 C 
ENDBRANCH  12  17
ENDBRANCH  11  12
ENDBRANCH   1  11
TORSDOF 1
ENDMDL
