MODEL 1
REMARK VINA RESULT:    -6.332      0.000      0.000
REMARK INTER + INTRA:         -13.299
REMARK INTER:                 -11.514
REMARK INTRA:                  -1.785
REMARK UNBOUND:                -1.785
REMARK SMILES CCCCCCCCCCCCCC[C@@H](C)C(=O)[O-]
REMARK SMILES IDX 9 1 10 2 11 3 12 4 13 5 14 6 15 7 16 8 17 9 18 10 19 11 8 12
REMARK SMILES IDX 7 13 6 14 5 15 4 16 3 17 2 18 1 19
REMARK H PARENT
REMARK Flexibility Score: inf
ROOT
ATOM      1  C   UNL     1      14.896   1.982  16.393  1.00  0.00     0.000 C 
ENDROOT
BRANCH   1   2
ATOM      2  C   UNL     1      13.390   2.068  16.685  1.00  0.00     0.000 C 
BRANCH   2   3
ATOM      3  C   UNL     1      13.051   1.732  18.148  1.00  0.00     0.000 C 
BRANCH   3   4
ATOM      4  C   UNL     1      13.335   0.263  18.497  1.00  0.00     0.000 C 
BRANCH   4   5
ATOM      5  C   UNL     1      14.351   0.111  19.643  1.00  0.00     0.001 C 
BRANCH   5   6
ATOM      6  C   UNL     1      15.140  -1.213  19.552  1.00  0.00     0.009 C 
BRANCH   6   7
ATOM      7  C   UNL     1      15.775  -1.457  18.165  1.00  0.00     0.032 C 
ATOM      8  C   UNL     1      17.299  -1.275  18.176  1.00  0.00     0.014 C 
BRANCH   7   9
ATOM      9  C   UNL     1      15.441  -2.845  17.688  1.00  0.00     0.044 C 
ATOM     10  O   UNL     1      14.308  -3.342  17.924  1.00  0.00    -0.550 OA
ATOM     11  O   UNL     1      16.376  -3.586  16.976  1.00  0.00    -0.550 OA
ENDBRANCH   7   9
ENDBRANCH   6   7
ENDBRANCH   5   6
ENDBRANCH   4   5
ENDBRANCH   3   4
ENDBRANCH   2   3
ENDBRANCH   1   2
BRANCH   1  12
ATOM     12  C   UNL     1      15.234   0.891  15.362  1.00  0.00     0.000 C 
BRANCH  12  13
ATOM     13  C   UNL     1      14.402   1.014  14.075  1.00  0.00    -0.000 C 
BRANCH  13  14
ATOM     14  C   UNL     1      15.147   1.750  12.952  1.00  0.00    -0.000 C 
BRANCH  14  15
ATOM     15  C   UNL     1      15.367   0.828  11.743  1.00  0.00    -0.000 C 
BRANCH  15  16
ATOM     16  C   UNL     1      16.860   0.674  11.385  1.00  0.00    -0.000 C 
BRANCH  16  17
ATOM     17  C   UNL     1      17.372  -0.776  11.467  1.00  0.00    -0.000 C 
BRANCH  17  18
ATOM     18  C   UNL     1      18.038  -1.150  12.800  1.00  0.00    -0.003 C 
ATOM     19  C   UNL     1      17.045  -1.692  13.829  1.00  0.00     0.004 C 
ENDBRANCH  17  18
ENDBRANCH  16  17
ENDBRANCH  15  16
ENDBRANCH  14  15
ENDBRANCH  13  14
ENDBRANCH  12  13
ENDBRANCH   1  12
TORSDOF 14
ENDMDL
MODEL 2
REMARK VINA RESULT:    -6.263      1.446      2.824
REMARK INTER + INTRA:         -13.174
REMARK INTER:                 -11.301
REMARK INTRA:                  -1.873
REMARK UNBOUND:                -1.785
REMARK SMILES CCCCCCCCCCCCCC[C@@H](C)C(=O)[O-]
REMARK SMILES IDX 9 1 10 2 11 3 12 4 13 5 14 6 15 7 16 8 17 9 18 10 19 11 8 12
REMARK SMILES IDX 7 13 6 14 5 15 4 16 3 17 2 18 1 19
REMARK H PARENT
REMARK Flexibility Score: inf
ROOT
ATOM      1  C   UNL     1      15.103   1.629  13.717  1.00  0.00     0.000 C 
ENDROOT
BRANCH   1   2
ATOM      2  C   UNL     1      14.253   1.392  14.975  1.00  0.00     0.000 C 
BRANCH   2   3
ATOM      3  C   UNL     1      15.054   1.588  16.275  1.00  0.00     0.000 C 
BRANCH   3   4
ATOM      4  C   UNL     1      14.330   2.491  17.285  1.00  0.00     0.000 C 
BRANCH   4   5
ATOM      5  C   UNL     1      13.352   1.711  18.183  1.00  0.00     0.001 C 
BRANCH   5   6
ATOM      6  C   UNL     1      14.058   1.077  19.401  1.00  0.00     0.009 C 
BRANCH   6   7
ATOM      7  C   UNL     1      14.001  -0.468  19.410  1.00  0.00     0.032 C 
ATOM      8  C   UNL     1      13.178  -1.032  18.245  1.00  0.00     0.014 C 
BRANCH   7   9
ATOM      9  C   UNL     1      15.396  -1.030  19.356  1.00  0.00     0.044 C 
ATOM     10  O   UNL     1      15.628  -2.193  19.782  1.00  0.00    -0.550 OA
ATOM     11  O   UNL     1      16.437  -0.275  18.830  1.00  0.00    -0.550 OA
ENDBRANCH   7   9
ENDBRANCH   6   7
ENDBRANCH   5   6
ENDBRANCH   4   5
ENDBRANCH   3   4
ENDBRANCH   2   3
ENDBRANCH   1   2
BRANCH   1  12
ATOM     12  C   UNL     1      15.022   0.457  12.723  1.00  0.00     0.000 C 
BRANCH  12  13
ATOM     13  C   UNL     1      15.676   0.781  11.371  1.00  0.00    -0.000 C 
BRANCH  13  14
ATOM     14  C   UNL     1      16.743  -0.245  10.964  1.00  0.00    -0.000 C 
BRANCH  14  15
ATOM     15  C   UNL     1      17.777  -0.435  12.083  1.00  0.00    -0.000 C 
BRANCH  15  16
ATOM     16  C   UNL     1      17.669  -1.821  12.755  1.00  0.00    -0.000 C 
BRANCH  16  17
ATOM     17  C   UNL     1      18.191  -1.851  14.203  1.00  0.00    -0.000 C 
BRANCH  17  18
ATOM     18  C   UNL     1      17.303  -1.122  15.223  1.00  0.00    -0.003 C 
ATOM     19  C   UNL     1      16.167  -1.997  15.755  1.00  0.00     0.004 C 
ENDBRANCH  17  18
ENDBRANCH  16  17
ENDBRANCH  15  16
ENDBRANCH  14  15
ENDBRANCH  13  14
ENDBRANCH  12  13
ENDBRANCH   1  12
TORSDOF 14
ENDMDL
MODEL 3
REMARK VINA RESULT:    -6.234      1.984      3.806
REMARK INTER + INTRA:         -13.121
REMARK INTER:                 -11.294
REMARK INTRA:                  -1.828
REMARK UNBOUND:                -1.785
REMARK SMILES CCCCCCCCCCCCCC[C@@H](C)C(=O)[O-]
REMARK SMILES IDX 9 1 10 2 11 3 12 4 13 5 14 6 15 7 16 8 17 9 18 10 19 11 8 12
REMARK SMILES IDX 7 13 6 14 5 15 4 16 3 17 2 18 1 19
REMARK H PARENT
REMARK Flexibility Score: inf
ROOT
ATOM      1  C   UNL     1      13.633   0.484  18.897  1.00  0.00     0.000 C 
ENDROOT
BRANCH   1   2
ATOM      2  C   UNL     1      14.524   0.157  20.107  1.00  0.00     0.000 C 
BRANCH   2   3
ATOM      3  C   UNL     1      15.289  -1.167  19.936  1.00  0.00     0.000 C 
BRANCH   3   4
ATOM      4  C   UNL     1      15.790  -1.379  18.499  1.00  0.00     0.000 C 
BRANCH   4   5
ATOM      5  C   UNL     1      17.010  -0.504  18.161  1.00  0.00     0.001 C 
BRANCH   5   6
ATOM      6  C   UNL     1      17.136  -0.237  16.646  1.00  0.00     0.009 C 
BRANCH   6   7
ATOM      7  C   UNL     1      17.274  -1.525  15.803  1.00  0.00     0.032 C 
ATOM      8  C   UNL     1      16.091  -1.729  14.846  1.00  0.00     0.014 C 
BRANCH   7   9
ATOM      9  C   UNL     1      18.554  -1.484  15.014  1.00  0.00     0.044 C 
ATOM     10  O   UNL     1      19.657  -1.317  15.601  1.00  0.00    -0.550 OA
ATOM     11  O   UNL     1      18.533  -1.638  13.633  1.00  0.00    -0.550 OA
ENDBRANCH   7   9
ENDBRANCH   6   7
ENDBRANCH   5   6
ENDBRANCH   4   5
ENDBRANCH   3   4
ENDBRANCH   2   3
ENDBRANCH   1   2
BRANCH   1  12
ATOM     12  C   UNL     1      13.656   1.979  18.537  1.00  0.00     0.000 C 
BRANCH  12  13
ATOM     13  C   UNL     1      14.094   2.232  17.085  1.00  0.00    -0.000 C 
BRANCH  13  14
ATOM     14  C   UNL     1      13.004   1.880  16.063  1.00  0.00    -0.000 C 
BRANCH  14  15
ATOM     15  C   UNL     1      13.581   1.049  14.908  1.00  0.00    -0.000 C 
BRANCH  15  16
ATOM     16  C   UNL     1      14.963   1.561  14.449  1.00  0.00    -0.000 C 
BRANCH  16  17
ATOM     17  C   UNL     1      15.046   1.855  12.940  1.00  0.00    -0.000 C 
BRANCH  17  18
ATOM     18  C   UNL     1      15.293   0.623  12.056  1.00  0.00    -0.003 C 
ATOM     19  C   UNL     1      16.661   0.646  11.374  1.00  0.00     0.004 C 
ENDBRANCH  17  18
ENDBRANCH  16  17
ENDBRANCH  15  16
ENDBRANCH  14  15
ENDBRANCH  13  14
ENDBRANCH  12  13
ENDBRANCH   1  12
TORSDOF 14
ENDMDL
MODEL 4
REMARK VINA RESULT:    -6.193      1.951      4.273
REMARK INTER + INTRA:         -13.048
REMARK INTER:                 -10.950
REMARK INTRA:                  -2.098
REMARK UNBOUND:                -1.785
REMARK SMILES CCCCCCCCCCCCCC[C@@H](C)C(=O)[O-]
REMARK SMILES IDX 9 1 10 2 11 3 12 4 13 5 14 6 15 7 16 8 17 9 18 10 19 11 8 12
REMARK SMILES IDX 7 13 6 14 5 15 4 16 3 17 2 18 1 19
REMARK H PARENT
REMARK Flexibility Score: inf
ROOT
ATOM      1  C   UNL     1      14.502  -0.021  20.066  1.00  0.00     0.000 C 
ENDROOT
BRANCH   1   2
ATOM      2  C   UNL     1      15.420  -1.249  19.951  1.00  0.00     0.000 C 
BRANCH   2   3
ATOM      3  C   UNL     1      15.078  -2.130  18.737  1.00  0.00     0.000 C 
BRANCH   3   4
ATOM      4  C   UNL     1      16.171  -3.166  18.433  1.00  0.00     0.000 C 
BRANCH   4   5
ATOM      5  C   UNL     1      16.703  -3.062  16.993  1.00  0.00     0.001 C 
BRANCH   5   6
ATOM      6  C   UNL     1      16.087  -1.871  16.227  1.00  0.00     0.009 C 
BRANCH   6   7
ATOM      7  C   UNL     1      17.113  -0.772  15.869  1.00  0.00     0.032 C 
ATOM      8  C   UNL     1      17.761  -0.146  17.111  1.00  0.00     0.014 C 
BRANCH   7   9
ATOM      9  C   UNL     1      18.183  -1.344  14.980  1.00  0.00     0.044 C 
ATOM     10  O   UNL     1      19.390  -1.314  15.340  1.00  0.00    -0.550 OA
ATOM     11  O   UNL     1      17.849  -1.916  13.759  1.00  0.00    -0.550 OA
ENDBRANCH   7   9
ENDBRANCH   6   7
ENDBRANCH   5   6
ENDBRANCH   4   5
ENDBRANCH   3   4
ENDBRANCH   2   3
ENDBRANCH   1   2
BRANCH   1  12
ATOM     12  C   UNL     1      13.942   0.424  18.703  1.00  0.00     0.000 C 
BRANCH  12  13
ATOM     13  C   UNL     1      13.633   1.929  18.653  1.00  0.00    -0.000 C 
BRANCH  13  14
ATOM     14  C   UNL     1      13.521   2.466  17.219  1.00  0.00    -0.000 C 
BRANCH  14  15
ATOM     15  C   UNL     1      14.312   1.586  16.239  1.00  0.00    -0.000 C 
BRANCH  15  16
ATOM     16  C   UNL     1      13.447   1.100  15.057  1.00  0.00    -0.000 C 
BRANCH  16  17
ATOM     17  C   UNL     1      14.266   0.541  13.878  1.00  0.00    -0.000 C 
BRANCH  17  18
ATOM     18  C   UNL     1      15.071   1.592  13.097  1.00  0.00    -0.003 C 
ATOM     19  C   UNL     1      15.806   1.002  11.893  1.00  0.00     0.004 C 
ENDBRANCH  17  18
ENDBRANCH  16  17
ENDBRANCH  15  16
ENDBRANCH  14  15
ENDBRANCH  13  14
ENDBRANCH  12  13
ENDBRANCH   1  12
TORSDOF 14
ENDMDL
MODEL 5
REMARK VINA RESULT:    -6.181      1.070      1.590
REMARK INTER + INTRA:         -13.026
REMARK INTER:                 -11.652
REMARK INTRA:                  -1.374
REMARK UNBOUND:                -1.785
REMARK SMILES CCCCCCCCCCCCCC[C@@H](C)C(=O)[O-]
REMARK SMILES IDX 9 1 10 2 11 3 12 4 13 5 14 6 15 7 16 8 17 9 18 10 19 11 8 12
REMARK SMILES IDX 7 13 6 14 5 15 4 16 3 17 2 18 1 19
REMARK H PARENT
REMARK Flexibility Score: inf
ROOT
ATOM      1  C   UNL     1      12.951   2.115  16.323  1.00  0.00     0.000 C 
ENDROOT
BRANCH   1   2
ATOM      2  C   UNL     1      12.975   2.037  17.858  1.00  0.00     0.000 C 
BRANCH   2   3
ATOM      3  C   UNL     1      13.280   0.620  18.373  1.00  0.00     0.000 C 
BRANCH   3   4
ATOM      4  C   UNL     1      14.430   0.596  19.391  1.00  0.00     0.000 C 
BRANCH   4   5
ATOM      5  C   UNL     1      14.752  -0.825  19.888  1.00  0.00     0.001 C 
BRANCH   5   6
ATOM      6  C   UNL     1      15.952  -1.446  19.142  1.00  0.00     0.009 C 
BRANCH   6   7
ATOM      7  C   UNL     1      15.629  -2.804  18.478  1.00  0.00     0.032 C 
ATOM      8  C   UNL     1      14.137  -2.957  18.152  1.00  0.00     0.014 C 
BRANCH   7   9
ATOM      9  C   UNL     1      16.435  -2.960  17.217  1.00  0.00     0.044 C 
ATOM     10  O   UNL     1      16.267  -2.167  16.253  1.00  0.00    -0.550 OA
ATOM     11  O   UNL     1      17.377  -3.976  17.108  1.00  0.00    -0.550 OA
ENDBRANCH   7   9
ENDBRANCH   6   7
ENDBRANCH   5   6
ENDBRANCH   4   5
ENDBRANCH   3   4
ENDBRANCH   2   3
ENDBRANCH   1   2
BRANCH   1  12
ATOM     12  C   UNL     1      13.654   0.917  15.662  1.00  0.00     0.000 C 
BRANCH  12  13
ATOM     13  C   UNL     1      15.084   1.248  15.205  1.00  0.00    -0.000 C 
BRANCH  13  14
ATOM     14  C   UNL     1      15.150   1.706  13.741  1.00  0.00    -0.000 C 
BRANCH  14  15
ATOM     15  C   UNL     1      14.761   0.564  12.790  1.00  0.00    -0.000 C 
BRANCH  15  16
ATOM     16  C   UNL     1      15.596   0.570  11.492  1.00  0.00    -0.000 C 
BRANCH  16  17
ATOM     17  C   UNL     1      17.097   0.312  11.719  1.00  0.00    -0.000 C 
BRANCH  17  18
ATOM     18  C   UNL     1      17.465  -1.155  11.990  1.00  0.00    -0.003 C 
ATOM     19  C   UNL     1      18.156  -1.354  13.339  1.00  0.00     0.004 C 
ENDBRANCH  17  18
ENDBRANCH  16  17
ENDBRANCH  15  16
ENDBRANCH  14  15
ENDBRANCH  13  14
ENDBRANCH  12  13
ENDBRANCH   1  12
TORSDOF 14
ENDMDL
MODEL 6
REMARK VINA RESULT:    -6.145      1.507      5.772
REMARK INTER + INTRA:         -12.959
REMARK INTER:                 -11.093
REMARK INTRA:                  -1.867
REMARK UNBOUND:                -1.785
REMARK SMILES CCCCCCCCCCCCCC[C@@H](C)C(=O)[O-]
REMARK SMILES IDX 9 1 10 2 11 3 12 4 13 5 14 6 15 7 16 8 17 9 18 10 19 11 8 12
REMARK SMILES IDX 7 13 6 14 5 15 4 16 3 17 2 18 1 19
REMARK H PARENT
REMARK Flexibility Score: inf
ROOT
ATOM      1  C   UNL     1      15.231   1.629  13.439  1.00  0.00     0.000 C 
ENDROOT
BRANCH   1   2
ATOM      2  C   UNL     1      15.129   0.859  12.113  1.00  0.00     0.000 C 
BRANCH   2   3
ATOM      3  C   UNL     1      16.468   0.808  11.355  1.00  0.00     0.000 C 
BRANCH   3   4
ATOM      4  C   UNL     1      17.097  -0.593  11.361  1.00  0.00     0.000 C 
BRANCH   4   5
ATOM      5  C   UNL     1      18.124  -0.777  12.493  1.00  0.00     0.001 C 
BRANCH   5   6
ATOM      6  C   UNL     1      17.684  -1.851  13.512  1.00  0.00     0.009 C 
BRANCH   6   7
ATOM      7  C   UNL     1      17.389  -1.282  14.918  1.00  0.00     0.032 C 
ATOM      8  C   UNL     1      16.053  -1.782  15.485  1.00  0.00     0.014 C 
BRANCH   7   9
ATOM      9  C   UNL     1      18.502  -1.649  15.861  1.00  0.00     0.044 C 
ATOM     10  O   UNL     1      18.295  -2.459  16.804  1.00  0.00    -0.550 OA
ATOM     11  O   UNL     1      19.769  -1.104  15.697  1.00  0.00    -0.550 OA
ENDBRANCH   7   9
ENDBRANCH   6   7
ENDBRANCH   5   6
ENDBRANCH   4   5
ENDBRANCH   3   4
ENDBRANCH   2   3
ENDBRANCH   1   2
BRANCH   1  12
ATOM     12  C   UNL     1      14.136   1.222  14.441  1.00  0.00     0.000 C 
BRANCH  12  13
ATOM     13  C   UNL     1      14.497   1.580  15.891  1.00  0.00    -0.000 C 
BRANCH  13  14
ATOM     14  C   UNL     1      13.271   1.961  16.734  1.00  0.00    -0.000 C 
BRANCH  14  15
ATOM     15  C   UNL     1      13.308   1.264  18.102  1.00  0.00    -0.000 C 
BRANCH  15  16
ATOM     16  C   UNL     1      13.305  -0.274  17.978  1.00  0.00    -0.000 C 
BRANCH  16  17
ATOM     17  C   UNL     1      13.710  -1.002  19.274  1.00  0.00    -0.000 C 
BRANCH  17  18
ATOM     18  C   UNL     1      14.968  -0.446  19.958  1.00  0.00    -0.003 C 
ATOM     19  C   UNL     1      16.245  -0.715  19.161  1.00  0.00     0.004 C 
ENDBRANCH  17  18
ENDBRANCH  16  17
ENDBRANCH  15  16
ENDBRANCH  14  15
ENDBRANCH  13  14
ENDBRANCH  12  13
ENDBRANCH   1  12
TORSDOF 14
ENDMDL
MODEL 7
REMARK VINA RESULT:    -6.061      1.818      3.926
REMARK INTER + INTRA:         -12.808
REMARK INTER:                 -10.849
REMARK INTRA:                  -1.959
REMARK UNBOUND:                -1.785
REMARK SMILES CCCCCCCCCCCCCC[C@@H](C)C(=O)[O-]
REMARK SMILES IDX 9 1 10 2 11 3 12 4 13 5 14 6 15 7 16 8 17 9 18 10 19 11 8 12
REMARK SMILES IDX 7 13 6 14 5 15 4 16 3 17 2 18 1 19
REMARK H PARENT
REMARK Flexibility Score: inf
ROOT
ATOM      1  C   UNL     1      18.492  -1.797  15.319  1.00  0.00     0.000 C 
ENDROOT
BRANCH   1   2
ATOM      2  C   UNL     1      18.163  -2.971  16.255  1.00  0.00     0.000 C 
BRANCH   2   3
ATOM      3  C   UNL     1      17.756  -2.508  17.665  1.00  0.00     0.000 C 
BRANCH   3   4
ATOM      4  C   UNL     1      16.556  -3.289  18.220  1.00  0.00     0.000 C 
BRANCH   4   5
ATOM      5  C   UNL     1      15.270  -3.055  17.407  1.00  0.00     0.001 C 
BRANCH   5   6
ATOM      6  C   UNL     1      14.207  -2.270  18.207  1.00  0.00     0.009 C 
BRANCH   6   7
ATOM      7  C   UNL     1      14.522  -0.763  18.335  1.00  0.00     0.032 C 
ATOM      8  C   UNL     1      13.464   0.117  17.654  1.00  0.00     0.014 C 
BRANCH   7   9
ATOM      9  C   UNL     1      14.628  -0.385  19.787  1.00  0.00     0.044 C 
ATOM     10  O   UNL     1      14.386   0.795  20.156  1.00  0.00    -0.550 OA
ATOM     11  O   UNL     1      14.986  -1.336  20.735  1.00  0.00    -0.550 OA
ENDBRANCH   7   9
ENDBRANCH   6   7
ENDBRANCH   5   6
ENDBRANCH   4   5
ENDBRANCH   3   4
ENDBRANCH   2   3
ENDBRANCH   1   2
BRANCH   1  12
ATOM     12  C   UNL     1      17.317  -1.434  14.395  1.00  0.00     0.000 C 
BRANCH  12  13
ATOM     13  C   UNL     1      16.376  -0.389  15.015  1.00  0.00    -0.000 C 
BRANCH  13  14
ATOM     14  C   UNL     1      15.048  -0.258  14.257  1.00  0.00    -0.000 C 
BRANCH  14  15
ATOM     15  C   UNL     1      14.700   1.218  14.009  1.00  0.00    -0.000 C 
BRANCH  15  16
ATOM     16  C   UNL     1      15.191   1.715  12.633  1.00  0.00    -0.000 C 
BRANCH  16  17
ATOM     17  C   UNL     1      15.558   0.580  11.658  1.00  0.00    -0.000 C 
BRANCH  17  18
ATOM     18  C   UNL     1      17.044   0.519  11.272  1.00  0.00    -0.003 C 
ATOM     19  C   UNL     1      17.346  -0.575  10.247  1.00  0.00     0.004 C 
ENDBRANCH  17  18
ENDBRANCH  16  17
ENDBRANCH  15  16
ENDBRANCH  14  15
ENDBRANCH  13  14
ENDBRANCH  12  13
ENDBRANCH   1  12
TORSDOF 14
ENDMDL
MODEL 8
REMARK VINA RESULT:    -6.054      1.350      2.759
REMARK INTER + INTRA:         -12.794
REMARK INTER:                 -10.645
REMARK INTRA:                  -2.150
REMARK UNBOUND:                -1.785
REMARK SMILES CCCCCCCCCCCCCC[C@@H](C)C(=O)[O-]
REMARK SMILES IDX 9 1 10 2 11 3 12 4 13 5 14 6 15 7 16 8 17 9 18 10 19 11 8 12
REMARK SMILES IDX 7 13 6 14 5 15 4 16 3 17 2 18 1 19
REMARK H PARENT
REMARK Flexibility Score: inf
ROOT
ATOM      1  C   UNL     1      14.898   0.977  15.173  1.00  0.00     0.000 C 
ENDROOT
BRANCH   1   2
ATOM      2  C   UNL     1      13.371   1.144  15.147  1.00  0.00     0.000 C 
BRANCH   2   3
ATOM      3  C   UNL     1      12.876   2.209  16.141  1.00  0.00     0.000 C 
BRANCH   3   4
ATOM      4  C   UNL     1      13.758   2.302  17.395  1.00  0.00     0.000 C 
BRANCH   4   5
ATOM      5  C   UNL     1      13.267   1.392  18.535  1.00  0.00     0.001 C 
BRANCH   5   6
ATOM      6  C   UNL     1      14.435   0.750  19.315  1.00  0.00     0.009 C 
BRANCH   6   7
ATOM      7  C   UNL     1      14.359  -0.792  19.379  1.00  0.00     0.032 C 
ATOM      8  C   UNL     1      13.270  -1.365  18.462  1.00  0.00     0.014 C 
BRANCH   7   9
ATOM      9  C   UNL     1      15.691  -1.384  19.006  1.00  0.00     0.044 C 
ATOM     10  O   UNL     1      16.758  -0.773  19.282  1.00  0.00    -0.550 OA
ATOM     11  O   UNL     1      15.756  -2.613  18.361  1.00  0.00    -0.550 OA
ENDBRANCH   7   9
ENDBRANCH   6   7
ENDBRANCH   5   6
ENDBRANCH   4   5
ENDBRANCH   3   4
ENDBRANCH   2   3
ENDBRANCH   1   2
BRANCH   1  12
ATOM     12  C   UNL     1      15.326  -0.481  15.417  1.00  0.00     0.000 C 
BRANCH  12  13
ATOM     13  C   UNL     1      16.839  -0.624  15.647  1.00  0.00    -0.000 C 
BRANCH  13  14
ATOM     14  C   UNL     1      17.446  -1.819  14.898  1.00  0.00    -0.000 C 
BRANCH  14  15
ATOM     15  C   UNL     1      18.194  -1.356  13.639  1.00  0.00    -0.000 C 
BRANCH  15  16
ATOM     16  C   UNL     1      17.595  -1.952  12.347  1.00  0.00    -0.000 C 
BRANCH  16  17
ATOM     17  C   UNL     1      17.341  -0.909  11.242  1.00  0.00    -0.000 C 
BRANCH  17  18
ATOM     18  C   UNL     1      16.954   0.488  11.751  1.00  0.00    -0.003 C 
ATOM     19  C   UNL     1      15.488   0.831  11.486  1.00  0.00     0.004 C 
ENDBRANCH  17  18
ENDBRANCH  16  17
ENDBRANCH  15  16
ENDBRANCH  14  15
ENDBRANCH  13  14
ENDBRANCH  12  13
ENDBRANCH   1  12
TORSDOF 14
ENDMDL
MODEL 9
REMARK VINA RESULT:    -6.022      1.720      4.225
REMARK INTER + INTRA:         -12.736
REMARK INTER:                 -10.950
REMARK INTRA:                  -1.786
REMARK UNBOUND:                -1.785
REMARK SMILES CCCCCCCCCCCCCC[C@@H](C)C(=O)[O-]
REMARK SMILES IDX 9 1 10 2 11 3 12 4 13 5 14 6 15 7 16 8 17 9 18 10 19 11 8 12
REMARK SMILES IDX 7 13 6 14 5 15 4 16 3 17 2 18 1 19
REMARK H PARENT
REMARK Flexibility Score: inf
ROOT
ATOM      1  C   UNL     1      15.497   0.511  11.404  1.00  0.00     0.000 C 
ENDROOT
BRANCH   1   2
ATOM      2  C   UNL     1      15.421   1.435  12.630  1.00  0.00     0.000 C 
BRANCH   2   3
ATOM      3  C   UNL     1      14.547   0.853  13.755  1.00  0.00     0.000 C 
BRANCH   3   4
ATOM      4  C   UNL     1      14.898   1.430  15.134  1.00  0.00     0.000 C 
BRANCH   4   5
ATOM      5  C   UNL     1      14.984   0.348  16.226  1.00  0.00     0.001 C 
BRANCH   5   6
ATOM      6  C   UNL     1      15.199   0.952  17.631  1.00  0.00     0.009 C 
BRANCH   6   7
ATOM      7  C   UNL     1      14.225   0.396  18.695  1.00  0.00     0.032 C 
ATOM      8  C   UNL     1      13.268  -0.658  18.122  1.00  0.00     0.014 C 
BRANCH   7   9
ATOM      9  C   UNL     1      15.003  -0.201  19.836  1.00  0.00     0.044 C 
ATOM     10  O   UNL     1      14.507  -0.238  20.993  1.00  0.00    -0.550 OA
ATOM     11  O   UNL     1      16.272  -0.725  19.621  1.00  0.00    -0.550 OA
ENDBRANCH   7   9
ENDBRANCH   6   7
ENDBRANCH   5   6
ENDBRANCH   4   5
ENDBRANCH   3   4
ENDBRANCH   2   3
ENDBRANCH   1   2
BRANCH   1  12
ATOM     12  C   UNL     1      16.946   0.165  11.018  1.00  0.00     0.000 C 
BRANCH  12  13
ATOM     13  C   UNL     1      17.399  -1.194  11.576  1.00  0.00    -0.000 C 
BRANCH  13  14
ATOM     14  C   UNL     1      18.075  -1.080  12.950  1.00  0.00    -0.000 C 
BRANCH  14  15
ATOM     15  C   UNL     1      17.190  -1.687  14.049  1.00  0.00    -0.000 C 
BRANCH  15  16
ATOM     16  C   UNL     1      17.845  -1.602  15.444  1.00  0.00    -0.000 C 
BRANCH  16  17
ATOM     17  C   UNL     1      18.121  -2.975  16.085  1.00  0.00    -0.000 C 
BRANCH  17  18
ATOM     18  C   UNL     1      17.328  -3.257  17.370  1.00  0.00    -0.003 C 
ATOM     19  C   UNL     1      15.815  -3.209  17.157  1.00  0.00     0.004 C 
ENDBRANCH  17  18
ENDBRANCH  16  17
ENDBRANCH  15  16
ENDBRANCH  14  15
ENDBRANCH  13  14
ENDBRANCH  12  13
ENDBRANCH   1  12
TORSDOF 14
ENDMDL
