MODEL 1
REMARK VINA RESULT:    -4.598      0.000      0.000
REMARK INTER + INTRA:          -4.598
REMARK INTER:                  -4.598
REMARK INTRA:                   0.000
REMARK UNBOUND:                 0.000
REMARK SMILES O=c1ccc2ccc3occc3c2o1
REMARK SMILES IDX 6 1 7 2 8 3 12 4 11 5 10 6 9 7 13 8 5 9 4 10 3 11 2 12 1 13
REMARK SMILES IDX 14 14
REMARK H PARENT
REMARK Flexibility Score: inf
ROOT
ATOM      1  C   UNL     1      43.195  17.409  -3.163  1.00  0.00     0.016 A 
ATOM      2  C   UNL     1      42.442  17.576  -1.985  1.00  0.00     0.048 A 
ATOM      3  C   UNL     1      42.116  18.874  -1.593  1.00  0.00     0.137 A 
ATOM      4  C   UNL     1      42.509  19.969  -2.317  1.00  0.00     0.064 A 
ATOM      5  C   UNL     1      42.027  21.076  -1.660  1.00  0.00     0.054 A 
ATOM      6  C   UNL     1      41.358  20.563  -0.553  1.00  0.00     0.196 A 
ATOM      7  O   UNL     1      41.429  19.244  -0.542  1.00  0.00    -0.464 OA
ATOM      8  C   UNL     1      43.255  19.845  -3.487  1.00  0.00     0.149 A 
ATOM      9  C   UNL     1      43.603  18.538  -3.915  1.00  0.00     0.018 A 
ATOM     10  C   UNL     1      44.353  18.408  -5.088  1.00  0.00     0.019 A 
ATOM     11  C   UNL     1      44.729  19.553  -5.792  1.00  0.00     0.094 A 
ATOM     12  C   UNL     1      44.347  20.809  -5.305  1.00  0.00     0.336 A 
ATOM     13  O   UNL     1      44.678  21.851  -5.928  1.00  0.00    -0.246 OA
ATOM     14  O   UNL     1      43.633  20.911  -4.185  1.00  0.00    -0.422 OA
ENDROOT
TORSDOF 0
ENDMDL
MODEL 2
REMARK VINA RESULT:    -4.567      2.079      3.228
REMARK INTER + INTRA:          -4.567
REMARK INTER:                  -4.567
REMARK INTRA:                   0.000
REMARK UNBOUND:                 0.000
REMARK SMILES O=c1ccc2ccc3occc3c2o1
REMARK SMILES IDX 6 1 7 2 8 3 12 4 11 5 10 6 9 7 13 8 5 9 4 10 3 11 2 12 1 13
REMARK SMILES IDX 14 14
REMARK H PARENT
REMARK Flexibility Score: inf
ROOT
ATOM      1  C   UNL     1      43.553  20.392  -4.249  1.00  0.00     0.016 A 
ATOM      2  C   UNL     1      42.737  21.193  -3.428  1.00  0.00     0.048 A 
ATOM      3  C   UNL     1      42.211  20.623  -2.269  1.00  0.00     0.137 A 
ATOM      4  C   UNL     1      42.468  19.324  -1.921  1.00  0.00     0.064 A 
ATOM      5  C   UNL     1      41.805  19.088  -0.739  1.00  0.00     0.054 A 
ATOM      6  C   UNL     1      41.174  20.293  -0.445  1.00  0.00     0.196 A 
ATOM      7  O   UNL     1      41.437  21.190  -1.378  1.00  0.00    -0.464 OA
ATOM      8  C   UNL     1      43.270  18.499  -2.706  1.00  0.00     0.149 A 
ATOM      9  C   UNL     1      43.822  19.047  -3.893  1.00  0.00     0.018 A 
ATOM     10  C   UNL     1      44.627  18.224  -4.685  1.00  0.00     0.019 A 
ATOM     11  C   UNL     1      44.860  16.906  -4.288  1.00  0.00     0.094 A 
ATOM     12  C   UNL     1      44.280  16.438  -3.103  1.00  0.00     0.336 A 
ATOM     13  O   UNL     1      44.480  15.252  -2.732  1.00  0.00    -0.246 OA
ATOM     14  O   UNL     1      43.516  17.238  -2.363  1.00  0.00    -0.422 OA
ENDROOT
TORSDOF 0
ENDMDL
MODEL 3
REMARK VINA RESULT:    -4.539      6.784      8.931
REMARK INTER + INTRA:          -4.539
REMARK INTER:                  -4.539
REMARK INTRA:                   0.000
REMARK UNBOUND:                 0.000
REMARK SMILES O=c1ccc2ccc3occc3c2o1
REMARK SMILES IDX 6 1 7 2 8 3 12 4 11 5 10 6 9 7 13 8 5 9 4 10 3 11 2 12 1 13
REMARK SMILES IDX 14 14
REMARK H PARENT
REMARK Flexibility Score: inf
ROOT
ATOM      1  C   UNL     1      47.483  16.514  -4.572  1.00  0.00     0.016 A 
ATOM      2  C   UNL     1      48.478  17.128  -5.356  1.00  0.00     0.048 A 
ATOM      3  C   UNL     1      49.718  16.500  -5.453  1.00  0.00     0.137 A 
ATOM      4  C   UNL     1      49.984  15.320  -4.811  1.00  0.00     0.064 A 
ATOM      5  C   UNL     1      51.282  14.982  -5.115  1.00  0.00     0.054 A 
ATOM      6  C   UNL     1      51.726  16.010  -5.942  1.00  0.00     0.196 A 
ATOM      7  O   UNL     1      50.769  16.901  -6.125  1.00  0.00    -0.464 OA
ATOM      8  C   UNL     1      49.027  14.680  -4.026  1.00  0.00     0.149 A 
ATOM      9  C   UNL     1      47.753  15.293  -3.906  1.00  0.00     0.018 A 
ATOM     10  C   UNL     1      46.789  14.657  -3.119  1.00  0.00     0.019 A 
ATOM     11  C   UNL     1      47.106  13.454  -2.485  1.00  0.00     0.094 A 
ATOM     12  C   UNL     1      48.386  12.913  -2.652  1.00  0.00     0.336 A 
ATOM     13  O   UNL     1      48.688  11.829  -2.086  1.00  0.00    -0.246 OA
ATOM     14  O   UNL     1      49.290  13.534  -3.406  1.00  0.00    -0.422 OA
ENDROOT
TORSDOF 0
ENDMDL
MODEL 4
REMARK VINA RESULT:    -4.476      1.940      4.589
REMARK INTER + INTRA:          -4.476
REMARK INTER:                  -4.476
REMARK INTRA:                   0.000
REMARK UNBOUND:                 0.000
REMARK SMILES O=c1ccc2ccc3occc3c2o1
REMARK SMILES IDX 6 1 7 2 8 3 12 4 11 5 10 6 9 7 13 8 5 9 4 10 3 11 2 12 1 13
REMARK SMILES IDX 14 14
REMARK H PARENT
REMARK Flexibility Score: inf
ROOT
ATOM      1  C   UNL     1      44.006  20.056  -4.803  1.00  0.00     0.016 A 
ATOM      2  C   UNL     1      44.736  18.938  -5.251  1.00  0.00     0.048 A 
ATOM      3  C   UNL     1      44.736  17.793  -4.458  1.00  0.00     0.137 A 
ATOM      4  C   UNL     1      44.053  17.734  -3.272  1.00  0.00     0.064 A 
ATOM      5  C   UNL     1      44.262  16.478  -2.752  1.00  0.00     0.054 A 
ATOM      6  C   UNL     1      45.080  15.845  -3.683  1.00  0.00     0.196 A 
ATOM      7  O   UNL     1      45.345  16.657  -4.691  1.00  0.00    -0.464 OA
ATOM      8  C   UNL     1      43.319  18.817  -2.794  1.00  0.00     0.149 A 
ATOM      9  C   UNL     1      43.298  20.000  -3.578  1.00  0.00     0.018 A 
ATOM     10  C   UNL     1      42.564  21.090  -3.102  1.00  0.00     0.019 A 
ATOM     11  C   UNL     1      41.883  20.982  -1.888  1.00  0.00     0.094 A 
ATOM     12  C   UNL     1      41.953  19.781  -1.172  1.00  0.00     0.336 A 
ATOM     13  O   UNL     1      41.345  19.668  -0.075  1.00  0.00    -0.246 OA
ATOM     14  O   UNL     1      42.658  18.754  -1.642  1.00  0.00    -0.422 OA
ENDROOT
TORSDOF 0
ENDMDL
MODEL 5
REMARK VINA RESULT:    -4.359      6.226      7.739
REMARK INTER + INTRA:          -4.359
REMARK INTER:                  -4.359
REMARK INTRA:                   0.000
REMARK UNBOUND:                 0.000
REMARK SMILES O=c1ccc2ccc3occc3c2o1
REMARK SMILES IDX 6 1 7 2 8 3 12 4 11 5 10 6 9 7 13 8 5 9 4 10 3 11 2 12 1 13
REMARK SMILES IDX 14 14
REMARK H PARENT
REMARK Flexibility Score: inf
ROOT
ATOM      1  C   UNL     1      48.923  14.589  -4.375  1.00  0.00     0.016 A 
ATOM      2  C   UNL     1      49.482  13.415  -3.835  1.00  0.00     0.048 A 
ATOM      3  C   UNL     1      48.773  12.750  -2.837  1.00  0.00     0.137 A 
ATOM      4  C   UNL     1      47.566  13.207  -2.378  1.00  0.00     0.064 A 
ATOM      5  C   UNL     1      47.147  12.327  -1.408  1.00  0.00     0.054 A 
ATOM      6  C   UNL     1      48.155  11.372  -1.343  1.00  0.00     0.196 A 
ATOM      7  O   UNL     1      49.112  11.651  -2.209  1.00  0.00    -0.464 OA
ATOM      8  C   UNL     1      46.979  14.365  -2.887  1.00  0.00     0.149 A 
ATOM      9  C   UNL     1      47.675  15.067  -3.904  1.00  0.00     0.018 A 
ATOM     10  C   UNL     1      47.092  16.229  -4.417  1.00  0.00     0.019 A 
ATOM     11  C   UNL     1      45.860  16.656  -3.919  1.00  0.00     0.094 A 
ATOM     12  C   UNL     1      45.236  15.908  -2.913  1.00  0.00     0.336 A 
ATOM     13  O   UNL     1      44.125  16.280  -2.452  1.00  0.00    -0.246 OA
ATOM     14  O   UNL     1      45.808  14.804  -2.437  1.00  0.00    -0.422 OA
ENDROOT
TORSDOF 0
ENDMDL
MODEL 6
REMARK VINA RESULT:    -4.294      6.071      7.065
REMARK INTER + INTRA:          -4.294
REMARK INTER:                  -4.294
REMARK INTRA:                   0.000
REMARK UNBOUND:                 0.000
REMARK SMILES O=c1ccc2ccc3occc3c2o1
REMARK SMILES IDX 6 1 7 2 8 3 12 4 11 5 10 6 9 7 13 8 5 9 4 10 3 11 2 12 1 13
REMARK SMILES IDX 14 14
REMARK H PARENT
REMARK Flexibility Score: inf
ROOT
ATOM      1  C   UNL     1      48.364  13.262  -3.162  1.00  0.00     0.016 A 
ATOM      2  C   UNL     1      47.052  13.620  -2.800  1.00  0.00     0.048 A 
ATOM      3  C   UNL     1      46.568  14.857  -3.222  1.00  0.00     0.137 A 
ATOM      4  C   UNL     1      47.330  15.716  -3.968  1.00  0.00     0.064 A 
ATOM      5  C   UNL     1      46.559  16.829  -4.209  1.00  0.00     0.054 A 
ATOM      6  C   UNL     1      45.350  16.561  -3.575  1.00  0.00     0.196 A 
ATOM      7  O   UNL     1      45.386  15.374  -2.995  1.00  0.00    -0.464 OA
ATOM      8  C   UNL     1      48.633  15.400  -4.347  1.00  0.00     0.149 A 
ATOM      9  C   UNL     1      49.157  14.148  -3.933  1.00  0.00     0.018 A 
ATOM     10  C   UNL     1      50.464  13.826  -4.310  1.00  0.00     0.019 A 
ATOM     11  C   UNL     1      51.202  14.734  -5.071  1.00  0.00     0.094 A 
ATOM     12  C   UNL     1      50.615  15.950  -5.439  1.00  0.00     0.336 A 
ATOM     13  O   UNL     1      51.268  16.780  -6.125  1.00  0.00    -0.246 OA
ATOM     14  O   UNL     1      49.369  16.238  -5.070  1.00  0.00    -0.422 OA
ENDROOT
TORSDOF 0
ENDMDL
MODEL 7
REMARK VINA RESULT:    -4.261      6.611      7.837
REMARK INTER + INTRA:          -4.261
REMARK INTER:                  -4.261
REMARK INTRA:                   0.000
REMARK UNBOUND:                 0.000
REMARK SMILES O=c1ccc2ccc3occc3c2o1
REMARK SMILES IDX 6 1 7 2 8 3 12 4 11 5 10 6 9 7 13 8 5 9 4 10 3 11 2 12 1 13
REMARK SMILES IDX 14 14
REMARK H PARENT
REMARK Flexibility Score: inf
ROOT
ATOM      1  C   UNL     1      46.212  15.232  -3.524  1.00  0.00     0.016 A 
ATOM      2  C   UNL     1      45.815  14.115  -2.764  1.00  0.00     0.048 A 
ATOM      3  C   UNL     1      46.776  13.151  -2.464  1.00  0.00     0.137 A 
ATOM      4  C   UNL     1      48.073  13.265  -2.887  1.00  0.00     0.064 A 
ATOM      5  C   UNL     1      48.744  12.157  -2.424  1.00  0.00     0.054 A 
ATOM      6  C   UNL     1      47.781  11.427  -1.734  1.00  0.00     0.196 A 
ATOM      7  O   UNL     1      46.615  12.048  -1.776  1.00  0.00    -0.464 OA
ATOM      8  C   UNL     1      48.506  14.354  -3.640  1.00  0.00     0.149 A 
ATOM      9  C   UNL     1      47.553  15.355  -3.964  1.00  0.00     0.018 A 
ATOM     10  C   UNL     1      47.981  16.449  -4.721  1.00  0.00     0.019 A 
ATOM     11  C   UNL     1      49.314  16.522  -5.128  1.00  0.00     0.094 A 
ATOM     12  C   UNL     1      50.194  15.493  -4.770  1.00  0.00     0.336 A 
ATOM     13  O   UNL     1      51.399  15.544  -5.130  1.00  0.00    -0.246 OA
ATOM     14  O   UNL     1      49.767  14.459  -4.048  1.00  0.00    -0.422 OA
ENDROOT
TORSDOF 0
ENDMDL
MODEL 8
REMARK VINA RESULT:    -4.100      5.639      7.422
REMARK INTER + INTRA:          -4.100
REMARK INTER:                  -4.100
REMARK INTRA:                   0.000
REMARK UNBOUND:                 0.000
REMARK SMILES O=c1ccc2ccc3occc3c2o1
REMARK SMILES IDX 6 1 7 2 8 3 12 4 11 5 10 6 9 7 13 8 5 9 4 10 3 11 2 12 1 13
REMARK SMILES IDX 14 14
REMARK H PARENT
REMARK Flexibility Score: inf
ROOT
ATOM      1  C   UNL     1      47.513  13.302  -2.791  1.00  0.00     0.016 A 
ATOM      2  C   UNL     1      48.862  13.146  -3.160  1.00  0.00     0.048 A 
ATOM      3  C   UNL     1      49.469  14.176  -3.877  1.00  0.00     0.137 A 
ATOM      4  C   UNL     1      48.792  15.315  -4.223  1.00  0.00     0.064 A 
ATOM      5  C   UNL     1      49.674  16.111  -4.915  1.00  0.00     0.054 A 
ATOM      6  C   UNL     1      50.858  15.380  -4.942  1.00  0.00     0.196 A 
ATOM      7  O   UNL     1      50.703  14.229  -4.313  1.00  0.00    -0.464 OA
ATOM      8  C   UNL     1      47.456  15.507  -3.876  1.00  0.00     0.149 A 
ATOM      9  C   UNL     1      46.807  14.478  -3.146  1.00  0.00     0.018 A 
ATOM     10  C   UNL     1      45.467  14.665  -2.796  1.00  0.00     0.019 A 
ATOM     11  C   UNL     1      44.818  15.843  -3.171  1.00  0.00     0.094 A 
ATOM     12  C   UNL     1      45.527  16.812  -3.892  1.00  0.00     0.336 A 
ATOM     13  O   UNL     1      44.956  17.880  -4.237  1.00  0.00    -0.246 OA
ATOM     14  O   UNL     1      46.803  16.615  -4.215  1.00  0.00    -0.422 OA
ENDROOT
TORSDOF 0
ENDMDL
MODEL 9
REMARK VINA RESULT:    -4.008      6.273      8.320
REMARK INTER + INTRA:          -4.008
REMARK INTER:                  -4.008
REMARK INTRA:                   0.000
REMARK UNBOUND:                 0.000
REMARK SMILES O=c1ccc2ccc3occc3c2o1
REMARK SMILES IDX 6 1 7 2 8 3 12 4 11 5 10 6 9 7 13 8 5 9 4 10 3 11 2 12 1 13
REMARK SMILES IDX 14 14
REMARK H PARENT
REMARK Flexibility Score: inf
ROOT
ATOM      1  C   UNL     1      50.383  13.815  -4.248  1.00  0.00     0.016 A 
ATOM      2  C   UNL     1      50.968  14.838  -5.019  1.00  0.00     0.048 A 
ATOM      3  C   UNL     1      50.182  15.941  -5.350  1.00  0.00     0.137 A 
ATOM      4  C   UNL     1      48.877  16.046  -4.949  1.00  0.00     0.064 A 
ATOM      5  C   UNL     1      48.403  17.240  -5.441  1.00  0.00     0.054 A 
ATOM      6  C   UNL     1      49.482  17.790  -6.125  1.00  0.00     0.196 A 
ATOM      7  O   UNL     1      50.530  16.990  -6.052  1.00  0.00    -0.464 OA
ATOM      8  C   UNL     1      48.262  15.056  -4.186  1.00  0.00     0.149 A 
ATOM      9  C   UNL     1      49.033  13.919  -3.831  1.00  0.00     0.018 A 
ATOM     10  C   UNL     1      48.421  12.922  -3.066  1.00  0.00     0.019 A 
ATOM     11  C   UNL     1      47.088  13.075  -2.681  1.00  0.00     0.094 A 
ATOM     12  C   UNL     1      46.393  14.226  -3.071  1.00  0.00     0.336 A 
ATOM     13  O   UNL     1      45.190  14.378  -2.732  1.00  0.00    -0.246 OA
ATOM     14  O   UNL     1      46.994  15.164  -3.800  1.00  0.00    -0.422 OA
ENDROOT
TORSDOF 0
ENDMDL
