MODEL 1
REMARK VINA RESULT:    -5.714      0.000      0.000
REMARK INTER + INTRA:          -5.714
REMARK INTER:                  -5.714
REMARK INTRA:                   0.000
REMARK UNBOUND:                 0.000
REMARK SMILES C=C1CCC[C@]2(C)CC(=O)C(=C(C)C)C[C@@H]12
REMARK SMILES IDX 13 1 12 2 11 3 15 4 16 5 2 6 1 7 3 8 4 9 5 10 6 11 8 12 9 13
REMARK SMILES IDX 10 14 7 15 14 16
REMARK H PARENT
REMARK Flexibility Score: inf
ROOT
ATOM      1  C   UNL     1      43.056 -40.728  -5.164  1.00  0.00     0.039 C 
ATOM      2  C   UNL     1      42.107 -40.558  -3.999  1.00  0.00    -0.070 C 
ATOM      3  C   UNL     1      40.776 -40.320  -4.197  1.00  0.00    -0.006 C 
ATOM      4  C   UNL     1      40.202 -40.194  -5.602  1.00  0.00     0.047 C 
ATOM      5  C   UNL     1      38.943 -39.292  -5.677  1.00  0.00     0.025 C 
ATOM      6  C   UNL     1      38.275 -39.239  -7.055  1.00  0.00    -0.073 C 
ATOM      7  C   UNL     1      38.805 -39.785  -8.166  1.00  0.00     0.008 C 
ATOM      8  C   UNL     1      36.956 -38.510  -7.179  1.00  0.00     0.031 C 
ATOM      9  C   UNL     1      36.611 -37.752  -5.895  1.00  0.00     0.005 C 
ATOM     10  C   UNL     1      36.636 -38.670  -4.661  1.00  0.00     0.008 C 
ATOM     11  C   UNL     1      37.876 -39.640  -4.585  1.00  0.00    -0.018 C 
ATOM     12  C   UNL     1      38.538 -39.491  -3.192  1.00  0.00     0.088 C 
ATOM     13  C   UNL     1      39.798 -40.296  -3.073  1.00  0.00     0.159 C 
ATOM     14  O   UNL     1      39.995 -40.956  -2.019  1.00  0.00    -0.295 OA
ATOM     15  C   UNL     1      37.366 -41.100  -4.753  1.00  0.00     0.012 C 
ATOM     16  C   UNL     1      42.707 -40.626  -2.614  1.00  0.00     0.039 C 
ENDROOT
TORSDOF 0
ENDMDL
MODEL 2
REMARK VINA RESULT:    -5.390      2.113      5.156
REMARK INTER + INTRA:          -5.390
REMARK INTER:                  -5.390
REMARK INTRA:                   0.000
REMARK UNBOUND:                 0.000
REMARK SMILES C=C1CCC[C@]2(C)CC(=O)C(=C(C)C)C[C@@H]12
REMARK SMILES IDX 13 1 12 2 11 3 15 4 16 5 2 6 1 7 3 8 4 9 5 10 6 11 8 12 9 13
REMARK SMILES IDX 10 14 7 15 14 16
REMARK H PARENT
REMARK Flexibility Score: inf
ROOT
ATOM      1  C   UNL     1      38.971 -35.560  -3.675  1.00  0.00     0.039 C 
ATOM      2  C   UNL     1      38.460 -36.588  -4.659  1.00  0.00    -0.070 C 
ATOM      3  C   UNL     1      39.026 -37.828  -4.747  1.00  0.00    -0.006 C 
ATOM      4  C   UNL     1      40.211 -38.215  -3.871  1.00  0.00     0.047 C 
ATOM      5  C   UNL     1      41.132 -39.284  -4.513  1.00  0.00     0.025 C 
ATOM      6  C   UNL     1      42.266 -39.778  -3.608  1.00  0.00    -0.073 C 
ATOM      7  C   UNL     1      42.564 -39.231  -2.415  1.00  0.00     0.008 C 
ATOM      8  C   UNL     1      43.114 -40.931  -4.095  1.00  0.00     0.031 C 
ATOM      9  C   UNL     1      42.803 -41.280  -5.552  1.00  0.00     0.005 C 
ATOM     10  C   UNL     1      41.305 -41.549  -5.772  1.00  0.00     0.008 C 
ATOM     11  C   UNL     1      40.339 -40.509  -5.084  1.00  0.00    -0.018 C 
ATOM     12  C   UNL     1      39.335 -39.988  -6.142  1.00  0.00     0.088 C 
ATOM     13  C   UNL     1      38.450 -38.906  -5.600  1.00  0.00     0.159 C 
ATOM     14  O   UNL     1      37.219 -38.942  -5.868  1.00  0.00    -0.295 OA
ATOM     15  C   UNL     1      39.558 -41.240  -3.955  1.00  0.00     0.012 C 
ATOM     16  C   UNL     1      37.324 -36.165  -5.561  1.00  0.00     0.039 C 
ENDROOT
TORSDOF 0
ENDMDL
MODEL 3
REMARK VINA RESULT:    -5.373      2.315      4.752
REMARK INTER + INTRA:          -5.373
REMARK INTER:                  -5.373
REMARK INTRA:                   0.000
REMARK UNBOUND:                 0.000
REMARK SMILES C=C1CCC[C@]2(C)CC(=O)C(=C(C)C)C[C@@H]12
REMARK SMILES IDX 13 1 12 2 11 3 15 4 16 5 2 6 1 7 3 8 4 9 5 10 6 11 8 12 9 13
REMARK SMILES IDX 10 14 7 15 14 16
REMARK H PARENT
REMARK Flexibility Score: inf
ROOT
ATOM      1  C   UNL     1      38.771 -40.757   0.598  1.00  0.00     0.039 C 
ATOM      2  C   UNL     1      40.260 -40.539   0.447  1.00  0.00    -0.070 C 
ATOM      3  C   UNL     1      40.828 -40.351  -0.781  1.00  0.00    -0.006 C 
ATOM      4  C   UNL     1      39.983 -40.378  -2.049  1.00  0.00     0.047 C 
ATOM      5  C   UNL     1      40.770 -40.834  -3.306  1.00  0.00     0.025 C 
ATOM      6  C   UNL     1      39.979 -40.760  -4.617  1.00  0.00    -0.073 C 
ATOM      7  C   UNL     1      38.662 -40.485  -4.682  1.00  0.00     0.008 C 
ATOM      8  C   UNL     1      40.715 -41.036  -5.908  1.00  0.00     0.031 C 
ATOM      9  C   UNL     1      42.129 -41.558  -5.648  1.00  0.00     0.005 C 
ATOM     10  C   UNL     1      42.930 -40.619  -4.730  1.00  0.00     0.008 C 
ATOM     11  C   UNL     1      42.139 -40.093  -3.472  1.00  0.00    -0.018 C 
ATOM     12  C   UNL     1      42.991 -40.355  -2.205  1.00  0.00     0.088 C 
ATOM     13  C   UNL     1      42.264 -39.989  -0.946  1.00  0.00     0.159 C 
ATOM     14  O   UNL     1      42.887 -39.359  -0.050  1.00  0.00    -0.295 OA
ATOM     15  C   UNL     1      41.924 -38.561  -3.634  1.00  0.00     0.012 C 
ATOM     16  C   UNL     1      41.088 -40.576   1.710  1.00  0.00     0.039 C 
ENDROOT
TORSDOF 0
ENDMDL
MODEL 4
REMARK VINA RESULT:    -5.142      2.342      3.021
REMARK INTER + INTRA:          -5.142
REMARK INTER:                  -5.142
REMARK INTRA:                   0.000
REMARK UNBOUND:                 0.000
REMARK SMILES C=C1CCC[C@]2(C)CC(=O)C(=C(C)C)C[C@@H]12
REMARK SMILES IDX 13 1 12 2 11 3 15 4 16 5 2 6 1 7 3 8 4 9 5 10 6 11 8 12 9 13
REMARK SMILES IDX 10 14 7 15 14 16
REMARK H PARENT
REMARK Flexibility Score: inf
ROOT
ATOM      1  C   UNL     1      42.193 -35.612  -4.125  1.00  0.00     0.039 C 
ATOM      2  C   UNL     1      42.366 -36.920  -3.386  1.00  0.00    -0.070 C 
ATOM      3  C   UNL     1      41.665 -38.036  -3.745  1.00  0.00    -0.006 C 
ATOM      4  C   UNL     1      40.664 -37.999  -4.893  1.00  0.00     0.047 C 
ATOM      5  C   UNL     1      39.517 -39.033  -4.746  1.00  0.00     0.025 C 
ATOM      6  C   UNL     1      38.560 -39.100  -5.940  1.00  0.00    -0.073 C 
ATOM      7  C   UNL     1      38.587 -38.233  -6.971  1.00  0.00     0.008 C 
ATOM      8  C   UNL     1      37.508 -40.185  -5.950  1.00  0.00     0.031 C 
ATOM      9  C   UNL     1      37.458 -40.929  -4.614  1.00  0.00     0.005 C 
ATOM     10  C   UNL     1      38.835 -41.480  -4.209  1.00  0.00     0.008 C 
ATOM     11  C   UNL     1      40.032 -40.471  -4.399  1.00  0.00    -0.018 C 
ATOM     12  C   UNL     1      40.833 -40.395  -3.076  1.00  0.00     0.088 C 
ATOM     13  C   UNL     1      41.925 -39.369  -3.131  1.00  0.00     0.159 C 
ATOM     14  O   UNL     1      43.057 -39.667  -2.666  1.00  0.00    -0.295 OA
ATOM     15  C   UNL     1      40.957 -41.015  -5.525  1.00  0.00     0.012 C 
ATOM     16  C   UNL     1      43.318 -36.920  -2.212  1.00  0.00     0.039 C 
ENDROOT
TORSDOF 0
ENDMDL
MODEL 5
REMARK VINA RESULT:    -4.968      1.785      2.861
REMARK INTER + INTRA:          -4.968
REMARK INTER:                  -4.968
REMARK INTRA:                   0.000
REMARK UNBOUND:                 0.000
REMARK SMILES C=C1CCC[C@]2(C)CC(=O)C(=C(C)C)C[C@@H]12
REMARK SMILES IDX 13 1 12 2 11 3 15 4 16 5 2 6 1 7 3 8 4 9 5 10 6 11 8 12 9 13
REMARK SMILES IDX 10 14 7 15 14 16
REMARK H PARENT
REMARK Flexibility Score: inf
ROOT
ATOM      1  C   UNL     1      43.004 -38.345  -3.523  1.00  0.00     0.039 C 
ATOM      2  C   UNL     1      42.382 -39.611  -4.069  1.00  0.00    -0.070 C 
ATOM      3  C   UNL     1      41.042 -39.690  -4.323  1.00  0.00    -0.006 C 
ATOM      4  C   UNL     1      40.119 -38.510  -4.044  1.00  0.00     0.047 C 
ATOM      5  C   UNL     1      38.661 -38.929  -3.722  1.00  0.00     0.025 C 
ATOM      6  C   UNL     1      37.683 -37.762  -3.551  1.00  0.00    -0.073 C 
ATOM      7  C   UNL     1      38.059 -36.469  -3.513  1.00  0.00     0.008 C 
ATOM      8  C   UNL     1      36.214 -38.081  -3.391  1.00  0.00     0.031 C 
ATOM      9  C   UNL     1      35.982 -39.584  -3.219  1.00  0.00     0.005 C 
ATOM     10  C   UNL     1      36.617 -40.398  -4.359  1.00  0.00     0.008 C 
ATOM     11  C   UNL     1      38.081 -39.960  -4.749  1.00  0.00    -0.018 C 
ATOM     12  C   UNL     1      38.991 -41.213  -4.748  1.00  0.00     0.088 C 
ATOM     13  C   UNL     1      40.429 -40.869  -4.997  1.00  0.00     0.159 C 
ATOM     14  O   UNL     1      41.091 -41.586  -5.795  1.00  0.00    -0.295 OA
ATOM     15  C   UNL     1      38.044 -39.355  -6.181  1.00  0.00     0.012 C 
ATOM     16  C   UNL     1      43.304 -40.789  -4.282  1.00  0.00     0.039 C 
ENDROOT
TORSDOF 0
ENDMDL
MODEL 6
REMARK VINA RESULT:    -4.732      1.837      3.662
REMARK INTER + INTRA:          -4.732
REMARK INTER:                  -4.732
REMARK INTRA:                   0.000
REMARK UNBOUND:                 0.000
REMARK SMILES C=C1CCC[C@]2(C)CC(=O)C(=C(C)C)C[C@@H]12
REMARK SMILES IDX 13 1 12 2 11 3 15 4 16 5 2 6 1 7 3 8 4 9 5 10 6 11 8 12 9 13
REMARK SMILES IDX 10 14 7 15 14 16
REMARK H PARENT
REMARK Flexibility Score: inf
ROOT
ATOM      1  C   UNL     1      41.516 -40.331   0.644  1.00  0.00     0.039 C 
ATOM      2  C   UNL     1      42.109 -40.520  -0.735  1.00  0.00    -0.070 C 
ATOM      3  C   UNL     1      41.381 -40.263  -1.862  1.00  0.00    -0.006 C 
ATOM      4  C   UNL     1      39.934 -39.795  -1.771  1.00  0.00     0.047 C 
ATOM      5  C   UNL     1      39.077 -40.197  -3.000  1.00  0.00     0.025 C 
ATOM      6  C   UNL     1      37.649 -39.641  -2.993  1.00  0.00    -0.073 C 
ATOM      7  C   UNL     1      37.102 -38.995  -1.945  1.00  0.00     0.008 C 
ATOM      8  C   UNL     1      36.796 -39.853  -4.223  1.00  0.00     0.031 C 
ATOM      9  C   UNL     1      37.473 -40.798  -5.218  1.00  0.00     0.005 C 
ATOM     10  C   UNL     1      38.890 -40.328  -5.586  1.00  0.00     0.008 C 
ATOM     11  C   UNL     1      39.769 -39.859  -4.364  1.00  0.00    -0.018 C 
ATOM     12  C   UNL     1      41.128 -40.599  -4.417  1.00  0.00     0.088 C 
ATOM     13  C   UNL     1      41.985 -40.299  -3.223  1.00  0.00     0.159 C 
ATOM     14  O   UNL     1      43.210 -40.064  -3.404  1.00  0.00    -0.295 OA
ATOM     15  C   UNL     1      40.016 -38.329  -4.497  1.00  0.00     0.012 C 
ATOM     16  C   UNL     1      43.526 -41.043  -0.803  1.00  0.00     0.039 C 
ENDROOT
TORSDOF 0
ENDMDL
MODEL 7
REMARK VINA RESULT:    -4.615      2.876      5.106
REMARK INTER + INTRA:          -4.615
REMARK INTER:                  -4.615
REMARK INTRA:                   0.000
REMARK UNBOUND:                 0.000
REMARK SMILES C=C1CCC[C@]2(C)CC(=O)C(=C(C)C)C[C@@H]12
REMARK SMILES IDX 13 1 12 2 11 3 15 4 16 5 2 6 1 7 3 8 4 9 5 10 6 11 8 12 9 13
REMARK SMILES IDX 10 14 7 15 14 16
REMARK H PARENT
REMARK Flexibility Score: inf
ROOT
ATOM      1  C   UNL     1      40.364 -35.265  -7.698  1.00  0.00     0.039 C 
ATOM      2  C   UNL     1      39.324 -36.256  -8.170  1.00  0.00    -0.070 C 
ATOM      3  C   UNL     1      38.817 -37.206  -7.329  1.00  0.00    -0.006 C 
ATOM      4  C   UNL     1      39.300 -37.318  -5.888  1.00  0.00     0.047 C 
ATOM      5  C   UNL     1      39.193 -38.752  -5.310  1.00  0.00     0.025 C 
ATOM      6  C   UNL     1      39.561 -38.874  -3.827  1.00  0.00    -0.073 C 
ATOM      7  C   UNL     1      40.095 -37.871  -3.104  1.00  0.00     0.008 C 
ATOM      8  C   UNL     1      39.335 -40.203  -3.144  1.00  0.00     0.031 C 
ATOM      9  C   UNL     1      38.951 -41.292  -4.148  1.00  0.00     0.005 C 
ATOM     10  C   UNL     1      37.741 -40.883  -5.005  1.00  0.00     0.008 C 
ATOM     11  C   UNL     1      37.794 -39.409  -5.563  1.00  0.00    -0.018 C 
ATOM     12  C   UNL     1      37.542 -39.447  -7.090  1.00  0.00     0.088 C 
ATOM     13  C   UNL     1      37.689 -38.096  -7.724  1.00  0.00     0.159 C 
ATOM     14  O   UNL     1      36.834 -37.732  -8.574  1.00  0.00    -0.295 OA
ATOM     15  C   UNL     1      36.663 -38.587  -4.880  1.00  0.00     0.012 C 
ATOM     16  C   UNL     1      38.903 -36.167  -9.618  1.00  0.00     0.039 C 
ENDROOT
TORSDOF 0
ENDMDL
MODEL 8
REMARK VINA RESULT:    -4.614      2.825      5.795
REMARK INTER + INTRA:          -4.614
REMARK INTER:                  -4.614
REMARK INTRA:                   0.000
REMARK UNBOUND:                 0.000
REMARK SMILES C=C1CCC[C@]2(C)CC(=O)C(=C(C)C)C[C@@H]12
REMARK SMILES IDX 13 1 12 2 11 3 15 4 16 5 2 6 1 7 3 8 4 9 5 10 6 11 8 12 9 13
REMARK SMILES IDX 10 14 7 15 14 16
REMARK H PARENT
REMARK Flexibility Score: inf
ROOT
ATOM      1  C   UNL     1      43.376 -41.244  -4.706  1.00  0.00     0.039 C 
ATOM      2  C   UNL     1      41.921 -40.867  -4.531  1.00  0.00    -0.070 C 
ATOM      3  C   UNL     1      41.424 -40.503  -3.312  1.00  0.00    -0.006 C 
ATOM      4  C   UNL     1      42.314 -40.487  -2.075  1.00  0.00     0.047 C 
ATOM      5  C   UNL     1      41.540 -40.736  -0.754  1.00  0.00     0.025 C 
ATOM      6  C   UNL     1      42.387 -40.610   0.517  1.00  0.00    -0.073 C 
ATOM      7  C   UNL     1      43.725 -40.461   0.513  1.00  0.00     0.008 C 
ATOM      8  C   UNL     1      41.682 -40.683   1.852  1.00  0.00     0.031 C 
ATOM      9  C   UNL     1      40.216 -41.087   1.691  1.00  0.00     0.005 C 
ATOM     10  C   UNL     1      39.470 -40.170   0.707  1.00  0.00     0.008 C 
ATOM     11  C   UNL     1      40.255 -39.851  -0.623  1.00  0.00    -0.018 C 
ATOM     12  C   UNL     1      39.331 -40.153  -1.829  1.00  0.00     0.088 C 
ATOM     13  C   UNL     1      40.037 -39.987  -3.141  1.00  0.00     0.159 C 
ATOM     14  O   UNL     1      39.440 -39.391  -4.077  1.00  0.00    -0.295 OA
ATOM     15  C   UNL     1      40.619 -38.339  -0.626  1.00  0.00     0.012 C 
ATOM     16  C   UNL     1      41.043 -40.948  -5.758  1.00  0.00     0.039 C 
ENDROOT
TORSDOF 0
ENDMDL
MODEL 9
REMARK VINA RESULT:    -4.579      2.053      4.982
REMARK INTER + INTRA:          -4.579
REMARK INTER:                  -4.579
REMARK INTRA:                   0.000
REMARK UNBOUND:                 0.000
REMARK SMILES C=C1CCC[C@]2(C)CC(=O)C(=C(C)C)C[C@@H]12
REMARK SMILES IDX 13 1 12 2 11 3 15 4 16 5 2 6 1 7 3 8 4 9 5 10 6 11 8 12 9 13
REMARK SMILES IDX 10 14 7 15 14 16
REMARK H PARENT
REMARK Flexibility Score: inf
ROOT
ATOM      1  C   UNL     1      38.553 -37.260  -7.898  1.00  0.00     0.039 C 
ATOM      2  C   UNL     1      38.287 -38.592  -7.232  1.00  0.00    -0.070 C 
ATOM      3  C   UNL     1      38.881 -38.924  -6.048  1.00  0.00    -0.006 C 
ATOM      4  C   UNL     1      39.854 -37.972  -5.363  1.00  0.00     0.047 C 
ATOM      5  C   UNL     1      40.912 -38.694  -4.488  1.00  0.00     0.025 C 
ATOM      6  C   UNL     1      41.832 -37.759  -3.696  1.00  0.00    -0.073 C 
ATOM      7  C   UNL     1      41.854 -36.421  -3.851  1.00  0.00     0.008 C 
ATOM      8  C   UNL     1      42.787 -38.376  -2.699  1.00  0.00     0.031 C 
ATOM      9  C   UNL     1      42.806 -39.902  -2.812  1.00  0.00     0.005 C 
ATOM     10  C   UNL     1      41.396 -40.505  -2.692  1.00  0.00     0.008 C 
ATOM     11  C   UNL     1      40.285 -39.759  -3.527  1.00  0.00    -0.018 C 
ATOM     12  C   UNL     1      39.526 -40.802  -4.385  1.00  0.00     0.088 C 
ATOM     13  C   UNL     1      38.524 -40.162  -5.300  1.00  0.00     0.159 C 
ATOM     14  O   UNL     1      37.382 -40.684  -5.403  1.00  0.00    -0.295 OA
ATOM     15  C   UNL     1      39.291 -39.094  -2.533  1.00  0.00     0.012 C 
ATOM     16  C   UNL     1      37.366 -39.546  -7.957  1.00  0.00     0.039 C 
ENDROOT
TORSDOF 0
ENDMDL
