MODEL 1
REMARK VINA RESULT:    -3.578      0.000      0.000
REMARK INTER + INTRA:          -4.014
REMARK INTER:                  -3.996
REMARK INTRA:                  -0.019
REMARK UNBOUND:                -0.019
REMARK SMILES CCCC(=O)[O-]
REMARK SMILES IDX 3 1 4 2 5 3 6 4 2 5 1 6
REMARK H PARENT
REMARK Flexibility Score: inf
ROOT
ATOM      1  C   UNL     1       2.592  -2.954  -6.709  1.00  0.00     0.052 C 
ENDROOT
BRANCH   1   2
ATOM      2  C   UNL     1       2.045  -4.272  -6.253  1.00  0.00     0.041 C 
ATOM      3  O   UNL     1       2.826  -5.189  -5.886  1.00  0.00    -0.550 OA
ATOM      4  O   UNL     1       0.675  -4.498  -6.265  1.00  0.00    -0.550 OA
ENDBRANCH   1   2
BRANCH   1   5
ATOM      5  C   UNL     1       1.835  -1.778  -6.079  1.00  0.00     0.003 C 
ATOM      6  C   UNL     1       0.846  -1.134  -7.051  1.00  0.00     0.004 C 
ENDBRANCH   1   5
TORSDOF 2
ENDMDL
MODEL 2
REMARK VINA RESULT:    -3.430      2.557      3.463
REMARK INTER + INTRA:          -3.849
REMARK INTER:                  -3.817
REMARK INTRA:                  -0.033
REMARK UNBOUND:                -0.019
REMARK SMILES CCCC(=O)[O-]
REMARK SMILES IDX 3 1 4 2 5 3 6 4 2 5 1 6
REMARK H PARENT
REMARK Flexibility Score: inf
ROOT
ATOM      1  C   UNL     1       1.075  -2.785  -7.244  1.00  0.00     0.052 C 
ENDROOT
BRANCH   1   2
ATOM      2  C   UNL     1       1.180  -1.305  -7.031  1.00  0.00     0.041 C 
ATOM      3  O   UNL     1       1.564  -0.850  -5.922  1.00  0.00    -0.550 OA
ATOM      4  O   UNL     1       0.822  -0.430  -8.048  1.00  0.00    -0.550 OA
ENDBRANCH   1   2
BRANCH   1   5
ATOM      5  C   UNL     1       1.125  -3.553  -5.918  1.00  0.00     0.003 C 
ATOM      6  C   UNL     1       2.224  -4.615  -5.902  1.00  0.00     0.004 C 
ENDBRANCH   1   5
TORSDOF 2
ENDMDL
MODEL 3
REMARK VINA RESULT:    -3.372      2.434      3.419
REMARK INTER + INTRA:          -3.784
REMARK INTER:                  -3.749
REMARK INTRA:                  -0.036
REMARK UNBOUND:                -0.019
REMARK SMILES CCCC(=O)[O-]
REMARK SMILES IDX 3 1 4 2 5 3 6 4 2 5 1 6
REMARK H PARENT
REMARK Flexibility Score: inf
ROOT
ATOM      1  C   UNL     1       1.907  -2.088  -6.062  1.00  0.00     0.052 C 
ENDROOT
BRANCH   1   2
ATOM      2  C   UNL     1       2.256  -1.644  -7.449  1.00  0.00     0.041 C 
ATOM      3  O   UNL     1       1.500  -0.853  -8.071  1.00  0.00    -0.550 OA
ATOM      4  O   UNL     1       3.402  -2.130  -8.067  1.00  0.00    -0.550 OA
ENDBRANCH   1   2
BRANCH   1   5
ATOM      5  C   UNL     1       1.211  -3.455  -6.063  1.00  0.00     0.003 C 
ATOM      6  C   UNL     1       2.192  -4.608  -5.856  1.00  0.00     0.004 C 
ENDBRANCH   1   5
TORSDOF 2
ENDMDL
MODEL 4
REMARK VINA RESULT:    -2.976      1.311      2.107
REMARK INTER + INTRA:          -3.343
REMARK INTER:                  -3.336
REMARK INTRA:                  -0.006
REMARK UNBOUND:                -0.019
REMARK SMILES CCCC(=O)[O-]
REMARK SMILES IDX 3 1 4 2 5 3 6 4 2 5 1 6
REMARK H PARENT
REMARK Flexibility Score: inf
ROOT
ATOM      1  C   UNL     1       2.734  -3.013  -6.632  1.00  0.00     0.052 C 
ENDROOT
BRANCH   1   2
ATOM      2  C   UNL     1       1.913  -4.166  -6.139  1.00  0.00     0.041 C 
ATOM      3  O   UNL     1       0.657  -4.128  -6.216  1.00  0.00    -0.550 OA
ATOM      4  O   UNL     1       2.535  -5.267  -5.566  1.00  0.00    -0.550 OA
ENDBRANCH   1   2
BRANCH   1   5
ATOM      5  C   UNL     1       2.771  -2.958  -8.164  1.00  0.00     0.003 C 
ATOM      6  C   UNL     1       3.399  -1.666  -8.685  1.00  0.00     0.004 C 
ENDBRANCH   1   5
TORSDOF 2
ENDMDL
MODEL 5
REMARK VINA RESULT:    -2.888     15.908     16.537
REMARK INTER + INTRA:          -3.244
REMARK INTER:                  -3.225
REMARK INTRA:                  -0.019
REMARK UNBOUND:                -0.019
REMARK SMILES CCCC(=O)[O-]
REMARK SMILES IDX 3 1 4 2 5 3 6 4 2 5 1 6
REMARK H PARENT
REMARK Flexibility Score: inf
ROOT
ATOM      1  C   UNL     1      -3.704   4.179   6.622  1.00  0.00     0.052 C 
ENDROOT
BRANCH   1   2
ATOM      2  C   UNL     1      -4.695   5.023   7.364  1.00  0.00     0.041 C 
ATOM      3  O   UNL     1      -4.327   6.088   7.926  1.00  0.00    -0.550 OA
ATOM      4  O   UNL     1      -6.019   4.615   7.461  1.00  0.00    -0.550 OA
ENDBRANCH   1   2
BRANCH   1   5
ATOM      5  C   UNL     1      -4.337   3.504   5.399  1.00  0.00     0.003 C 
ATOM      6  C   UNL     1      -3.786   4.048   4.082  1.00  0.00     0.004 C 
ENDBRANCH   1   5
TORSDOF 2
ENDMDL
MODEL 6
REMARK VINA RESULT:    -2.843     15.103     15.736
REMARK INTER + INTRA:          -3.194
REMARK INTER:                  -3.188
REMARK INTRA:                  -0.005
REMARK UNBOUND:                -0.019
REMARK SMILES CCCC(=O)[O-]
REMARK SMILES IDX 3 1 4 2 5 3 6 4 2 5 1 6
REMARK H PARENT
REMARK Flexibility Score: inf
ROOT
ATOM      1  C   UNL     1      -3.707   4.037   6.249  1.00  0.00     0.052 C 
ENDROOT
BRANCH   1   2
ATOM      2  C   UNL     1      -4.248   3.710   4.891  1.00  0.00     0.041 C 
ATOM      3  O   UNL     1      -3.632   4.079   3.857  1.00  0.00    -0.550 OA
ATOM      4  O   UNL     1      -5.450   3.025   4.769  1.00  0.00    -0.550 OA
ENDBRANCH   1   2
BRANCH   1   5
ATOM      5  C   UNL     1      -4.728   4.807   7.096  1.00  0.00     0.003 C 
ATOM      6  C   UNL     1      -4.075   5.556   8.257  1.00  0.00     0.004 C 
ENDBRANCH   1   5
TORSDOF 2
ENDMDL
MODEL 7
REMARK VINA RESULT:    -2.797      2.718      3.695
REMARK INTER + INTRA:          -3.143
REMARK INTER:                  -3.105
REMARK INTRA:                  -0.038
REMARK UNBOUND:                -0.019
REMARK SMILES CCCC(=O)[O-]
REMARK SMILES IDX 3 1 4 2 5 3 6 4 2 5 1 6
REMARK H PARENT
REMARK Flexibility Score: inf
ROOT
ATOM      1  C   UNL     1       0.811  -1.044  -6.763  1.00  0.00     0.052 C 
ENDROOT
BRANCH   1   2
ATOM      2  C   UNL     1       0.694  -1.005  -8.257  1.00  0.00     0.041 C 
ATOM      3  O   UNL     1       1.207  -0.057  -8.908  1.00  0.00    -0.550 OA
ATOM      4  O   UNL     1      -0.008  -2.000  -8.925  1.00  0.00    -0.550 OA
ENDBRANCH   1   2
BRANCH   1   5
ATOM      5  C   UNL     1       1.898  -2.025  -6.305  1.00  0.00     0.003 C 
ATOM      6  C   UNL     1       1.328  -3.396  -5.942  1.00  0.00     0.004 C 
ENDBRANCH   1   5
TORSDOF 2
ENDMDL
MODEL 8
REMARK VINA RESULT:    -2.717     14.623     15.280
REMARK INTER + INTRA:          -3.053
REMARK INTER:                  -2.984
REMARK INTRA:                  -0.069
REMARK UNBOUND:                -0.019
REMARK SMILES CCCC(=O)[O-]
REMARK SMILES IDX 3 1 4 2 5 3 6 4 2 5 1 6
REMARK H PARENT
REMARK Flexibility Score: inf
ROOT
ATOM      1  C   UNL     1      -4.620   2.830   6.161  1.00  0.00     0.052 C 
ENDROOT
BRANCH   1   2
ATOM      2  C   UNL     1      -6.008   2.750   5.602  1.00  0.00     0.041 C 
ATOM      3  O   UNL     1      -6.867   3.618   5.912  1.00  0.00    -0.550 OA
ATOM      4  O   UNL     1      -6.361   1.700   4.765  1.00  0.00    -0.550 OA
ENDBRANCH   1   2
BRANCH   1   5
ATOM      5  C   UNL     1      -3.855   4.038   5.607  1.00  0.00     0.003 C 
ATOM      6  C   UNL     1      -3.779   4.030   4.081  1.00  0.00     0.004 C 
ENDBRANCH   1   5
TORSDOF 2
ENDMDL
MODEL 9
REMARK VINA RESULT:    -2.559      2.140      2.825
REMARK INTER + INTRA:          -2.877
REMARK INTER:                  -2.828
REMARK INTRA:                  -0.049
REMARK UNBOUND:                -0.019
REMARK SMILES CCCC(=O)[O-]
REMARK SMILES IDX 3 1 4 2 5 3 6 4 2 5 1 6
REMARK H PARENT
REMARK Flexibility Score: inf
ROOT
ATOM      1  C   UNL     1       2.116  -4.619  -7.284  1.00  0.00     0.052 C 
ENDROOT
BRANCH   1   2
ATOM      2  C   UNL     1       1.762  -3.473  -6.385  1.00  0.00     0.041 C 
ATOM      3  O   UNL     1       0.747  -3.540  -5.643  1.00  0.00    -0.550 OA
ATOM      4  O   UNL     1       2.536  -2.320  -6.391  1.00  0.00    -0.550 OA
ENDBRANCH   1   2
BRANCH   1   5
ATOM      5  C   UNL     1       0.907  -5.094  -8.099  1.00  0.00     0.003 C 
ATOM      6  C   UNL     1       0.394  -4.020  -9.058  1.00  0.00     0.004 C 
ENDBRANCH   1   5
TORSDOF 2
ENDMDL
