MODEL 1
REMARK VINA RESULT:    -4.925      0.000      0.000
REMARK INTER + INTRA:          -8.415
REMARK INTER:                  -6.940
REMARK INTRA:                  -1.475
REMARK UNBOUND:                -1.475
REMARK SMILES OCC1=C[C@H](O)[C@H]2C=CO[C@@H](O[C@@H]3O[C@H](CO)[C@H](O)[C@H](O)[C@@H]3O)[C@H]12
REMARK SMILES IDX 12 1 11 2 8 3 9 4 7 5 10 6 24 7 5 8 3 9 4 10 6 11 2 13 1 14
REMARK SMILES IDX 13 16 22 17 14 18 20 19 15 20 18 21 23 22 21 24 16 26 17 27
REMARK SMILES IDX 19 29
REMARK H PARENT 6 12 1 15 23 23 21 25 17 28 19 30
REMARK Flexibility Score: inf
ROOT
ATOM      1  O   UNL     1     -28.359 -55.265  53.651  1.00  0.00    -0.310 OA
ENDROOT
BRANCH   1   2
ATOM      2  C   UNL     1     -29.270 -54.247  53.262  1.00  0.00     0.316 C 
ATOM      3  C   UNL     1     -30.840 -53.235  51.010  1.00  0.00     0.018 C 
ATOM      4  C   UNL     1     -31.204 -54.369  51.622  1.00  0.00     0.186 C 
ATOM      5  C   UNL     1     -29.774 -52.433  51.673  1.00  0.00     0.061 C 
ATOM      6  O   UNL     1     -30.490 -54.844  52.749  1.00  0.00    -0.472 OA
ATOM      7  C   UNL     1     -28.667 -53.370  52.147  1.00  0.00     0.096 C 
ATOM      8  C   UNL     1     -29.025 -51.363  50.883  1.00  0.00     0.145 C 
ATOM      9  C   UNL     1     -27.567 -52.388  52.416  1.00  0.00    -0.036 C 
ATOM     10  C   UNL     1     -27.734 -51.300  51.653  1.00  0.00     0.007 C 
BRANCH   8  11
ATOM     11  O   UNL     1     -29.702 -50.130  50.875  1.00  0.00    -0.388 OA
ATOM     12  H   UNL     1     -30.039 -49.967  49.955  1.00  0.00     0.211 HD
ENDBRANCH   8  11
BRANCH   9  13
ATOM     13  C   UNL     1     -26.302 -52.675  53.167  1.00  0.00     0.187 C 
BRANCH  13  14
ATOM     14  O   UNL     1     -26.551 -52.680  54.545  1.00  0.00    -0.392 OA
ATOM     15  H   UNL     1     -27.537 -52.647  54.656  1.00  0.00     0.211 HD
ENDBRANCH  13  14
ENDBRANCH   9  13
ENDBRANCH   1   2
BRANCH   1  16
ATOM     16  C   UNL     1     -28.492 -55.582  55.038  1.00  0.00     0.286 C 
ATOM     17  C   UNL     1     -29.071 -56.999  55.243  1.00  0.00     0.202 C 
ATOM     18  O   UNL     1     -27.262 -55.389  55.726  1.00  0.00    -0.341 OA
ATOM     19  C   UNL     1     -28.056 -58.081  54.861  1.00  0.00     0.179 C 
ATOM     20  C   UNL     1     -26.255 -56.362  55.457  1.00  0.00     0.178 C 
ATOM     21  C   UNL     1     -26.748 -57.824  55.617  1.00  0.00     0.177 C 
BRANCH  17  22
ATOM     22  O   UNL     1     -30.254 -57.154  54.503  1.00  0.00    -0.385 OA
ATOM     23  H   UNL     1     -31.002 -56.877  55.095  1.00  0.00     0.211 HD
ENDBRANCH  17  22
BRANCH  19  24
ATOM     24  O   UNL     1     -27.833 -58.102  53.475  1.00  0.00    -0.387 OA
ATOM     25  H   UNL     1     -28.689 -58.365  53.045  1.00  0.00     0.211 HD
ENDBRANCH  19  24
BRANCH  20  26
ATOM     26  C   UNL     1     -25.509 -56.060  54.141  1.00  0.00     0.191 C 
BRANCH  26  27
ATOM     27  O   UNL     1     -24.175 -56.490  54.207  1.00  0.00    -0.394 OA
ATOM     28  H   UNL     1     -23.654 -55.906  53.597  1.00  0.00     0.210 HD
ENDBRANCH  26  27
ENDBRANCH  20  26
BRANCH  21  29
ATOM     29  O   UNL     1     -25.756 -58.731  55.207  1.00  0.00    -0.387 OA
ATOM     30  H   UNL     1     -25.239 -58.979  56.019  1.00  0.00     0.211 HD
ENDBRANCH  21  29
ENDBRANCH   1  16
TORSDOF 10
ENDMDL
MODEL 2
REMARK VINA RESULT:    -4.915      1.036      2.417
REMARK INTER + INTRA:          -8.401
REMARK INTER:                  -7.390
REMARK INTRA:                  -1.012
REMARK UNBOUND:                -1.475
REMARK SMILES OCC1=C[C@H](O)[C@H]2C=CO[C@@H](O[C@@H]3O[C@H](CO)[C@H](O)[C@H](O)[C@@H]3O)[C@H]12
REMARK SMILES IDX 12 1 11 2 8 3 9 4 7 5 10 6 24 7 5 8 3 9 4 10 6 11 2 13 1 14
REMARK SMILES IDX 13 16 22 17 14 18 20 19 15 20 18 21 23 22 21 24 16 26 17 27
REMARK SMILES IDX 19 29
REMARK H PARENT 6 12 1 15 23 23 21 25 17 28 19 30
REMARK Flexibility Score: inf
ROOT
ATOM      1  O   UNL     1     -27.780 -54.849  53.981  1.00  0.00    -0.310 OA
ENDROOT
BRANCH   1   2
ATOM      2  C   UNL     1     -28.823 -54.012  53.499  1.00  0.00     0.316 C 
ATOM      3  C   UNL     1     -30.418 -53.375  51.130  1.00  0.00     0.018 C 
ATOM      4  C   UNL     1     -30.626 -54.524  51.787  1.00  0.00     0.186 C 
ATOM      5  C   UNL     1     -29.530 -52.380  51.794  1.00  0.00     0.061 C 
ATOM      6  O   UNL     1     -29.903 -54.823  52.968  1.00  0.00    -0.472 OA
ATOM      7  C   UNL     1     -28.312 -53.101  52.364  1.00  0.00     0.096 C 
ATOM      8  C   UNL     1     -28.923 -51.240  50.980  1.00  0.00     0.145 C 
ATOM      9  C   UNL     1     -27.399 -51.942  52.626  1.00  0.00    -0.036 C 
ATOM     10  C   UNL     1     -27.699 -50.932  51.799  1.00  0.00     0.007 C 
BRANCH   8  11
ATOM     11  O   UNL     1     -29.788 -50.135  50.876  1.00  0.00    -0.388 OA
ATOM     12  H   UNL     1     -29.746 -49.628  51.729  1.00  0.00     0.211 HD
ENDBRANCH   8  11
BRANCH   9  13
ATOM     13  C   UNL     1     -26.144 -51.983  53.444  1.00  0.00     0.187 C 
BRANCH  13  14
ATOM     14  O   UNL     1     -26.403 -52.560  54.694  1.00  0.00    -0.392 OA
ATOM     15  H   UNL     1     -26.483 -51.811  55.342  1.00  0.00     0.211 HD
ENDBRANCH  13  14
ENDBRANCH   9  13
ENDBRANCH   1   2
BRANCH   1  16
ATOM     16  C   UNL     1     -27.457 -55.873  53.039  1.00  0.00     0.286 C 
ATOM     17  C   UNL     1     -25.934 -56.108  52.955  1.00  0.00     0.202 C 
ATOM     18  O   UNL     1     -28.180 -57.068  53.317  1.00  0.00    -0.341 OA
ATOM     19  C   UNL     1     -25.399 -56.788  54.220  1.00  0.00     0.179 C 
ATOM     20  C   UNL     1     -27.741 -57.790  54.465  1.00  0.00     0.178 C 
ATOM     21  C   UNL     1     -26.214 -58.058  54.483  1.00  0.00     0.177 C 
BRANCH  17  22
ATOM     22  O   UNL     1     -25.266 -54.893  52.731  1.00  0.00    -0.385 OA
ATOM     23  H   UNL     1     -24.304 -55.055  52.919  1.00  0.00     0.211 HD
ENDBRANCH  17  22
BRANCH  19  24
ATOM     24  O   UNL     1     -25.457 -55.922  55.325  1.00  0.00    -0.387 OA
ATOM     25  H   UNL     1     -25.831 -56.442  56.084  1.00  0.00     0.211 HD
ENDBRANCH  19  24
BRANCH  20  26
ATOM     26  C   UNL     1     -28.319 -57.197  55.767  1.00  0.00     0.191 C 
BRANCH  26  27
ATOM     27  O   UNL     1     -29.607 -56.681  55.559  1.00  0.00    -0.394 OA
ATOM     28  H   UNL     1     -29.543 -56.042  54.802  1.00  0.00     0.210 HD
ENDBRANCH  26  27
ENDBRANCH  20  26
BRANCH  21  29
ATOM     29  O   UNL     1     -25.826 -58.649  55.697  1.00  0.00    -0.387 OA
ATOM     30  H   UNL     1     -26.659 -58.923  56.164  1.00  0.00     0.211 HD
ENDBRANCH  21  29
ENDBRANCH   1  16
TORSDOF 10
ENDMDL
MODEL 3
REMARK VINA RESULT:    -4.833      9.990     13.047
REMARK INTER + INTRA:          -8.286
REMARK INTER:                  -6.842
REMARK INTRA:                  -1.444
REMARK UNBOUND:                -1.475
REMARK SMILES OCC1=C[C@H](O)[C@H]2C=CO[C@@H](O[C@@H]3O[C@H](CO)[C@H](O)[C@H](O)[C@@H]3O)[C@H]12
REMARK SMILES IDX 12 1 11 2 8 3 9 4 7 5 10 6 24 7 5 8 3 9 4 10 6 11 2 13 1 14
REMARK SMILES IDX 13 16 22 17 14 18 20 19 15 20 18 21 23 22 21 24 16 26 17 27
REMARK SMILES IDX 19 29
REMARK H PARENT 6 12 1 15 23 23 21 25 17 28 19 30
REMARK Flexibility Score: inf
ROOT
ATOM      1  O   UNL     1     -22.601 -66.175  56.723  1.00  0.00    -0.310 OA
ENDROOT
BRANCH   1   2
ATOM      2  C   UNL     1     -23.430 -65.377  57.558  1.00  0.00     0.316 C 
ATOM      3  C   UNL     1     -25.563 -63.376  57.524  1.00  0.00     0.018 C 
ATOM      4  C   UNL     1     -25.834 -64.647  57.199  1.00  0.00     0.186 C 
ATOM      5  C   UNL     1     -24.219 -63.110  58.110  1.00  0.00     0.061 C 
ATOM      6  O   UNL     1     -24.827 -65.640  57.265  1.00  0.00    -0.472 OA
ATOM      7  C   UNL     1     -23.168 -63.877  57.314  1.00  0.00     0.096 C 
ATOM      8  C   UNL     1     -23.673 -61.685  58.145  1.00  0.00     0.145 C 
ATOM      9  C   UNL     1     -21.915 -63.203  57.784  1.00  0.00    -0.036 C 
ATOM     10  C   UNL     1     -22.193 -61.954  58.178  1.00  0.00     0.007 C 
BRANCH   8  11
ATOM     11  O   UNL     1     -24.112 -60.970  59.275  1.00  0.00    -0.388 OA
ATOM     12  H   UNL     1     -24.397 -61.625  59.964  1.00  0.00     0.211 HD
ENDBRANCH   8  11
BRANCH   9  13
ATOM     13  C   UNL     1     -20.519 -63.699  57.564  1.00  0.00     0.187 C 
BRANCH  13  14
ATOM     14  O   UNL     1     -20.120 -64.509  58.635  1.00  0.00    -0.392 OA
ATOM     15  H   UNL     1     -19.151 -64.340  58.773  1.00  0.00     0.211 HD
ENDBRANCH  13  14
ENDBRANCH   9  13
ENDBRANCH   1   2
BRANCH   1  16
ATOM     16  C   UNL     1     -22.042 -67.275  57.443  1.00  0.00     0.286 C 
ATOM     17  C   UNL     1     -22.610 -68.623  56.952  1.00  0.00     0.202 C 
ATOM     18  O   UNL     1     -20.619 -67.236  57.409  1.00  0.00    -0.341 OA
ATOM     19  C   UNL     1     -22.088 -68.979  55.556  1.00  0.00     0.179 C 
ATOM     20  C   UNL     1     -20.032 -67.577  56.156  1.00  0.00     0.178 C 
ATOM     21  C   UNL     1     -20.557 -68.912  55.567  1.00  0.00     0.177 C 
BRANCH  17  22
ATOM     22  O   UNL     1     -24.014 -68.590  56.956  1.00  0.00    -0.385 OA
ATOM     23  H   UNL     1     -24.311 -69.045  57.788  1.00  0.00     0.211 HD
ENDBRANCH  17  22
BRANCH  19  24
ATOM     24  O   UNL     1     -22.616 -68.116  54.581  1.00  0.00    -0.387 OA
ATOM     25  H   UNL     1     -22.465 -67.188  54.901  1.00  0.00     0.211 HD
ENDBRANCH  19  24
BRANCH  20  26
ATOM     26  C   UNL     1     -20.037 -66.382  55.181  1.00  0.00     0.191 C 
BRANCH  26  27
ATOM     27  O   UNL     1     -18.922 -66.418  54.331  1.00  0.00    -0.394 OA
ATOM     28  H   UNL     1     -18.758 -65.485  54.031  1.00  0.00     0.210 HD
ENDBRANCH  26  27
ENDBRANCH  20  26
BRANCH  21  29
ATOM     29  O   UNL     1     -20.046 -69.122  54.276  1.00  0.00    -0.387 OA
ATOM     30  H   UNL     1     -19.061 -69.004  54.332  1.00  0.00     0.211 HD
ENDBRANCH  21  29
ENDBRANCH   1  16
TORSDOF 10
ENDMDL
MODEL 4
REMARK VINA RESULT:    -4.635      9.606     13.033
REMARK INTER + INTRA:          -8.007
REMARK INTER:                  -6.576
REMARK INTRA:                  -1.430
REMARK UNBOUND:                -1.475
REMARK SMILES OCC1=C[C@H](O)[C@H]2C=CO[C@@H](O[C@@H]3O[C@H](CO)[C@H](O)[C@H](O)[C@@H]3O)[C@H]12
REMARK SMILES IDX 12 1 11 2 8 3 9 4 7 5 10 6 24 7 5 8 3 9 4 10 6 11 2 13 1 14
REMARK SMILES IDX 13 16 22 17 14 18 20 19 15 20 18 21 23 22 21 24 16 26 17 27
REMARK SMILES IDX 19 29
REMARK H PARENT 6 12 1 15 23 23 21 25 17 28 19 30
REMARK Flexibility Score: inf
ROOT
ATOM      1  O   UNL     1     -23.535 -64.805  57.247  1.00  0.00    -0.310 OA
ENDROOT
BRANCH   1   2
ATOM      2  C   UNL     1     -23.362 -66.008  56.509  1.00  0.00     0.316 C 
ATOM      3  C   UNL     1     -22.826 -68.872  56.776  1.00  0.00     0.018 C 
ATOM      4  C   UNL     1     -24.020 -68.379  57.132  1.00  0.00     0.186 C 
ATOM      5  C   UNL     1     -21.916 -67.947  56.044  1.00  0.00     0.061 C 
ATOM      6  O   UNL     1     -24.317 -67.005  56.956  1.00  0.00    -0.472 OA
ATOM      7  C   UNL     1     -21.946 -66.579  56.719  1.00  0.00     0.096 C 
ATOM      8  C   UNL     1     -20.425 -68.266  55.946  1.00  0.00     0.145 C 
ATOM      9  C   UNL     1     -20.733 -65.942  56.110  1.00  0.00    -0.036 C 
ATOM     10  C   UNL     1     -19.857 -66.887  55.747  1.00  0.00     0.007 C 
BRANCH   8  11
ATOM     11  O   UNL     1     -20.131 -69.124  54.871  1.00  0.00    -0.388 OA
ATOM     12  H   UNL     1     -19.415 -68.704  54.326  1.00  0.00     0.211 HD
ENDBRANCH   8  11
BRANCH   9  13
ATOM     13  C   UNL     1     -20.385 -64.486  56.175  1.00  0.00     0.187 C 
BRANCH  13  14
ATOM     14  O   UNL     1     -21.018 -63.792  55.135  1.00  0.00    -0.392 OA
ATOM     15  H   UNL     1     -21.286 -64.472  54.462  1.00  0.00     0.211 HD
ENDBRANCH  13  14
ENDBRANCH   9  13
ENDBRANCH   1   2
BRANCH   1  16
ATOM     16  C   UNL     1     -24.212 -63.813  56.474  1.00  0.00     0.286 C 
ATOM     17  C   UNL     1     -25.623 -63.526  57.030  1.00  0.00     0.202 C 
ATOM     18  O   UNL     1     -23.422 -62.635  56.352  1.00  0.00    -0.341 OA
ATOM     19  C   UNL     1     -25.560 -62.771  58.362  1.00  0.00     0.179 C 
ATOM     20  C   UNL     1     -23.321 -61.846  57.535  1.00  0.00     0.178 C 
ATOM     21  C   UNL     1     -24.692 -61.521  58.183  1.00  0.00     0.177 C 
BRANCH  17  22
ATOM     22  O   UNL     1     -26.341 -64.724  57.179  1.00  0.00    -0.385 OA
ATOM     23  H   UNL     1     -25.779 -65.446  56.794  1.00  0.00     0.211 HD
ENDBRANCH  17  22
BRANCH  19  24
ATOM     24  O   UNL     1     -25.051 -63.587  59.385  1.00  0.00    -0.387 OA
ATOM     25  H   UNL     1     -24.373 -64.184  58.972  1.00  0.00     0.211 HD
ENDBRANCH  19  24
BRANCH  20  26
ATOM     26  C   UNL     1     -22.254 -62.401  58.500  1.00  0.00     0.191 C 
BRANCH  26  27
ATOM     27  O   UNL     1     -21.538 -61.362  59.114  1.00  0.00    -0.394 OA
ATOM     28  H   UNL     1     -22.140 -60.961  59.795  1.00  0.00     0.210 HD
ENDBRANCH  26  27
ENDBRANCH  20  26
BRANCH  21  29
ATOM     29  O   UNL     1     -24.519 -60.862  59.411  1.00  0.00    -0.387 OA
ATOM     30  H   UNL     1     -25.383 -60.423  59.628  1.00  0.00     0.211 HD
ENDBRANCH  21  29
ENDBRANCH   1  16
TORSDOF 10
ENDMDL
MODEL 5
REMARK VINA RESULT:    -4.620      8.301     12.927
REMARK INTER + INTRA:          -7.986
REMARK INTER:                  -6.508
REMARK INTRA:                  -1.477
REMARK UNBOUND:                -1.475
REMARK SMILES OCC1=C[C@H](O)[C@H]2C=CO[C@@H](O[C@@H]3O[C@H](CO)[C@H](O)[C@H](O)[C@@H]3O)[C@H]12
REMARK SMILES IDX 12 1 11 2 8 3 9 4 7 5 10 6 24 7 5 8 3 9 4 10 6 11 2 13 1 14
REMARK SMILES IDX 13 16 22 17 14 18 20 19 15 20 18 21 23 22 21 24 16 26 17 27
REMARK SMILES IDX 19 29
REMARK H PARENT 6 12 1 15 23 23 21 25 17 28 19 30
REMARK Flexibility Score: inf
ROOT
ATOM      1  O   UNL     1     -23.482 -64.295  56.852  1.00  0.00    -0.310 OA
ENDROOT
BRANCH   1   2
ATOM      2  C   UNL     1     -23.220 -65.691  56.841  1.00  0.00     0.316 C 
ATOM      3  C   UNL     1     -23.563 -68.157  58.379  1.00  0.00     0.018 C 
ATOM      4  C   UNL     1     -24.619 -67.591  57.779  1.00  0.00     0.186 C 
ATOM      5  C   UNL     1     -22.224 -67.607  58.027  1.00  0.00     0.061 C 
ATOM      6  O   UNL     1     -24.462 -66.429  56.984  1.00  0.00    -0.472 OA
ATOM      7  C   UNL     1     -22.298 -66.084  58.013  1.00  0.00     0.096 C 
ATOM      8  C   UNL     1     -21.022 -67.899  58.923  1.00  0.00     0.145 C 
ATOM      9  C   UNL     1     -20.841 -65.733  58.030  1.00  0.00    -0.036 C 
ATOM     10  C   UNL     1     -20.143 -66.720  58.605  1.00  0.00     0.007 C 
BRANCH   8  11
ATOM     11  O   UNL     1     -20.406 -69.125  58.610  1.00  0.00    -0.388 OA
ATOM     12  H   UNL     1     -19.824 -68.986  57.818  1.00  0.00     0.211 HD
ENDBRANCH   8  11
BRANCH   9  13
ATOM     13  C   UNL     1     -20.263 -64.379  57.751  1.00  0.00     0.187 C 
BRANCH  13  14
ATOM     14  O   UNL     1     -21.157 -63.380  58.160  1.00  0.00    -0.392 OA
ATOM     15  H   UNL     1     -21.954 -63.454  57.573  1.00  0.00     0.211 HD
ENDBRANCH  13  14
ENDBRANCH   9  13
ENDBRANCH   1   2
BRANCH   1  16
ATOM     16  C   UNL     1     -24.879 -64.026  56.729  1.00  0.00     0.286 C 
ATOM     17  C   UNL     1     -25.460 -63.428  58.028  1.00  0.00     0.202 C 
ATOM     18  O   UNL     1     -25.145 -63.217  55.588  1.00  0.00    -0.341 OA
ATOM     19  C   UNL     1     -24.973 -61.992  58.253  1.00  0.00     0.179 C 
ATOM     20  C   UNL     1     -24.750 -61.852  55.707  1.00  0.00     0.178 C 
ATOM     21  C   UNL     1     -25.270 -61.166  56.997  1.00  0.00     0.177 C 
BRANCH  17  22
ATOM     22  O   UNL     1     -25.126 -64.236  59.128  1.00  0.00    -0.385 OA
ATOM     23  H   UNL     1     -25.190 -63.663  59.936  1.00  0.00     0.211 HD
ENDBRANCH  17  22
BRANCH  19  24
ATOM     24  O   UNL     1     -23.601 -61.963  58.555  1.00  0.00    -0.387 OA
ATOM     25  H   UNL     1     -23.363 -61.016  58.739  1.00  0.00     0.211 HD
ENDBRANCH  19  24
BRANCH  20  26
ATOM     26  C   UNL     1     -23.245 -61.667  55.425  1.00  0.00     0.191 C 
BRANCH  26  27
ATOM     27  O   UNL     1     -22.960 -60.347  55.046  1.00  0.00    -0.394 OA
ATOM     28  H   UNL     1     -23.688 -59.779  55.412  1.00  0.00     0.210 HD
ENDBRANCH  26  27
ENDBRANCH  20  26
BRANCH  21  29
ATOM     29  O   UNL     1     -24.737 -59.872  57.122  1.00  0.00    -0.387 OA
ATOM     30  H   UNL     1     -25.285 -59.277  56.547  1.00  0.00     0.211 HD
ENDBRANCH  21  29
ENDBRANCH   1  16
TORSDOF 10
ENDMDL
MODEL 6
REMARK VINA RESULT:    -4.591     10.876     13.372
REMARK INTER + INTRA:          -7.944
REMARK INTER:                  -6.457
REMARK INTRA:                  -1.487
REMARK UNBOUND:                -1.475
REMARK SMILES OCC1=C[C@H](O)[C@H]2C=CO[C@@H](O[C@@H]3O[C@H](CO)[C@H](O)[C@H](O)[C@@H]3O)[C@H]12
REMARK SMILES IDX 12 1 11 2 8 3 9 4 7 5 10 6 24 7 5 8 3 9 4 10 6 11 2 13 1 14
REMARK SMILES IDX 13 16 22 17 14 18 20 19 15 20 18 21 23 22 21 24 16 26 17 27
REMARK SMILES IDX 19 29
REMARK H PARENT 6 12 1 15 23 23 21 25 17 28 19 30
REMARK Flexibility Score: inf
ROOT
ATOM      1  O   UNL     1     -20.981 -63.803  56.983  1.00  0.00    -0.310 OA
ENDROOT
BRANCH   1   2
ATOM      2  C   UNL     1     -21.958 -64.755  56.584  1.00  0.00     0.316 C 
ATOM      3  C   UNL     1     -24.605 -65.817  57.235  1.00  0.00     0.018 C 
ATOM      4  C   UNL     1     -24.489 -64.596  56.697  1.00  0.00     0.186 C 
ATOM      5  C   UNL     1     -23.374 -66.655  57.256  1.00  0.00     0.061 C 
ATOM      6  O   UNL     1     -23.221 -64.088  56.323  1.00  0.00    -0.472 OA
ATOM      7  C   UNL     1     -22.193 -65.796  57.696  1.00  0.00     0.096 C 
ATOM      8  C   UNL     1     -23.296 -67.871  58.177  1.00  0.00     0.145 C 
ATOM      9  C   UNL     1     -21.183 -66.855  58.019  1.00  0.00    -0.036 C 
ATOM     10  C   UNL     1     -21.807 -67.990  58.356  1.00  0.00     0.007 C 
BRANCH   8  11
ATOM     11  O   UNL     1     -23.858 -69.022  57.594  1.00  0.00    -0.388 OA
ATOM     12  H   UNL     1     -24.462 -68.734  56.860  1.00  0.00     0.211 HD
ENDBRANCH   8  11
BRANCH   9  13
ATOM     13  C   UNL     1     -19.719 -66.628  58.248  1.00  0.00     0.187 C 
BRANCH  13  14
ATOM     14  O   UNL     1     -19.514 -65.380  58.850  1.00  0.00    -0.392 OA
ATOM     15  H   UNL     1     -19.786 -65.475  59.800  1.00  0.00     0.211 HD
ENDBRANCH  13  14
ENDBRANCH   9  13
ENDBRANCH   1   2
BRANCH   1  16
ATOM     16  C   UNL     1     -21.341 -62.483  56.572  1.00  0.00     0.286 C 
ATOM     17  C   UNL     1     -21.649 -61.575  57.782  1.00  0.00     0.202 C 
ATOM     18  O   UNL     1     -20.353 -61.929  55.710  1.00  0.00    -0.341 OA
ATOM     19  C   UNL     1     -20.376 -61.229  58.563  1.00  0.00     0.179 C 
ATOM     20  C   UNL     1     -19.135 -61.550  56.347  1.00  0.00     0.178 C 
ATOM     21  C   UNL     1     -19.341 -60.649  57.593  1.00  0.00     0.177 C 
BRANCH  17  22
ATOM     22  O   UNL     1     -22.589 -62.190  58.625  1.00  0.00    -0.385 OA
ATOM     23  H   UNL     1     -23.025 -61.465  59.146  1.00  0.00     0.211 HD
ENDBRANCH  17  22
BRANCH  19  24
ATOM     24  O   UNL     1     -19.862 -62.357  59.222  1.00  0.00    -0.387 OA
ATOM     25  H   UNL     1     -18.872 -62.284  59.197  1.00  0.00     0.211 HD
ENDBRANCH  19  24
BRANCH  20  26
ATOM     26  C   UNL     1     -18.201 -62.759  56.558  1.00  0.00     0.191 C 
BRANCH  26  27
ATOM     27  O   UNL     1     -16.862 -62.354  56.650  1.00  0.00    -0.394 OA
ATOM     28  H   UNL     1     -16.503 -62.336  55.724  1.00  0.00     0.210 HD
ENDBRANCH  26  27
ENDBRANCH  20  26
BRANCH  21  29
ATOM     29  O   UNL     1     -18.122 -60.424  58.252  1.00  0.00    -0.387 OA
ATOM     30  H   UNL     1     -18.342 -60.111  59.168  1.00  0.00     0.211 HD
ENDBRANCH  21  29
ENDBRANCH   1  16
TORSDOF 10
ENDMDL
MODEL 7
REMARK VINA RESULT:    -4.560     10.947     14.281
REMARK INTER + INTRA:          -7.902
REMARK INTER:                  -6.630
REMARK INTRA:                  -1.272
REMARK UNBOUND:                -1.475
REMARK SMILES OCC1=C[C@H](O)[C@H]2C=CO[C@@H](O[C@@H]3O[C@H](CO)[C@H](O)[C@H](O)[C@@H]3O)[C@H]12
REMARK SMILES IDX 12 1 11 2 8 3 9 4 7 5 10 6 24 7 5 8 3 9 4 10 6 11 2 13 1 14
REMARK SMILES IDX 13 16 22 17 14 18 20 19 15 20 18 21 23 22 21 24 16 26 17 27
REMARK SMILES IDX 19 29
REMARK H PARENT 6 12 1 15 23 23 21 25 17 28 19 30
REMARK Flexibility Score: inf
ROOT
ATOM      1  O   UNL     1     -23.785 -65.883  56.887  1.00  0.00    -0.310 OA
ENDROOT
BRANCH   1   2
ATOM      2  C   UNL     1     -22.737 -65.619  57.810  1.00  0.00     0.316 C 
ATOM      3  C   UNL     1     -19.842 -65.261  58.037  1.00  0.00     0.018 C 
ATOM      4  C   UNL     1     -20.590 -64.309  57.465  1.00  0.00     0.186 C 
ATOM      5  C   UNL     1     -20.575 -66.355  58.734  1.00  0.00     0.061 C 
ATOM      6  O   UNL     1     -21.998 -64.439  57.397  1.00  0.00    -0.472 OA
ATOM      7  C   UNL     1     -21.748 -66.801  57.867  1.00  0.00     0.096 C 
ATOM      8  C   UNL     1     -19.857 -67.661  59.067  1.00  0.00     0.145 C 
ATOM      9  C   UNL     1     -22.101 -68.101  58.523  1.00  0.00    -0.036 C 
ATOM     10  C   UNL     1     -21.022 -68.611  59.130  1.00  0.00     0.007 C 
BRANCH   8  11
ATOM     11  O   UNL     1     -19.157 -67.593  60.285  1.00  0.00    -0.388 OA
ATOM     12  H   UNL     1     -19.244 -66.671  60.642  1.00  0.00     0.211 HD
ENDBRANCH   8  11
BRANCH   9  13
ATOM     13  C   UNL     1     -23.356 -68.887  58.290  1.00  0.00     0.187 C 
BRANCH  13  14
ATOM     14  O   UNL     1     -23.556 -69.079  56.917  1.00  0.00    -0.392 OA
ATOM     15  H   UNL     1     -24.039 -69.941  56.818  1.00  0.00     0.211 HD
ENDBRANCH  13  14
ENDBRANCH   9  13
ENDBRANCH   1   2
BRANCH   1  16
ATOM     16  C   UNL     1     -24.564 -64.712  56.636  1.00  0.00     0.286 C 
ATOM     17  C   UNL     1     -24.540 -64.324  55.142  1.00  0.00     0.202 C 
ATOM     18  O   UNL     1     -25.886 -64.862  57.141  1.00  0.00    -0.341 OA
ATOM     19  C   UNL     1     -25.341 -65.315  54.290  1.00  0.00     0.179 C 
ATOM     20  C   UNL     1     -26.722 -65.748  56.401  1.00  0.00     0.178 C 
ATOM     21  C   UNL     1     -26.749 -65.451  54.879  1.00  0.00     0.177 C 
BRANCH  17  22
ATOM     22  O   UNL     1     -23.216 -64.241  54.681  1.00  0.00    -0.385 OA
ATOM     23  H   UNL     1     -22.643 -64.091  55.478  1.00  0.00     0.211 HD
ENDBRANCH  17  22
BRANCH  19  24
ATOM     24  O   UNL     1     -24.703 -66.566  54.233  1.00  0.00    -0.387 OA
ATOM     25  H   UNL     1     -24.354 -66.757  55.143  1.00  0.00     0.211 HD
ENDBRANCH  19  24
BRANCH  20  26
ATOM     26  C   UNL     1     -26.466 -67.222  56.778  1.00  0.00     0.191 C 
BRANCH  26  27
ATOM     27  O   UNL     1     -27.671 -67.930  56.898  1.00  0.00    -0.394 OA
ATOM     28  H   UNL     1     -28.202 -67.476  57.604  1.00  0.00     0.210 HD
ENDBRANCH  26  27
ENDBRANCH  20  26
BRANCH  21  29
ATOM     29  O   UNL     1     -27.477 -66.436  54.191  1.00  0.00    -0.387 OA
ATOM     30  H   UNL     1     -27.737 -67.122  54.861  1.00  0.00     0.211 HD
ENDBRANCH  21  29
ENDBRANCH   1  16
TORSDOF 10
ENDMDL
MODEL 8
REMARK VINA RESULT:    -4.514     10.304     14.340
REMARK INTER + INTRA:          -7.837
REMARK INTER:                  -6.342
REMARK INTRA:                  -1.495
REMARK UNBOUND:                -1.475
REMARK SMILES OCC1=C[C@H](O)[C@H]2C=CO[C@@H](O[C@@H]3O[C@H](CO)[C@H](O)[C@H](O)[C@@H]3O)[C@H]12
REMARK SMILES IDX 12 1 11 2 8 3 9 4 7 5 10 6 24 7 5 8 3 9 4 10 6 11 2 13 1 14
REMARK SMILES IDX 13 16 22 17 14 18 20 19 15 20 18 21 23 22 21 24 16 26 17 27
REMARK SMILES IDX 19 29
REMARK H PARENT 6 12 1 15 23 23 21 25 17 28 19 30
REMARK Flexibility Score: inf
ROOT
ATOM      1  O   UNL     1     -23.029 -66.264  56.497  1.00  0.00    -0.310 OA
ENDROOT
BRANCH   1   2
ATOM      2  C   UNL     1     -22.385 -67.387  57.082  1.00  0.00     0.316 C 
ATOM      3  C   UNL     1     -22.272 -69.037  59.496  1.00  0.00     0.018 C 
ATOM      4  C   UNL     1     -23.327 -69.125  58.674  1.00  0.00     0.186 C 
ATOM      5  C   UNL     1     -21.104 -68.258  58.997  1.00  0.00     0.061 C 
ATOM      6  O   UNL     1     -23.373 -68.376  57.473  1.00  0.00    -0.472 OA
ATOM      7  C   UNL     1     -21.603 -66.973  58.344  1.00  0.00     0.096 C 
ATOM      8  C   UNL     1     -20.040 -67.772  59.979  1.00  0.00     0.145 C 
ATOM      9  C   UNL     1     -20.330 -66.186  58.268  1.00  0.00    -0.036 C 
ATOM     10  C   UNL     1     -19.490 -66.589  59.230  1.00  0.00     0.007 C 
BRANCH   8  11
ATOM     11  O   UNL     1     -19.058 -68.748  60.231  1.00  0.00    -0.388 OA
ATOM     12  H   UNL     1     -18.962 -69.308  59.417  1.00  0.00     0.211 HD
ENDBRANCH   8  11
BRANCH   9  13
ATOM     13  C   UNL     1     -20.121 -64.935  57.470  1.00  0.00     0.187 C 
BRANCH  13  14
ATOM     14  O   UNL     1     -21.259 -64.121  57.543  1.00  0.00    -0.392 OA
ATOM     15  H   UNL     1     -21.875 -64.553  58.190  1.00  0.00     0.211 HD
ENDBRANCH  13  14
ENDBRANCH   9  13
ENDBRANCH   1   2
BRANCH   1  16
ATOM     16  C   UNL     1     -24.418 -66.228  56.830  1.00  0.00     0.286 C 
ATOM     17  C   UNL     1     -24.875 -64.803  57.209  1.00  0.00     0.202 C 
ATOM     18  O   UNL     1     -25.207 -66.797  55.790  1.00  0.00    -0.341 OA
ATOM     19  C   UNL     1     -24.912 -63.881  55.986  1.00  0.00     0.179 C 
ATOM     20  C   UNL     1     -25.324 -66.002  54.613  1.00  0.00     0.178 C 
ATOM     21  C   UNL     1     -25.761 -64.539  54.893  1.00  0.00     0.177 C 
BRANCH  17  22
ATOM     22  O   UNL     1     -24.034 -64.269  58.199  1.00  0.00    -0.385 OA
ATOM     23  H   UNL     1     -23.744 -65.028  58.770  1.00  0.00     0.211 HD
ENDBRANCH  17  22
BRANCH  19  24
ATOM     24  O   UNL     1     -23.617 -63.610  55.514  1.00  0.00    -0.387 OA
ATOM     25  H   UNL     1     -23.293 -62.804  55.996  1.00  0.00     0.211 HD
ENDBRANCH  19  24
BRANCH  20  26
ATOM     26  C   UNL     1     -24.095 -66.155  53.695  1.00  0.00     0.191 C 
BRANCH  26  27
ATOM     27  O   UNL     1     -24.463 -66.107  52.342  1.00  0.00    -0.394 OA
ATOM     28  H   UNL     1     -24.730 -67.028  52.084  1.00  0.00     0.210 HD
ENDBRANCH  26  27
ENDBRANCH  20  26
BRANCH  21  29
ATOM     29  O   UNL     1     -25.726 -63.775  53.715  1.00  0.00    -0.387 OA
ATOM     30  H   UNL     1     -25.857 -62.827  53.982  1.00  0.00     0.211 HD
ENDBRANCH  21  29
ENDBRANCH   1  16
TORSDOF 10
ENDMDL
MODEL 9
REMARK VINA RESULT:    -4.493      9.818     12.630
REMARK INTER + INTRA:          -7.806
REMARK INTER:                  -6.647
REMARK INTRA:                  -1.159
REMARK UNBOUND:                -1.475
REMARK SMILES OCC1=C[C@H](O)[C@H]2C=CO[C@@H](O[C@@H]3O[C@H](CO)[C@H](O)[C@H](O)[C@@H]3O)[C@H]12
REMARK SMILES IDX 12 1 11 2 8 3 9 4 7 5 10 6 24 7 5 8 3 9 4 10 6 11 2 13 1 14
REMARK SMILES IDX 13 16 22 17 14 18 20 19 15 20 18 21 23 22 21 24 16 26 17 27
REMARK SMILES IDX 19 29
REMARK H PARENT 6 12 1 15 23 23 21 25 17 28 19 30
REMARK Flexibility Score: inf
ROOT
ATOM      1  O   UNL     1     -23.433 -65.860  56.050  1.00  0.00    -0.310 OA
ENDROOT
BRANCH   1   2
ATOM      2  C   UNL     1     -24.191 -65.164  57.030  1.00  0.00     0.316 C 
ATOM      3  C   UNL     1     -26.181 -63.050  57.394  1.00  0.00     0.018 C 
ATOM      4  C   UNL     1     -26.544 -64.226  56.865  1.00  0.00     0.186 C 
ATOM      5  C   UNL     1     -24.813 -62.979  57.980  1.00  0.00     0.061 C 
ATOM      6  O   UNL     1     -25.608 -65.280  56.734  1.00  0.00    -0.472 OA
ATOM      7  C   UNL     1     -23.830 -63.665  57.038  1.00  0.00     0.096 C 
ATOM      8  C   UNL     1     -24.169 -61.619  58.242  1.00  0.00     0.145 C 
ATOM      9  C   UNL     1     -22.526 -63.165  57.582  1.00  0.00    -0.036 C 
ATOM     10  C   UNL     1     -22.711 -61.987  58.190  1.00  0.00     0.007 C 
BRANCH   8  11
ATOM     11  O   UNL     1     -24.539 -61.081  59.488  1.00  0.00    -0.388 OA
ATOM     12  H   UNL     1     -24.868 -60.156  59.341  1.00  0.00     0.211 HD
ENDBRANCH   8  11
BRANCH   9  13
ATOM     13  C   UNL     1     -21.171 -63.707  57.242  1.00  0.00     0.187 C 
BRANCH  13  14
ATOM     14  O   UNL     1     -21.131 -64.100  55.898  1.00  0.00    -0.392 OA
ATOM     15  H   UNL     1     -21.058 -65.090  55.894  1.00  0.00     0.211 HD
ENDBRANCH  13  14
ENDBRANCH   9  13
ENDBRANCH   1   2
BRANCH   1  16
ATOM     16  C   UNL     1     -23.871 -67.213  55.917  1.00  0.00     0.286 C 
ATOM     17  C   UNL     1     -23.184 -67.919  54.728  1.00  0.00     0.202 C 
ATOM     18  O   UNL     1     -23.712 -67.924  57.140  1.00  0.00    -0.341 OA
ATOM     19  C   UNL     1     -21.702 -68.188  55.014  1.00  0.00     0.179 C 
ATOM     20  C   UNL     1     -22.367 -68.246  57.485  1.00  0.00     0.178 C 
ATOM     21  C   UNL     1     -21.583 -68.942  56.342  1.00  0.00     0.177 C 
BRANCH  17  22
ATOM     22  O   UNL     1     -23.325 -67.153  53.559  1.00  0.00    -0.385 OA
ATOM     23  H   UNL     1     -24.134 -66.590  53.681  1.00  0.00     0.211 HD
ENDBRANCH  17  22
BRANCH  19  24
ATOM     24  O   UNL     1     -20.967 -66.992  55.053  1.00  0.00    -0.387 OA
ATOM     25  H   UNL     1     -21.013 -66.651  55.985  1.00  0.00     0.211 HD
ENDBRANCH  19  24
BRANCH  20  26
ATOM     26  C   UNL     1     -21.646 -67.052  58.144  1.00  0.00     0.191 C 
BRANCH  26  27
ATOM     27  O   UNL     1     -20.673 -67.488  59.055  1.00  0.00    -0.394 OA
ATOM     28  H   UNL     1     -21.155 -67.945  59.793  1.00  0.00     0.210 HD
ENDBRANCH  26  27
ENDBRANCH  20  26
BRANCH  21  29
ATOM     29  O   UNL     1     -20.233 -69.109  56.694  1.00  0.00    -0.387 OA
ATOM     30  H   UNL     1     -20.181 -69.921  57.263  1.00  0.00     0.211 HD
ENDBRANCH  21  29
ENDBRANCH   1  16
TORSDOF 10
ENDMDL
