MODEL 1
REMARK VINA RESULT:    -4.817      0.000      0.000
REMARK INTER + INTRA:          -4.958
REMARK INTER:                  -4.958
REMARK INTRA:                   0.000
REMARK UNBOUND:                 0.000
REMARK SMILES C[C@@H]1CC[C@H]2C(C)(C)[C@H]3C[C@@]12CC[C@]3(C)O
REMARK SMILES IDX 1 1 2 2 3 3 4 4 5 5 11 6 12 7 13 8 14 9 9 10 10 11 6 12 7 13
REMARK SMILES IDX 8 14 15 15 16 16
REMARK H PARENT 16 17
REMARK Flexibility Score: inf
ROOT
ATOM      1  C   UNL     1     170.715 167.988 167.884  1.00  0.00     0.008 C 
ATOM      2  C   UNL     1     169.909 168.639 169.018  1.00  0.00    -0.008 C 
ATOM      3  C   UNL     1     170.664 168.596 170.345  1.00  0.00     0.004 C 
ATOM      4  C   UNL     1     169.589 168.739 171.405  1.00  0.00     0.005 C 
ATOM      5  C   UNL     1     168.406 167.926 170.857  1.00  0.00     0.001 C 
ATOM      6  C   UNL     1     168.507 168.020 169.319  1.00  0.00    -0.023 C 
ATOM      7  C   UNL     1     168.232 166.628 168.662  1.00  0.00     0.010 C 
ATOM      8  C   UNL     1     166.863 166.026 169.073  1.00  0.00     0.036 C 
ATOM      9  C   UNL     1     165.711 167.087 169.165  1.00  0.00     0.065 C 
ATOM     10  C   UNL     1     166.223 168.428 169.828  1.00  0.00     0.027 C 
ATOM     11  C   UNL     1     167.356 168.952 168.937  1.00  0.00     0.014 C 
ATOM     12  C   UNL     1     166.943 168.357 171.231  1.00  0.00    -0.026 C 
ATOM     13  C   UNL     1     166.849 169.759 171.902  1.00  0.00     0.012 C 
ATOM     14  C   UNL     1     166.331 167.373 172.255  1.00  0.00     0.012 C 
ATOM     15  C   UNL     1     164.496 166.487 169.906  1.00  0.00     0.042 C 
ENDROOT
BRANCH   9  16
ATOM     16  O   UNL     1     165.218 167.408 167.875  1.00  0.00    -0.390 OA
ATOM     17  H   UNL     1     165.105 168.388 167.777  1.00  0.00     0.211 HD
ENDBRANCH   9  16
TORSDOF 1
ENDMDL
MODEL 2
REMARK VINA RESULT:    -4.727      1.690      2.942
REMARK INTER + INTRA:          -4.865
REMARK INTER:                  -4.865
REMARK INTRA:                   0.000
REMARK UNBOUND:                 0.000
REMARK SMILES C[C@@H]1CC[C@H]2C(C)(C)[C@H]3C[C@@]12CC[C@]3(C)O
REMARK SMILES IDX 1 1 2 2 3 3 4 4 5 5 11 6 12 7 13 8 14 9 9 10 10 11 6 12 7 13
REMARK SMILES IDX 8 14 15 15 16 16
REMARK H PARENT 16 17
REMARK Flexibility Score: inf
ROOT
ATOM      1  C   UNL     1     168.354 164.630 167.887  1.00  0.00     0.008 C 
ATOM      2  C   UNL     1     168.870 165.430 169.092  1.00  0.00    -0.008 C 
ATOM      3  C   UNL     1     168.696 164.659 170.399  1.00  0.00     0.004 C 
ATOM      4  C   UNL     1     168.711 165.723 171.480  1.00  0.00     0.005 C 
ATOM      5  C   UNL     1     167.946 166.902 170.861  1.00  0.00     0.001 C 
ATOM      6  C   UNL     1     168.204 166.821 169.341  1.00  0.00    -0.023 C 
ATOM      7  C   UNL     1     166.887 167.088 168.542  1.00  0.00     0.010 C 
ATOM      8  C   UNL     1     166.227 168.444 168.902  1.00  0.00     0.036 C 
ATOM      9  C   UNL     1     167.257 169.608 169.119  1.00  0.00     0.065 C 
ATOM     10  C   UNL     1     168.526 169.103 169.915  1.00  0.00     0.027 C 
ATOM     11  C   UNL     1     169.157 167.988 169.073  1.00  0.00     0.014 C 
ATOM     12  C   UNL     1     168.315 168.365 171.295  1.00  0.00    -0.026 C 
ATOM     13  C   UNL     1     169.636 168.467 172.112  1.00  0.00     0.012 C 
ATOM     14  C   UNL     1     167.220 168.954 172.215  1.00  0.00     0.012 C 
ATOM     15  C   UNL     1     166.566 170.806 169.804  1.00  0.00     0.042 C 
ENDROOT
BRANCH   9  16
ATOM     16  O   UNL     1     167.707 170.119 167.875  1.00  0.00    -0.390 OA
ATOM     17  H   UNL     1     168.666 170.367 167.925  1.00  0.00     0.211 HD
ENDBRANCH   9  16
TORSDOF 1
ENDMDL
MODEL 3
REMARK VINA RESULT:    -4.696      1.654      4.321
REMARK INTER + INTRA:          -4.834
REMARK INTER:                  -4.834
REMARK INTRA:                   0.000
REMARK UNBOUND:                 0.000
REMARK SMILES C[C@@H]1CC[C@H]2C(C)(C)[C@H]3C[C@@]12CC[C@]3(C)O
REMARK SMILES IDX 1 1 2 2 3 3 4 4 5 5 11 6 12 7 13 8 14 9 9 10 10 11 6 12 7 13
REMARK SMILES IDX 8 14 15 15 16 16
REMARK H PARENT 16 17
REMARK Flexibility Score: inf
ROOT
ATOM      1  C   UNL     1     166.856 169.576 173.123  1.00  0.00     0.008 C 
ATOM      2  C   UNL     1     166.463 168.746 171.892  1.00  0.00    -0.008 C 
ATOM      3  C   UNL     1     165.900 167.382 172.288  1.00  0.00     0.004 C 
ATOM      4  C   UNL     1     166.085 166.517 171.056  1.00  0.00     0.005 C 
ATOM      5  C   UNL     1     167.443 166.953 170.488  1.00  0.00     0.001 C 
ATOM      6  C   UNL     1     167.600 168.442 170.866  1.00  0.00    -0.023 C 
ATOM      7  C   UNL     1     169.052 168.735 171.365  1.00  0.00     0.010 C 
ATOM      8  C   UNL     1     170.139 168.327 170.337  1.00  0.00     0.036 C 
ATOM      9  C   UNL     1     169.747 168.639 168.850  1.00  0.00     0.065 C 
ATOM     10  C   UNL     1     168.226 168.302 168.579  1.00  0.00     0.027 C 
ATOM     11  C   UNL     1     167.407 169.175 169.537  1.00  0.00     0.014 C 
ATOM     12  C   UNL     1     167.690 166.862 168.939  1.00  0.00    -0.026 C 
ATOM     13  C   UNL     1     166.400 166.597 168.109  1.00  0.00     0.012 C 
ATOM     14  C   UNL     1     168.637 165.686 168.607  1.00  0.00     0.012 C 
ATOM     15  C   UNL     1     170.698 167.900 167.885  1.00  0.00     0.042 C 
ENDROOT
BRANCH   9  16
ATOM     16  O   UNL     1     169.940 170.013 168.557  1.00  0.00    -0.390 OA
ATOM     17  H   UNL     1     170.152 170.140 167.596  1.00  0.00     0.211 HD
ENDBRANCH   9  16
TORSDOF 1
ENDMDL
MODEL 4
REMARK VINA RESULT:    -4.688      1.364      4.037
REMARK INTER + INTRA:          -4.825
REMARK INTER:                  -4.825
REMARK INTRA:                   0.000
REMARK UNBOUND:                 0.000
REMARK SMILES C[C@@H]1CC[C@H]2C(C)(C)[C@H]3C[C@@]12CC[C@]3(C)O
REMARK SMILES IDX 1 1 2 2 3 3 4 4 5 5 11 6 12 7 13 8 14 9 9 10 10 11 6 12 7 13
REMARK SMILES IDX 8 14 15 15 16 16
REMARK H PARENT 16 17
REMARK Flexibility Score: inf
ROOT
ATOM      1  C   UNL     1     165.642 166.756 173.085  1.00  0.00     0.008 C 
ATOM      2  C   UNL     1     166.498 166.342 171.880  1.00  0.00    -0.008 C 
ATOM      3  C   UNL     1     167.840 165.757 172.315  1.00  0.00     0.004 C 
ATOM      4  C   UNL     1     168.742 165.920 171.106  1.00  0.00     0.005 C 
ATOM      5  C   UNL     1     168.346 167.282 170.519  1.00  0.00     0.001 C 
ATOM      6  C   UNL     1     166.850 167.467 170.856  1.00  0.00    -0.023 C 
ATOM      7  C   UNL     1     166.569 168.927 171.340  1.00  0.00     0.010 C 
ATOM      8  C   UNL     1     167.025 170.001 170.317  1.00  0.00     0.036 C 
ATOM      9  C   UNL     1     166.746 169.606 168.824  1.00  0.00     0.065 C 
ATOM     10  C   UNL     1     167.063 168.079 168.571  1.00  0.00     0.027 C 
ATOM     11  C   UNL     1     166.150 167.280 169.509  1.00  0.00     0.014 C 
ATOM     12  C   UNL     1     168.483 167.519 168.973  1.00  0.00    -0.026 C 
ATOM     13  C   UNL     1     168.747 166.219 168.157  1.00  0.00     0.012 C 
ATOM     14  C   UNL     1     169.684 168.443 168.667  1.00  0.00     0.012 C 
ATOM     15  C   UNL     1     167.528 170.539 167.875  1.00  0.00     0.042 C 
ENDROOT
BRANCH   9  16
ATOM     16  O   UNL     1     165.384 169.822 168.494  1.00  0.00    -0.390 OA
ATOM     17  H   UNL     1     165.269 170.695 168.037  1.00  0.00     0.211 HD
ENDBRANCH   9  16
TORSDOF 1
ENDMDL
MODEL 5
REMARK VINA RESULT:    -4.680      1.830      3.415
REMARK INTER + INTRA:          -4.817
REMARK INTER:                  -4.817
REMARK INTRA:                   0.000
REMARK UNBOUND:                 0.000
REMARK SMILES C[C@@H]1CC[C@H]2C(C)(C)[C@H]3C[C@@]12CC[C@]3(C)O
REMARK SMILES IDX 1 1 2 2 3 3 4 4 5 5 11 6 12 7 13 8 14 9 9 10 10 11 6 12 7 13
REMARK SMILES IDX 8 14 15 15 16 16
REMARK H PARENT 16 17
REMARK Flexibility Score: inf
ROOT
ATOM      1  C   UNL     1     169.676 168.686 172.869  1.00  0.00     0.008 C 
ATOM      2  C   UNL     1     168.802 168.985 171.641  1.00  0.00    -0.008 C 
ATOM      3  C   UNL     1     167.428 169.517 172.043  1.00  0.00     0.004 C 
ATOM      4  C   UNL     1     166.541 169.237 170.845  1.00  0.00     0.005 C 
ATOM      5  C   UNL     1     167.015 167.868 170.335  1.00  0.00     0.001 C 
ATOM      6  C   UNL     1     168.517 167.786 170.682  1.00  0.00    -0.023 C 
ATOM      7  C   UNL     1     168.877 166.373 171.246  1.00  0.00     0.010 C 
ATOM      8  C   UNL     1     168.486 165.221 170.285  1.00  0.00     0.036 C 
ATOM      9  C   UNL     1     168.748 165.547 168.772  1.00  0.00     0.065 C 
ATOM     10  C   UNL     1     168.347 167.038 168.434  1.00  0.00     0.027 C 
ATOM     11  C   UNL     1     169.211 167.937 169.327  1.00  0.00     0.014 C 
ATOM     12  C   UNL     1     166.897 167.539 168.804  1.00  0.00    -0.026 C 
ATOM     13  C   UNL     1     166.564 168.775 167.916  1.00  0.00     0.012 C 
ATOM     14  C   UNL     1     165.750 166.534 168.549  1.00  0.00     0.012 C 
ATOM     15  C   UNL     1     168.022 164.521 167.876  1.00  0.00     0.042 C 
ENDROOT
BRANCH   9  16
ATOM     16  O   UNL     1     170.121 165.389 168.455  1.00  0.00    -0.390 OA
ATOM     17  H   UNL     1     170.625 166.219 168.658  1.00  0.00     0.211 HD
ENDBRANCH   9  16
TORSDOF 1
ENDMDL
MODEL 6
REMARK VINA RESULT:    -4.635      1.655      4.211
REMARK INTER + INTRA:          -4.770
REMARK INTER:                  -4.770
REMARK INTRA:                   0.000
REMARK UNBOUND:                 0.000
REMARK SMILES C[C@@H]1CC[C@H]2C(C)(C)[C@H]3C[C@@]12CC[C@]3(C)O
REMARK SMILES IDX 1 1 2 2 3 3 4 4 5 5 11 6 12 7 13 8 14 9 9 10 10 11 6 12 7 13
REMARK SMILES IDX 8 14 15 15 16 16
REMARK H PARENT 16 17
REMARK Flexibility Score: inf
ROOT
ATOM      1  C   UNL     1     164.272 167.247 168.240  1.00  0.00     0.008 C 
ATOM      2  C   UNL     1     165.153 166.594 169.316  1.00  0.00    -0.008 C 
ATOM      3  C   UNL     1     164.486 166.628 170.689  1.00  0.00     0.004 C 
ATOM      4  C   UNL     1     165.629 166.485 171.676  1.00  0.00     0.005 C 
ATOM      5  C   UNL     1     166.769 167.306 171.057  1.00  0.00     0.001 C 
ATOM      6  C   UNL     1     166.569 167.219 169.528  1.00  0.00    -0.023 C 
ATOM      7  C   UNL     1     166.795 168.614 168.861  1.00  0.00     0.010 C 
ATOM      8  C   UNL     1     168.184 169.222 169.185  1.00  0.00     0.036 C 
ATOM      9  C   UNL     1     169.345 168.165 169.197  1.00  0.00     0.065 C 
ATOM     10  C   UNL     1     168.883 166.820 169.885  1.00  0.00     0.027 C 
ATOM     11  C   UNL     1     167.697 166.294 169.067  1.00  0.00     0.014 C 
ATOM     12  C   UNL     1     168.255 166.881 171.332  1.00  0.00    -0.026 C 
ATOM     13  C   UNL     1     168.399 165.476 171.989  1.00  0.00     0.012 C 
ATOM     14  C   UNL     1     168.929 167.862 172.319  1.00  0.00     0.012 C 
ATOM     15  C   UNL     1     170.602 168.768 169.859  1.00  0.00     0.042 C 
ENDROOT
BRANCH   9  16
ATOM     16  O   UNL     1     169.753 167.853 167.876  1.00  0.00    -0.390 OA
ATOM     17  H   UNL     1     169.699 168.654 167.293  1.00  0.00     0.211 HD
ENDBRANCH   9  16
TORSDOF 1
ENDMDL
MODEL 7
REMARK VINA RESULT:    -4.626      1.567      2.970
REMARK INTER + INTRA:          -4.762
REMARK INTER:                  -4.762
REMARK INTRA:                   0.000
REMARK UNBOUND:                 0.000
REMARK SMILES C[C@@H]1CC[C@H]2C(C)(C)[C@H]3C[C@@]12CC[C@]3(C)O
REMARK SMILES IDX 1 1 2 2 3 3 4 4 5 5 11 6 12 7 13 8 14 9 9 10 10 11 6 12 7 13
REMARK SMILES IDX 8 14 15 15 16 16
REMARK H PARENT 16 17
REMARK Flexibility Score: inf
ROOT
ATOM      1  C   UNL     1     167.243 171.174 168.603  1.00  0.00     0.008 C 
ATOM      2  C   UNL     1     166.581 170.248 169.633  1.00  0.00    -0.008 C 
ATOM      3  C   UNL     1     166.664 170.823 171.045  1.00  0.00     0.004 C 
ATOM      4  C   UNL     1     166.501 169.624 171.960  1.00  0.00     0.005 C 
ATOM      5  C   UNL     1     167.270 168.500 171.252  1.00  0.00     0.001 C 
ATOM      6  C   UNL     1     167.161 168.801 169.741  1.00  0.00    -0.023 C 
ATOM      7  C   UNL     1     168.535 168.573 169.031  1.00  0.00     0.010 C 
ATOM      8  C   UNL     1     169.099 167.145 169.253  1.00  0.00     0.036 C 
ATOM      9  C   UNL     1     168.004 166.022 169.213  1.00  0.00     0.065 C 
ATOM     10  C   UNL     1     166.689 166.484 169.958  1.00  0.00     0.027 C 
ATOM     11  C   UNL     1     166.188 167.737 169.229  1.00  0.00     0.014 C 
ATOM     12  C   UNL     1     166.799 167.014 171.441  1.00  0.00    -0.026 C 
ATOM     13  C   UNL     1     165.403 166.875 172.117  1.00  0.00     0.012 C 
ATOM     14  C   UNL     1     167.776 166.246 172.361  1.00  0.00     0.012 C 
ATOM     15  C   UNL     1     168.575 164.705 169.781  1.00  0.00     0.042 C 
ENDROOT
BRANCH   9  16
ATOM     16  O   UNL     1     167.652 165.711 167.876  1.00  0.00    -0.390 OA
ATOM     17  H   UNL     1     168.324 166.075 167.243  1.00  0.00     0.211 HD
ENDBRANCH   9  16
TORSDOF 1
ENDMDL
MODEL 8
REMARK VINA RESULT:    -4.440      1.561      3.627
REMARK INTER + INTRA:          -4.570
REMARK INTER:                  -4.570
REMARK INTRA:                   0.000
REMARK UNBOUND:                 0.000
REMARK SMILES C[C@@H]1CC[C@H]2C(C)(C)[C@H]3C[C@@]12CC[C@]3(C)O
REMARK SMILES IDX 1 1 2 2 3 3 4 4 5 5 11 6 12 7 13 8 14 9 9 10 10 11 6 12 7 13
REMARK SMILES IDX 8 14 15 15 16 16
REMARK H PARENT 16 17
REMARK Flexibility Score: inf
ROOT
ATOM      1  C   UNL     1     170.113 168.581 173.959  1.00  0.00     0.008 C 
ATOM      2  C   UNL     1     170.529 168.256 172.516  1.00  0.00    -0.008 C 
ATOM      3  C   UNL     1     171.665 169.158 172.040  1.00  0.00     0.004 C 
ATOM      4  C   UNL     1     171.581 169.118 170.526  1.00  0.00     0.005 C 
ATOM      5  C   UNL     1     170.074 169.104 170.231  1.00  0.00     0.001 C 
ATOM      6  C   UNL     1     169.417 168.382 171.426  1.00  0.00    -0.023 C 
ATOM      7  C   UNL     1     168.117 169.126 171.875  1.00  0.00     0.010 C 
ATOM      8  C   UNL     1     167.092 169.298 170.724  1.00  0.00     0.036 C 
ATOM      9  C   UNL     1     166.989 168.049 169.780  1.00  0.00     0.065 C 
ATOM     10  C   UNL     1     168.417 167.436 169.490  1.00  0.00     0.027 C 
ATOM     11  C   UNL     1     169.003 167.027 170.848  1.00  0.00     0.014 C 
ATOM     12  C   UNL     1     169.554 168.382 168.937  1.00  0.00    -0.026 C 
ATOM     13  C   UNL     1     170.626 167.500 168.232  1.00  0.00     0.012 C 
ATOM     14  C   UNL     1     169.114 169.415 167.875  1.00  0.00     0.012 C 
ATOM     15  C   UNL     1     166.232 168.422 168.488  1.00  0.00     0.042 C 
ENDROOT
BRANCH   9  16
ATOM     16  O   UNL     1     166.200 167.033 170.375  1.00  0.00    -0.390 OA
ATOM     17  H   UNL     1     165.245 167.301 170.400  1.00  0.00     0.211 HD
ENDBRANCH   9  16
TORSDOF 1
ENDMDL
