MODEL 1
REMARK VINA RESULT:    -5.379      0.000      0.000
REMARK INTER + INTRA:          -6.608
REMARK INTER:                  -6.323
REMARK INTRA:                  -0.285
REMARK UNBOUND:                -0.285
REMARK SMILES O=C([O-])C=Cc1ccc(O)c(O)c1
REMARK SMILES IDX 6 1 13 2 7 3 11 4 8 5 9 6 5 7 4 8 2 9 1 10 3 11 12 12 10 14
REMARK H PARENT 12 13 10 15
REMARK Flexibility Score: inf
ROOT
ATOM      1  C   UNL     1      72.996  39.308  -7.329  1.00  0.00    -0.022 A 
ATOM      2  C   UNL     1      73.972  40.144  -6.766  1.00  0.00     0.058 A 
ATOM      3  C   UNL     1      71.754  39.172  -6.687  1.00  0.00     0.012 A 
ATOM      4  C   UNL     1      73.735  40.796  -5.551  1.00  0.00     0.157 A 
ATOM      5  C   UNL     1      71.513  39.821  -5.473  1.00  0.00     0.051 A 
ATOM      6  C   UNL     1      72.502  40.631  -4.897  1.00  0.00     0.157 A 
ENDROOT
BRANCH   1   7
ATOM      7  C   UNL     1      73.253  38.675  -8.639  1.00  0.00     0.010 C 
ATOM      8  C   UNL     1      73.063  39.256  -9.833  1.00  0.00     0.025 C 
BRANCH   8   9
ATOM      9  C   UNL     1      72.390  40.549 -10.058  1.00  0.00     0.064 C 
ATOM     10  O   UNL     1      71.133  40.586 -10.124  1.00  0.00    -0.545 OA
ATOM     11  O   UNL     1      73.106  41.738 -10.125  1.00  0.00    -0.545 OA
ENDBRANCH   8   9
ENDBRANCH   1   7
BRANCH   4  12
ATOM     12  O   UNL     1      74.735  41.604  -5.010  1.00  0.00    -0.504 OA
ATOM     13  H   UNL     1      74.857  42.569  -5.292  1.00  0.00     0.293 HD
ENDBRANCH   4  12
BRANCH   6  14
ATOM     14  O   UNL     1      72.261  41.276  -3.685  1.00  0.00    -0.504 OA
ATOM     15  H   UNL     1      71.991  42.252  -3.648  1.00  0.00     0.293 HD
ENDBRANCH   6  14
TORSDOF 4
ENDMDL
MODEL 2
REMARK VINA RESULT:    -5.253      0.753      1.823
REMARK INTER + INTRA:          -6.459
REMARK INTER:                  -6.168
REMARK INTRA:                  -0.291
REMARK UNBOUND:                -0.285
REMARK SMILES O=C([O-])C=Cc1ccc(O)c(O)c1
REMARK SMILES IDX 6 1 13 2 7 3 11 4 8 5 9 6 5 7 4 8 2 9 1 10 3 11 12 12 10 14
REMARK H PARENT 12 13 10 15
REMARK Flexibility Score: inf
ROOT
ATOM      1  C   UNL     1      73.209  39.512  -7.243  1.00  0.00    -0.022 A 
ATOM      2  C   UNL     1      72.104  39.485  -6.379  1.00  0.00     0.058 A 
ATOM      3  C   UNL     1      74.359  40.225  -6.867  1.00  0.00     0.012 A 
ATOM      4  C   UNL     1      72.123  40.202  -5.178  1.00  0.00     0.157 A 
ATOM      5  C   UNL     1      74.382  40.943  -5.668  1.00  0.00     0.051 A 
ATOM      6  C   UNL     1      73.266  40.939  -4.821  1.00  0.00     0.157 A 
ENDROOT
BRANCH   1   7
ATOM      7  C   UNL     1      73.181  38.702  -8.480  1.00  0.00     0.010 C 
ATOM      8  C   UNL     1      72.896  39.167  -9.705  1.00  0.00     0.025 C 
BRANCH   8   9
ATOM      9  C   UNL     1      72.379  40.514 -10.011  1.00  0.00     0.064 C 
ATOM     10  O   UNL     1      71.136  40.686 -10.122  1.00  0.00    -0.545 OA
ATOM     11  O   UNL     1      73.225  41.612 -10.106  1.00  0.00    -0.545 OA
ENDBRANCH   8   9
ENDBRANCH   1   7
BRANCH   4  12
ATOM     12  O   UNL     1      71.000  40.169  -4.351  1.00  0.00    -0.504 OA
ATOM     13  H   UNL     1      70.272  39.474  -4.462  1.00  0.00     0.293 HD
ENDBRANCH   4  12
BRANCH   6  14
ATOM     14  O   UNL     1      73.289  41.658  -3.627  1.00  0.00    -0.504 OA
ATOM     15  H   UNL     1      74.096  41.641  -3.014  1.00  0.00     0.293 HD
ENDBRANCH   6  14
TORSDOF 4
ENDMDL
MODEL 3
REMARK VINA RESULT:    -4.784      3.253      5.020
REMARK INTER + INTRA:          -5.908
REMARK INTER:                  -6.483
REMARK INTRA:                   0.575
REMARK UNBOUND:                -0.285
REMARK SMILES O=C([O-])C=Cc1ccc(O)c(O)c1
REMARK SMILES IDX 6 1 13 2 7 3 11 4 8 5 9 6 5 7 4 8 2 9 1 10 3 11 12 12 10 14
REMARK H PARENT 12 13 10 15
REMARK Flexibility Score: inf
ROOT
ATOM      1  C   UNL     1      73.841  42.318  -4.321  1.00  0.00    -0.022 A 
ATOM      2  C   UNL     1      73.322  42.345  -3.019  1.00  0.00     0.058 A 
ATOM      3  C   UNL     1      74.307  43.509  -4.902  1.00  0.00     0.012 A 
ATOM      4  C   UNL     1      73.218  43.553  -2.320  1.00  0.00     0.157 A 
ATOM      5  C   UNL     1      74.206  44.717  -4.207  1.00  0.00     0.051 A 
ATOM      6  C   UNL     1      73.658  44.747  -2.917  1.00  0.00     0.157 A 
ENDROOT
BRANCH   1   7
ATOM      7  C   UNL     1      73.986  41.020  -5.015  1.00  0.00     0.010 C 
ATOM      8  C   UNL     1      72.982  40.180  -5.309  1.00  0.00     0.025 C 
BRANCH   8   9
ATOM      9  C   UNL     1      71.593  40.307  -4.831  1.00  0.00     0.064 C 
ATOM     10  O   UNL     1      70.651  40.292  -5.666  1.00  0.00    -0.545 OA
ATOM     11  O   UNL     1      71.295  40.367  -3.475  1.00  0.00    -0.545 OA
ENDBRANCH   8   9
ENDBRANCH   1   7
BRANCH   4  12
ATOM     12  O   UNL     1      72.680  43.547  -1.033  1.00  0.00    -0.504 OA
ATOM     13  H   UNL     1      73.102  43.023  -0.276  1.00  0.00     0.293 HD
ENDBRANCH   4  12
BRANCH   6  14
ATOM     14  O   UNL     1      73.555  45.953  -2.227  1.00  0.00    -0.504 OA
ATOM     15  H   UNL     1      72.816  46.118  -1.554  1.00  0.00     0.293 HD
ENDBRANCH   6  14
TORSDOF 4
ENDMDL
MODEL 4
REMARK VINA RESULT:    -4.670     16.155     17.732
REMARK INTER + INTRA:          -5.774
REMARK INTER:                  -5.527
REMARK INTRA:                  -0.247
REMARK UNBOUND:                -0.285
REMARK SMILES O=C([O-])C=Cc1ccc(O)c(O)c1
REMARK SMILES IDX 6 1 13 2 7 3 11 4 8 5 9 6 5 7 4 8 2 9 1 10 3 11 12 12 10 14
REMARK H PARENT 12 13 10 15
REMARK Flexibility Score: inf
ROOT
ATOM      1  C   UNL     1      70.814  49.487   7.776  1.00  0.00    -0.022 A 
ATOM      2  C   UNL     1      69.840  49.036   8.679  1.00  0.00     0.058 A 
ATOM      3  C   UNL     1      70.616  49.296   6.398  1.00  0.00     0.012 A 
ATOM      4  C   UNL     1      68.706  48.356   8.221  1.00  0.00     0.157 A 
ATOM      5  C   UNL     1      69.485  48.616   5.937  1.00  0.00     0.051 A 
ATOM      6  C   UNL     1      68.528  48.140   6.844  1.00  0.00     0.157 A 
ENDROOT
BRANCH   1   7
ATOM      7  C   UNL     1      71.975  50.248   8.284  1.00  0.00     0.010 C 
ATOM      8  C   UNL     1      73.242  49.808   8.307  1.00  0.00     0.025 C 
BRANCH   8   9
ATOM      9  C   UNL     1      73.674  48.430   8.010  1.00  0.00     0.064 C 
ATOM     10  O   UNL     1      73.693  47.577   8.936  1.00  0.00    -0.545 OA
ATOM     11  O   UNL     1      73.992  48.031   6.717  1.00  0.00    -0.545 OA
ENDBRANCH   8   9
ENDBRANCH   1   7
BRANCH   4  12
ATOM     12  O   UNL     1      67.767  47.905   9.148  1.00  0.00    -0.504 OA
ATOM     13  H   UNL     1      67.321  48.530   9.809  1.00  0.00     0.293 HD
ENDBRANCH   4  12
BRANCH   6  14
ATOM     14  O   UNL     1      67.402  47.461   6.382  1.00  0.00    -0.504 OA
ATOM     15  H   UNL     1      66.493  47.907   6.341  1.00  0.00     0.293 HD
ENDBRANCH   6  14
TORSDOF 4
ENDMDL
MODEL 5
REMARK VINA RESULT:    -4.649     16.339     17.719
REMARK INTER + INTRA:          -5.750
REMARK INTER:                  -5.499
REMARK INTRA:                  -0.251
REMARK UNBOUND:                -0.285
REMARK SMILES O=C([O-])C=Cc1ccc(O)c(O)c1
REMARK SMILES IDX 6 1 13 2 7 3 11 4 8 5 9 6 5 7 4 8 2 9 1 10 3 11 12 12 10 14
REMARK H PARENT 12 13 10 15
REMARK Flexibility Score: inf
ROOT
ATOM      1  C   UNL     1      71.791  49.246   8.295  1.00  0.00    -0.022 A 
ATOM      2  C   UNL     1      71.131  49.251   7.058  1.00  0.00     0.058 A 
ATOM      3  C   UNL     1      71.048  49.053   9.471  1.00  0.00     0.012 A 
ATOM      4  C   UNL     1      69.739  49.118   6.994  1.00  0.00     0.157 A 
ATOM      5  C   UNL     1      69.658  48.921   9.413  1.00  0.00     0.051 A 
ATOM      6  C   UNL     1      68.997  48.957   8.177  1.00  0.00     0.157 A 
ENDROOT
BRANCH   1   7
ATOM      7  C   UNL     1      73.267  49.335   8.328  1.00  0.00     0.010 C 
ATOM      8  C   UNL     1      74.111  48.334   8.040  1.00  0.00     0.025 C 
BRANCH   8   9
ATOM      9  C   UNL     1      73.728  46.926   7.826  1.00  0.00     0.064 C 
ATOM     10  O   UNL     1      73.769  46.446   6.663  1.00  0.00    -0.545 OA
ATOM     11  O   UNL     1      73.394  46.095   8.888  1.00  0.00    -0.545 OA
ENDBRANCH   8   9
ENDBRANCH   1   7
BRANCH   4  12
ATOM     12  O   UNL     1      69.112  49.146   5.749  1.00  0.00    -0.504 OA
ATOM     13  H   UNL     1      69.190  49.941   5.125  1.00  0.00     0.293 HD
ENDBRANCH   4  12
BRANCH   6  14
ATOM     14  O   UNL     1      67.610  48.827   8.121  1.00  0.00    -0.504 OA
ATOM     15  H   UNL     1      67.154  48.339   7.358  1.00  0.00     0.293 HD
ENDBRANCH   6  14
TORSDOF 4
ENDMDL
MODEL 6
REMARK VINA RESULT:    -4.612      1.701      4.344
REMARK INTER + INTRA:          -5.706
REMARK INTER:                  -5.748
REMARK INTRA:                   0.042
REMARK UNBOUND:                -0.285
REMARK SMILES O=C([O-])C=Cc1ccc(O)c(O)c1
REMARK SMILES IDX 6 1 13 2 7 3 11 4 8 5 9 6 5 7 4 8 2 9 1 10 3 11 12 12 10 14
REMARK H PARENT 12 13 10 15
REMARK Flexibility Score: inf
ROOT
ATOM      1  C   UNL     1      73.156  39.866  -6.544  1.00  0.00    -0.022 A 
ATOM      2  C   UNL     1      72.813  39.532  -7.862  1.00  0.00     0.058 A 
ATOM      3  C   UNL     1      72.142  39.997  -5.581  1.00  0.00     0.012 A 
ATOM      4  C   UNL     1      71.471  39.381  -8.231  1.00  0.00     0.157 A 
ATOM      5  C   UNL     1      70.801  39.848  -5.945  1.00  0.00     0.051 A 
ATOM      6  C   UNL     1      70.458  39.544  -7.270  1.00  0.00     0.157 A 
ENDROOT
BRANCH   1   7
ATOM      7  C   UNL     1      74.583  39.967  -6.171  1.00  0.00     0.010 C 
ATOM      8  C   UNL     1      75.125  40.947  -5.433  1.00  0.00     0.025 C 
BRANCH   8   9
ATOM      9  C   UNL     1      74.441  42.188  -5.023  1.00  0.00     0.064 C 
ATOM     10  O   UNL     1      74.345  43.138  -5.844  1.00  0.00    -0.545 OA
ATOM     11  O   UNL     1      73.836  42.306  -3.778  1.00  0.00    -0.545 OA
ENDBRANCH   8   9
ENDBRANCH   1   7
BRANCH   4  12
ATOM     12  O   UNL     1      71.164  39.067  -9.555  1.00  0.00    -0.504 OA
ATOM     13  H   UNL     1      70.457  38.382  -9.794  1.00  0.00     0.293 HD
ENDBRANCH   4  12
BRANCH   6  14
ATOM     14  O   UNL     1      69.121  39.398  -7.632  1.00  0.00    -0.504 OA
ATOM     15  H   UNL     1      68.787  39.669  -8.550  1.00  0.00     0.293 HD
ENDBRANCH   6  14
TORSDOF 4
ENDMDL
MODEL 7
REMARK VINA RESULT:    -4.477     16.538     17.764
REMARK INTER + INTRA:          -5.548
REMARK INTER:                  -5.691
REMARK INTRA:                   0.144
REMARK UNBOUND:                -0.285
REMARK SMILES O=C([O-])C=Cc1ccc(O)c(O)c1
REMARK SMILES IDX 6 1 13 2 7 3 11 4 8 5 9 6 5 7 4 8 2 9 1 10 3 11 12 12 10 14
REMARK H PARENT 12 13 10 15
REMARK Flexibility Score: inf
ROOT
ATOM      1  C   UNL     1      68.611  48.468   8.563  1.00  0.00    -0.022 A 
ATOM      2  C   UNL     1      68.501  47.450   7.605  1.00  0.00     0.058 A 
ATOM      3  C   UNL     1      67.449  48.964   9.176  1.00  0.00     0.012 A 
ATOM      4  C   UNL     1      67.245  46.966   7.222  1.00  0.00     0.157 A 
ATOM      5  C   UNL     1      66.192  48.484   8.797  1.00  0.00     0.051 A 
ATOM      6  C   UNL     1      66.083  47.488   7.817  1.00  0.00     0.157 A 
ENDROOT
BRANCH   1   7
ATOM      7  C   UNL     1      69.953  48.923   8.986  1.00  0.00     0.010 C 
ATOM      8  C   UNL     1      70.925  49.342   8.162  1.00  0.00     0.025 C 
BRANCH   8   9
ATOM      9  C   UNL     1      70.901  49.247   6.691  1.00  0.00     0.064 C 
ATOM     10  O   UNL     1      71.569  48.346   6.120  1.00  0.00    -0.545 OA
ATOM     11  O   UNL     1      70.100  50.083   5.923  1.00  0.00    -0.545 OA
ENDBRANCH   8   9
ENDBRANCH   1   7
BRANCH   4  12
ATOM     12  O   UNL     1      67.171  45.966   6.252  1.00  0.00    -0.504 OA
ATOM     13  H   UNL     1      66.659  46.092   5.388  1.00  0.00     0.293 HD
ENDBRANCH   4  12
BRANCH   6  14
ATOM     14  O   UNL     1      64.829  47.012   7.438  1.00  0.00    -0.504 OA
ATOM     15  H   UNL     1      63.979  47.512   7.672  1.00  0.00     0.293 HD
ENDBRANCH   6  14
TORSDOF 4
ENDMDL
MODEL 8
REMARK VINA RESULT:    -4.396     13.062     16.116
REMARK INTER + INTRA:          -5.452
REMARK INTER:                  -5.200
REMARK INTRA:                  -0.252
REMARK UNBOUND:                -0.285
REMARK SMILES O=C([O-])C=Cc1ccc(O)c(O)c1
REMARK SMILES IDX 6 1 13 2 7 3 11 4 8 5 9 6 5 7 4 8 2 9 1 10 3 11 12 12 10 14
REMARK H PARENT 12 13 10 15
REMARK Flexibility Score: inf
ROOT
ATOM      1  C   UNL     1      73.667  47.449   6.733  1.00  0.00    -0.022 A 
ATOM      2  C   UNL     1      72.884  46.288   6.660  1.00  0.00     0.058 A 
ATOM      3  C   UNL     1      74.010  48.124   5.549  1.00  0.00     0.012 A 
ATOM      4  C   UNL     1      72.491  45.772   5.420  1.00  0.00     0.157 A 
ATOM      5  C   UNL     1      73.619  47.612   4.308  1.00  0.00     0.051 A 
ATOM      6  C   UNL     1      72.863  46.434   4.237  1.00  0.00     0.157 A 
ENDROOT
BRANCH   1   7
ATOM      7  C   UNL     1      74.023  48.000   8.057  1.00  0.00     0.010 C 
ATOM      8  C   UNL     1      73.282  48.869   8.761  1.00  0.00     0.025 C 
BRANCH   8   9
ATOM      9  C   UNL     1      72.084  49.572   8.265  1.00  0.00     0.064 C 
ATOM     10  O   UNL     1      72.179  50.777   7.911  1.00  0.00    -0.545 OA
ATOM     11  O   UNL     1      70.870  48.915   8.108  1.00  0.00    -0.545 OA
ENDBRANCH   8   9
ENDBRANCH   1   7
BRANCH   4  12
ATOM     12  O   UNL     1      71.729  44.604   5.383  1.00  0.00    -0.504 OA
ATOM     13  H   UNL     1      71.459  44.166   4.511  1.00  0.00     0.293 HD
ENDBRANCH   4  12
BRANCH   6  14
ATOM     14  O   UNL     1      72.476  45.923   2.999  1.00  0.00    -0.504 OA
ATOM     15  H   UNL     1      72.830  45.038   2.656  1.00  0.00     0.293 HD
ENDBRANCH   6  14
TORSDOF 4
ENDMDL
MODEL 9
REMARK VINA RESULT:    -4.364     16.938     17.750
REMARK INTER + INTRA:          -5.414
REMARK INTER:                  -5.176
REMARK INTRA:                  -0.238
REMARK UNBOUND:                -0.285
REMARK SMILES O=C([O-])C=Cc1ccc(O)c(O)c1
REMARK SMILES IDX 6 1 13 2 7 3 11 4 8 5 9 6 5 7 4 8 2 9 1 10 3 11 12 12 10 14
REMARK H PARENT 12 13 10 15
REMARK Flexibility Score: inf
ROOT
ATOM      1  C   UNL     1      68.852  47.870   8.851  1.00  0.00    -0.022 A 
ATOM      2  C   UNL     1      67.743  48.292   8.103  1.00  0.00     0.058 A 
ATOM      3  C   UNL     1      69.103  46.495   8.993  1.00  0.00     0.012 A 
ATOM      4  C   UNL     1      66.863  47.357   7.547  1.00  0.00     0.157 A 
ATOM      5  C   UNL     1      68.227  45.558   8.440  1.00  0.00     0.051 A 
ATOM      6  C   UNL     1      67.102  45.982   7.719  1.00  0.00     0.157 A 
ENDROOT
BRANCH   1   7
ATOM      7  C   UNL     1      69.794  48.878   9.381  1.00  0.00     0.010 C 
ATOM      8  C   UNL     1      70.702  49.549   8.657  1.00  0.00     0.025 C 
BRANCH   8   9
ATOM      9  C   UNL     1      71.053  49.268   7.252  1.00  0.00     0.064 C 
ATOM     10  O   UNL     1      72.008  48.487   7.000  1.00  0.00    -0.545 OA
ATOM     11  O   UNL     1      70.309  49.788   6.200  1.00  0.00    -0.545 OA
ENDBRANCH   8   9
ENDBRANCH   1   7
BRANCH   4  12
ATOM     12  O   UNL     1      65.759  47.811   6.826  1.00  0.00    -0.504 OA
ATOM     13  H   UNL     1      65.748  48.719   6.376  1.00  0.00     0.293 HD
ENDBRANCH   4  12
BRANCH   6  14
ATOM     14  O   UNL     1      66.227  45.046   7.170  1.00  0.00    -0.504 OA
ATOM     15  H   UNL     1      66.110  44.954   6.167  1.00  0.00     0.293 HD
ENDBRANCH   6  14
TORSDOF 4
ENDMDL
