MODEL 1
REMARK VINA RESULT:    -4.597      0.000      0.000
REMARK INTER + INTRA:          -5.905
REMARK INTER:                  -5.672
REMARK INTRA:                  -0.233
REMARK UNBOUND:                -0.233
REMARK SMILES CCCCC=CC(C)=O
REMARK SMILES IDX 4 1 3 2 2 3 1 4 5 5 6 6 7 7 9 8 8 9
REMARK H PARENT
REMARK Flexibility Score: inf
ROOT
ATOM      1  C   UNL     1      27.254   8.820  21.945  1.00  0.00     0.027 C 
ENDROOT
BRANCH   1   2
ATOM      2  C   UNL     1      27.989   9.957  21.219  1.00  0.00     0.004 C 
BRANCH   2   3
ATOM      3  C   UNL     1      28.931   9.442  20.120  1.00  0.00    -0.003 C 
ATOM      4  C   UNL     1      28.756  10.183  18.794  1.00  0.00     0.004 C 
ENDBRANCH   2   3
ENDBRANCH   1   2
BRANCH   1   5
ATOM      5  C   UNL     1      27.050   7.641  21.039  1.00  0.00    -0.023 C 
ATOM      6  C   UNL     1      26.000   7.570  20.211  1.00  0.00     0.042 C 
BRANCH   6   7
ATOM      7  C   UNL     1      25.766   6.436  19.293  1.00  0.00     0.152 C 
ATOM      8  O   UNL     1      24.598   5.977  19.188  1.00  0.00    -0.295 OA
ATOM      9  C   UNL     1      26.865   5.813  18.485  1.00  0.00     0.093 C 
ENDBRANCH   6   7
ENDBRANCH   1   5
TORSDOF 4
ENDMDL
MODEL 2
REMARK VINA RESULT:    -4.136      2.345      4.562
REMARK INTER + INTRA:          -5.336
REMARK INTER:                  -5.185
REMARK INTRA:                  -0.150
REMARK UNBOUND:                -0.233
REMARK SMILES CCCCC=CC(C)=O
REMARK SMILES IDX 4 1 3 2 2 3 1 4 5 5 6 6 7 7 9 8 8 9
REMARK H PARENT
REMARK Flexibility Score: inf
ROOT
ATOM      1  C   UNL     1      27.993   5.758  19.083  1.00  0.00     0.027 C 
ENDROOT
BRANCH   1   2
ATOM      2  C   UNL     1      26.572   5.855  18.510  1.00  0.00     0.004 C 
BRANCH   2   3
ATOM      3  C   UNL     1      25.490   5.740  19.594  1.00  0.00    -0.003 C 
ATOM      4  C   UNL     1      24.428   6.835  19.491  1.00  0.00     0.004 C 
ENDBRANCH   2   3
ENDBRANCH   1   2
BRANCH   1   5
ATOM      5  C   UNL     1      28.384   7.027  19.784  1.00  0.00    -0.023 C 
ATOM      6  C   UNL     1      27.845   8.205  19.446  1.00  0.00     0.042 C 
BRANCH   6   7
ATOM      7  C   UNL     1      28.189   9.476  20.116  1.00  0.00     0.152 C 
ATOM      8  O   UNL     1      28.829  10.346  19.467  1.00  0.00    -0.295 OA
ATOM      9  C   UNL     1      27.806   9.767  21.537  1.00  0.00     0.093 C 
ENDBRANCH   6   7
ENDBRANCH   1   5
TORSDOF 4
ENDMDL
MODEL 3
REMARK VINA RESULT:    -3.721      1.212      2.206
REMARK INTER + INTRA:          -4.824
REMARK INTER:                  -4.808
REMARK INTRA:                  -0.015
REMARK UNBOUND:                -0.233
REMARK SMILES CCCCC=CC(C)=O
REMARK SMILES IDX 4 1 3 2 2 3 1 4 5 5 6 6 7 7 9 8 8 9
REMARK H PARENT
REMARK Flexibility Score: inf
ROOT
ATOM      1  C   UNL     1      29.117   8.415  19.762  1.00  0.00     0.027 C 
ENDROOT
BRANCH   1   2
ATOM      2  C   UNL     1      28.369   9.747  19.924  1.00  0.00     0.004 C 
BRANCH   2   3
ATOM      3  C   UNL     1      28.254  10.184  21.391  1.00  0.00    -0.003 C 
ATOM      4  C   UNL     1      27.208   9.384  22.168  1.00  0.00     0.004 C 
ENDBRANCH   2   3
ENDBRANCH   1   2
BRANCH   1   5
ATOM      5  C   UNL     1      28.177   7.308  19.381  1.00  0.00    -0.023 C 
ATOM      6  C   UNL     1      26.850   7.452  19.487  1.00  0.00     0.042 C 
BRANCH   6   7
ATOM      7  C   UNL     1      25.888   6.396  19.112  1.00  0.00     0.152 C 
ATOM      8  O   UNL     1      26.323   5.351  18.559  1.00  0.00    -0.295 OA
ATOM      9  C   UNL     1      24.415   6.522  19.365  1.00  0.00     0.093 C 
ENDBRANCH   6   7
ENDBRANCH   1   5
TORSDOF 4
ENDMDL
MODEL 4
REMARK VINA RESULT:    -3.500     11.491     12.897
REMARK INTER + INTRA:          -4.551
REMARK INTER:                  -4.438
REMARK INTRA:                  -0.113
REMARK UNBOUND:                -0.233
REMARK SMILES CCCCC=CC(C)=O
REMARK SMILES IDX 4 1 3 2 2 3 1 4 5 5 6 6 7 7 9 8 8 9
REMARK H PARENT
REMARK Flexibility Score: inf
ROOT
ATOM      1  C   UNL     1      16.275  10.003  25.651  1.00  0.00     0.027 C 
ENDROOT
BRANCH   1   2
ATOM      2  C   UNL     1      17.220   8.965  25.029  1.00  0.00     0.004 C 
BRANCH   2   3
ATOM      3  C   UNL     1      17.282   7.663  25.841  1.00  0.00    -0.003 C 
ATOM      4  C   UNL     1      15.922   6.975  25.965  1.00  0.00     0.004 C 
ENDBRANCH   2   3
ENDBRANCH   1   2
BRANCH   1   5
ATOM      5  C   UNL     1      16.536  11.374  25.097  1.00  0.00    -0.023 C 
ATOM      6  C   UNL     1      16.821  12.408  25.898  1.00  0.00     0.042 C 
BRANCH   6   7
ATOM      7  C   UNL     1      17.098  13.770  25.398  1.00  0.00     0.152 C 
ATOM      8  O   UNL     1      18.059  13.937  24.601  1.00  0.00    -0.295 OA
ATOM      9  C   UNL     1      16.277  14.959  25.803  1.00  0.00     0.093 C 
ENDBRANCH   6   7
ENDBRANCH   1   5
TORSDOF 4
ENDMDL
MODEL 5
REMARK VINA RESULT:    -3.488     11.653     12.811
REMARK INTER + INTRA:          -4.536
REMARK INTER:                  -4.269
REMARK INTRA:                  -0.268
REMARK UNBOUND:                -0.233
REMARK SMILES CCCCC=CC(C)=O
REMARK SMILES IDX 4 1 3 2 2 3 1 4 5 5 6 6 7 7 9 8 8 9
REMARK H PARENT
REMARK Flexibility Score: inf
ROOT
ATOM      1  C   UNL     1      16.655   8.701  24.473  1.00  0.00     0.027 C 
ENDROOT
BRANCH   1   2
ATOM      2  C   UNL     1      17.508   7.991  25.536  1.00  0.00     0.004 C 
BRANCH   2   3
ATOM      3  C   UNL     1      16.816   6.747  26.111  1.00  0.00    -0.003 C 
ATOM      4  C   UNL     1      15.294   6.884  26.162  1.00  0.00     0.004 C 
ENDBRANCH   2   3
ENDBRANCH   1   2
BRANCH   1   5
ATOM      5  C   UNL     1      16.761  10.193  24.601  1.00  0.00    -0.023 C 
ATOM      6  C   UNL     1      16.443  10.820  25.741  1.00  0.00     0.042 C 
BRANCH   6   7
ATOM      7  C   UNL     1      16.543  12.283  25.917  1.00  0.00     0.152 C 
ATOM      8  O   UNL     1      16.138  12.790  26.996  1.00  0.00    -0.295 OA
ATOM      9  C   UNL     1      17.109  13.185  24.860  1.00  0.00     0.093 C 
ENDBRANCH   6   7
ENDBRANCH   1   5
TORSDOF 4
ENDMDL
MODEL 6
REMARK VINA RESULT:    -3.327     11.809     12.628
REMARK INTER + INTRA:          -4.338
REMARK INTER:                  -4.147
REMARK INTRA:                  -0.191
REMARK UNBOUND:                -0.233
REMARK SMILES CCCCC=CC(C)=O
REMARK SMILES IDX 4 1 3 2 2 3 1 4 5 5 6 6 7 7 9 8 8 9
REMARK H PARENT
REMARK Flexibility Score: inf
ROOT
ATOM      1  C   UNL     1      16.254  12.925  24.516  1.00  0.00     0.027 C 
ENDROOT
BRANCH   1   2
ATOM      2  C   UNL     1      17.428  13.774  25.026  1.00  0.00     0.004 C 
BRANCH   2   3
ATOM      3  C   UNL     1      16.966  15.088  25.675  1.00  0.00    -0.003 C 
ATOM      4  C   UNL     1      15.488  15.386  25.423  1.00  0.00     0.004 C 
ENDBRANCH   2   3
ENDBRANCH   1   2
BRANCH   1   5
ATOM      5  C   UNL     1      16.561  11.458  24.620  1.00  0.00    -0.023 C 
ATOM      6  C   UNL     1      15.971  10.686  25.541  1.00  0.00     0.042 C 
BRANCH   6   7
ATOM      7  C   UNL     1      16.232   9.238  25.672  1.00  0.00     0.152 C 
ATOM      8  O   UNL     1      15.342   8.508  26.186  1.00  0.00    -0.295 OA
ATOM      9  C   UNL     1      17.514   8.606  25.218  1.00  0.00     0.093 C 
ENDBRANCH   6   7
ENDBRANCH   1   5
TORSDOF 4
ENDMDL
MODEL 7
REMARK VINA RESULT:    -3.301     11.733     12.329
REMARK INTER + INTRA:          -4.306
REMARK INTER:                  -4.164
REMARK INTRA:                  -0.142
REMARK UNBOUND:                -0.233
REMARK SMILES CCCCC=CC(C)=O
REMARK SMILES IDX 4 1 3 2 2 3 1 4 5 5 6 6 7 7 9 8 8 9
REMARK H PARENT
REMARK Flexibility Score: inf
ROOT
ATOM      1  C   UNL     1      15.446  11.769  25.396  1.00  0.00     0.027 C 
ENDROOT
BRANCH   1   2
ATOM      2  C   UNL     1      15.980  12.864  24.461  1.00  0.00     0.004 C 
BRANCH   2   3
ATOM      3  C   UNL     1      17.286  13.491  24.971  1.00  0.00    -0.003 C 
ATOM      4  C   UNL     1      17.051  14.734  25.830  1.00  0.00     0.004 C 
ENDBRANCH   2   3
ENDBRANCH   1   2
BRANCH   1   5
ATOM      5  C   UNL     1      16.329  10.555  25.369  1.00  0.00    -0.023 C 
ATOM      6  C   UNL     1      15.844   9.334  25.625  1.00  0.00     0.042 C 
BRANCH   6   7
ATOM      7  C   UNL     1      16.672   8.110  25.598  1.00  0.00     0.152 C 
ATOM      8  O   UNL     1      17.841   8.183  25.133  1.00  0.00    -0.295 OA
ATOM      9  C   UNL     1      16.173   6.789  26.101  1.00  0.00     0.093 C 
ENDBRANCH   6   7
ENDBRANCH   1   5
TORSDOF 4
ENDMDL
MODEL 8
REMARK VINA RESULT:    -3.144     11.722     13.591
REMARK INTER + INTRA:          -4.113
REMARK INTER:                  -3.895
REMARK INTRA:                  -0.218
REMARK UNBOUND:                -0.233
REMARK SMILES CCCCC=CC(C)=O
REMARK SMILES IDX 4 1 3 2 2 3 1 4 5 5 6 6 7 7 9 8 8 9
REMARK H PARENT
REMARK Flexibility Score: inf
ROOT
ATOM      1  C   UNL     1      14.796   3.911  16.725  1.00  0.00     0.027 C 
ENDROOT
BRANCH   1   2
ATOM      2  C   UNL     1      14.761   5.365  17.219  1.00  0.00     0.004 C 
BRANCH   2   3
ATOM      3  C   UNL     1      16.025   5.751  18.002  1.00  0.00    -0.003 C 
ATOM      4  C   UNL     1      17.055   4.623  18.060  1.00  0.00     0.004 C 
ENDBRANCH   2   3
ENDBRANCH   1   2
BRANCH   1   5
ATOM      5  C   UNL     1      14.535   3.834  15.248  1.00  0.00    -0.023 C 
ATOM      6  C   UNL     1      15.273   3.053  14.449  1.00  0.00     0.042 C 
BRANCH   6   7
ATOM      7  C   UNL     1      15.046   2.936  12.994  1.00  0.00     0.152 C 
ATOM      8  O   UNL     1      15.994   3.208  12.212  1.00  0.00    -0.295 OA
ATOM      9  C   UNL     1      13.730   2.507  12.417  1.00  0.00     0.093 C 
ENDBRANCH   6   7
ENDBRANCH   1   5
TORSDOF 4
ENDMDL
