MODEL 1
REMARK VINA RESULT:    -4.203      0.000      0.000
REMARK INTER + INTRA:          -5.079
REMARK INTER:                  -5.063
REMARK INTRA:                  -0.015
REMARK UNBOUND:                -0.015
REMARK SMILES OCC(O)CO
REMARK SMILES IDX 3 1 5 2 6 3 2 5 1 6 4 8
REMARK H PARENT 6 4 1 7 4 9
REMARK Flexibility Score: inf
ROOT
ATOM      1  C   UNL     1      63.338  52.927  32.623  1.00  0.00     0.165 C 
ENDROOT
BRANCH   1   2
ATOM      2  C   UNL     1      64.354  52.272  33.575  1.00  0.00     0.190 C 
BRANCH   2   3
ATOM      3  O   UNL     1      63.975  52.472  34.909  1.00  0.00    -0.394 OA
ATOM      4  H   UNL     1      63.018  52.735  34.896  1.00  0.00     0.210 HD
ENDBRANCH   2   3
ENDBRANCH   1   2
BRANCH   1   5
ATOM      5  C   UNL     1      63.284  52.207  31.267  1.00  0.00     0.190 C 
BRANCH   5   6
ATOM      6  O   UNL     1      63.332  50.820  31.455  1.00  0.00    -0.394 OA
ATOM      7  H   UNL     1      62.407  50.490  31.314  1.00  0.00     0.210 HD
ENDBRANCH   5   6
ENDBRANCH   1   5
BRANCH   1   8
ATOM      8  O   UNL     1      63.639  54.288  32.440  1.00  0.00    -0.388 OA
ATOM      9  H   UNL     1      64.360  54.525  33.081  1.00  0.00     0.211 HD
ENDBRANCH   1   8
TORSDOF 5
ENDMDL
MODEL 2
REMARK VINA RESULT:    -4.137      0.636      2.876
REMARK INTER + INTRA:          -4.998
REMARK INTER:                  -4.829
REMARK INTRA:                  -0.170
REMARK UNBOUND:                -0.015
REMARK SMILES OCC(O)CO
REMARK SMILES IDX 3 1 5 2 6 3 2 5 1 6 4 8
REMARK H PARENT 6 4 1 7 4 9
REMARK Flexibility Score: inf
ROOT
ATOM      1  C   UNL     1      63.289  52.233  32.386  1.00  0.00     0.165 C 
ENDROOT
BRANCH   1   2
ATOM      2  C   UNL     1      63.403  53.493  31.509  1.00  0.00     0.190 C 
BRANCH   2   3
ATOM      3  O   UNL     1      63.593  54.629  32.307  1.00  0.00    -0.394 OA
ATOM      4  H   UNL     1      64.059  54.325  33.129  1.00  0.00     0.210 HD
ENDBRANCH   2   3
ENDBRANCH   1   2
BRANCH   1   5
ATOM      5  C   UNL     1      64.424  52.156  33.419  1.00  0.00     0.190 C 
BRANCH   5   6
ATOM      6  O   UNL     1      63.951  52.533  34.683  1.00  0.00    -0.394 OA
ATOM      7  H   UNL     1      64.595  53.204  35.029  1.00  0.00     0.210 HD
ENDBRANCH   5   6
ENDBRANCH   1   5
BRANCH   1   8
ATOM      8  O   UNL     1      63.277  51.075  31.588  1.00  0.00    -0.388 OA
ATOM      9  H   UNL     1      63.562  50.314  32.160  1.00  0.00     0.211 HD
ENDBRANCH   1   8
TORSDOF 5
ENDMDL
MODEL 3
REMARK VINA RESULT:    -4.020      0.943      2.366
REMARK INTER + INTRA:          -4.857
REMARK INTER:                  -4.634
REMARK INTRA:                  -0.223
REMARK UNBOUND:                -0.015
REMARK SMILES OCC(O)CO
REMARK SMILES IDX 3 1 5 2 6 3 2 5 1 6 4 8
REMARK H PARENT 6 4 1 7 4 9
REMARK Flexibility Score: inf
ROOT
ATOM      1  C   UNL     1      63.584  52.504  31.525  1.00  0.00     0.165 C 
ENDROOT
BRANCH   1   2
ATOM      2  C   UNL     1      64.270  52.092  32.839  1.00  0.00     0.190 C 
BRANCH   2   3
ATOM      3  O   UNL     1      63.720  52.796  33.920  1.00  0.00    -0.394 OA
ATOM      4  H   UNL     1      63.049  52.197  34.338  1.00  0.00     0.210 HD
ENDBRANCH   2   3
ENDBRANCH   1   2
BRANCH   1   5
ATOM      5  C   UNL     1      62.590  53.656  31.739  1.00  0.00     0.190 C 
BRANCH   5   6
ATOM      6  O   UNL     1      63.280  54.861  31.919  1.00  0.00    -0.394 OA
ATOM      7  H   UNL     1      63.520  54.901  32.881  1.00  0.00     0.210 HD
ENDBRANCH   5   6
ENDBRANCH   1   5
BRANCH   1   8
ATOM      8  O   UNL     1      62.935  51.403  30.940  1.00  0.00    -0.388 OA
ATOM      9  H   UNL     1      61.993  51.405  31.258  1.00  0.00     0.211 HD
ENDBRANCH   1   8
TORSDOF 5
ENDMDL
MODEL 4
REMARK VINA RESULT:    -3.982      0.976      2.816
REMARK INTER + INTRA:          -4.812
REMARK INTER:                  -4.790
REMARK INTRA:                  -0.022
REMARK UNBOUND:                -0.015
REMARK SMILES OCC(O)CO
REMARK SMILES IDX 3 1 5 2 6 3 2 5 1 6 4 8
REMARK H PARENT 6 4 1 7 4 9
REMARK Flexibility Score: inf
ROOT
ATOM      1  C   UNL     1      63.425  52.733  32.861  1.00  0.00     0.165 C 
ENDROOT
BRANCH   1   2
ATOM      2  C   UNL     1      63.701  51.372  32.198  1.00  0.00     0.190 C 
BRANCH   2   3
ATOM      3  O   UNL     1      63.024  51.276  30.975  1.00  0.00    -0.394 OA
ATOM      4  H   UNL     1      62.241  50.685  31.128  1.00  0.00     0.210 HD
ENDBRANCH   2   3
ENDBRANCH   1   2
BRANCH   1   5
ATOM      5  C   UNL     1      64.023  53.892  32.050  1.00  0.00     0.190 C 
BRANCH   5   6
ATOM      6  O   UNL     1      63.081  54.918  31.906  1.00  0.00    -0.394 OA
ATOM      7  H   UNL     1      63.540  55.648  31.417  1.00  0.00     0.210 HD
ENDBRANCH   5   6
ENDBRANCH   1   5
BRANCH   1   8
ATOM      8  O   UNL     1      63.920  52.752  34.177  1.00  0.00    -0.388 OA
ATOM      9  H   UNL     1      63.212  52.383  34.769  1.00  0.00     0.211 HD
ENDBRANCH   1   8
TORSDOF 5
ENDMDL
MODEL 5
REMARK VINA RESULT:    -3.890     13.258     14.017
REMARK INTER + INTRA:          -4.701
REMARK INTER:                  -4.670
REMARK INTRA:                  -0.031
REMARK UNBOUND:                -0.015
REMARK SMILES OCC(O)CO
REMARK SMILES IDX 3 1 5 2 6 3 2 5 1 6 4 8
REMARK H PARENT 6 4 1 7 4 9
REMARK Flexibility Score: inf
ROOT
ATOM      1  C   UNL     1      72.070  42.208  34.351  1.00  0.00     0.165 C 
ENDROOT
BRANCH   1   2
ATOM      2  C   UNL     1      71.937  40.680  34.479  1.00  0.00     0.190 C 
BRANCH   2   3
ATOM      3  O   UNL     1      73.198  40.093  34.661  1.00  0.00    -0.394 OA
ATOM      4  H   UNL     1      73.749  40.752  35.157  1.00  0.00     0.210 HD
ENDBRANCH   2   3
ENDBRANCH   1   2
BRANCH   1   5
ATOM      5  C   UNL     1      71.577  42.708  32.984  1.00  0.00     0.190 C 
BRANCH   5   6
ATOM      6  O   UNL     1      72.517  42.404  31.992  1.00  0.00    -0.394 OA
ATOM      7  H   UNL     1      72.329  41.472  31.709  1.00  0.00     0.210 HD
ENDBRANCH   5   6
ENDBRANCH   1   5
BRANCH   1   8
ATOM      8  O   UNL     1      73.400  42.609  34.566  1.00  0.00    -0.388 OA
ATOM      9  H   UNL     1      73.961  42.172  33.872  1.00  0.00     0.211 HD
ENDBRANCH   1   8
TORSDOF 5
ENDMDL
MODEL 6
REMARK VINA RESULT:    -3.877      1.509      2.455
REMARK INTER + INTRA:          -4.686
REMARK INTER:                  -4.480
REMARK INTRA:                  -0.205
REMARK UNBOUND:                -0.015
REMARK SMILES OCC(O)CO
REMARK SMILES IDX 3 1 5 2 6 3 2 5 1 6 4 8
REMARK H PARENT 6 4 1 7 4 9
REMARK Flexibility Score: inf
ROOT
ATOM      1  C   UNL     1      63.717  53.277  32.247  1.00  0.00     0.165 C 
ENDROOT
BRANCH   1   2
ATOM      2  C   UNL     1      62.475  53.981  31.671  1.00  0.00     0.190 C 
BRANCH   2   3
ATOM      3  O   UNL     1      61.723  53.089  30.892  1.00  0.00    -0.394 OA
ATOM      4  H   UNL     1      62.374  52.529  30.395  1.00  0.00     0.210 HD
ENDBRANCH   2   3
ENDBRANCH   1   2
BRANCH   1   5
ATOM      5  C   UNL     1      64.114  52.052  31.409  1.00  0.00     0.190 C 
BRANCH   5   6
ATOM      6  O   UNL     1      63.299  50.960  31.736  1.00  0.00    -0.394 OA
ATOM      7  H   UNL     1      63.777  50.153  31.412  1.00  0.00     0.210 HD
ENDBRANCH   5   6
ENDBRANCH   1   5
BRANCH   1   8
ATOM      8  O   UNL     1      63.498  52.903  33.584  1.00  0.00    -0.388 OA
ATOM      9  H   UNL     1      62.569  53.165  33.821  1.00  0.00     0.211 HD
ENDBRANCH   1   8
TORSDOF 5
ENDMDL
MODEL 7
REMARK VINA RESULT:    -3.771      0.887      2.854
REMARK INTER + INTRA:          -4.558
REMARK INTER:                  -4.554
REMARK INTRA:                  -0.004
REMARK UNBOUND:                -0.015
REMARK SMILES OCC(O)CO
REMARK SMILES IDX 3 1 5 2 6 3 2 5 1 6 4 8
REMARK H PARENT 6 4 1 7 4 9
REMARK Flexibility Score: inf
ROOT
ATOM      1  C   UNL     1      64.051  52.760  32.268  1.00  0.00     0.165 C 
ENDROOT
BRANCH   1   2
ATOM      2  C   UNL     1      63.774  51.737  31.152  1.00  0.00     0.190 C 
BRANCH   2   3
ATOM      3  O   UNL     1      62.430  51.795  30.756  1.00  0.00    -0.394 OA
ATOM      4  H   UNL     1      62.403  51.524  29.802  1.00  0.00     0.210 HD
ENDBRANCH   2   3
ENDBRANCH   1   2
BRANCH   1   5
ATOM      5  C   UNL     1      64.570  52.081  33.544  1.00  0.00     0.190 C 
BRANCH   5   6
ATOM      6  O   UNL     1      63.872  52.557  34.662  1.00  0.00    -0.394 OA
ATOM      7  H   UNL     1      62.927  52.282  34.534  1.00  0.00     0.210 HD
ENDBRANCH   5   6
ENDBRANCH   1   5
BRANCH   1   8
ATOM      8  O   UNL     1      62.895  53.509  32.549  1.00  0.00    -0.388 OA
ATOM      9  H   UNL     1      62.298  52.943  33.106  1.00  0.00     0.211 HD
ENDBRANCH   1   8
TORSDOF 5
ENDMDL
MODEL 8
REMARK VINA RESULT:    -3.726     11.862     12.582
REMARK INTER + INTRA:          -4.503
REMARK INTER:                  -4.492
REMARK INTRA:                  -0.011
REMARK UNBOUND:                -0.015
REMARK SMILES OCC(O)CO
REMARK SMILES IDX 3 1 5 2 6 3 2 5 1 6 4 8
REMARK H PARENT 6 4 1 7 4 9
REMARK Flexibility Score: inf
ROOT
ATOM      1  C   UNL     1      71.448  43.079  31.406  1.00  0.00     0.165 C 
ENDROOT
BRANCH   1   2
ATOM      2  C   UNL     1      71.364  42.712  32.899  1.00  0.00     0.190 C 
BRANCH   2   3
ATOM      3  O   UNL     1      72.636  42.399  33.399  1.00  0.00    -0.394 OA
ATOM      4  H   UNL     1      73.197  43.208  33.274  1.00  0.00     0.210 HD
ENDBRANCH   2   3
ENDBRANCH   1   2
BRANCH   1   5
ATOM      5  C   UNL     1      70.066  43.055  30.736  1.00  0.00     0.190 C 
BRANCH   5   6
ATOM      6  O   UNL     1      69.259  42.077  31.331  1.00  0.00    -0.394 OA
ATOM      7  H   UNL     1      69.767  41.737  32.112  1.00  0.00     0.210 HD
ENDBRANCH   5   6
ENDBRANCH   1   5
BRANCH   1   8
ATOM      8  O   UNL     1      72.331  42.215  30.734  1.00  0.00    -0.388 OA
ATOM      9  H   UNL     1      73.120  42.075  31.322  1.00  0.00     0.211 HD
ENDBRANCH   1   8
TORSDOF 5
ENDMDL
MODEL 9
REMARK VINA RESULT:    -3.678     13.375     13.940
REMARK INTER + INTRA:          -4.446
REMARK INTER:                  -4.440
REMARK INTRA:                  -0.005
REMARK UNBOUND:                -0.015
REMARK SMILES OCC(O)CO
REMARK SMILES IDX 3 1 5 2 6 3 2 5 1 6 4 8
REMARK H PARENT 6 4 1 7 4 9
REMARK Flexibility Score: inf
ROOT
ATOM      1  C   UNL     1      72.570  42.736  28.376  1.00  0.00     0.165 C 
ENDROOT
BRANCH   1   2
ATOM      2  C   UNL     1      72.526  44.079  27.626  1.00  0.00     0.190 C 
BRANCH   2   3
ATOM      3  O   UNL     1      73.770  44.721  27.698  1.00  0.00    -0.394 OA
ATOM      4  H   UNL     1      74.041  44.710  28.653  1.00  0.00     0.210 HD
ENDBRANCH   2   3
ENDBRANCH   1   2
BRANCH   1   5
ATOM      5  C   UNL     1      71.725  42.773  29.658  1.00  0.00     0.190 C 
BRANCH   5   6
ATOM      6  O   UNL     1      72.446  42.224  30.727  1.00  0.00    -0.394 OA
ATOM      7  H   UNL     1      72.936  42.979  31.145  1.00  0.00     0.210 HD
ENDBRANCH   5   6
ENDBRANCH   1   5
BRANCH   1   8
ATOM      8  O   UNL     1      73.896  42.380  28.676  1.00  0.00    -0.388 OA
ATOM      9  H   UNL     1      73.867  41.571  29.252  1.00  0.00     0.211 HD
ENDBRANCH   1   8
TORSDOF 5
ENDMDL
