MODEL 1
REMARK VINA RESULT:     0.000      0.000      0.000
REMARK INTER + INTRA:          -0.318
REMARK INTER:                   0.000
REMARK INTRA:                  -0.318
REMARK UNBOUND:                -0.318
REMARK SMILES O=c1cc(-c2ccc(O)c(O)c2)oc2cc(O)cc(O)c12
REMARK SMILES IDX 4 1 3 2 2 3 1 4 21 5 19 6 18 7 16 8 15 9 14 10 13 11 5 12
REMARK SMILES IDX 6 13 7 14 8 15 12 16 10 17 9 18 11 20 20 22 17 24
REMARK H PARENT 9 19 11 21 20 23 17 25
REMARK Flexibility Score: inf
ROOT
ATOM      1  C   UNL     1    -106.447  70.626  14.197  1.00  0.00     0.138 A 
ATOM      2  C   UNL     1    -105.885  70.232  15.420  1.00  0.00     0.100 A 
ATOM      3  C   UNL     1    -105.925  68.889  15.797  1.00  0.00     0.197 A 
ATOM      4  O   UNL     1    -105.469  68.576  16.928  1.00  0.00    -0.289 OA
ATOM      5  C   UNL     1    -106.502  67.931  14.930  1.00  0.00     0.107 A 
ATOM      6  C   UNL     1    -106.563  66.530  15.192  1.00  0.00     0.134 A 
ATOM      7  C   UNL     1    -107.262  65.693  14.314  1.00  0.00     0.093 A 
ATOM      8  C   UNL     1    -107.851  66.197  13.155  1.00  0.00     0.123 A 
ATOM      9  C   UNL     1    -107.753  67.557  12.861  1.00  0.00     0.094 A 
ATOM     10  C   UNL     1    -107.091  68.423  13.735  1.00  0.00     0.146 A 
ATOM     11  O   UNL     1    -107.032  69.714  13.426  1.00  0.00    -0.456 OA
ENDROOT
BRANCH   1  12
ATOM     12  C   UNL     1    -106.431  72.040  13.746  1.00  0.00     0.021 A 
ATOM     13  C   UNL     1    -105.841  73.019  14.563  1.00  0.00     0.016 A 
ATOM     14  C   UNL     1    -105.819  74.359  14.165  1.00  0.00     0.051 A 
ATOM     15  C   UNL     1    -106.394  74.745  12.951  1.00  0.00     0.157 A 
ATOM     16  C   UNL     1    -107.021  72.436  12.530  1.00  0.00     0.062 A 
ATOM     17  C   UNL     1    -107.002  73.781  12.131  1.00  0.00     0.158 A 
BRANCH  15  18
ATOM     18  O   UNL     1    -106.356  76.088  12.580  1.00  0.00    -0.504 OA
ATOM     19  H   UNL     1    -105.490  76.611  12.540  1.00  0.00     0.293 HD
ENDBRANCH  15  18
BRANCH  17  20
ATOM     20  O   UNL     1    -107.588  74.162  10.924  1.00  0.00    -0.504 OA
ATOM     21  H   UNL     1    -107.065  74.161  10.056  1.00  0.00     0.293 HD
ENDBRANCH  17  20
ENDBRANCH   1  12
BRANCH   6  22
ATOM     22  O   UNL     1    -105.936  65.911  16.278  1.00  0.00    -0.507 OA
ATOM     23  H   UNL     1    -105.395  66.390  16.981  1.00  0.00     0.293 HD
ENDBRANCH   6  22
BRANCH   8  24
ATOM     24  O   UNL     1    -108.527  65.331  12.297  1.00  0.00    -0.508 OA
ATOM     25  H   UNL     1    -109.045  64.533  12.648  1.00  0.00     0.293 HD
ENDBRANCH   8  24
TORSDOF 5
ENDMDL
MODEL 2
REMARK VINA RESULT:     0.000      4.235      5.318
REMARK INTER + INTRA:          -0.318
REMARK INTER:                   0.000
REMARK INTRA:                  -0.318
REMARK UNBOUND:                -0.318
REMARK SMILES O=c1cc(-c2ccc(O)c(O)c2)oc2cc(O)cc(O)c12
REMARK SMILES IDX 4 1 3 2 2 3 1 4 21 5 19 6 18 7 16 8 15 9 14 10 13 11 5 12
REMARK SMILES IDX 6 13 7 14 8 15 12 16 10 17 9 18 11 20 20 22 17 24
REMARK H PARENT 9 19 11 21 20 23 17 25
REMARK Flexibility Score: inf
ROOT
ATOM      1  C   UNL     1    -102.734  68.546  13.210  1.00  0.00     0.138 A 
ATOM      2  C   UNL     1    -102.246  67.234  13.127  1.00  0.00     0.100 A 
ATOM      3  C   UNL     1    -102.362  66.384  14.227  1.00  0.00     0.197 A 
ATOM      4  O   UNL     1    -101.859  65.233  14.144  1.00  0.00    -0.289 OA
ATOM      5  C   UNL     1    -103.000  66.840  15.406  1.00  0.00     0.107 A 
ATOM      6  C   UNL     1    -103.211  66.049  16.574  1.00  0.00     0.134 A 
ATOM      7  C   UNL     1    -103.749  66.643  17.722  1.00  0.00     0.093 A 
ATOM      8  C   UNL     1    -104.138  67.981  17.725  1.00  0.00     0.123 A 
ATOM      9  C   UNL     1    -103.986  68.752  16.571  1.00  0.00     0.094 A 
ATOM     10  C   UNL     1    -103.420  68.196  15.421  1.00  0.00     0.146 A 
ATOM     11  O   UNL     1    -103.279  68.967  14.347  1.00  0.00    -0.456 OA
ENDROOT
BRANCH   1  12
ATOM     12  C   UNL     1    -102.637  69.492  12.070  1.00  0.00     0.021 A 
ATOM     13  C   UNL     1    -102.038  69.070  10.871  1.00  0.00     0.016 A 
ATOM     14  C   UNL     1    -101.928  69.943   9.785  1.00  0.00     0.051 A 
ATOM     15  C   UNL     1    -102.404  71.253   9.881  1.00  0.00     0.157 A 
ATOM     16  C   UNL     1    -103.103  70.818  12.167  1.00  0.00     0.062 A 
ATOM     17  C   UNL     1    -102.991  71.695  11.078  1.00  0.00     0.158 A 
BRANCH  15  18
ATOM     18  O   UNL     1    -102.282  72.101   8.781  1.00  0.00    -0.504 OA
ATOM     19  H   UNL     1    -101.525  72.769   8.698  1.00  0.00     0.293 HD
ENDBRANCH  15  18
BRANCH  17  20
ATOM     20  O   UNL     1    -103.457  73.005  11.184  1.00  0.00    -0.504 OA
ATOM     21  H   UNL     1    -103.553  73.464  12.082  1.00  0.00     0.293 HD
ENDBRANCH  17  20
ENDBRANCH   1  12
BRANCH   6  22
ATOM     22  O   UNL     1    -102.936  64.680  16.651  1.00  0.00    -0.507 OA
ATOM     23  H   UNL     1    -102.027  64.284  16.839  1.00  0.00     0.293 HD
ENDBRANCH   6  22
BRANCH   8  24
ATOM     24  O   UNL     1    -104.684  68.535  18.881  1.00  0.00    -0.508 OA
ATOM     25  H   UNL     1    -104.149  69.161  19.474  1.00  0.00     0.293 HD
ENDBRANCH   8  24
TORSDOF 5
ENDMDL
MODEL 3
REMARK VINA RESULT:     0.000      5.309      6.378
REMARK INTER + INTRA:          -0.318
REMARK INTER:                   0.000
REMARK INTRA:                  -0.318
REMARK UNBOUND:                -0.318
REMARK SMILES O=c1cc(-c2ccc(O)c(O)c2)oc2cc(O)cc(O)c12
REMARK SMILES IDX 4 1 3 2 2 3 1 4 21 5 19 6 18 7 16 8 15 9 14 10 13 11 5 12
REMARK SMILES IDX 6 13 7 14 8 15 12 16 10 17 9 18 11 20 20 22 17 24
REMARK H PARENT 9 19 11 21 20 23 17 25
REMARK Flexibility Score: inf
ROOT
ATOM      1  C   UNL     1    -101.864  70.093  13.191  1.00  0.00     0.138 A 
ATOM      2  C   UNL     1    -101.535  68.736  13.321  1.00  0.00     0.100 A 
ATOM      3  C   UNL     1    -101.330  68.195  14.591  1.00  0.00     0.197 A 
ATOM      4  O   UNL     1    -100.975  66.990  14.672  1.00  0.00    -0.289 OA
ATOM      5  C   UNL     1    -101.488  69.009  15.737  1.00  0.00     0.107 A 
ATOM      6  C   UNL     1    -101.344  68.556  17.082  1.00  0.00     0.134 A 
ATOM      7  C   UNL     1    -101.408  69.479  18.133  1.00  0.00     0.093 A 
ATOM      8  C   UNL     1    -101.670  70.827  17.892  1.00  0.00     0.123 A 
ATOM      9  C   UNL     1    -101.866  71.273  16.584  1.00  0.00     0.094 A 
ATOM     10  C   UNL     1    -101.773  70.382  15.512  1.00  0.00     0.146 A 
ATOM     11  O   UNL     1    -101.951  70.849  14.281  1.00  0.00    -0.456 OA
ENDROOT
BRANCH   1  12
ATOM     12  C   UNL     1    -102.093  70.720  11.865  1.00  0.00     0.021 A 
ATOM     13  C   UNL     1    -101.977  69.940  10.702  1.00  0.00     0.016 A 
ATOM     14  C   UNL     1    -102.181  70.508   9.441  1.00  0.00     0.051 A 
ATOM     15  C   UNL     1    -102.494  71.864   9.320  1.00  0.00     0.157 A 
ATOM     16  C   UNL     1    -102.396  72.090  11.736  1.00  0.00     0.062 A 
ATOM     17  C   UNL     1    -102.598  72.661  10.471  1.00  0.00     0.158 A 
BRANCH  15  18
ATOM     18  O   UNL     1    -102.693  72.403   8.049  1.00  0.00    -0.504 OA
ATOM     19  H   UNL     1    -101.963  72.900   7.555  1.00  0.00     0.293 HD
ENDBRANCH  15  18
BRANCH  17  20
ATOM     20  O   UNL     1    -102.899  74.018  10.355  1.00  0.00    -0.504 OA
ATOM     21  H   UNL     1    -102.645  74.681  11.077  1.00  0.00     0.293 HD
ENDBRANCH  17  20
ENDBRANCH   1  12
BRANCH   6  22
ATOM     22  O   UNL     1    -101.164  67.216  17.440  1.00  0.00    -0.507 OA
ATOM     23  H   UNL     1    -100.279  66.732  17.436  1.00  0.00     0.293 HD
ENDBRANCH   6  22
BRANCH   8  24
ATOM     24  O   UNL     1    -101.741  71.715  18.963  1.00  0.00    -0.508 OA
ATOM     25  H   UNL     1    -100.990  72.365  19.165  1.00  0.00     0.293 HD
ENDBRANCH   8  24
TORSDOF 5
ENDMDL
MODEL 4
REMARK VINA RESULT:     0.000      7.650     10.716
REMARK INTER + INTRA:          -0.318
REMARK INTER:                   0.000
REMARK INTRA:                  -0.318
REMARK UNBOUND:                -0.318
REMARK SMILES O=c1cc(-c2ccc(O)c(O)c2)oc2cc(O)cc(O)c12
REMARK SMILES IDX 4 1 3 2 2 3 1 4 21 5 19 6 18 7 16 8 15 9 14 10 13 11 5 12
REMARK SMILES IDX 6 13 7 14 8 15 12 16 10 17 9 18 11 20 20 22 17 24
REMARK H PARENT 9 19 11 21 20 23 17 25
REMARK Flexibility Score: inf
ROOT
ATOM      1  C   UNL     1    -102.134  74.554   8.094  1.00  0.00     0.138 A 
ATOM      2  C   UNL     1    -101.742  75.736   8.738  1.00  0.00     0.100 A 
ATOM      3  C   UNL     1    -100.445  76.220   8.562  1.00  0.00     0.197 A 
ATOM      4  O   UNL     1    -100.103  77.249   9.201  1.00  0.00    -0.289 OA
ATOM      5  C   UNL     1     -99.547  75.533   7.711  1.00  0.00     0.107 A 
ATOM      6  C   UNL     1     -98.215  75.956   7.425  1.00  0.00     0.134 A 
ATOM      7  C   UNL     1     -97.379  75.133   6.660  1.00  0.00     0.093 A 
ATOM      8  C   UNL     1     -97.845  73.934   6.122  1.00  0.00     0.123 A 
ATOM      9  C   UNL     1     -99.163  73.536   6.351  1.00  0.00     0.094 A 
ATOM     10  C   UNL     1    -100.011  74.319   7.139  1.00  0.00     0.146 A 
ATOM     11  O   UNL     1    -101.254  73.899   7.345  1.00  0.00    -0.456 OA
ENDROOT
BRANCH   1  12
ATOM     12  C   UNL     1    -103.502  73.995   8.246  1.00  0.00     0.021 A 
ATOM     13  C   UNL     1    -104.435  74.663   9.058  1.00  0.00     0.016 A 
ATOM     14  C   UNL     1    -105.726  74.154   9.223  1.00  0.00     0.051 A 
ATOM     15  C   UNL     1    -106.104  72.968   8.590  1.00  0.00     0.157 A 
ATOM     16  C   UNL     1    -103.883  72.792   7.621  1.00  0.00     0.062 A 
ATOM     17  C   UNL     1    -105.179  72.280   7.788  1.00  0.00     0.158 A 
BRANCH  15  18
ATOM     18  O   UNL     1    -107.400  72.485   8.772  1.00  0.00    -0.504 OA
ATOM     19  H   UNL     1    -108.067  72.949   9.376  1.00  0.00     0.293 HD
ENDBRANCH  15  18
BRANCH  17  20
ATOM     20  O   UNL     1    -105.547  71.089   7.163  1.00  0.00    -0.504 OA
ATOM     21  H   UNL     1    -106.502  70.755   7.178  1.00  0.00     0.293 HD
ENDBRANCH  17  20
ENDBRANCH   1  12
BRANCH   6  22
ATOM     22  O   UNL     1     -97.675  77.176   7.842  1.00  0.00    -0.507 OA
ATOM     23  H   UNL     1     -98.118  77.811   8.489  1.00  0.00     0.293 HD
ENDBRANCH   6  22
BRANCH   8  24
ATOM     24  O   UNL     1     -96.989  73.147   5.353  1.00  0.00    -0.508 OA
ATOM     25  H   UNL     1     -97.029  72.134   5.383  1.00  0.00     0.293 HD
ENDBRANCH   8  24
TORSDOF 5
ENDMDL
MODEL 5
REMARK VINA RESULT:     0.000      8.913     11.606
REMARK INTER + INTRA:          -0.318
REMARK INTER:                   0.000
REMARK INTRA:                  -0.318
REMARK UNBOUND:                -0.318
REMARK SMILES O=c1cc(-c2ccc(O)c(O)c2)oc2cc(O)cc(O)c12
REMARK SMILES IDX 4 1 3 2 2 3 1 4 21 5 19 6 18 7 16 8 15 9 14 10 13 11 5 12
REMARK SMILES IDX 6 13 7 14 8 15 12 16 10 17 9 18 11 20 20 22 17 24
REMARK H PARENT 9 19 11 21 20 23 17 25
REMARK Flexibility Score: inf
ROOT
ATOM      1  C   UNL     1     -98.703  73.342  10.772  1.00  0.00     0.138 A 
ATOM      2  C   UNL     1     -98.895  74.211   9.689  1.00  0.00     0.100 A 
ATOM      3  C   UNL     1     -99.045  75.579   9.921  1.00  0.00     0.197 A 
ATOM      4  O   UNL     1     -99.278  76.326   8.935  1.00  0.00    -0.289 OA
ATOM      5  C   UNL     1     -98.969  76.082  11.242  1.00  0.00     0.107 A 
ATOM      6  C   UNL     1     -99.066  77.461  11.593  1.00  0.00     0.134 A 
ATOM      7  C   UNL     1     -99.094  77.830  12.943  1.00  0.00     0.093 A 
ATOM      8  C   UNL     1     -98.967  76.876  13.952  1.00  0.00     0.123 A 
ATOM      9  C   UNL     1     -98.817  75.529  13.620  1.00  0.00     0.094 A 
ATOM     10  C   UNL     1     -98.821  75.127  12.282  1.00  0.00     0.146 A 
ATOM     11  O   UNL     1     -98.690  73.833  12.007  1.00  0.00    -0.456 OA
ENDROOT
BRANCH   1  12
ATOM     12  C   UNL     1     -98.537  71.878  10.583  1.00  0.00     0.021 A 
ATOM     13  C   UNL     1     -98.575  71.341   9.285  1.00  0.00     0.016 A 
ATOM     14  C   UNL     1     -98.429  69.966   9.080  1.00  0.00     0.051 A 
ATOM     15  C   UNL     1     -98.252  69.105  10.166  1.00  0.00     0.157 A 
ATOM     16  C   UNL     1     -98.372  71.004  11.676  1.00  0.00     0.062 A 
ATOM     17  C   UNL     1     -98.228  69.624  11.470  1.00  0.00     0.158 A 
BRANCH  15  18
ATOM     18  O   UNL     1     -98.108  67.738   9.931  1.00  0.00    -0.504 OA
ATOM     19  H   UNL     1     -97.334  67.362   9.398  1.00  0.00     0.293 HD
ENDBRANCH  15  18
BRANCH  17  20
ATOM     20  O   UNL     1     -98.063  68.768  12.559  1.00  0.00    -0.504 OA
ATOM     21  H   UNL     1     -98.176  69.094  13.512  1.00  0.00     0.293 HD
ENDBRANCH  17  20
ENDBRANCH   1  12
BRANCH   6  22
ATOM     22  O   UNL     1     -99.112  78.503  10.661  1.00  0.00    -0.507 OA
ATOM     23  H   UNL     1     -98.377  79.177  10.514  1.00  0.00     0.293 HD
ENDBRANCH   6  22
BRANCH   8  24
ATOM     24  O   UNL     1     -98.984  77.281  15.286  1.00  0.00    -0.508 OA
ATOM     25  H   UNL     1     -98.338  77.980  15.636  1.00  0.00     0.293 HD
ENDBRANCH   8  24
TORSDOF 5
ENDMDL
MODEL 6
REMARK VINA RESULT:     0.000      7.084      9.196
REMARK INTER + INTRA:          -0.318
REMARK INTER:                   0.000
REMARK INTRA:                  -0.318
REMARK UNBOUND:                -0.318
REMARK SMILES O=c1cc(-c2ccc(O)c(O)c2)oc2cc(O)cc(O)c12
REMARK SMILES IDX 4 1 3 2 2 3 1 4 21 5 19 6 18 7 16 8 15 9 14 10 13 11 5 12
REMARK SMILES IDX 6 13 7 14 8 15 12 16 10 17 9 18 11 20 20 22 17 24
REMARK H PARENT 9 19 11 21 20 23 17 25
REMARK Flexibility Score: inf
ROOT
ATOM      1  C   UNL     1    -102.843  65.184  16.733  1.00  0.00     0.138 A 
ATOM      2  C   UNL     1    -103.614  64.527  15.764  1.00  0.00     0.100 A 
ATOM      3  C   UNL     1    -103.288  64.662  14.414  1.00  0.00     0.197 A 
ATOM      4  O   UNL     1    -104.035  64.112  13.564  1.00  0.00    -0.289 OA
ATOM      5  C   UNL     1    -102.163  65.434  14.035  1.00  0.00     0.107 A 
ATOM      6  C   UNL     1    -101.713  65.610  12.693  1.00  0.00     0.134 A 
ATOM      7  C   UNL     1    -100.658  66.491  12.429  1.00  0.00     0.093 A 
ATOM      8  C   UNL     1     -99.999  67.156  13.462  1.00  0.00     0.123 A 
ATOM      9  C   UNL     1    -100.396  66.951  14.785  1.00  0.00     0.094 A 
ATOM     10  C   UNL     1    -101.468  66.105  15.077  1.00  0.00     0.146 A 
ATOM     11  O   UNL     1    -101.825  65.947  16.347  1.00  0.00    -0.456 OA
ENDROOT
BRANCH   1  12
ATOM     12  C   UNL     1    -103.145  65.073  18.182  1.00  0.00     0.021 A 
ATOM     13  C   UNL     1    -104.234  64.291  18.603  1.00  0.00     0.016 A 
ATOM     14  C   UNL     1    -104.544  64.177  19.961  1.00  0.00     0.051 A 
ATOM     15  C   UNL     1    -103.779  64.847  20.920  1.00  0.00     0.157 A 
ATOM     16  C   UNL     1    -102.385  65.757  19.151  1.00  0.00     0.062 A 
ATOM     17  C   UNL     1    -102.697  65.644  20.514  1.00  0.00     0.158 A 
BRANCH  15  18
ATOM     18  O   UNL     1    -104.111  64.712  22.268  1.00  0.00    -0.504 OA
ATOM     19  H   UNL     1    -103.876  65.420  22.953  1.00  0.00     0.293 HD
ENDBRANCH  15  18
BRANCH  17  20
ATOM     20  O   UNL     1    -101.937  66.325  21.465  1.00  0.00    -0.504 OA
ATOM     21  H   UNL     1    -102.173  66.301  22.450  1.00  0.00     0.293 HD
ENDBRANCH  17  20
ENDBRANCH   1  12
BRANCH   6  22
ATOM     22  O   UNL     1    -102.246  64.928  11.595  1.00  0.00    -0.507 OA
ATOM     23  H   UNL     1    -102.386  65.329  10.680  1.00  0.00     0.293 HD
ENDBRANCH   6  22
BRANCH   8  24
ATOM     24  O   UNL     1     -98.943  68.015  13.163  1.00  0.00    -0.508 OA
ATOM     25  H   UNL     1     -98.058  67.665  12.813  1.00  0.00     0.293 HD
ENDBRANCH   8  24
TORSDOF 5
ENDMDL
MODEL 7
REMARK VINA RESULT:     0.000      9.360     10.613
REMARK INTER + INTRA:          -0.318
REMARK INTER:                   0.000
REMARK INTRA:                  -0.318
REMARK UNBOUND:                -0.318
REMARK SMILES O=c1cc(-c2ccc(O)c(O)c2)oc2cc(O)cc(O)c12
REMARK SMILES IDX 4 1 3 2 2 3 1 4 21 5 19 6 18 7 16 8 15 9 14 10 13 11 5 12
REMARK SMILES IDX 6 13 7 14 8 15 12 16 10 17 9 18 11 20 20 22 17 24
REMARK H PARENT 9 19 11 21 20 23 17 25
REMARK Flexibility Score: inf
ROOT
ATOM      1  C   UNL     1     -98.055  70.279  13.389  1.00  0.00     0.138 A 
ATOM      2  C   UNL     1     -97.839  71.380  14.231  1.00  0.00     0.100 A 
ATOM      3  C   UNL     1     -96.565  71.613  14.751  1.00  0.00     0.197 A 
ATOM      4  O   UNL     1     -96.417  72.572  15.552  1.00  0.00    -0.289 OA
ATOM      5  C   UNL     1     -95.495  70.756  14.399  1.00  0.00     0.107 A 
ATOM      6  C   UNL     1     -94.146  70.920  14.836  1.00  0.00     0.134 A 
ATOM      7  C   UNL     1     -93.195  69.943  14.519  1.00  0.00     0.093 A 
ATOM      8  C   UNL     1     -93.528  68.841  13.732  1.00  0.00     0.123 A 
ATOM      9  C   UNL     1     -94.831  68.698  13.254  1.00  0.00     0.094 A 
ATOM     10  C   UNL     1     -95.811  69.638  13.583  1.00  0.00     0.146 A 
ATOM     11  O   UNL     1     -97.044  69.459  13.120  1.00  0.00    -0.456 OA
ENDROOT
BRANCH   1  12
ATOM     12  C   UNL     1     -99.389  69.986  12.808  1.00  0.00     0.021 A 
ATOM     13  C   UNL     1    -100.473  70.829  13.107  1.00  0.00     0.016 A 
ATOM     14  C   UNL     1    -101.741  70.570  12.578  1.00  0.00     0.051 A 
ATOM     15  C   UNL     1    -101.950  69.463  11.752  1.00  0.00     0.157 A 
ATOM     16  C   UNL     1     -99.608  68.863  11.986  1.00  0.00     0.062 A 
ATOM     17  C   UNL     1    -100.881  68.602  11.458  1.00  0.00     0.158 A 
BRANCH  15  18
ATOM     18  O   UNL     1    -103.226  69.231  11.239  1.00  0.00    -0.504 OA
ATOM     19  H   UNL     1    -103.472  68.363  10.781  1.00  0.00     0.293 HD
ENDBRANCH  15  18
BRANCH  17  20
ATOM     20  O   UNL     1    -101.086  67.488  10.644  1.00  0.00    -0.504 OA
ATOM     21  H   UNL     1    -100.335  66.845  10.426  1.00  0.00     0.293 HD
ENDBRANCH  17  20
ENDBRANCH   1  12
BRANCH   6  22
ATOM     22  O   UNL     1     -93.687  72.027  15.556  1.00  0.00    -0.507 OA
ATOM     23  H   UNL     1     -93.080  72.743  15.188  1.00  0.00     0.293 HD
ENDBRANCH   6  22
BRANCH   8  24
ATOM     24  O   UNL     1     -92.551  67.897  13.424  1.00  0.00    -0.508 OA
ATOM     25  H   UNL     1     -92.222  67.764  12.474  1.00  0.00     0.293 HD
ENDBRANCH   8  24
TORSDOF 5
ENDMDL
MODEL 8
REMARK VINA RESULT:     0.000     10.594     12.279
REMARK INTER + INTRA:          -0.318
REMARK INTER:                   0.000
REMARK INTRA:                  -0.318
REMARK UNBOUND:                -0.318
REMARK SMILES O=c1cc(-c2ccc(O)c(O)c2)oc2cc(O)cc(O)c12
REMARK SMILES IDX 4 1 3 2 2 3 1 4 21 5 19 6 18 7 16 8 15 9 14 10 13 11 5 12
REMARK SMILES IDX 6 13 7 14 8 15 12 16 10 17 9 18 11 20 20 22 17 24
REMARK H PARENT 9 19 11 21 20 23 17 25
REMARK Flexibility Score: inf
ROOT
ATOM      1  C   UNL     1     -96.698  68.779  11.413  1.00  0.00     0.138 A 
ATOM      2  C   UNL     1     -96.422  68.687  12.785  1.00  0.00     0.100 A 
ATOM      3  C   UNL     1     -96.068  69.835  13.496  1.00  0.00     0.197 A 
ATOM      4  O   UNL     1     -95.765  69.711  14.711  1.00  0.00    -0.289 OA
ATOM      5  C   UNL     1     -96.024  71.086  12.835  1.00  0.00     0.107 A 
ATOM      6  C   UNL     1     -95.716  72.328  13.467  1.00  0.00     0.134 A 
ATOM      7  C   UNL     1     -95.587  73.484  12.689  1.00  0.00     0.093 A 
ATOM      8  C   UNL     1     -95.813  73.456  11.313  1.00  0.00     0.123 A 
ATOM      9  C   UNL     1     -96.167  72.258  10.692  1.00  0.00     0.094 A 
ATOM     10  C   UNL     1     -96.270  71.080  11.436  1.00  0.00     0.146 A 
ATOM     11  O   UNL     1     -96.595  69.956  10.806  1.00  0.00    -0.456 OA
ENDROOT
BRANCH   1  12
ATOM     12  C   UNL     1     -97.079  67.590  10.609  1.00  0.00     0.021 A 
ATOM     13  C   UNL     1     -97.165  66.333  11.232  1.00  0.00     0.016 A 
ATOM     14  C   UNL     1     -97.515  65.198  10.497  1.00  0.00     0.051 A 
ATOM     15  C   UNL     1     -97.775  65.295   9.127  1.00  0.00     0.157 A 
ATOM     16  C   UNL     1     -97.329  67.681   9.226  1.00  0.00     0.062 A 
ATOM     17  C   UNL     1     -97.678  66.541   8.487  1.00  0.00     0.158 A 
BRANCH  15  18
ATOM     18  O   UNL     1     -98.123  64.145   8.419  1.00  0.00    -0.504 OA
ATOM     19  H   UNL     1     -97.596  63.284   8.499  1.00  0.00     0.293 HD
ENDBRANCH  15  18
BRANCH  17  20
ATOM     20  O   UNL     1     -97.924  66.642   7.118  1.00  0.00    -0.504 OA
ATOM     21  H   UNL     1     -98.561  67.335   6.743  1.00  0.00     0.293 HD
ENDBRANCH  17  20
ENDBRANCH   1  12
BRANCH   6  22
ATOM     22  O   UNL     1     -95.554  72.483  14.847  1.00  0.00    -0.507 OA
ATOM     23  H   UNL     1     -94.685  72.357  15.343  1.00  0.00     0.293 HD
ENDBRANCH   6  22
BRANCH   8  24
ATOM     24  O   UNL     1     -95.690  74.630  10.573  1.00  0.00    -0.508 OA
ATOM     25  H   UNL     1     -96.104  75.501  10.887  1.00  0.00     0.293 HD
ENDBRANCH   8  24
TORSDOF 5
ENDMDL
MODEL 9
REMARK VINA RESULT:     0.000      8.410      9.567
REMARK INTER + INTRA:          -0.318
REMARK INTER:                   0.000
REMARK INTRA:                  -0.318
REMARK UNBOUND:                -0.318
REMARK SMILES O=c1cc(-c2ccc(O)c(O)c2)oc2cc(O)cc(O)c12
REMARK SMILES IDX 4 1 3 2 2 3 1 4 21 5 19 6 18 7 16 8 15 9 14 10 13 11 5 12
REMARK SMILES IDX 6 13 7 14 8 15 12 16 10 17 9 18 11 20 20 22 17 24
REMARK H PARENT 9 19 11 21 20 23 17 25
REMARK Flexibility Score: inf
ROOT
ATOM      1  C   UNL     1     -99.305  67.114  12.427  1.00  0.00     0.138 A 
ATOM      2  C   UNL     1    -100.307  67.800  13.127  1.00  0.00     0.100 A 
ATOM      3  C   UNL     1    -100.442  67.610  14.503  1.00  0.00     0.197 A 
ATOM      4  O   UNL     1    -101.389  68.191  15.094  1.00  0.00    -0.289 OA
ATOM      5  C   UNL     1     -99.547  66.751  15.186  1.00  0.00     0.107 A 
ATOM      6  C   UNL     1     -99.563  66.513  16.592  1.00  0.00     0.134 A 
ATOM      7  C   UNL     1     -98.703  65.553  17.140  1.00  0.00     0.093 A 
ATOM      8  C   UNL     1     -97.788  64.868  16.342  1.00  0.00     0.123 A 
ATOM      9  C   UNL     1     -97.725  65.132  14.973  1.00  0.00     0.094 A 
ATOM     10  C   UNL     1     -98.594  66.059  14.392  1.00  0.00     0.146 A 
ATOM     11  O   UNL     1     -98.513  66.271  13.083  1.00  0.00    -0.456 OA
ENDROOT
BRANCH   1  12
ATOM     12  C   UNL     1     -99.117  67.280  10.964  1.00  0.00     0.021 A 
ATOM     13  C   UNL     1     -99.965  68.146  10.252  1.00  0.00     0.016 A 
ATOM     14  C   UNL     1     -99.813  68.315   8.873  1.00  0.00     0.051 A 
ATOM     15  C   UNL     1     -98.822  67.616   8.180  1.00  0.00     0.157 A 
ATOM     16  C   UNL     1     -98.128  66.567  10.259  1.00  0.00     0.062 A 
ATOM     17  C   UNL     1     -97.977  66.735   8.874  1.00  0.00     0.158 A 
BRANCH  15  18
ATOM     18  O   UNL     1     -98.694  67.805   6.804  1.00  0.00    -0.504 OA
ATOM     19  H   UNL     1     -97.867  68.219   6.393  1.00  0.00     0.293 HD
ENDBRANCH  15  18
BRANCH  17  20
ATOM     20  O   UNL     1     -96.993  66.025   8.186  1.00  0.00    -0.504 OA
ATOM     21  H   UNL     1     -97.229  65.329   7.489  1.00  0.00     0.293 HD
ENDBRANCH  17  20
ENDBRANCH   1  12
BRANCH   6  22
ATOM     22  O   UNL     1    -100.380  67.204  17.493  1.00  0.00    -0.507 OA
ATOM     23  H   UNL     1    -100.759  68.125  17.336  1.00  0.00     0.293 HD
ENDBRANCH   6  22
BRANCH   8  24
ATOM     24  O   UNL     1     -96.936  63.930  16.924  1.00  0.00    -0.508 OA
ATOM     25  H   UNL     1     -96.054  63.676  16.494  1.00  0.00     0.293 HD
ENDBRANCH   8  24
TORSDOF 5
ENDMDL
