MODEL 1
REMARK VINA RESULT:    -4.306      0.000      0.000
REMARK INTER + INTRA:          -6.725
REMARK INTER:                  -6.068
REMARK INTRA:                  -0.657
REMARK UNBOUND:                -0.657
REMARK SMILES C=CCCCCCCC(=O)[O-]
REMARK SMILES IDX 6 1 7 2 8 3 9 4 10 5 11 6 5 7 4 8 3 9 2 10 1 11
REMARK H PARENT
REMARK Flexibility Score: inf
ROOT
ATOM      1  C   UNL     1      -5.200 -21.763  47.328  1.00  0.00     0.000 C 
ENDROOT
BRANCH   1   2
ATOM      2  C   UNL     1      -5.990 -21.214  48.525  1.00  0.00     0.006 C 
BRANCH   2   3
ATOM      3  C   UNL     1      -5.391 -19.911  49.069  1.00  0.00     0.053 C 
BRANCH   3   4
ATOM      4  C   UNL     1      -4.909 -20.069  50.479  1.00  0.00     0.041 C 
ATOM      5  O   UNL     1      -4.607 -21.208  50.923  1.00  0.00    -0.550 OA
ATOM      6  O   UNL     1      -4.823 -18.961  51.312  1.00  0.00    -0.550 OA
ENDBRANCH   3   4
ENDBRANCH   2   3
ENDBRANCH   1   2
BRANCH   1   7
ATOM      7  C   UNL     1      -4.775 -23.218  47.572  1.00  0.00     0.000 C 
BRANCH   7   8
ATOM      8  C   UNL     1      -5.625 -23.913  48.648  1.00  0.00     0.004 C 
BRANCH   8   9
ATOM      9  C   UNL     1      -4.769 -24.581  49.735  1.00  0.00     0.027 C 
BRANCH   9  10
ATOM     10  C   UNL     1      -3.302 -24.412  49.453  1.00  0.00    -0.035 C 
ATOM     11  C   UNL     1      -2.468 -23.885  50.356  1.00  0.00     0.004 C 
ENDBRANCH   9  10
ENDBRANCH   8   9
ENDBRANCH   7   8
ENDBRANCH   1   7
TORSDOF 7
ENDMDL
MODEL 2
REMARK VINA RESULT:    -4.284      2.393      4.258
REMARK INTER + INTRA:          -6.694
REMARK INTER:                  -6.003
REMARK INTRA:                  -0.691
REMARK UNBOUND:                -0.657
REMARK SMILES C=CCCCCCCC(=O)[O-]
REMARK SMILES IDX 6 1 7 2 8 3 9 4 10 5 11 6 5 7 4 8 3 9 2 10 1 11
REMARK H PARENT
REMARK Flexibility Score: inf
ROOT
ATOM      1  C   UNL     1      -5.605 -23.741  48.632  1.00  0.00     0.000 C 
ENDROOT
BRANCH   1   2
ATOM      2  C   UNL     1      -4.693 -24.478  49.625  1.00  0.00     0.006 C 
BRANCH   2   3
ATOM      3  C   UNL     1      -3.536 -23.596  50.115  1.00  0.00     0.053 C 
BRANCH   3   4
ATOM      4  C   UNL     1      -2.208 -24.260  49.910  1.00  0.00     0.041 C 
ATOM      5  O   UNL     1      -1.250 -24.017  50.690  1.00  0.00    -0.550 OA
ATOM      6  O   UNL     1      -2.021 -25.121  48.836  1.00  0.00    -0.550 OA
ENDBRANCH   3   4
ENDBRANCH   2   3
ENDBRANCH   1   2
BRANCH   1   7
ATOM      7  C   UNL     1      -4.890 -22.521  48.033  1.00  0.00     0.000 C 
BRANCH   7   8
ATOM      8  C   UNL     1      -5.783 -21.270  47.993  1.00  0.00     0.004 C 
BRANCH   8   9
ATOM      9  C   UNL     1      -6.061 -20.698  49.391  1.00  0.00     0.027 C 
BRANCH   9  10
ATOM     10  C   UNL     1      -4.854 -19.983  49.936  1.00  0.00    -0.035 C 
ATOM     11  C   UNL     1      -4.434 -20.168  51.192  1.00  0.00     0.004 C 
ENDBRANCH   9  10
ENDBRANCH   8   9
ENDBRANCH   7   8
ENDBRANCH   1   7
TORSDOF 7
ENDMDL
MODEL 3
REMARK VINA RESULT:    -4.256      2.222      3.874
REMARK INTER + INTRA:          -6.655
REMARK INTER:                  -5.988
REMARK INTRA:                  -0.667
REMARK UNBOUND:                -0.657
REMARK SMILES C=CCCCCCCC(=O)[O-]
REMARK SMILES IDX 6 1 7 2 8 3 9 4 10 5 11 6 5 7 4 8 3 9 2 10 1 11
REMARK H PARENT
REMARK Flexibility Score: inf
ROOT
ATOM      1  C   UNL     1      -3.159 -24.460  49.313  1.00  0.00     0.000 C 
ENDROOT
BRANCH   1   2
ATOM      2  C   UNL     1      -4.638 -24.568  49.713  1.00  0.00     0.006 C 
BRANCH   2   3
ATOM      3  C   UNL     1      -5.576 -24.030  48.624  1.00  0.00     0.053 C 
BRANCH   3   4
ATOM      4  C   UNL     1      -5.449 -22.545  48.468  1.00  0.00     0.041 C 
ATOM      5  O   UNL     1      -5.621 -21.786  49.458  1.00  0.00    -0.550 OA
ATOM      6  O   UNL     1      -5.173 -21.999  47.221  1.00  0.00    -0.550 OA
ENDBRANCH   3   4
ENDBRANCH   2   3
ENDBRANCH   1   2
BRANCH   1   7
ATOM      7  C   UNL     1      -2.325 -23.862  50.456  1.00  0.00     0.000 C 
BRANCH   7   8
ATOM      8  C   UNL     1      -2.188 -22.334  50.356  1.00  0.00     0.004 C 
BRANCH   8   9
ATOM      9  C   UNL     1      -1.851 -21.864  48.933  1.00  0.00     0.027 C 
BRANCH   9  10
ATOM     10  C   UNL     1      -0.386 -22.037  48.636  1.00  0.00    -0.035 C 
ATOM     11  C   UNL     1       0.556 -21.695  49.521  1.00  0.00     0.004 C 
ENDBRANCH   9  10
ENDBRANCH   8   9
ENDBRANCH   7   8
ENDBRANCH   1   7
TORSDOF 7
ENDMDL
MODEL 4
REMARK VINA RESULT:    -4.230      2.321      3.953
REMARK INTER + INTRA:          -6.617
REMARK INTER:                  -5.734
REMARK INTRA:                  -0.883
REMARK UNBOUND:                -0.657
REMARK SMILES C=CCCCCCCC(=O)[O-]
REMARK SMILES IDX 6 1 7 2 8 3 9 4 10 5 11 6 5 7 4 8 3 9 2 10 1 11
REMARK H PARENT
REMARK Flexibility Score: inf
ROOT
ATOM      1  C   UNL     1      -1.552 -24.209  48.013  1.00  0.00     0.000 C 
ENDROOT
BRANCH   1   2
ATOM      2  C   UNL     1      -1.137 -24.683  49.414  1.00  0.00     0.006 C 
BRANCH   2   3
ATOM      3  C   UNL     1      -2.018 -24.081  50.517  1.00  0.00     0.053 C 
BRANCH   3   4
ATOM      4  C   UNL     1      -1.870 -22.593  50.594  1.00  0.00     0.041 C 
ATOM      5  O   UNL     1      -0.734 -22.076  50.762  1.00  0.00    -0.550 OA
ATOM      6  O   UNL     1      -2.991 -21.777  50.512  1.00  0.00    -0.550 OA
ENDBRANCH   3   4
ENDBRANCH   2   3
ENDBRANCH   1   2
BRANCH   1   7
ATOM      7  C   UNL     1      -2.303 -25.317  47.260  1.00  0.00     0.000 C 
BRANCH   7   8
ATOM      8  C   UNL     1      -3.743 -24.919  46.900  1.00  0.00     0.004 C 
BRANCH   8   9
ATOM      9  C   UNL     1      -4.106 -23.508  47.388  1.00  0.00     0.027 C 
BRANCH   9  10
ATOM     10  C   UNL     1      -5.281 -23.543  48.327  1.00  0.00    -0.035 C 
ATOM     11  C   UNL     1      -5.412 -24.497  49.254  1.00  0.00     0.004 C 
ENDBRANCH   9  10
ENDBRANCH   8   9
ENDBRANCH   7   8
ENDBRANCH   1   7
TORSDOF 7
ENDMDL
MODEL 5
REMARK VINA RESULT:    -4.227      2.484      4.268
REMARK INTER + INTRA:          -6.613
REMARK INTER:                  -5.955
REMARK INTRA:                  -0.659
REMARK UNBOUND:                -0.657
REMARK SMILES C=CCCCCCCC(=O)[O-]
REMARK SMILES IDX 6 1 7 2 8 3 9 4 10 5 11 6 5 7 4 8 3 9 2 10 1 11
REMARK H PARENT
REMARK Flexibility Score: inf
ROOT
ATOM      1  C   UNL     1      -4.695 -24.510  49.749  1.00  0.00     0.000 C 
ENDROOT
BRANCH   1   2
ATOM      2  C   UNL     1      -3.210 -24.312  49.410  1.00  0.00     0.006 C 
BRANCH   2   3
ATOM      3  C   UNL     1      -2.451 -23.581  50.525  1.00  0.00     0.053 C 
BRANCH   3   4
ATOM      4  C   UNL     1      -0.970 -23.608  50.298  1.00  0.00     0.041 C 
ATOM      5  O   UNL     1      -0.214 -24.207  51.107  1.00  0.00    -0.550 OA
ATOM      6  O   UNL     1      -0.423 -22.944  49.208  1.00  0.00    -0.550 OA
ENDBRANCH   3   4
ENDBRANCH   2   3
ENDBRANCH   1   2
BRANCH   1   7
ATOM      7  C   UNL     1      -5.590 -23.985  48.617  1.00  0.00     0.000 C 
BRANCH   7   8
ATOM      8  C   UNL     1      -5.176 -22.587  48.131  1.00  0.00     0.004 C 
BRANCH   8   9
ATOM      9  C   UNL     1      -5.704 -21.466  49.039  1.00  0.00     0.027 C 
BRANCH   9  10
ATOM     10  C   UNL     1      -4.574 -20.659  49.619  1.00  0.00    -0.035 C 
ATOM     11  C   UNL     1      -4.517 -20.363  50.922  1.00  0.00     0.004 C 
ENDBRANCH   9  10
ENDBRANCH   8   9
ENDBRANCH   7   8
ENDBRANCH   1   7
TORSDOF 7
ENDMDL
MODEL 6
REMARK VINA RESULT:    -4.194      2.670      3.598
REMARK INTER + INTRA:          -6.567
REMARK INTER:                  -5.851
REMARK INTRA:                  -0.716
REMARK UNBOUND:                -0.657
REMARK SMILES C=CCCCCCCC(=O)[O-]
REMARK SMILES IDX 6 1 7 2 8 3 9 4 10 5 11 6 5 7 4 8 3 9 2 10 1 11
REMARK H PARENT
REMARK Flexibility Score: inf
ROOT
ATOM      1  C   UNL     1      -4.779 -24.560  49.729  1.00  0.00     0.000 C 
ENDROOT
BRANCH   1   2
ATOM      2  C   UNL     1      -4.035 -23.267  50.091  1.00  0.00     0.006 C 
BRANCH   2   3
ATOM      3  C   UNL     1      -2.586 -23.531  50.521  1.00  0.00     0.053 C 
BRANCH   3   4
ATOM      4  C   UNL     1      -1.679 -22.402  50.135  1.00  0.00     0.041 C 
ATOM      5  O   UNL     1      -1.886 -21.756  49.074  1.00  0.00    -0.550 OA
ATOM      6  O   UNL     1      -0.587 -22.085  50.932  1.00  0.00    -0.550 OA
ENDBRANCH   3   4
ENDBRANCH   2   3
ENDBRANCH   1   2
BRANCH   1   7
ATOM      7  C   UNL     1      -5.380 -24.470  48.318  1.00  0.00     0.000 C 
BRANCH   7   8
ATOM      8  C   UNL     1      -4.342 -24.081  47.254  1.00  0.00     0.004 C 
BRANCH   8   9
ATOM      9  C   UNL     1      -3.932 -25.268  46.368  1.00  0.00     0.027 C 
BRANCH   9  10
ATOM     10  C   UNL     1      -2.530 -25.717  46.676  1.00  0.00    -0.035 C 
ATOM     11  C   UNL     1      -1.635 -24.896  47.236  1.00  0.00     0.004 C 
ENDBRANCH   9  10
ENDBRANCH   8   9
ENDBRANCH   7   8
ENDBRANCH   1   7
TORSDOF 7
ENDMDL
MODEL 7
REMARK VINA RESULT:    -4.175      2.831      4.440
REMARK INTER + INTRA:          -6.540
REMARK INTER:                  -5.903
REMARK INTRA:                  -0.638
REMARK UNBOUND:                -0.657
REMARK SMILES C=CCCCCCCC(=O)[O-]
REMARK SMILES IDX 6 1 7 2 8 3 9 4 10 5 11 6 5 7 4 8 3 9 2 10 1 11
REMARK H PARENT
REMARK Flexibility Score: inf
ROOT
ATOM      1  C   UNL     1      -1.444 -24.008  47.923  1.00  0.00     0.000 C 
ENDROOT
BRANCH   1   2
ATOM      2  C   UNL     1      -1.443 -22.685  48.702  1.00  0.00     0.006 C 
BRANCH   2   3
ATOM      3  C   UNL     1      -0.047 -22.315  49.220  1.00  0.00     0.053 C 
BRANCH   3   4
ATOM      4  C   UNL     1       0.094 -22.598  50.684  1.00  0.00     0.041 C 
ATOM      5  O   UNL     1       0.422 -21.678  51.480  1.00  0.00    -0.550 OA
ATOM      6  O   UNL     1      -0.105 -23.886  51.165  1.00  0.00    -0.550 OA
ENDBRANCH   3   4
ENDBRANCH   2   3
ENDBRANCH   1   2
BRANCH   1   7
ATOM      7  C   UNL     1      -2.546 -24.947  48.438  1.00  0.00     0.000 C 
BRANCH   7   8
ATOM      8  C   UNL     1      -3.243 -24.410  49.698  1.00  0.00     0.004 C 
BRANCH   8   9
ATOM      9  C   UNL     1      -4.764 -24.628  49.670  1.00  0.00     0.027 C 
BRANCH   9  10
ATOM     10  C   UNL     1      -5.379 -24.005  48.447  1.00  0.00    -0.035 C 
ATOM     11  C   UNL     1      -5.551 -22.683  48.342  1.00  0.00     0.004 C 
ENDBRANCH   9  10
ENDBRANCH   8   9
ENDBRANCH   7   8
ENDBRANCH   1   7
TORSDOF 7
ENDMDL
MODEL 8
REMARK VINA RESULT:    -4.144      1.482      2.816
REMARK INTER + INTRA:          -6.497
REMARK INTER:                  -5.707
REMARK INTRA:                  -0.790
REMARK UNBOUND:                -0.657
REMARK SMILES C=CCCCCCCC(=O)[O-]
REMARK SMILES IDX 6 1 7 2 8 3 9 4 10 5 11 6 5 7 4 8 3 9 2 10 1 11
REMARK H PARENT
REMARK Flexibility Score: inf
ROOT
ATOM      1  C   UNL     1      -4.544 -24.509  49.564  1.00  0.00     0.000 C 
ENDROOT
BRANCH   1   2
ATOM      2  C   UNL     1      -5.623 -23.761  48.767  1.00  0.00     0.006 C 
BRANCH   2   3
ATOM      3  C   UNL     1      -5.165 -22.360  48.341  1.00  0.00     0.053 C 
BRANCH   3   4
ATOM      4  C   UNL     1      -5.652 -21.306  49.287  1.00  0.00     0.041 C 
ATOM      5  O   UNL     1      -6.584 -20.529  48.947  1.00  0.00    -0.550 OA
ATOM      6  O   UNL     1      -5.056 -21.161  50.533  1.00  0.00    -0.550 OA
ENDBRANCH   3   4
ENDBRANCH   2   3
ENDBRANCH   1   2
BRANCH   1   7
ATOM      7  C   UNL     1      -3.347 -24.862  48.669  1.00  0.00     0.000 C 
BRANCH   7   8
ATOM      8  C   UNL     1      -1.997 -24.512  49.315  1.00  0.00     0.004 C 
BRANCH   8   9
ATOM      9  C   UNL     1      -2.151 -23.619  50.557  1.00  0.00     0.027 C 
BRANCH   9  10
ATOM     10  C   UNL     1      -1.658 -22.224  50.287  1.00  0.00    -0.035 C 
ATOM     11  C   UNL     1      -1.488 -21.766  49.042  1.00  0.00     0.004 C 
ENDBRANCH   9  10
ENDBRANCH   8   9
ENDBRANCH   7   8
ENDBRANCH   1   7
TORSDOF 7
ENDMDL
MODEL 9
REMARK VINA RESULT:    -4.139      2.757      4.155
REMARK INTER + INTRA:          -6.489
REMARK INTER:                  -5.812
REMARK INTRA:                  -0.678
REMARK UNBOUND:                -0.657
REMARK SMILES C=CCCCCCCC(=O)[O-]
REMARK SMILES IDX 6 1 7 2 8 3 9 4 10 5 11 6 5 7 4 8 3 9 2 10 1 11
REMARK H PARENT
REMARK Flexibility Score: inf
ROOT
ATOM      1  C   UNL     1      -3.194 -24.503  49.467  1.00  0.00     0.000 C 
ENDROOT
BRANCH   1   2
ATOM      2  C   UNL     1      -2.533 -23.566  50.490  1.00  0.00     0.006 C 
BRANCH   2   3
ATOM      3  C   UNL     1      -1.870 -22.353  49.824  1.00  0.00     0.053 C 
BRANCH   3   4
ATOM      4  C   UNL     1      -0.416 -22.257  50.170  1.00  0.00     0.041 C 
ATOM      5  O   UNL     1       0.025 -22.803  51.216  1.00  0.00    -0.550 OA
ATOM      6  O   UNL     1       0.447 -21.539  49.352  1.00  0.00    -0.550 OA
ENDBRANCH   3   4
ENDBRANCH   2   3
ENDBRANCH   1   2
BRANCH   1   7
ATOM      7  C   UNL     1      -4.707 -24.600  49.711  1.00  0.00     0.000 C 
BRANCH   7   8
ATOM      8  C   UNL     1      -5.535 -24.052  48.537  1.00  0.00     0.004 C 
BRANCH   8   9
ATOM      9  C   UNL     1      -5.586 -22.517  48.517  1.00  0.00     0.027 C 
BRANCH   9  10
ATOM     10  C   UNL     1      -4.837 -21.963  47.336  1.00  0.00    -0.035 C 
ATOM     11  C   UNL     1      -4.311 -22.760  46.401  1.00  0.00     0.004 C 
ENDBRANCH   9  10
ENDBRANCH   8   9
ENDBRANCH   7   8
ENDBRANCH   1   7
TORSDOF 7
ENDMDL
