MODEL 1
REMARK VINA RESULT:    -4.276      0.000      0.000
REMARK INTER + INTRA:          -5.697
REMARK INTER:                  -5.526
REMARK INTRA:                  -0.170
REMARK UNBOUND:                -0.170
REMARK SMILES CCCCCCC(=O)[O-]
REMARK SMILES IDX 5 1 6 2 7 3 8 4 9 5 4 6 3 7 2 8 1 9
REMARK H PARENT
REMARK Flexibility Score: inf
ROOT
ATOM      1  C   UNL     1      96.090 123.740 125.537  1.00  0.00     0.006 C 
ENDROOT
BRANCH   1   2
ATOM      2  C   UNL     1      95.188 124.070 124.340  1.00  0.00     0.053 C 
BRANCH   2   3
ATOM      3  C   UNL     1      93.905 123.299 124.380  1.00  0.00     0.041 C 
ATOM      4  O   UNL     1      93.629 122.579 125.375  1.00  0.00    -0.550 OA
ATOM      5  O   UNL     1      93.028 123.347 123.303  1.00  0.00    -0.550 OA
ENDBRANCH   2   3
ENDBRANCH   1   2
BRANCH   1   6
ATOM      6  C   UNL     1      97.231 124.755 125.703  1.00  0.00     0.000 C 
BRANCH   6   7
ATOM      7  C   UNL     1      98.400 124.145 126.485  1.00  0.00    -0.000 C 
BRANCH   7   8
ATOM      8  C   UNL     1      98.345 122.614 126.451  1.00  0.00    -0.003 C 
ATOM      9  C   UNL     1      99.747 122.012 126.418  1.00  0.00     0.004 C 
ENDBRANCH   7   8
ENDBRANCH   6   7
ENDBRANCH   1   6
TORSDOF 5
ENDMDL
MODEL 2
REMARK VINA RESULT:    -4.275      1.436      2.190
REMARK INTER + INTRA:          -5.694
REMARK INTER:                  -5.515
REMARK INTRA:                  -0.179
REMARK UNBOUND:                -0.170
REMARK SMILES CCCCCCC(=O)[O-]
REMARK SMILES IDX 5 1 6 2 7 3 8 4 9 5 4 6 3 7 2 8 1 9
REMARK H PARENT
REMARK Flexibility Score: inf
ROOT
ATOM      1  C   UNL     1      97.567 124.451 126.258  1.00  0.00     0.006 C 
ENDROOT
BRANCH   1   2
ATOM      2  C   UNL     1      96.453 123.423 126.014  1.00  0.00     0.053 C 
BRANCH   2   3
ATOM      3  C   UNL     1      95.578 123.814 124.863  1.00  0.00     0.041 C 
ATOM      4  O   UNL     1      96.005 124.604 123.982  1.00  0.00    -0.550 OA
ATOM      5  O   UNL     1      94.278 123.331 124.781  1.00  0.00    -0.550 OA
ENDBRANCH   2   3
ENDBRANCH   1   2
BRANCH   1   6
ATOM      6  C   UNL     1      98.926 123.784 126.521  1.00  0.00     0.000 C 
BRANCH   6   7
ATOM      7  C   UNL     1      98.812 122.257 126.453  1.00  0.00    -0.000 C 
BRANCH   7   8
ATOM      8  C   UNL     1     100.196 121.601 126.459  1.00  0.00    -0.003 C 
ATOM      9  C   UNL     1     100.175 120.262 125.728  1.00  0.00     0.004 C 
ENDBRANCH   7   8
ENDBRANCH   6   7
ENDBRANCH   1   6
TORSDOF 5
ENDMDL
MODEL 3
REMARK VINA RESULT:    -4.268      3.551      5.269
REMARK INTER + INTRA:          -5.685
REMARK INTER:                  -5.521
REMARK INTRA:                  -0.164
REMARK UNBOUND:                -0.170
REMARK SMILES CCCCCCC(=O)[O-]
REMARK SMILES IDX 5 1 6 2 7 3 8 4 9 5 4 6 3 7 2 8 1 9
REMARK H PARENT
REMARK Flexibility Score: inf
ROOT
ATOM      1  C   UNL     1      98.658 122.686 126.367  1.00  0.00     0.006 C 
ENDROOT
BRANCH   1   2
ATOM      2  C   UNL     1     100.120 122.220 126.411  1.00  0.00     0.053 C 
BRANCH   2   3
ATOM      3  C   UNL     1     100.230 120.727 126.387  1.00  0.00     0.041 C 
ATOM      4  O   UNL     1     100.590 120.102 127.419  1.00  0.00    -0.550 OA
ATOM      5  O   UNL     1      99.967 120.027 125.216  1.00  0.00    -0.550 OA
ENDBRANCH   2   3
ENDBRANCH   1   2
BRANCH   1   6
ATOM      6  C   UNL     1      98.514 124.182 126.684  1.00  0.00     0.000 C 
BRANCH   6   7
ATOM      7  C   UNL     1      97.352 124.801 125.898  1.00  0.00    -0.000 C 
BRANCH   7   8
ATOM      8  C   UNL     1      96.263 123.761 125.617  1.00  0.00    -0.003 C 
ATOM      9  C   UNL     1      95.572 124.031 124.284  1.00  0.00     0.004 C 
ENDBRANCH   7   8
ENDBRANCH   6   7
ENDBRANCH   1   6
TORSDOF 5
ENDMDL
MODEL 4
REMARK VINA RESULT:    -4.235      3.550      5.204
REMARK INTER + INTRA:          -5.643
REMARK INTER:                  -5.479
REMARK INTRA:                  -0.163
REMARK UNBOUND:                -0.170
REMARK SMILES CCCCCCC(=O)[O-]
REMARK SMILES IDX 5 1 6 2 7 3 8 4 9 5 4 6 3 7 2 8 1 9
REMARK H PARENT
REMARK Flexibility Score: inf
ROOT
ATOM      1  C   UNL     1      98.655 124.148 126.534  1.00  0.00     0.006 C 
ENDROOT
BRANCH   1   2
ATOM      2  C   UNL     1      98.549 122.617 126.479  1.00  0.00     0.053 C 
BRANCH   2   3
ATOM      3  C   UNL     1      99.897 121.967 126.429  1.00  0.00     0.041 C 
ATOM      4  O   UNL     1     100.014 120.733 126.649  1.00  0.00    -0.550 OA
ATOM      5  O   UNL     1     101.030 122.730 126.174  1.00  0.00    -0.550 OA
ENDBRANCH   2   3
ENDBRANCH   1   2
BRANCH   1   6
ATOM      6  C   UNL     1      97.407 124.839 125.964  1.00  0.00     0.000 C 
BRANCH   6   7
ATOM      7  C   UNL     1      96.325 123.813 125.608  1.00  0.00    -0.000 C 
BRANCH   7   8
ATOM      8  C   UNL     1      95.653 124.161 124.277  1.00  0.00    -0.003 C 
ATOM      9  C   UNL     1      94.219 123.641 124.230  1.00  0.00     0.004 C 
ENDBRANCH   7   8
ENDBRANCH   6   7
ENDBRANCH   1   6
TORSDOF 5
ENDMDL
MODEL 5
REMARK VINA RESULT:    -3.997      1.088      1.632
REMARK INTER + INTRA:          -5.335
REMARK INTER:                  -5.203
REMARK INTRA:                  -0.133
REMARK UNBOUND:                -0.170
REMARK SMILES CCCCCCC(=O)[O-]
REMARK SMILES IDX 5 1 6 2 7 3 8 4 9 5 4 6 3 7 2 8 1 9
REMARK H PARENT
REMARK Flexibility Score: inf
ROOT
ATOM      1  C   UNL     1      95.295 123.782 124.652  1.00  0.00     0.006 C 
ENDROOT
BRANCH   1   2
ATOM      2  C   UNL     1      93.996 122.986 124.844  1.00  0.00     0.053 C 
BRANCH   2   3
ATOM      3  C   UNL     1      92.965 123.350 123.821  1.00  0.00     0.041 C 
ATOM      4  O   UNL     1      92.718 122.570 122.864  1.00  0.00    -0.550 OA
ATOM      5  O   UNL     1      92.299 124.567 123.904  1.00  0.00    -0.550 OA
ENDBRANCH   2   3
ENDBRANCH   1   2
BRANCH   1   6
ATOM      6  C   UNL     1      96.266 123.603 125.830  1.00  0.00     0.000 C 
BRANCH   6   7
ATOM      7  C   UNL     1      97.253 124.773 125.911  1.00  0.00    -0.000 C 
BRANCH   7   8
ATOM      8  C   UNL     1      98.572 124.336 126.556  1.00  0.00    -0.003 C 
ATOM      9  C   UNL     1      98.746 122.822 126.485  1.00  0.00     0.004 C 
ENDBRANCH   7   8
ENDBRANCH   6   7
ENDBRANCH   1   6
TORSDOF 5
ENDMDL
MODEL 6
REMARK VINA RESULT:    -3.924      2.957      4.964
REMARK INTER + INTRA:          -5.242
REMARK INTER:                  -5.117
REMARK INTRA:                  -0.125
REMARK UNBOUND:                -0.170
REMARK SMILES CCCCCCC(=O)[O-]
REMARK SMILES IDX 5 1 6 2 7 3 8 4 9 5 4 6 3 7 2 8 1 9
REMARK H PARENT
REMARK Flexibility Score: inf
ROOT
ATOM      1  C   UNL     1      96.259 123.349 126.123  1.00  0.00     0.006 C 
ENDROOT
BRANCH   1   2
ATOM      2  C   UNL     1      97.669 123.946 126.011  1.00  0.00     0.053 C 
BRANCH   2   3
ATOM      3  C   UNL     1      97.663 125.429 126.220  1.00  0.00     0.041 C 
ATOM      4  O   UNL     1      97.501 125.905 127.374  1.00  0.00    -0.550 OA
ATOM      5  O   UNL     1      97.802 126.287 125.137  1.00  0.00    -0.550 OA
ENDBRANCH   2   3
ENDBRANCH   1   2
BRANCH   1   6
ATOM      6  C   UNL     1      95.355 123.768 124.954  1.00  0.00     0.000 C 
BRANCH   6   7
ATOM      7  C   UNL     1      94.110 122.876 124.875  1.00  0.00    -0.000 C 
BRANCH   7   8
ATOM      8  C   UNL     1      93.019 123.529 124.020  1.00  0.00    -0.003 C 
ATOM      9  C   UNL     1      92.783 122.745 122.733  1.00  0.00     0.004 C 
ENDBRANCH   7   8
ENDBRANCH   6   7
ENDBRANCH   1   6
TORSDOF 5
ENDMDL
MODEL 7
REMARK VINA RESULT:    -3.707      2.663      4.230
REMARK INTER + INTRA:          -4.960
REMARK INTER:                  -4.831
REMARK INTRA:                  -0.129
REMARK UNBOUND:                -0.170
REMARK SMILES CCCCCCC(=O)[O-]
REMARK SMILES IDX 5 1 6 2 7 3 8 4 9 5 4 6 3 7 2 8 1 9
REMARK H PARENT
REMARK Flexibility Score: inf
ROOT
ATOM      1  C   UNL     1      99.275 122.371 126.503  1.00  0.00     0.006 C 
ENDROOT
BRANCH   1   2
ATOM      2  C   UNL     1      97.744 122.487 126.479  1.00  0.00     0.053 C 
BRANCH   2   3
ATOM      3  C   UNL     1      97.296 123.862 126.091  1.00  0.00     0.041 C 
ATOM      4  O   UNL     1      96.230 124.021 125.441  1.00  0.00    -0.550 OA
ATOM      5  O   UNL     1      98.073 124.967 126.418  1.00  0.00    -0.550 OA
ENDBRANCH   2   3
ENDBRANCH   1   2
BRANCH   1   6
ATOM      6  C   UNL     1      99.763 121.005 125.996  1.00  0.00     0.000 C 
BRANCH   6   7
ATOM      7  C   UNL     1     100.607 120.294 127.060  1.00  0.00    -0.000 C 
BRANCH   7   8
ATOM      8  C   UNL     1     102.009 119.979 126.530  1.00  0.00    -0.003 C 
ATOM      9  C   UNL     1     101.987 119.732 125.025  1.00  0.00     0.004 C 
ENDBRANCH   7   8
ENDBRANCH   6   7
ENDBRANCH   1   6
TORSDOF 5
ENDMDL
MODEL 8
REMARK VINA RESULT:    -3.615     14.272     15.454
REMARK INTER + INTRA:          -4.842
REMARK INTER:                  -4.529
REMARK INTRA:                  -0.312
REMARK UNBOUND:                -0.170
REMARK SMILES CCCCCCC(=O)[O-]
REMARK SMILES IDX 5 1 6 2 7 3 8 4 9 5 4 6 3 7 2 8 1 9
REMARK H PARENT
REMARK Flexibility Score: inf
ROOT
ATOM      1  C   UNL     1      84.392 128.954 130.407  1.00  0.00     0.006 C 
ENDROOT
BRANCH   1   2
ATOM      2  C   UNL     1      82.911 128.561 130.497  1.00  0.00     0.053 C 
BRANCH   2   3
ATOM      3  C   UNL     1      82.731 127.075 130.545  1.00  0.00     0.041 C 
ATOM      4  O   UNL     1      81.882 126.515 129.804  1.00  0.00    -0.550 OA
ATOM      5  O   UNL     1      83.477 126.311 131.434  1.00  0.00    -0.550 OA
ENDBRANCH   2   3
ENDBRANCH   1   2
BRANCH   1   6
ATOM      6  C   UNL     1      84.960 129.401 131.763  1.00  0.00     0.000 C 
BRANCH   6   7
ATOM      7  C   UNL     1      83.875 130.059 132.623  1.00  0.00    -0.000 C 
BRANCH   7   8
ATOM      8  C   UNL     1      83.954 131.586 132.534  1.00  0.00    -0.003 C 
ATOM      9  C   UNL     1      82.774 132.155 131.751  1.00  0.00     0.004 C 
ENDBRANCH   7   8
ENDBRANCH   6   7
ENDBRANCH   1   6
TORSDOF 5
ENDMDL
MODEL 9
REMARK VINA RESULT:    -3.596     12.062     13.528
REMARK INTER + INTRA:          -4.817
REMARK INTER:                  -4.655
REMARK INTRA:                  -0.162
REMARK UNBOUND:                -0.170
REMARK SMILES CCCCCCC(=O)[O-]
REMARK SMILES IDX 5 1 6 2 7 3 8 4 9 5 4 6 3 7 2 8 1 9
REMARK H PARENT
REMARK Flexibility Score: inf
ROOT
ATOM      1  C   UNL     1      84.490 122.341 124.951  1.00  0.00     0.006 C 
ENDROOT
BRANCH   1   2
ATOM      2  C   UNL     1      83.872 123.736 125.112  1.00  0.00     0.053 C 
BRANCH   2   3
ATOM      3  C   UNL     1      83.832 124.165 126.546  1.00  0.00     0.041 C 
ATOM      4  O   UNL     1      82.833 123.892 127.262  1.00  0.00    -0.550 OA
ATOM      5  O   UNL     1      84.883 124.898 127.084  1.00  0.00    -0.550 OA
ENDBRANCH   2   3
ENDBRANCH   1   2
BRANCH   1   6
ATOM      6  C   UNL     1      83.439 121.274 124.607  1.00  0.00     0.000 C 
BRANCH   6   7
ATOM      7  C   UNL     1      82.610 121.694 123.387  1.00  0.00    -0.000 C 
BRANCH   7   8
ATOM      8  C   UNL     1      82.437 120.525 122.412  1.00  0.00    -0.003 C 
ATOM      9  C   UNL     1      82.522 120.998 120.964  1.00  0.00     0.004 C 
ENDBRANCH   7   8
ENDBRANCH   6   7
ENDBRANCH   1   6
TORSDOF 5
ENDMDL
