MODEL 1
REMARK VINA RESULT:    -1.967      0.000      0.000
REMARK INTER + INTRA:          -1.967
REMARK INTER:                  -1.967
REMARK INTRA:                   0.000
REMARK UNBOUND:                 0.000
REMARK SMILES CC(=O)[O-]
REMARK SMILES IDX 1 1 2 2 3 3 4 4
REMARK H PARENT
REMARK Flexibility Score: inf
ROOT
ATOM      1  C   UNL     1      15.302 -45.409  32.955  1.00  0.00     0.063 C 
ATOM      2  C   UNL     1      15.023 -43.951  33.093  1.00  0.00     0.038 C 
ATOM      3  O   UNL     1      13.846 -43.518  32.974  1.00  0.00    -0.550 OA
ATOM      4  O   UNL     1      16.052 -43.071  33.405  1.00  0.00    -0.550 OA
ENDROOT
TORSDOF 0
ENDMDL
MODEL 2
REMARK VINA RESULT:    -1.916      8.031      8.172
REMARK INTER + INTRA:          -1.916
REMARK INTER:                  -1.916
REMARK INTRA:                   0.000
REMARK UNBOUND:                 0.000
REMARK SMILES CC(=O)[O-]
REMARK SMILES IDX 1 1 2 2 3 3 4 4
REMARK H PARENT
REMARK Flexibility Score: inf
ROOT
ATOM      1  C   UNL     1      17.720 -44.531  25.574  1.00  0.00     0.063 C 
ATOM      2  C   UNL     1      18.284 -43.163  25.755  1.00  0.00     0.038 C 
ATOM      3  O   UNL     1      18.113 -42.547  26.840  1.00  0.00    -0.550 OA
ATOM      4  O   UNL     1      19.044 -42.584  24.747  1.00  0.00    -0.550 OA
ENDROOT
TORSDOF 0
ENDMDL
MODEL 3
REMARK VINA RESULT:    -1.910      8.026      8.202
REMARK INTER + INTRA:          -1.910
REMARK INTER:                  -1.910
REMARK INTRA:                   0.000
REMARK UNBOUND:                 0.000
REMARK SMILES CC(=O)[O-]
REMARK SMILES IDX 1 1 2 2 3 3 4 4
REMARK H PARENT
REMARK Flexibility Score: inf
ROOT
ATOM      1  C   UNL     1      17.723 -44.474  25.569  1.00  0.00     0.063 C 
ATOM      2  C   UNL     1      18.348 -43.130  25.731  1.00  0.00     0.038 C 
ATOM      3  O   UNL     1      19.045 -42.642  24.802  1.00  0.00    -0.550 OA
ATOM      4  O   UNL     1      18.121 -42.390  26.884  1.00  0.00    -0.550 OA
ENDROOT
TORSDOF 0
ENDMDL
MODEL 4
REMARK VINA RESULT:    -1.901      8.102      8.177
REMARK INTER + INTRA:          -1.901
REMARK INTER:                  -1.901
REMARK INTRA:                   0.000
REMARK UNBOUND:                 0.000
REMARK SMILES CC(=O)[O-]
REMARK SMILES IDX 1 1 2 2 3 3 4 4
REMARK H PARENT
REMARK Flexibility Score: inf
ROOT
ATOM      1  C   UNL     1      18.957 -42.554  25.290  1.00  0.00     0.063 C 
ATOM      2  C   UNL     1      17.872 -43.482  25.718  1.00  0.00     0.038 C 
ATOM      3  O   UNL     1      16.894 -43.047  26.381  1.00  0.00    -0.550 OA
ATOM      4  O   UNL     1      17.910 -44.819  25.344  1.00  0.00    -0.550 OA
ENDROOT
TORSDOF 0
ENDMDL
MODEL 5
REMARK VINA RESULT:    -1.879      6.558      6.609
REMARK INTER + INTRA:          -1.879
REMARK INTER:                  -1.879
REMARK INTRA:                   0.000
REMARK UNBOUND:                 0.000
REMARK SMILES CC(=O)[O-]
REMARK SMILES IDX 1 1 2 2 3 3 4 4
REMARK H PARENT
REMARK Flexibility Score: inf
ROOT
ATOM      1  C   UNL     1      17.589 -44.642  25.660  1.00  0.00     0.063 C 
ATOM      2  C   UNL     1      17.067 -44.614  27.056  1.00  0.00     0.038 C 
ATOM      3  O   UNL     1      16.218 -43.748  27.396  1.00  0.00    -0.550 OA
ATOM      4  O   UNL     1      17.473 -45.576  27.972  1.00  0.00    -0.550 OA
ENDROOT
TORSDOF 0
ENDMDL
MODEL 6
REMARK VINA RESULT:    -1.839      5.137      5.477
REMARK INTER + INTRA:          -1.839
REMARK INTER:                  -1.839
REMARK INTRA:                   0.000
REMARK UNBOUND:                 0.000
REMARK SMILES CC(=O)[O-]
REMARK SMILES IDX 1 1 2 2 3 3 4 4
REMARK H PARENT
REMARK Flexibility Score: inf
ROOT
ATOM      1  C   UNL     1      17.166 -45.093  27.173  1.00  0.00     0.063 C 
ATOM      2  C   UNL     1      16.755 -45.414  28.569  1.00  0.00     0.038 C 
ATOM      3  O   UNL     1      17.627 -45.581  29.462  1.00  0.00    -0.550 OA
ATOM      4  O   UNL     1      15.408 -45.478  28.902  1.00  0.00    -0.550 OA
ENDROOT
TORSDOF 0
ENDMDL
MODEL 7
REMARK VINA RESULT:    -1.816      9.065      9.170
REMARK INTER + INTRA:          -1.816
REMARK INTER:                  -1.816
REMARK INTRA:                   0.000
REMARK UNBOUND:                 0.000
REMARK SMILES CC(=O)[O-]
REMARK SMILES IDX 1 1 2 2 3 3 4 4
REMARK H PARENT
REMARK Flexibility Score: inf
ROOT
ATOM      1  C   UNL     1      18.876 -42.499  25.139  1.00  0.00     0.063 C 
ATOM      2  C   UNL     1      18.313 -41.124  25.018  1.00  0.00     0.038 C 
ATOM      3  O   UNL     1      17.478 -40.861  24.113  1.00  0.00    -0.550 OA
ATOM      4  O   UNL     1      18.666 -40.143  25.935  1.00  0.00    -0.550 OA
ENDROOT
TORSDOF 0
ENDMDL
MODEL 8
REMARK VINA RESULT:    -1.803      1.871      1.967
REMARK INTER + INTRA:          -1.803
REMARK INTER:                  -1.803
REMARK INTRA:                   0.000
REMARK UNBOUND:                 0.000
REMARK SMILES CC(=O)[O-]
REMARK SMILES IDX 1 1 2 2 3 3 4 4
REMARK H PARENT
REMARK Flexibility Score: inf
ROOT
ATOM      1  C   UNL     1      14.877 -45.128  31.164  1.00  0.00     0.063 C 
ATOM      2  C   UNL     1      15.238 -45.132  32.610  1.00  0.00     0.038 C 
ATOM      3  O   UNL     1      15.254 -46.215  33.254  1.00  0.00    -0.550 OA
ATOM      4  O   UNL     1      15.608 -43.951  33.240  1.00  0.00    -0.550 OA
ENDROOT
TORSDOF 0
ENDMDL
MODEL 9
REMARK VINA RESULT:    -1.758      2.087      2.452
REMARK INTER + INTRA:          -1.758
REMARK INTER:                  -1.758
REMARK INTRA:                   0.000
REMARK UNBOUND:                 0.000
REMARK SMILES CC(=O)[O-]
REMARK SMILES IDX 1 1 2 2 3 3 4 4
REMARK H PARENT
REMARK Flexibility Score: inf
ROOT
ATOM      1  C   UNL     1      14.539 -43.814  32.919  1.00  0.00     0.063 C 
ATOM      2  C   UNL     1      15.283 -45.044  32.524  1.00  0.00     0.038 C 
ATOM      3  O   UNL     1      15.973 -45.054  31.471  1.00  0.00    -0.550 OA
ATOM      4  O   UNL     1      15.259 -46.165  33.343  1.00  0.00    -0.550 OA
ENDROOT
TORSDOF 0
ENDMDL
