MODEL 1
REMARK VINA RESULT:    -3.580      0.000      0.000
REMARK INTER + INTRA:          -5.197
REMARK INTER:                  -4.836
REMARK INTRA:                  -0.360
REMARK UNBOUND:                -0.360
REMARK SMILES CCCCCCC=CC(=O)[O-]
REMARK SMILES IDX 5 1 6 2 7 3 8 4 9 5 10 6 11 7 4 8 3 9 2 10 1 11
REMARK H PARENT
REMARK Flexibility Score: inf
ROOT
ATOM      1  C   UNL     1      58.371  28.927  50.300  1.00  0.00     0.004 C 
ENDROOT
BRANCH   1   2
ATOM      2  C   UNL     1      59.525  28.211  49.582  1.00  0.00     0.027 C 
BRANCH   2   3
ATOM      3  C   UNL     1      59.620  26.758  49.956  1.00  0.00    -0.025 C 
ATOM      4  C   UNL     1      60.793  26.185  50.248  1.00  0.00     0.020 C 
BRANCH   4   5
ATOM      5  C   UNL     1      60.906  24.768  50.625  1.00  0.00     0.064 C 
ATOM      6  O   UNL     1      59.880  24.064  50.830  1.00  0.00    -0.545 OA
ATOM      7  O   UNL     1      62.164  24.194  50.755  1.00  0.00    -0.545 OA
ENDBRANCH   4   5
ENDBRANCH   2   3
ENDBRANCH   1   2
BRANCH   1   8
ATOM      8  C   UNL     1      57.276  27.945  50.753  1.00  0.00     0.000 C 
BRANCH   8   9
ATOM      9  C   UNL     1      55.887  28.599  50.820  1.00  0.00    -0.000 C 
BRANCH   9  10
ATOM     10  C   UNL     1      54.757  27.628  50.446  1.00  0.00    -0.003 C 
ATOM     11  C   UNL     1      55.315  26.263  50.052  1.00  0.00     0.004 C 
ENDBRANCH   9  10
ENDBRANCH   8   9
ENDBRANCH   1   8
TORSDOF 6
ENDMDL
MODEL 2
REMARK VINA RESULT:    -3.562      1.214      1.895
REMARK INTER + INTRA:          -5.172
REMARK INTER:                  -4.783
REMARK INTRA:                  -0.390
REMARK UNBOUND:                -0.360
REMARK SMILES CCCCCCC=CC(=O)[O-]
REMARK SMILES IDX 5 1 6 2 7 3 8 4 9 5 10 6 11 7 4 8 3 9 2 10 1 11
REMARK H PARENT
REMARK Flexibility Score: inf
ROOT
ATOM      1  C   UNL     1      56.803  28.399  51.129  1.00  0.00     0.004 C 
ENDROOT
BRANCH   1   2
ATOM      2  C   UNL     1      57.859  29.220  50.374  1.00  0.00     0.027 C 
BRANCH   2   3
ATOM      3  C   UNL     1      59.145  28.463  50.185  1.00  0.00    -0.025 C 
ATOM      4  C   UNL     1      59.215  27.142  50.382  1.00  0.00     0.020 C 
BRANCH   4   5
ATOM      5  C   UNL     1      60.460  26.382  50.194  1.00  0.00     0.064 C 
ATOM      6  O   UNL     1      60.473  25.123  50.273  1.00  0.00    -0.545 OA
ATOM      7  O   UNL     1      61.640  27.061  49.921  1.00  0.00    -0.545 OA
ENDBRANCH   4   5
ENDBRANCH   2   3
ENDBRANCH   1   2
BRANCH   1   8
ATOM      8  C   UNL     1      55.386  28.969  50.943  1.00  0.00     0.000 C 
BRANCH   8   9
ATOM      9  C   UNL     1      54.414  27.949  50.332  1.00  0.00    -0.000 C 
BRANCH   9  10
ATOM     10  C   UNL     1      55.028  26.546  50.209  1.00  0.00    -0.003 C 
ATOM     11  C   UNL     1      54.086  25.597  49.473  1.00  0.00     0.004 C 
ENDBRANCH   9  10
ENDBRANCH   8   9
ENDBRANCH   1   8
TORSDOF 6
ENDMDL
MODEL 3
REMARK VINA RESULT:    -3.502     13.212     13.984
REMARK INTER + INTRA:          -5.092
REMARK INTER:                  -4.833
REMARK INTRA:                  -0.258
REMARK UNBOUND:                -0.360
REMARK SMILES CCCCCCC=CC(=O)[O-]
REMARK SMILES IDX 5 1 6 2 7 3 8 4 9 5 10 6 11 7 4 8 3 9 2 10 1 11
REMARK H PARENT
REMARK Flexibility Score: inf
ROOT
ATOM      1  C   UNL     1      62.171  32.779  60.554  1.00  0.00     0.004 C 
ENDROOT
BRANCH   1   2
ATOM      2  C   UNL     1      61.620  34.204  60.387  1.00  0.00     0.027 C 
BRANCH   2   3
ATOM      3  C   UNL     1      62.599  35.252  60.839  1.00  0.00    -0.025 C 
ATOM      4  C   UNL     1      63.848  34.936  61.196  1.00  0.00     0.020 C 
BRANCH   4   5
ATOM      5  C   UNL     1      64.824  35.947  61.633  1.00  0.00     0.064 C 
ATOM      6  O   UNL     1      66.016  35.922  61.223  1.00  0.00    -0.545 OA
ATOM      7  O   UNL     1      64.424  36.948  62.509  1.00  0.00    -0.545 OA
ENDBRANCH   4   5
ENDBRANCH   2   3
ENDBRANCH   1   2
BRANCH   1   8
ATOM      8  C   UNL     1      61.076  31.712  60.380  1.00  0.00     0.000 C 
BRANCH   8   9
ATOM      9  C   UNL     1      60.934  30.806  61.613  1.00  0.00    -0.000 C 
BRANCH   9  10
ATOM     10  C   UNL     1      61.912  29.622  61.593  1.00  0.00    -0.003 C 
ATOM     11  C   UNL     1      61.745  28.794  60.321  1.00  0.00     0.004 C 
ENDBRANCH   9  10
ENDBRANCH   8   9
ENDBRANCH   1   8
TORSDOF 6
ENDMDL
MODEL 4
REMARK VINA RESULT:    -3.502     12.360     13.246
REMARK INTER + INTRA:          -5.091
REMARK INTER:                  -4.765
REMARK INTRA:                  -0.327
REMARK UNBOUND:                -0.360
REMARK SMILES CCCCCCC=CC(=O)[O-]
REMARK SMILES IDX 5 1 6 2 7 3 8 4 9 5 10 6 11 7 4 8 3 9 2 10 1 11
REMARK H PARENT
REMARK Flexibility Score: inf
ROOT
ATOM      1  C   UNL     1      62.135  33.943  59.918  1.00  0.00     0.004 C 
ENDROOT
BRANCH   1   2
ATOM      2  C   UNL     1      61.341  32.772  60.517  1.00  0.00     0.027 C 
BRANCH   2   3
ATOM      3  C   UNL     1      62.115  31.482  60.489  1.00  0.00    -0.025 C 
ATOM      4  C   UNL     1      61.838  30.482  61.333  1.00  0.00     0.020 C 
BRANCH   4   5
ATOM      5  C   UNL     1      62.576  29.209  61.316  1.00  0.00     0.064 C 
ATOM      6  O   UNL     1      61.972  28.105  61.386  1.00  0.00    -0.545 OA
ATOM      7  O   UNL     1      63.961  29.225  61.220  1.00  0.00    -0.545 OA
ENDBRANCH   4   5
ENDBRANCH   2   3
ENDBRANCH   1   2
BRANCH   1   8
ATOM      8  C   UNL     1      61.771  35.285  60.576  1.00  0.00     0.000 C 
BRANCH   8   9
ATOM      9  C   UNL     1      62.965  35.938  61.289  1.00  0.00    -0.000 C 
BRANCH   9  10
ATOM     10  C   UNL     1      64.188  35.011  61.363  1.00  0.00    -0.003 C 
ATOM     11  C   UNL     1      65.485  35.800  61.210  1.00  0.00     0.004 C 
ENDBRANCH   9  10
ENDBRANCH   8   9
ENDBRANCH   1   8
TORSDOF 6
ENDMDL
MODEL 5
REMARK VINA RESULT:    -3.495     11.750     12.486
REMARK INTER + INTRA:          -5.082
REMARK INTER:                  -4.607
REMARK INTRA:                  -0.475
REMARK UNBOUND:                -0.360
REMARK SMILES CCCCCCC=CC(=O)[O-]
REMARK SMILES IDX 5 1 6 2 7 3 8 4 9 5 10 6 11 7 4 8 3 9 2 10 1 11
REMARK H PARENT
REMARK Flexibility Score: inf
ROOT
ATOM      1  C   UNL     1      60.857  31.550  60.914  1.00  0.00     0.004 C 
ENDROOT
BRANCH   1   2
ATOM      2  C   UNL     1      61.517  30.357  61.622  1.00  0.00     0.027 C 
BRANCH   2   3
ATOM      3  C   UNL     1      62.956  30.179  61.222  1.00  0.00    -0.025 C 
ATOM      4  C   UNL     1      63.472  28.967  60.988  1.00  0.00     0.020 C 
BRANCH   4   5
ATOM      5  C   UNL     1      64.874  28.772  60.587  1.00  0.00     0.064 C 
ATOM      6  O   UNL     1      65.400  27.626  60.594  1.00  0.00    -0.545 OA
ATOM      7  O   UNL     1      65.630  29.867  60.192  1.00  0.00    -0.545 OA
ENDBRANCH   4   5
ENDBRANCH   2   3
ENDBRANCH   1   2
BRANCH   1   8
ATOM      8  C   UNL     1      61.880  32.404  60.144  1.00  0.00     0.000 C 
BRANCH   8   9
ATOM      9  C   UNL     1      61.616  33.911  60.283  1.00  0.00    -0.000 C 
BRANCH   9  10
ATOM     10  C   UNL     1      62.827  34.675  60.839  1.00  0.00    -0.003 C 
ATOM     11  C   UNL     1      64.072  33.792  60.857  1.00  0.00     0.004 C 
ENDBRANCH   9  10
ENDBRANCH   8   9
ENDBRANCH   1   8
TORSDOF 6
ENDMDL
MODEL 6
REMARK VINA RESULT:    -3.448      3.081      5.105
REMARK INTER + INTRA:          -5.018
REMARK INTER:                  -4.405
REMARK INTRA:                  -0.613
REMARK UNBOUND:                -0.360
REMARK SMILES CCCCCCC=CC(=O)[O-]
REMARK SMILES IDX 5 1 6 2 7 3 8 4 9 5 10 6 11 7 4 8 3 9 2 10 1 11
REMARK H PARENT
REMARK Flexibility Score: inf
ROOT
ATOM      1  C   UNL     1      58.492  29.249  50.165  1.00  0.00     0.004 C 
ENDROOT
BRANCH   1   2
ATOM      2  C   UNL     1      57.522  28.841  51.285  1.00  0.00     0.027 C 
BRANCH   2   3
ATOM      3  C   UNL     1      56.178  28.425  50.755  1.00  0.00    -0.025 C 
ATOM      4  C   UNL     1      55.879  27.139  50.536  1.00  0.00     0.020 C 
BRANCH   4   5
ATOM      5  C   UNL     1      54.568  26.710  50.027  1.00  0.00     0.064 C 
ATOM      6  O   UNL     1      54.380  25.529  49.625  1.00  0.00    -0.545 OA
ATOM      7  O   UNL     1      53.519  27.618  49.990  1.00  0.00    -0.545 OA
ENDBRANCH   4   5
ENDBRANCH   2   3
ENDBRANCH   1   2
BRANCH   1   8
ATOM      8  C   UNL     1      59.848  28.534  50.287  1.00  0.00     0.000 C 
BRANCH   8   9
ATOM      9  C   UNL     1      59.832  27.127  49.669  1.00  0.00    -0.000 C 
BRANCH   9  10
ATOM     10  C   UNL     1      60.179  26.030  50.687  1.00  0.00    -0.003 C 
ATOM     11  C   UNL     1      58.948  25.200  51.040  1.00  0.00     0.004 C 
ENDBRANCH   9  10
ENDBRANCH   8   9
ENDBRANCH   1   8
TORSDOF 6
ENDMDL
MODEL 7
REMARK VINA RESULT:    -3.393     12.678     13.636
REMARK INTER + INTRA:          -4.944
REMARK INTER:                  -4.428
REMARK INTRA:                  -0.516
REMARK UNBOUND:                -0.360
REMARK SMILES CCCCCCC=CC(=O)[O-]
REMARK SMILES IDX 5 1 6 2 7 3 8 4 9 5 10 6 11 7 4 8 3 9 2 10 1 11
REMARK H PARENT
REMARK Flexibility Score: inf
ROOT
ATOM      1  C   UNL     1      60.826  35.468  59.975  1.00  0.00     0.004 C 
ENDROOT
BRANCH   1   2
ATOM      2  C   UNL     1      61.800  34.371  59.519  1.00  0.00     0.027 C 
BRANCH   2   3
ATOM      3  C   UNL     1      61.896  33.243  60.509  1.00  0.00    -0.025 C 
ATOM      4  C   UNL     1      61.452  32.016  60.216  1.00  0.00     0.020 C 
BRANCH   4   5
ATOM      5  C   UNL     1      61.545  30.896  61.167  1.00  0.00     0.064 C 
ATOM      6  O   UNL     1      60.623  30.666  61.995  1.00  0.00    -0.545 OA
ATOM      7  O   UNL     1      62.667  30.078  61.150  1.00  0.00    -0.545 OA
ENDBRANCH   4   5
ENDBRANCH   2   3
ENDBRANCH   1   2
BRANCH   1   8
ATOM      8  C   UNL     1      61.480  36.446  60.967  1.00  0.00     0.000 C 
BRANCH   8   9
ATOM      9  C   UNL     1      62.916  36.820  60.568  1.00  0.00    -0.000 C 
BRANCH   9  10
ATOM     10  C   UNL     1      63.900  36.729  61.744  1.00  0.00    -0.003 C 
ATOM     11  C   UNL     1      64.685  35.421  61.703  1.00  0.00     0.004 C 
ENDBRANCH   9  10
ENDBRANCH   8   9
ENDBRANCH   1   8
TORSDOF 6
ENDMDL
MODEL 8
REMARK VINA RESULT:    -3.380     11.648     12.410
REMARK INTER + INTRA:          -4.926
REMARK INTER:                  -4.665
REMARK INTRA:                  -0.261
REMARK UNBOUND:                -0.360
REMARK SMILES CCCCCCC=CC(=O)[O-]
REMARK SMILES IDX 5 1 6 2 7 3 8 4 9 5 10 6 11 7 4 8 3 9 2 10 1 11
REMARK H PARENT
REMARK Flexibility Score: inf
ROOT
ATOM      1  C   UNL     1      61.130  31.689  60.317  1.00  0.00     0.004 C 
ENDROOT
BRANCH   1   2
ATOM      2  C   UNL     1      61.004  30.818  61.577  1.00  0.00     0.027 C 
BRANCH   2   3
ATOM      3  C   UNL     1      62.048  29.737  61.633  1.00  0.00    -0.025 C 
ATOM      4  C   UNL     1      61.944  28.626  60.895  1.00  0.00     0.020 C 
BRANCH   4   5
ATOM      5  C   UNL     1      62.959  27.561  60.928  1.00  0.00     0.064 C 
ATOM      6  O   UNL     1      62.639  26.365  61.166  1.00  0.00    -0.545 OA
ATOM      7  O   UNL     1      64.289  27.877  60.689  1.00  0.00    -0.545 OA
ENDBRANCH   4   5
ENDBRANCH   2   3
ENDBRANCH   1   2
BRANCH   1   8
ATOM      8  C   UNL     1      62.237  32.749  60.456  1.00  0.00     0.000 C 
BRANCH   8   9
ATOM      9  C   UNL     1      61.684  34.183  60.472  1.00  0.00    -0.000 C 
BRANCH   9  10
ATOM     10  C   UNL     1      62.761  35.229  60.794  1.00  0.00    -0.003 C 
ATOM     11  C   UNL     1      64.060  34.561  61.237  1.00  0.00     0.004 C 
ENDBRANCH   9  10
ENDBRANCH   8   9
ENDBRANCH   1   8
TORSDOF 6
ENDMDL
MODEL 9
REMARK VINA RESULT:    -3.352     12.568     13.345
REMARK INTER + INTRA:          -4.889
REMARK INTER:                  -4.380
REMARK INTRA:                  -0.508
REMARK UNBOUND:                -0.360
REMARK SMILES CCCCCCC=CC(=O)[O-]
REMARK SMILES IDX 5 1 6 2 7 3 8 4 9 5 10 6 11 7 4 8 3 9 2 10 1 11
REMARK H PARENT
REMARK Flexibility Score: inf
ROOT
ATOM      1  C   UNL     1      64.460  34.337  60.736  1.00  0.00     0.004 C 
ENDROOT
BRANCH   1   2
ATOM      2  C   UNL     1      64.265  33.089  59.861  1.00  0.00     0.027 C 
BRANCH   2   3
ATOM      3  C   UNL     1      63.611  31.961  60.610  1.00  0.00    -0.025 C 
ATOM      4  C   UNL     1      62.281  31.847  60.681  1.00  0.00     0.020 C 
BRANCH   4   5
ATOM      5  C   UNL     1      61.621  30.746  61.401  1.00  0.00     0.064 C 
ATOM      6  O   UNL     1      62.226  29.666  61.635  1.00  0.00    -0.545 OA
ATOM      7  O   UNL     1      60.310  30.902  61.832  1.00  0.00    -0.545 OA
ENDBRANCH   4   5
ENDBRANCH   2   3
ENDBRANCH   1   2
BRANCH   1   8
ATOM      8  C   UNL     1      63.710  35.558  60.176  1.00  0.00     0.000 C 
BRANCH   8   9
ATOM      9  C   UNL     1      62.914  36.308  61.255  1.00  0.00    -0.000 C 
BRANCH   9  10
ATOM     10  C   UNL     1      61.442  36.515  60.868  1.00  0.00    -0.003 C 
ATOM     11  C   UNL     1      60.817  35.213  60.372  1.00  0.00     0.004 C 
ENDBRANCH   9  10
ENDBRANCH   8   9
ENDBRANCH   1   8
TORSDOF 6
ENDMDL
