MODEL 1
REMARK VINA RESULT:    55.041      0.000      0.000
REMARK INTER + INTRA:          64.565
REMARK INTER:                  63.085
REMARK INTRA:                   1.480
REMARK UNBOUND:                 1.480
REMARK SMILES C=C(C)[C@H]1CC[C@@]2(C(=O)[O-])CC[C@@]3(C)[C@@H](CC[C@H]4[C@@]5(C)CC[C@H](O)C(C)(C)[C@H]5CC[C@@]43C)[C@H]12
REMARK SMILES IDX 7 1 6 2 33 3 11 4 5 5 15 6 4 7 12 8 16 9 13 10 17 11 31 12
REMARK SMILES IDX 14 13 18 14 30 15 32 16 19 17 29 18 21 19 20 20 28 21 22 22
REMARK SMILES IDX 25 23 23 24 26 25 27 26 8 27 9 28 10 29 2 30 3 31 1 32 24 33
REMARK H PARENT 24 34
REMARK Flexibility Score: inf
ROOT
ATOM      1  C   UNL     1      -5.241  36.886   1.330  1.00  0.00     0.014 C 
ATOM      2  C   UNL     1      -3.876  36.477   1.883  1.00  0.00     0.014 C 
ATOM      3  C   UNL     1      -5.899  35.513   1.092  1.00  0.00     0.012 C 
ATOM      4  C   UNL     1      -5.195  37.625  -0.024  1.00  0.00     0.014 C 
ATOM      5  C   UNL     1      -4.177  35.287   2.810  1.00  0.00     0.009 C 
ATOM      6  C   UNL     1      -7.385  35.683   0.687  1.00  0.00     0.000 C 
ATOM      7  C   UNL     1      -5.516  34.674   2.328  1.00  0.00     0.018 C 
ATOM      8  C   UNL     1      -6.627  37.829  -0.597  1.00  0.00     0.008 C 
ATOM      9  C   UNL     1      -8.175  34.358   0.651  1.00  0.00     0.005 C 
ATOM     10  C   UNL     1      -7.515  36.511  -0.668  1.00  0.00    -0.024 C 
ATOM     11  C   UNL     1      -9.669  34.571   0.329  1.00  0.00     0.005 C 
ATOM     12  C   UNL     1      -9.090  36.823  -0.878  1.00  0.00    -0.024 C 
ATOM     13  C   UNL     1      -6.915  35.706  -1.878  1.00  0.00     0.012 C 
ATOM     14  C   UNL     1      -9.868  35.427  -0.954  1.00  0.00     0.002 C 
ATOM     15  C   UNL     1      -9.391  37.630  -2.199  1.00  0.00     0.008 C 
ATOM     16  C   UNL     1      -9.604  37.699   0.343  1.00  0.00     0.012 C 
ATOM     17  C   UNL     1     -11.331  35.471  -1.590  1.00  0.00    -0.026 C 
ATOM     18  C   UNL     1      -9.878  36.766  -3.367  1.00  0.00     0.005 C 
ATOM     19  C   UNL     1     -12.298  36.281  -0.683  1.00  0.00     0.010 C 
ATOM     20  C   UNL     1     -11.871  34.009  -1.664  1.00  0.00     0.012 C 
ATOM     21  C   UNL     1     -11.250  36.058  -3.086  1.00  0.00     0.003 C 
ATOM     22  C   UNL     1     -13.634  36.585  -1.336  1.00  0.00     0.033 C 
ATOM     23  C   UNL     1     -12.570  36.783  -3.663  1.00  0.00    -0.006 C 
ATOM     24  C   UNL     1     -13.405  37.488  -2.549  1.00  0.00     0.120 C 
ATOM     25  C   UNL     1     -13.465  35.748  -4.410  1.00  0.00     0.014 C 
ATOM     26  C   UNL     1     -12.241  37.870  -4.724  1.00  0.00     0.014 C 
ENDROOT
BRANCH   1  27
ATOM     27  C   UNL     1      -5.919  37.776   2.382  1.00  0.00     0.048 C 
ATOM     28  O   UNL     1      -5.282  38.125   3.411  1.00  0.00    -0.550 OA
ATOM     29  O   UNL     1      -7.263  38.125   2.289  1.00  0.00    -0.550 OA
ENDBRANCH   1  27
BRANCH   7  30
ATOM     30  C   UNL     1      -5.375  33.181   2.034  1.00  0.00    -0.077 C 
ATOM     31  C   UNL     1      -6.521  32.377   1.473  1.00  0.00     0.039 C 
ATOM     32  C   UNL     1      -4.200  32.564   2.237  1.00  0.00     0.008 C 
ENDBRANCH   7  30
BRANCH  24  33
ATOM     33  O   UNL     1     -14.649  37.910  -3.052  1.00  0.00    -0.393 OA
ATOM     34  H   UNL     1     -15.192  37.095  -3.215  1.00  0.00     0.210 HD
ENDBRANCH  24  33
TORSDOF 3
ENDMDL
