MODEL 1
REMARK VINA RESULT:     1.637      0.000      0.000
REMARK INTER + INTRA:           2.052
REMARK INTER:                   4.126
REMARK INTRA:                  -2.074
REMARK UNBOUND:                -2.074
REMARK SMILES CCCCCCCCCCCCCCCCCCCCCCCCCCCC(=O)[O-]
REMARK SMILES IDX 15 1 16 2 17 3 18 4 19 5 20 6 21 7 22 8 23 9 24 10 25 11
REMARK SMILES IDX 26 12 27 13 28 14 29 15 30 16 14 17 13 18 12 19 11 20 10 21
REMARK SMILES IDX 9 22 8 23 7 24 6 25 5 26 4 27 3 28 2 29 1 30
REMARK H PARENT
REMARK Flexibility Score: inf
ROOT
ATOM      1  C   UNL     1      27.999  18.175  60.429  1.00  0.00     0.000 C 
ENDROOT
BRANCH   1   2
ATOM      2  C   UNL     1      27.202  17.596  59.246  1.00  0.00     0.000 C 
BRANCH   2   3
ATOM      3  C   UNL     1      26.980  18.628  58.121  1.00  0.00     0.000 C 
BRANCH   3   4
ATOM      4  C   UNL     1      25.497  18.900  57.811  1.00  0.00     0.000 C 
BRANCH   4   5
ATOM      5  C   UNL     1      25.091  18.462  56.395  1.00  0.00     0.000 C 
BRANCH   5   6
ATOM      6  C   UNL     1      23.570  18.316  56.236  1.00  0.00     0.000 C 
BRANCH   6   7
ATOM      7  C   UNL     1      23.119  18.402  54.768  1.00  0.00     0.000 C 
BRANCH   7   8
ATOM      8  C   UNL     1      22.876  19.852  54.316  1.00  0.00     0.000 C 
BRANCH   8   9
ATOM      9  C   UNL     1      23.870  20.306  53.236  1.00  0.00     0.000 C 
BRANCH   9  10
ATOM     10  C   UNL     1      24.110  21.819  53.311  1.00  0.00     0.000 C 
BRANCH  10  11
ATOM     11  C   UNL     1      25.508  22.125  53.866  1.00  0.00     0.000 C 
BRANCH  11  12
ATOM     12  C   UNL     1      25.636  21.807  55.367  1.00  0.00     0.006 C 
BRANCH  12  13
ATOM     13  C   UNL     1      27.036  22.061  55.950  1.00  0.00     0.053 C 
BRANCH  13  14
ATOM     14  C   UNL     1      28.090  21.259  55.249  1.00  0.00     0.041 C 
ATOM     15  O   UNL     1      29.220  21.763  55.016  1.00  0.00    -0.550 OA
ATOM     16  O   UNL     1      27.832  19.945  54.876  1.00  0.00    -0.550 OA
ENDBRANCH  13  14
ENDBRANCH  12  13
ENDBRANCH  11  12
ENDBRANCH  10  11
ENDBRANCH   9  10
ENDBRANCH   8   9
ENDBRANCH   7   8
ENDBRANCH   6   7
ENDBRANCH   5   6
ENDBRANCH   4   5
ENDBRANCH   3   4
ENDBRANCH   2   3
ENDBRANCH   1   2
BRANCH   1  17
ATOM     17  C   UNL     1      27.621  19.644  60.722  1.00  0.00     0.000 C 
BRANCH  17  18
ATOM     18  C   UNL     1      28.365  20.659  59.837  1.00  0.00     0.000 C 
BRANCH  18  19
ATOM     19  C   UNL     1      27.671  22.031  59.793  1.00  0.00     0.000 C 
BRANCH  19  20
ATOM     20  C   UNL     1      26.297  21.980  59.106  1.00  0.00     0.000 C 
BRANCH  20  21
ATOM     21  C   UNL     1      25.132  22.012  60.111  1.00  0.00     0.000 C 
BRANCH  21  22
ATOM     22  C   UNL     1      23.961  21.115  59.678  1.00  0.00    -0.000 C 
BRANCH  22  23
ATOM     23  C   UNL     1      22.885  20.987  60.771  1.00  0.00    -0.000 C 
BRANCH  23  24
ATOM     24  C   UNL     1      22.997  22.093  61.842  1.00  0.00    -0.000 C 
BRANCH  24  25
ATOM     25  C   UNL     1      23.622  21.616  63.167  1.00  0.00    -0.000 C 
BRANCH  25  26
ATOM     26  C   UNL     1      25.135  21.867  63.302  1.00  0.00    -0.000 C 
BRANCH  26  27
ATOM     27  C   UNL     1      26.023  20.643  63.012  1.00  0.00    -0.000 C 
BRANCH  27  28
ATOM     28  C   UNL     1      26.685  20.072  64.278  1.00  0.00    -0.000 C 
BRANCH  28  29
ATOM     29  C   UNL     1      26.624  18.538  64.334  1.00  0.00    -0.003 C 
ATOM     30  C   UNL     1      25.265  18.018  64.800  1.00  0.00     0.004 C 
ENDBRANCH  28  29
ENDBRANCH  27  28
ENDBRANCH  26  27
ENDBRANCH  25  26
ENDBRANCH  24  25
ENDBRANCH  23  24
ENDBRANCH  22  23
ENDBRANCH  21  22
ENDBRANCH  20  21
ENDBRANCH  19  20
ENDBRANCH  18  19
ENDBRANCH  17  18
ENDBRANCH   1  17
TORSDOF 26
ENDMDL
MODEL 2
REMARK VINA RESULT:     2.061      2.969      7.439
REMARK INTER + INTRA:           3.119
REMARK INTER:                   4.514
REMARK INTRA:                  -1.396
REMARK UNBOUND:                -2.074
REMARK SMILES CCCCCCCCCCCCCCCCCCCCCCCCCCCC(=O)[O-]
REMARK SMILES IDX 15 1 16 2 17 3 18 4 19 5 20 6 21 7 22 8 23 9 24 10 25 11
REMARK SMILES IDX 26 12 27 13 28 14 29 15 30 16 14 17 13 18 12 19 11 20 10 21
REMARK SMILES IDX 9 22 8 23 7 24 6 25 5 26 4 27 3 28 2 29 1 30
REMARK H PARENT
REMARK Flexibility Score: inf
ROOT
ATOM      1  C   UNL     1      25.509  18.234  56.251  1.00  0.00     0.000 C 
ENDROOT
BRANCH   1   2
ATOM      2  C   UNL     1      24.272  17.941  57.120  1.00  0.00     0.000 C 
BRANCH   2   3
ATOM      3  C   UNL     1      23.925  19.110  58.065  1.00  0.00     0.000 C 
BRANCH   3   4
ATOM      4  C   UNL     1      22.876  20.081  57.493  1.00  0.00     0.000 C 
BRANCH   4   5
ATOM      5  C   UNL     1      23.140  21.544  57.884  1.00  0.00     0.000 C 
BRANCH   5   6
ATOM      6  C   UNL     1      22.989  21.787  59.394  1.00  0.00     0.000 C 
BRANCH   6   7
ATOM      7  C   UNL     1      24.339  22.031  60.089  1.00  0.00     0.000 C 
BRANCH   7   8
ATOM      8  C   UNL     1      25.513  22.051  59.096  1.00  0.00     0.000 C 
BRANCH   8   9
ATOM      9  C   UNL     1      26.087  20.649  58.835  1.00  0.00     0.000 C 
BRANCH   9  10
ATOM     10  C   UNL     1      27.495  20.512  59.427  1.00  0.00     0.000 C 
BRANCH  10  11
ATOM     11  C   UNL     1      27.567  21.149  60.822  1.00  0.00     0.000 C 
BRANCH  11  12
ATOM     12  C   UNL     1      26.875  20.298  61.902  1.00  0.00     0.006 C 
BRANCH  12  13
ATOM     13  C   UNL     1      26.638  21.034  63.231  1.00  0.00     0.053 C 
BRANCH  13  14
ATOM     14  C   UNL     1      25.278  20.754  63.793  1.00  0.00     0.041 C 
ATOM     15  O   UNL     1      24.346  21.588  63.644  1.00  0.00    -0.550 OA
ATOM     16  O   UNL     1      25.032  19.560  64.460  1.00  0.00    -0.550 OA
ENDBRANCH  13  14
ENDBRANCH  12  13
ENDBRANCH  11  12
ENDBRANCH  10  11
ENDBRANCH   9  10
ENDBRANCH   8   9
ENDBRANCH   7   8
ENDBRANCH   6   7
ENDBRANCH   5   6
ENDBRANCH   4   5
ENDBRANCH   3   4
ENDBRANCH   2   3
ENDBRANCH   1   2
BRANCH   1  17
ATOM     17  C   UNL     1      25.340  17.719  54.805  1.00  0.00     0.000 C 
BRANCH  17  18
ATOM     18  C   UNL     1      23.917  17.899  54.250  1.00  0.00     0.000 C 
BRANCH  18  19
ATOM     19  C   UNL     1      23.893  18.640  52.902  1.00  0.00     0.000 C 
BRANCH  19  20
ATOM     20  C   UNL     1      22.875  19.792  52.875  1.00  0.00     0.000 C 
BRANCH  20  21
ATOM     21  C   UNL     1      23.509  21.150  53.227  1.00  0.00     0.000 C 
BRANCH  21  22
ATOM     22  C   UNL     1      23.195  21.586  54.667  1.00  0.00    -0.000 C 
BRANCH  22  23
ATOM     23  C   UNL     1      24.467  21.905  55.473  1.00  0.00    -0.000 C 
BRANCH  23  24
ATOM     24  C   UNL     1      25.699  22.124  54.570  1.00  0.00    -0.000 C 
BRANCH  24  25
ATOM     25  C   UNL     1      26.966  21.394  55.056  1.00  0.00    -0.000 C 
BRANCH  25  26
ATOM     26  C   UNL     1      27.757  22.124  56.157  1.00  0.00    -0.000 C 
BRANCH  26  27
ATOM     27  C   UNL     1      29.253  21.765  56.226  1.00  0.00    -0.000 C 
BRANCH  27  28
ATOM     28  C   UNL     1      30.013  22.123  54.937  1.00  0.00    -0.000 C 
BRANCH  28  29
ATOM     29  C   UNL     1      30.786  20.928  54.358  1.00  0.00    -0.003 C 
ATOM     30  C   UNL     1      32.183  20.781  54.959  1.00  0.00     0.004 C 
ENDBRANCH  28  29
ENDBRANCH  27  28
ENDBRANCH  26  27
ENDBRANCH  25  26
ENDBRANCH  24  25
ENDBRANCH  23  24
ENDBRANCH  22  23
ENDBRANCH  21  22
ENDBRANCH  20  21
ENDBRANCH  19  20
ENDBRANCH  18  19
ENDBRANCH  17  18
ENDBRANCH   1  17
TORSDOF 26
ENDMDL
MODEL 3
REMARK VINA RESULT:     2.681      2.312      7.713
REMARK INTER + INTRA:           4.681
REMARK INTER:                   0.417
REMARK INTRA:                   4.264
REMARK UNBOUND:                -2.074
REMARK SMILES CCCCCCCCCCCCCCCCCCCCCCCCCCCC(=O)[O-]
REMARK SMILES IDX 15 1 16 2 17 3 18 4 19 5 20 6 21 7 22 8 23 9 24 10 25 11
REMARK SMILES IDX 26 12 27 13 28 14 29 15 30 16 14 17 13 18 12 19 11 20 10 21
REMARK SMILES IDX 9 22 8 23 7 24 6 25 5 26 4 27 3 28 2 29 1 30
REMARK H PARENT
REMARK Flexibility Score: inf
ROOT
ATOM      1  C   UNL     1      24.140  20.121  57.529  1.00  0.00     0.000 C 
ENDROOT
BRANCH   1   2
ATOM      2  C   UNL     1      23.426  21.440  57.872  1.00  0.00     0.000 C 
BRANCH   2   3
ATOM      3  C   UNL     1      22.922  21.478  59.330  1.00  0.00     0.000 C 
BRANCH   3   4
ATOM      4  C   UNL     1      23.960  22.015  60.332  1.00  0.00     0.000 C 
BRANCH   4   5
ATOM      5  C   UNL     1      24.202  21.060  61.512  1.00  0.00     0.000 C 
BRANCH   5   6
ATOM      6  C   UNL     1      23.217  21.290  62.668  1.00  0.00     0.000 C 
BRANCH   6   7
ATOM      7  C   UNL     1      23.925  21.667  63.980  1.00  0.00     0.000 C 
BRANCH   7   8
ATOM      8  C   UNL     1      25.389  21.199  64.009  1.00  0.00     0.000 C 
BRANCH   8   9
ATOM      9  C   UNL     1      25.548  19.735  63.570  1.00  0.00     0.000 C 
BRANCH   9  10
ATOM     10  C   UNL     1      26.785  19.558  62.681  1.00  0.00     0.000 C 
BRANCH  10  11
ATOM     11  C   UNL     1      27.121  20.864  61.945  1.00  0.00     0.000 C 
BRANCH  11  12
ATOM     12  C   UNL     1      27.831  20.625  60.600  1.00  0.00     0.006 C 
BRANCH  12  13
ATOM     13  C   UNL     1      27.643  21.756  59.577  1.00  0.00     0.053 C 
BRANCH  13  14
ATOM     14  C   UNL     1      27.182  21.240  58.248  1.00  0.00     0.041 C 
ATOM     15  O   UNL     1      26.871  22.044  57.329  1.00  0.00    -0.550 OA
ATOM     16  O   UNL     1      27.121  19.871  58.015  1.00  0.00    -0.550 OA
ENDBRANCH  13  14
ENDBRANCH  12  13
ENDBRANCH  11  12
ENDBRANCH  10  11
ENDBRANCH   9  10
ENDBRANCH   8   9
ENDBRANCH   7   8
ENDBRANCH   6   7
ENDBRANCH   5   6
ENDBRANCH   4   5
ENDBRANCH   3   4
ENDBRANCH   2   3
ENDBRANCH   1   2
BRANCH   1  17
ATOM     17  C   UNL     1      23.930  19.710  56.055  1.00  0.00     0.000 C 
BRANCH  17  18
ATOM     18  C   UNL     1      22.985  20.647  55.284  1.00  0.00     0.000 C 
BRANCH  18  19
ATOM     19  C   UNL     1      23.146  20.533  53.759  1.00  0.00     0.000 C 
BRANCH  19  20
ATOM     20  C   UNL     1      24.614  20.396  53.325  1.00  0.00     0.000 C 
BRANCH  20  21
ATOM     21  C   UNL     1      25.518  19.866  54.452  1.00  0.00     0.000 C 
BRANCH  21  22
ATOM     22  C   UNL     1      26.230  20.997  55.212  1.00  0.00    -0.000 C 
BRANCH  22  23
ATOM     23  C   UNL     1      26.702  22.125  54.276  1.00  0.00    -0.000 C 
BRANCH  23  24
ATOM     24  C   UNL     1      28.196  22.000  53.909  1.00  0.00    -0.000 C 
BRANCH  24  25
ATOM     25  C   UNL     1      29.042  21.283  54.979  1.00  0.00    -0.000 C 
BRANCH  25  26
ATOM     26  C   UNL     1      30.478  20.932  54.547  1.00  0.00    -0.000 C 
BRANCH  26  27
ATOM     27  C   UNL     1      31.528  22.019  54.842  1.00  0.00    -0.000 C 
BRANCH  27  28
ATOM     28  C   UNL     1      32.656  21.525  55.764  1.00  0.00    -0.000 C 
BRANCH  28  29
ATOM     29  C   UNL     1      32.547  22.097  57.186  1.00  0.00    -0.003 C 
ATOM     30  C   UNL     1      33.889  22.124  57.916  1.00  0.00     0.004 C 
ENDBRANCH  28  29
ENDBRANCH  27  28
ENDBRANCH  26  27
ENDBRANCH  25  26
ENDBRANCH  24  25
ENDBRANCH  23  24
ENDBRANCH  22  23
ENDBRANCH  21  22
ENDBRANCH  20  21
ENDBRANCH  19  20
ENDBRANCH  18  19
ENDBRANCH  17  18
ENDBRANCH   1  17
TORSDOF 26
ENDMDL
MODEL 4
REMARK VINA RESULT:     3.338      2.828      7.705
REMARK INTER + INTRA:           6.338
REMARK INTER:                   5.199
REMARK INTRA:                   1.139
REMARK UNBOUND:                -2.074
REMARK SMILES CCCCCCCCCCCCCCCCCCCCCCCCCCCC(=O)[O-]
REMARK SMILES IDX 15 1 16 2 17 3 18 4 19 5 20 6 21 7 22 8 23 9 24 10 25 11
REMARK SMILES IDX 26 12 27 13 28 14 29 15 30 16 14 17 13 18 12 19 11 20 10 21
REMARK SMILES IDX 9 22 8 23 7 24 6 25 5 26 4 27 3 28 2 29 1 30
REMARK H PARENT
REMARK Flexibility Score: inf
ROOT
ATOM      1  C   UNL     1      28.103  19.474  59.765  1.00  0.00     0.000 C 
ENDROOT
BRANCH   1   2
ATOM      2  C   UNL     1      27.919  21.001  59.852  1.00  0.00     0.000 C 
BRANCH   2   3
ATOM      3  C   UNL     1      26.551  21.399  60.443  1.00  0.00     0.000 C 
BRANCH   3   4
ATOM      4  C   UNL     1      25.631  22.125  59.444  1.00  0.00     0.000 C 
BRANCH   4   5
ATOM      5  C   UNL     1      24.337  21.349  59.150  1.00  0.00     0.000 C 
BRANCH   5   6
ATOM      6  C   UNL     1      23.306  21.473  60.282  1.00  0.00     0.000 C 
BRANCH   6   7
ATOM      7  C   UNL     1      23.933  21.956  61.601  1.00  0.00     0.000 C 
BRANCH   7   8
ATOM      8  C   UNL     1      23.707  20.963  62.753  1.00  0.00     0.000 C 
BRANCH   8   9
ATOM      9  C   UNL     1      24.477  21.352  64.025  1.00  0.00     0.000 C 
BRANCH   9  10
ATOM     10  C   UNL     1      25.756  22.124  63.679  1.00  0.00     0.000 C 
BRANCH  10  11
ATOM     11  C   UNL     1      26.993  21.226  63.823  1.00  0.00     0.000 C 
BRANCH  11  12
ATOM     12  C   UNL     1      26.666  19.730  63.665  1.00  0.00     0.006 C 
BRANCH  12  13
ATOM     13  C   UNL     1      25.752  19.163  64.764  1.00  0.00     0.053 C 
BRANCH  13  14
ATOM     14  C   UNL     1      25.295  17.771  64.452  1.00  0.00     0.041 C 
ATOM     15  O   UNL     1      25.125  16.936  65.379  1.00  0.00    -0.550 OA
ATOM     16  O   UNL     1      25.032  17.403  63.137  1.00  0.00    -0.550 OA
ENDBRANCH  13  14
ENDBRANCH  12  13
ENDBRANCH  11  12
ENDBRANCH  10  11
ENDBRANCH   9  10
ENDBRANCH   8   9
ENDBRANCH   7   8
ENDBRANCH   6   7
ENDBRANCH   5   6
ENDBRANCH   4   5
ENDBRANCH   3   4
ENDBRANCH   2   3
ENDBRANCH   1   2
BRANCH   1  17
ATOM     17  C   UNL     1      26.857  18.770  59.184  1.00  0.00     0.000 C 
BRANCH  17  18
ATOM     18  C   UNL     1      26.673  18.993  57.673  1.00  0.00     0.000 C 
BRANCH  18  19
ATOM     19  C   UNL     1      26.957  20.443  57.247  1.00  0.00     0.000 C 
BRANCH  19  20
ATOM     20  C   UNL     1      26.003  20.937  56.148  1.00  0.00     0.000 C 
BRANCH  20  21
ATOM     21  C   UNL     1      26.732  21.713  55.036  1.00  0.00     0.000 C 
BRANCH  21  22
ATOM     22  C   UNL     1      25.791  22.116  53.890  1.00  0.00    -0.000 C 
BRANCH  22  23
ATOM     23  C   UNL     1      24.308  21.909  54.248  1.00  0.00    -0.000 C 
BRANCH  23  24
ATOM     24  C   UNL     1      23.436  21.624  53.006  1.00  0.00    -0.000 C 
BRANCH  24  25
ATOM     25  C   UNL     1      23.001  20.152  52.875  1.00  0.00    -0.000 C 
BRANCH  25  26
ATOM     26  C   UNL     1      23.757  19.164  53.782  1.00  0.00    -0.000 C 
BRANCH  26  27
ATOM     27  C   UNL     1      22.907  18.001  54.324  1.00  0.00    -0.000 C 
BRANCH  27  28
ATOM     28  C   UNL     1      22.966  17.882  55.857  1.00  0.00    -0.000 C 
BRANCH  28  29
ATOM     29  C   UNL     1      23.174  19.239  56.546  1.00  0.00    -0.003 C 
ATOM     30  C   UNL     1      23.351  19.112  58.058  1.00  0.00     0.004 C 
ENDBRANCH  28  29
ENDBRANCH  27  28
ENDBRANCH  26  27
ENDBRANCH  25  26
ENDBRANCH  24  25
ENDBRANCH  23  24
ENDBRANCH  22  23
ENDBRANCH  21  22
ENDBRANCH  20  21
ENDBRANCH  19  20
ENDBRANCH  18  19
ENDBRANCH  17  18
ENDBRANCH   1  17
TORSDOF 26
ENDMDL
MODEL 5
REMARK VINA RESULT:     3.631      2.674      7.146
REMARK INTER + INTRA:           7.076
REMARK INTER:                   9.716
REMARK INTRA:                  -2.640
REMARK UNBOUND:                -2.074
REMARK SMILES CCCCCCCCCCCCCCCCCCCCCCCCCCCC(=O)[O-]
REMARK SMILES IDX 15 1 16 2 17 3 18 4 19 5 20 6 21 7 22 8 23 9 24 10 25 11
REMARK SMILES IDX 26 12 27 13 28 14 29 15 30 16 14 17 13 18 12 19 11 20 10 21
REMARK SMILES IDX 9 22 8 23 7 24 6 25 5 26 4 27 3 28 2 29 1 30
REMARK H PARENT
REMARK Flexibility Score: inf
ROOT
ATOM      1  C   UNL     1      28.244  17.083  60.102  1.00  0.00     0.000 C 
ENDROOT
BRANCH   1   2
ATOM      2  C   UNL     1      28.555  18.504  60.606  1.00  0.00     0.000 C 
BRANCH   2   3
ATOM      3  C   UNL     1      27.360  19.465  60.438  1.00  0.00     0.000 C 
BRANCH   3   4
ATOM      4  C   UNL     1      27.753  20.859  59.915  1.00  0.00     0.000 C 
BRANCH   4   5
ATOM      5  C   UNL     1      26.552  21.659  59.385  1.00  0.00     0.000 C 
BRANCH   5   6
ATOM      6  C   UNL     1      25.724  20.869  58.360  1.00  0.00     0.000 C 
BRANCH   6   7
ATOM      7  C   UNL     1      24.516  21.665  57.839  1.00  0.00     0.000 C 
BRANCH   7   8
ATOM      8  C   UNL     1      23.334  21.643  58.822  1.00  0.00     0.000 C 
BRANCH   8   9
ATOM      9  C   UNL     1      23.732  22.110  60.231  1.00  0.00     0.000 C 
BRANCH   9  10
ATOM     10  C   UNL     1      23.026  21.275  61.307  1.00  0.00     0.000 C 
BRANCH  10  11
ATOM     11  C   UNL     1      23.322  21.827  62.709  1.00  0.00     0.000 C 
BRANCH  11  12
ATOM     12  C   UNL     1      24.731  21.461  63.209  1.00  0.00     0.006 C 
BRANCH  12  13
ATOM     13  C   UNL     1      24.751  20.406  64.327  1.00  0.00     0.053 C 
BRANCH  13  14
ATOM     14  C   UNL     1      25.704  19.289  64.028  1.00  0.00     0.041 C 
ATOM     15  O   UNL     1      26.913  19.379  64.369  1.00  0.00    -0.550 OA
ATOM     16  O   UNL     1      25.251  18.137  63.396  1.00  0.00    -0.550 OA
ENDBRANCH  13  14
ENDBRANCH  12  13
ENDBRANCH  11  12
ENDBRANCH  10  11
ENDBRANCH   9  10
ENDBRANCH   8   9
ENDBRANCH   7   8
ENDBRANCH   6   7
ENDBRANCH   5   6
ENDBRANCH   4   5
ENDBRANCH   3   4
ENDBRANCH   2   3
ENDBRANCH   1   2
BRANCH   1  17
ATOM     17  C   UNL     1      28.139  17.020  58.563  1.00  0.00     0.000 C 
BRANCH  17  18
ATOM     18  C   UNL     1      26.797  16.461  58.060  1.00  0.00     0.000 C 
BRANCH  18  19
ATOM     19  C   UNL     1      26.012  17.474  57.209  1.00  0.00     0.000 C 
BRANCH  19  20
ATOM     20  C   UNL     1      24.586  17.000  56.886  1.00  0.00     0.000 C 
BRANCH  20  21
ATOM     21  C   UNL     1      24.056  17.579  55.562  1.00  0.00     0.000 C 
BRANCH  21  22
ATOM     22  C   UNL     1      23.862  19.102  55.626  1.00  0.00    -0.000 C 
BRANCH  22  23
ATOM     23  C   UNL     1      22.875  19.613  54.560  1.00  0.00    -0.000 C 
BRANCH  23  24
ATOM     24  C   UNL     1      22.993  21.134  54.327  1.00  0.00    -0.000 C 
BRANCH  24  25
ATOM     25  C   UNL     1      23.632  21.510  52.976  1.00  0.00    -0.000 C 
BRANCH  25  26
ATOM     26  C   UNL     1      25.130  21.864  53.039  1.00  0.00    -0.000 C 
BRANCH  26  27
ATOM     27  C   UNL     1      25.675  22.125  54.455  1.00  0.00    -0.000 C 
BRANCH  27  28
ATOM     28  C   UNL     1      27.211  22.085  54.520  1.00  0.00    -0.000 C 
BRANCH  28  29
ATOM     29  C   UNL     1      27.730  21.255  55.703  1.00  0.00    -0.003 C 
ATOM     30  C   UNL     1      27.193  19.824  55.702  1.00  0.00     0.004 C 
ENDBRANCH  28  29
ENDBRANCH  27  28
ENDBRANCH  26  27
ENDBRANCH  25  26
ENDBRANCH  24  25
ENDBRANCH  23  24
ENDBRANCH  22  23
ENDBRANCH  21  22
ENDBRANCH  20  21
ENDBRANCH  19  20
ENDBRANCH  18  19
ENDBRANCH  17  18
ENDBRANCH   1  17
TORSDOF 26
ENDMDL
MODEL 6
REMARK VINA RESULT:     3.669      0.961      3.212
REMARK INTER + INTRA:           7.172
REMARK INTER:                   9.611
REMARK INTRA:                  -2.439
REMARK UNBOUND:                -2.074
REMARK SMILES CCCCCCCCCCCCCCCCCCCCCCCCCCCC(=O)[O-]
REMARK SMILES IDX 15 1 16 2 17 3 18 4 19 5 20 6 21 7 22 8 23 9 24 10 25 11
REMARK SMILES IDX 26 12 27 13 28 14 29 15 30 16 14 17 13 18 12 19 11 20 10 21
REMARK SMILES IDX 9 22 8 23 7 24 6 25 5 26 4 27 3 28 2 29 1 30
REMARK H PARENT
REMARK Flexibility Score: inf
ROOT
ATOM      1  C   UNL     1      27.899  17.306  60.394  1.00  0.00     0.000 C 
ENDROOT
BRANCH   1   2
ATOM      2  C   UNL     1      27.626  16.973  58.916  1.00  0.00     0.000 C 
BRANCH   2   3
ATOM      3  C   UNL     1      27.386  18.235  58.060  1.00  0.00     0.000 C 
BRANCH   3   4
ATOM      4  C   UNL     1      25.911  18.454  57.677  1.00  0.00     0.000 C 
BRANCH   4   5
ATOM      5  C   UNL     1      25.550  17.841  56.314  1.00  0.00     0.000 C 
BRANCH   5   6
ATOM      6  C   UNL     1      24.034  17.802  56.069  1.00  0.00     0.000 C 
BRANCH   6   7
ATOM      7  C   UNL     1      23.669  18.029  54.593  1.00  0.00     0.000 C 
BRANCH   7   8
ATOM      8  C   UNL     1      22.876  19.329  54.380  1.00  0.00     0.000 C 
BRANCH   8   9
ATOM      9  C   UNL     1      23.159  19.975  53.015  1.00  0.00     0.000 C 
BRANCH   9  10
ATOM     10  C   UNL     1      22.910  21.488  53.060  1.00  0.00     0.000 C 
BRANCH  10  11
ATOM     11  C   UNL     1      23.507  22.103  54.333  1.00  0.00     0.000 C 
BRANCH  11  12
ATOM     12  C   UNL     1      25.046  22.124  54.322  1.00  0.00     0.006 C 
BRANCH  12  13
ATOM     13  C   UNL     1      25.696  21.473  55.554  1.00  0.00     0.053 C 
BRANCH  13  14
ATOM     14  C   UNL     1      27.122  21.091  55.300  1.00  0.00     0.041 C 
ATOM     15  O   UNL     1      27.396  19.991  54.750  1.00  0.00    -0.550 OA
ATOM     16  O   UNL     1      28.149  21.961  55.647  1.00  0.00    -0.550 OA
ENDBRANCH  13  14
ENDBRANCH  12  13
ENDBRANCH  11  12
ENDBRANCH  10  11
ENDBRANCH   9  10
ENDBRANCH   8   9
ENDBRANCH   7   8
ENDBRANCH   6   7
ENDBRANCH   5   6
ENDBRANCH   4   5
ENDBRANCH   3   4
ENDBRANCH   2   3
ENDBRANCH   1   2
BRANCH   1  17
ATOM     17  C   UNL     1      27.661  18.799  60.709  1.00  0.00     0.000 C 
BRANCH  17  18
ATOM     18  C   UNL     1      27.813  19.146  62.200  1.00  0.00     0.000 C 
BRANCH  18  19
ATOM     19  C   UNL     1      27.047  18.177  63.117  1.00  0.00     0.000 C 
BRANCH  19  20
ATOM     20  C   UNL     1      25.982  18.883  63.970  1.00  0.00     0.000 C 
BRANCH  20  21
ATOM     21  C   UNL     1      25.792  20.359  63.577  1.00  0.00     0.000 C 
BRANCH  21  22
ATOM     22  C   UNL     1      24.478  20.944  64.120  1.00  0.00    -0.000 C 
BRANCH  22  23
ATOM     23  C   UNL     1      23.918  22.061  63.221  1.00  0.00    -0.000 C 
BRANCH  23  24
ATOM     24  C   UNL     1      24.548  22.055  61.811  1.00  0.00    -0.000 C 
BRANCH  24  25
ATOM     25  C   UNL     1      23.916  21.028  60.852  1.00  0.00    -0.000 C 
BRANCH  25  26
ATOM     26  C   UNL     1      23.675  21.537  59.418  1.00  0.00    -0.000 C 
BRANCH  26  27
ATOM     27  C   UNL     1      24.933  22.051  58.693  1.00  0.00    -0.000 C 
BRANCH  27  28
ATOM     28  C   UNL     1      26.187  22.025  59.583  1.00  0.00    -0.000 C 
BRANCH  28  29
ATOM     29  C   UNL     1      27.487  22.123  58.772  1.00  0.00    -0.003 C 
ATOM     30  C   UNL     1      28.722  21.741  59.586  1.00  0.00     0.004 C 
ENDBRANCH  28  29
ENDBRANCH  27  28
ENDBRANCH  26  27
ENDBRANCH  25  26
ENDBRANCH  24  25
ENDBRANCH  23  24
ENDBRANCH  22  23
ENDBRANCH  21  22
ENDBRANCH  20  21
ENDBRANCH  19  20
ENDBRANCH  18  19
ENDBRANCH  17  18
ENDBRANCH   1  17
TORSDOF 26
ENDMDL
MODEL 7
REMARK VINA RESULT:     3.917      1.651      3.897
REMARK INTER + INTRA:           7.795
REMARK INTER:                  10.379
REMARK INTRA:                  -2.584
REMARK UNBOUND:                -2.074
REMARK SMILES CCCCCCCCCCCCCCCCCCCCCCCCCCCC(=O)[O-]
REMARK SMILES IDX 15 1 16 2 17 3 18 4 19 5 20 6 21 7 22 8 23 9 24 10 25 11
REMARK SMILES IDX 26 12 27 13 28 14 29 15 30 16 14 17 13 18 12 19 11 20 10 21
REMARK SMILES IDX 9 22 8 23 7 24 6 25 5 26 4 27 3 28 2 29 1 30
REMARK H PARENT
REMARK Flexibility Score: inf
ROOT
ATOM      1  C   UNL     1      28.119  16.263  59.987  1.00  0.00     0.000 C 
ENDROOT
BRANCH   1   2
ATOM      2  C   UNL     1      27.979  17.597  60.743  1.00  0.00     0.000 C 
BRANCH   2   3
ATOM      3  C   UNL     1      28.626  18.776  59.987  1.00  0.00     0.000 C 
BRANCH   3   4
ATOM      4  C   UNL     1      28.089  20.155  60.411  1.00  0.00     0.000 C 
BRANCH   4   5
ATOM      5  C   UNL     1      27.004  20.691  59.463  1.00  0.00     0.000 C 
BRANCH   5   6
ATOM      6  C   UNL     1      27.371  22.054  58.858  1.00  0.00     0.000 C 
BRANCH   6   7
ATOM      7  C   UNL     1      27.087  22.124  57.348  1.00  0.00     0.000 C 
BRANCH   7   8
ATOM      8  C   UNL     1      26.744  20.749  56.753  1.00  0.00     0.000 C 
BRANCH   8   9
ATOM      9  C   UNL     1      27.029  20.671  55.245  1.00  0.00     0.000 C 
BRANCH   9  10
ATOM     10  C   UNL     1      26.823  22.036  54.576  1.00  0.00     0.000 C 
BRANCH  10  11
ATOM     11  C   UNL     1      25.559  22.033  53.704  1.00  0.00     0.000 C 
BRANCH  11  12
ATOM     12  C   UNL     1      24.282  21.728  54.507  1.00  0.00     0.006 C 
BRANCH  12  13
ATOM     13  C   UNL     1      23.226  20.921  53.733  1.00  0.00     0.053 C 
BRANCH  13  14
ATOM     14  C   UNL     1      23.704  19.540  53.405  1.00  0.00     0.041 C 
ATOM     15  O   UNL     1      22.876  18.605  53.238  1.00  0.00    -0.550 OA
ATOM     16  O   UNL     1      25.063  19.289  53.259  1.00  0.00    -0.550 OA
ENDBRANCH  13  14
ENDBRANCH  12  13
ENDBRANCH  11  12
ENDBRANCH  10  11
ENDBRANCH   9  10
ENDBRANCH   8   9
ENDBRANCH   7   8
ENDBRANCH   6   7
ENDBRANCH   5   6
ENDBRANCH   4   5
ENDBRANCH   3   4
ENDBRANCH   2   3
ENDBRANCH   1   2
BRANCH   1  17
ATOM     17  C   UNL     1      27.840  16.417  58.476  1.00  0.00     0.000 C 
BRANCH  17  18
ATOM     18  C   UNL     1      26.342  16.463  58.128  1.00  0.00     0.000 C 
BRANCH  18  19
ATOM     19  C   UNL     1      25.873  17.863  57.701  1.00  0.00     0.000 C 
BRANCH  19  20
ATOM     20  C   UNL     1      25.046  17.844  56.405  1.00  0.00     0.000 C 
BRANCH  20  21
ATOM     21  C   UNL     1      23.537  17.993  56.664  1.00  0.00     0.000 C 
BRANCH  21  22
ATOM     22  C   UNL     1      23.117  19.459  56.857  1.00  0.00    -0.000 C 
BRANCH  22  23
ATOM     23  C   UNL     1      23.067  19.864  58.341  1.00  0.00    -0.000 C 
BRANCH  23  24
ATOM     24  C   UNL     1      23.789  21.201  58.613  1.00  0.00    -0.000 C 
BRANCH  24  25
ATOM     25  C   UNL     1      23.332  21.905  59.905  1.00  0.00    -0.000 C 
BRANCH  25  26
ATOM     26  C   UNL     1      24.438  22.125  60.954  1.00  0.00    -0.000 C 
BRANCH  26  27
ATOM     27  C   UNL     1      24.739  20.904  61.843  1.00  0.00    -0.000 C 
BRANCH  27  28
ATOM     28  C   UNL     1      25.935  21.131  62.784  1.00  0.00    -0.000 C 
BRANCH  28  29
ATOM     29  C   UNL     1      26.302  19.873  63.584  1.00  0.00    -0.003 C 
ATOM     30  C   UNL     1      25.103  19.261  64.307  1.00  0.00     0.004 C 
ENDBRANCH  28  29
ENDBRANCH  27  28
ENDBRANCH  26  27
ENDBRANCH  25  26
ENDBRANCH  24  25
ENDBRANCH  23  24
ENDBRANCH  22  23
ENDBRANCH  21  22
ENDBRANCH  20  21
ENDBRANCH  19  20
ENDBRANCH  18  19
ENDBRANCH  17  18
ENDBRANCH   1  17
TORSDOF 26
ENDMDL
