MODEL 1
REMARK VINA RESULT:    -6.026      0.000      0.000
REMARK INTER + INTRA:          -7.434
REMARK INTER:                  -7.259
REMARK INTRA:                  -0.176
REMARK UNBOUND:                -0.176
REMARK SMILES O=c1c(O)c(-c2ccc(O)c(O)c2)oc2cc(O)cc(O)c12
REMARK SMILES IDX 5 1 3 2 2 3 1 4 22 5 20 6 19 7 17 8 16 9 15 10 14 11 6 12
REMARK SMILES IDX 7 13 8 14 9 15 13 16 11 17 10 18 12 20 4 22 21 24 18 26
REMARK H PARENT 10 19 12 21 4 23 21 25 18 27
REMARK Flexibility Score: inf
ROOT
ATOM      1  C   UNL     1      22.257  49.213  39.365  1.00  0.00     0.180 A 
ATOM      2  C   UNL     1      21.690  49.671  38.163  1.00  0.00     0.208 A 
ATOM      3  C   UNL     1      21.974  48.984  36.972  1.00  0.00     0.238 A 
ATOM      4  O   UNL     1      21.406  49.354  35.912  1.00  0.00    -0.285 OA
ATOM      5  C   UNL     1      22.865  47.883  36.988  1.00  0.00     0.111 A 
ATOM      6  C   UNL     1      23.260  47.141  35.833  1.00  0.00     0.134 A 
ATOM      7  C   UNL     1      24.065  46.004  35.986  1.00  0.00     0.093 A 
ATOM      8  C   UNL     1      24.540  45.619  37.238  1.00  0.00     0.123 A 
ATOM      9  C   UNL     1      24.205  46.370  38.366  1.00  0.00     0.094 A 
ATOM     10  C   UNL     1      23.373  47.485  38.253  1.00  0.00     0.146 A 
ATOM     11  O   UNL     1      23.062  48.158  39.354  1.00  0.00    -0.452 OA
ENDROOT
BRANCH   1  12
ATOM     12  C   UNL     1      21.993  49.875  40.664  1.00  0.00     0.025 A 
ATOM     13  C   UNL     1      21.311  49.212  41.697  1.00  0.00     0.016 A 
ATOM     14  C   UNL     1      21.095  49.849  42.921  1.00  0.00     0.051 A 
ATOM     15  C   UNL     1      21.564  51.148  43.143  1.00  0.00     0.157 A 
ATOM     16  C   UNL     1      22.482  51.170  40.892  1.00  0.00     0.062 A 
ATOM     17  C   UNL     1      22.270  51.817  42.115  1.00  0.00     0.158 A 
BRANCH  15  18
ATOM     18  O   UNL     1      21.310  51.730  44.387  1.00  0.00    -0.504 OA
ATOM     19  H   UNL     1      21.730  52.592  44.703  1.00  0.00     0.293 HD
ENDBRANCH  15  18
BRANCH  17  20
ATOM     20  O   UNL     1      22.775  53.110  42.266  1.00  0.00    -0.504 OA
ATOM     21  H   UNL     1      22.760  53.812  41.540  1.00  0.00     0.293 HD
ENDBRANCH  17  20
ENDBRANCH   1  12
BRANCH   2  22
ATOM     22  O   UNL     1      20.875  50.805  38.157  1.00  0.00    -0.502 OA
ATOM     23  H   UNL     1      21.215  51.722  38.424  1.00  0.00     0.293 HD
ENDBRANCH   2  22
BRANCH   6  24
ATOM     24  O   UNL     1      22.916  47.488  34.524  1.00  0.00    -0.507 OA
ATOM     25  H   UNL     1      23.571  47.768  33.809  1.00  0.00     0.293 HD
ENDBRANCH   6  24
BRANCH   8  26
ATOM     26  O   UNL     1      25.352  44.493  37.349  1.00  0.00    -0.508 OA
ATOM     27  H   UNL     1      26.292  44.551  37.723  1.00  0.00     0.293 HD
ENDBRANCH   8  26
TORSDOF 6
ENDMDL
MODEL 2
REMARK VINA RESULT:    -5.966      1.973      7.347
REMARK INTER + INTRA:          -7.362
REMARK INTER:                  -7.048
REMARK INTRA:                  -0.315
REMARK UNBOUND:                -0.176
REMARK SMILES O=c1c(O)c(-c2ccc(O)c(O)c2)oc2cc(O)cc(O)c12
REMARK SMILES IDX 5 1 3 2 2 3 1 4 22 5 20 6 19 7 17 8 16 9 15 10 14 11 6 12
REMARK SMILES IDX 7 13 8 14 9 15 13 16 11 17 10 18 12 20 4 22 21 24 18 26
REMARK H PARENT 10 19 12 21 4 23 21 25 18 27
REMARK Flexibility Score: inf
ROOT
ATOM      1  C   UNL     1      23.608  48.039  37.746  1.00  0.00     0.180 A 
ATOM      2  C   UNL     1      23.952  47.526  39.009  1.00  0.00     0.208 A 
ATOM      3  C   UNL     1      23.607  48.257  40.157  1.00  0.00     0.238 A 
ATOM      4  O   UNL     1      23.853  47.757  41.286  1.00  0.00    -0.285 OA
ATOM      5  C   UNL     1      22.973  49.517  40.028  1.00  0.00     0.111 A 
ATOM      6  C   UNL     1      22.618  50.364  41.122  1.00  0.00     0.134 A 
ATOM      7  C   UNL     1      21.899  51.541  40.878  1.00  0.00     0.093 A 
ATOM      8  C   UNL     1      21.576  51.933  39.581  1.00  0.00     0.123 A 
ATOM      9  C   UNL     1      21.966  51.140  38.500  1.00  0.00     0.094 A 
ATOM     10  C   UNL     1      22.651  49.942  38.712  1.00  0.00     0.146 A 
ATOM     11  O   UNL     1      22.984  49.208  37.658  1.00  0.00    -0.452 OA
ENDROOT
BRANCH   1  12
ATOM     12  C   UNL     1      23.924  47.321  36.491  1.00  0.00     0.025 A 
ATOM     13  C   UNL     1      23.113  46.273  36.023  1.00  0.00     0.016 A 
ATOM     14  C   UNL     1      23.419  45.627  34.824  1.00  0.00     0.051 A 
ATOM     15  C   UNL     1      24.525  46.018  34.062  1.00  0.00     0.157 A 
ATOM     16  C   UNL     1      25.022  47.730  35.718  1.00  0.00     0.062 A 
ATOM     17  C   UNL     1      25.336  47.087  34.514  1.00  0.00     0.158 A 
BRANCH  15  18
ATOM     18  O   UNL     1      24.779  45.328  32.875  1.00  0.00    -0.504 OA
ATOM     19  H   UNL     1      25.376  44.517  32.810  1.00  0.00     0.293 HD
ENDBRANCH  15  18
BRANCH  17  20
ATOM     20  O   UNL     1      26.450  47.540  33.804  1.00  0.00    -0.504 OA
ATOM     21  H   UNL     1      26.423  48.287  33.125  1.00  0.00     0.293 HD
ENDBRANCH  17  20
ENDBRANCH   1  12
BRANCH   2  22
ATOM     22  O   UNL     1      24.646  46.318  39.112  1.00  0.00    -0.502 OA
ATOM     23  H   UNL     1      25.378  46.054  38.463  1.00  0.00     0.293 HD
ENDBRANCH   2  22
BRANCH   6  24
ATOM     24  O   UNL     1      22.968  50.114  42.452  1.00  0.00    -0.507 OA
ATOM     25  H   UNL     1      23.263  50.815  43.114  1.00  0.00     0.293 HD
ENDBRANCH   6  24
BRANCH   8  26
ATOM     26  O   UNL     1      20.875  53.119  39.375  1.00  0.00    -0.508 OA
ATOM     27  H   UNL     1      20.505  53.659  40.148  1.00  0.00     0.293 HD
ENDBRANCH   8  26
TORSDOF 6
ENDMDL
MODEL 3
REMARK VINA RESULT:    -5.957      1.274      2.928
REMARK INTER + INTRA:          -7.352
REMARK INTER:                  -7.093
REMARK INTRA:                  -0.258
REMARK UNBOUND:                -0.176
REMARK SMILES O=c1c(O)c(-c2ccc(O)c(O)c2)oc2cc(O)cc(O)c12
REMARK SMILES IDX 5 1 3 2 2 3 1 4 22 5 20 6 19 7 17 8 16 9 15 10 14 11 6 12
REMARK SMILES IDX 7 13 8 14 9 15 13 16 11 17 10 18 12 20 4 22 21 24 18 26
REMARK H PARENT 10 19 12 21 4 23 21 25 18 27
REMARK Flexibility Score: inf
ROOT
ATOM      1  C   UNL     1      22.576  48.785  39.237  1.00  0.00     0.180 A 
ATOM      2  C   UNL     1      23.529  47.754  39.202  1.00  0.00     0.208 A 
ATOM      3  C   UNL     1      23.785  47.104  37.983  1.00  0.00     0.238 A 
ATOM      4  O   UNL     1      24.692  46.232  37.943  1.00  0.00    -0.285 OA
ATOM      5  C   UNL     1      23.043  47.454  36.828  1.00  0.00     0.111 A 
ATOM      6  C   UNL     1      23.186  46.830  35.551  1.00  0.00     0.134 A 
ATOM      7  C   UNL     1      22.474  47.332  34.455  1.00  0.00     0.093 A 
ATOM      8  C   UNL     1      21.580  48.391  34.599  1.00  0.00     0.123 A 
ATOM      9  C   UNL     1      21.391  48.972  35.854  1.00  0.00     0.094 A 
ATOM     10  C   UNL     1      22.114  48.519  36.959  1.00  0.00     0.146 A 
ATOM     11  O   UNL     1      21.921  49.114  38.130  1.00  0.00    -0.452 OA
ENDROOT
BRANCH   1  12
ATOM     12  C   UNL     1      22.263  49.528  40.479  1.00  0.00     0.025 A 
ATOM     13  C   UNL     1      21.506  48.945  41.509  1.00  0.00     0.016 A 
ATOM     14  C   UNL     1      21.243  49.658  42.680  1.00  0.00     0.051 A 
ATOM     15  C   UNL     1      21.740  50.954  42.855  1.00  0.00     0.157 A 
ATOM     16  C   UNL     1      22.779  50.820  40.661  1.00  0.00     0.062 A 
ATOM     17  C   UNL     1      22.522  51.542  41.832  1.00  0.00     0.158 A 
BRANCH  15  18
ATOM     18  O   UNL     1      21.437  51.613  44.049  1.00  0.00    -0.504 OA
ATOM     19  H   UNL     1      21.575  52.602  44.197  1.00  0.00     0.293 HD
ENDBRANCH  15  18
BRANCH  17  20
ATOM     20  O   UNL     1      23.058  52.826  41.939  1.00  0.00    -0.504 OA
ATOM     21  H   UNL     1      24.001  53.070  41.669  1.00  0.00     0.293 HD
ENDBRANCH  17  20
ENDBRANCH   1  12
BRANCH   2  22
ATOM     22  O   UNL     1      24.195  47.371  40.368  1.00  0.00    -0.502 OA
ATOM     23  H   UNL     1      25.194  47.487  40.488  1.00  0.00     0.293 HD
ENDBRANCH   2  22
BRANCH   6  24
ATOM     24  O   UNL     1      23.986  45.709  35.312  1.00  0.00    -0.507 OA
ATOM     25  H   UNL     1      24.323  45.077  36.023  1.00  0.00     0.293 HD
ENDBRANCH   6  24
BRANCH   8  26
ATOM     26  O   UNL     1      20.875  48.853  33.490  1.00  0.00    -0.508 OA
ATOM     27  H   UNL     1      20.326  49.703  33.526  1.00  0.00     0.293 HD
ENDBRANCH   8  26
TORSDOF 6
ENDMDL
MODEL 4
REMARK VINA RESULT:    -5.740      2.039      7.045
REMARK INTER + INTRA:          -7.090
REMARK INTER:                  -6.784
REMARK INTRA:                  -0.306
REMARK UNBOUND:                -0.176
REMARK SMILES O=c1c(O)c(-c2ccc(O)c(O)c2)oc2cc(O)cc(O)c12
REMARK SMILES IDX 5 1 3 2 2 3 1 4 22 5 20 6 19 7 17 8 16 9 15 10 14 11 6 12
REMARK SMILES IDX 7 13 8 14 9 15 13 16 11 17 10 18 12 20 4 22 21 24 18 26
REMARK H PARENT 10 19 12 21 4 23 21 25 18 27
REMARK Flexibility Score: inf
ROOT
ATOM      1  C   UNL     1      22.902  49.058  36.942  1.00  0.00     0.180 A 
ATOM      2  C   UNL     1      23.125  50.435  36.765  1.00  0.00     0.208 A 
ATOM      3  C   UNL     1      22.843  51.311  37.826  1.00  0.00     0.238 A 
ATOM      4  O   UNL     1      23.114  52.532  37.687  1.00  0.00    -0.285 OA
ATOM      5  C   UNL     1      22.289  50.808  39.028  1.00  0.00     0.111 A 
ATOM      6  C   UNL     1      21.921  51.611  40.152  1.00  0.00     0.134 A 
ATOM      7  C   UNL     1      21.481  50.991  41.328  1.00  0.00     0.093 A 
ATOM      8  C   UNL     1      21.334  49.607  41.403  1.00  0.00     0.123 A 
ATOM      9  C   UNL     1      21.638  48.818  40.292  1.00  0.00     0.094 A 
ATOM     10  C   UNL     1      22.116  49.402  39.118  1.00  0.00     0.146 A 
ATOM     11  O   UNL     1      22.413  48.613  38.093  1.00  0.00    -0.452 OA
ENDROOT
BRANCH   1  12
ATOM     12  C   UNL     1      23.190  48.070  35.877  1.00  0.00     0.025 A 
ATOM     13  C   UNL     1      24.368  47.307  35.886  1.00  0.00     0.016 A 
ATOM     14  C   UNL     1      24.606  46.365  34.884  1.00  0.00     0.051 A 
ATOM     15  C   UNL     1      23.671  46.155  33.864  1.00  0.00     0.157 A 
ATOM     16  C   UNL     1      22.241  47.847  34.868  1.00  0.00     0.062 A 
ATOM     17  C   UNL     1      22.470  46.904  33.858  1.00  0.00     0.158 A 
BRANCH  15  18
ATOM     18  O   UNL     1      23.971  45.201  32.889  1.00  0.00    -0.504 OA
ATOM     19  H   UNL     1      23.577  44.272  32.868  1.00  0.00     0.293 HD
ENDBRANCH  15  18
BRANCH  17  20
ATOM     20  O   UNL     1      21.488  46.744  32.879  1.00  0.00    -0.504 OA
ATOM     21  H   UNL     1      20.644  46.204  33.008  1.00  0.00     0.293 HD
ENDBRANCH  17  20
ENDBRANCH   1  12
BRANCH   2  22
ATOM     22  O   UNL     1      23.600  50.920  35.545  1.00  0.00    -0.502 OA
ATOM     23  H   UNL     1      24.497  51.381  35.455  1.00  0.00     0.293 HD
ENDBRANCH   2  22
BRANCH   6  24
ATOM     24  O   UNL     1      21.944  53.008  40.156  1.00  0.00    -0.507 OA
ATOM     25  H   UNL     1      21.638  53.594  39.394  1.00  0.00     0.293 HD
ENDBRANCH   6  24
BRANCH   8  26
ATOM     26  O   UNL     1      20.878  49.027  42.583  1.00  0.00    -0.508 OA
ATOM     27  H   UNL     1      20.823  49.552  43.448  1.00  0.00     0.293 HD
ENDBRANCH   8  26
TORSDOF 6
ENDMDL
MODEL 5
REMARK VINA RESULT:    -5.478      1.300      1.923
REMARK INTER + INTRA:          -6.774
REMARK INTER:                  -6.484
REMARK INTRA:                  -0.291
REMARK UNBOUND:                -0.176
REMARK SMILES O=c1c(O)c(-c2ccc(O)c(O)c2)oc2cc(O)cc(O)c12
REMARK SMILES IDX 5 1 3 2 2 3 1 4 22 5 20 6 19 7 17 8 16 9 15 10 14 11 6 12
REMARK SMILES IDX 7 13 8 14 9 15 13 16 11 17 10 18 12 20 4 22 21 24 18 26
REMARK H PARENT 10 19 12 21 4 23 21 25 18 27
REMARK Flexibility Score: inf
ROOT
ATOM      1  C   UNL     1      22.602  49.123  38.342  1.00  0.00     0.180 A 
ATOM      2  C   UNL     1      21.792  49.599  37.297  1.00  0.00     0.208 A 
ATOM      3  C   UNL     1      21.934  49.038  36.017  1.00  0.00     0.238 A 
ATOM      4  O   UNL     1      21.155  49.418  35.104  1.00  0.00    -0.285 OA
ATOM      5  C   UNL     1      22.921  48.050  35.785  1.00  0.00     0.111 A 
ATOM      6  C   UNL     1      23.183  47.445  34.518  1.00  0.00     0.134 A 
ATOM      7  C   UNL     1      24.112  46.401  34.431  1.00  0.00     0.093 A 
ATOM      8  C   UNL     1      24.834  45.983  35.547  1.00  0.00     0.123 A 
ATOM      9  C   UNL     1      24.626  46.605  36.779  1.00  0.00     0.094 A 
ATOM     10  C   UNL     1      23.678  47.622  36.907  1.00  0.00     0.146 A 
ATOM     11  O   UNL     1      23.496  48.172  38.102  1.00  0.00    -0.452 OA
ENDROOT
BRANCH   1  12
ATOM     12  C   UNL     1      22.502  49.653  39.721  1.00  0.00     0.025 A 
ATOM     13  C   UNL     1      23.086  50.879  40.079  1.00  0.00     0.016 A 
ATOM     14  C   UNL     1      22.958  51.368  41.380  1.00  0.00     0.051 A 
ATOM     15  C   UNL     1      22.235  50.656  42.344  1.00  0.00     0.157 A 
ATOM     16  C   UNL     1      21.759  48.947  40.680  1.00  0.00     0.062 A 
ATOM     17  C   UNL     1      21.624  49.429  41.988  1.00  0.00     0.158 A 
BRANCH  15  18
ATOM     18  O   UNL     1      22.149  51.198  43.628  1.00  0.00    -0.504 OA
ATOM     19  H   UNL     1      22.825  51.838  44.017  1.00  0.00     0.293 HD
ENDBRANCH  15  18
BRANCH  17  20
ATOM     20  O   UNL     1      20.881  48.668  42.891  1.00  0.00    -0.504 OA
ATOM     21  H   UNL     1      21.280  47.974  43.508  1.00  0.00     0.293 HD
ENDBRANCH  17  20
ENDBRANCH   1  12
BRANCH   2  22
ATOM     22  O   UNL     1      20.877  50.629  37.529  1.00  0.00    -0.502 OA
ATOM     23  H   UNL     1      21.136  51.608  37.482  1.00  0.00     0.293 HD
ENDBRANCH   2  22
BRANCH   6  24
ATOM     24  O   UNL     1      22.583  47.845  33.320  1.00  0.00    -0.507 OA
ATOM     25  H   UNL     1      22.323  47.225  32.568  1.00  0.00     0.293 HD
ENDBRANCH   6  24
BRANCH   8  26
ATOM     26  O   UNL     1      25.763  44.953  35.420  1.00  0.00    -0.508 OA
ATOM     27  H   UNL     1      25.948  44.512  34.527  1.00  0.00     0.293 HD
ENDBRANCH   8  26
TORSDOF 6
ENDMDL
MODEL 6
REMARK VINA RESULT:    -4.197      3.549      6.023
REMARK INTER + INTRA:          -5.231
REMARK INTER:                  -4.900
REMARK INTRA:                  -0.331
REMARK UNBOUND:                -0.176
REMARK SMILES O=c1c(O)c(-c2ccc(O)c(O)c2)oc2cc(O)cc(O)c12
REMARK SMILES IDX 5 1 3 2 2 3 1 4 22 5 20 6 19 7 17 8 16 9 15 10 14 11 6 12
REMARK SMILES IDX 7 13 8 14 9 15 13 16 11 17 10 18 12 20 4 22 21 24 18 26
REMARK H PARENT 10 19 12 21 4 23 21 25 18 27
REMARK Flexibility Score: inf
ROOT
ATOM      1  C   UNL     1      23.288  48.461  35.500  1.00  0.00     0.180 A 
ATOM      2  C   UNL     1      23.766  47.337  34.806  1.00  0.00     0.208 A 
ATOM      3  C   UNL     1      24.213  46.225  35.538  1.00  0.00     0.238 A 
ATOM      4  O   UNL     1      24.571  45.194  34.911  1.00  0.00    -0.285 OA
ATOM      5  C   UNL     1      24.232  46.273  36.954  1.00  0.00     0.111 A 
ATOM      6  C   UNL     1      24.708  45.223  37.796  1.00  0.00     0.134 A 
ATOM      7  C   UNL     1      24.578  45.341  39.186  1.00  0.00     0.093 A 
ATOM      8  C   UNL     1      24.051  46.493  39.766  1.00  0.00     0.123 A 
ATOM      9  C   UNL     1      23.634  47.549  38.953  1.00  0.00     0.094 A 
ATOM     10  C   UNL     1      23.714  47.446  37.563  1.00  0.00     0.146 A 
ATOM     11  O   UNL     1      23.286  48.465  36.828  1.00  0.00    -0.452 OA
ENDROOT
BRANCH   1  12
ATOM     12  C   UNL     1      22.785  49.665  34.799  1.00  0.00     0.025 A 
ATOM     13  C   UNL     1      21.434  49.789  34.436  1.00  0.00     0.016 A 
ATOM     14  C   UNL     1      20.979  50.944  33.797  1.00  0.00     0.051 A 
ATOM     15  C   UNL     1      21.853  52.000  33.520  1.00  0.00     0.157 A 
ATOM     16  C   UNL     1      23.660  50.732  34.542  1.00  0.00     0.062 A 
ATOM     17  C   UNL     1      23.212  51.894  33.902  1.00  0.00     0.158 A 
BRANCH  15  18
ATOM     18  O   UNL     1      21.336  53.125  32.875  1.00  0.00    -0.504 OA
ATOM     19  H   UNL     1      21.298  54.045  33.288  1.00  0.00     0.293 HD
ENDBRANCH  15  18
BRANCH  17  20
ATOM     20  O   UNL     1      24.142  52.909  33.668  1.00  0.00    -0.504 OA
ATOM     21  H   UNL     1      24.900  52.840  33.004  1.00  0.00     0.293 HD
ENDBRANCH  17  20
ENDBRANCH   1  12
BRANCH   2  22
ATOM     22  O   UNL     1      23.811  47.338  33.410  1.00  0.00    -0.502 OA
ATOM     23  H   UNL     1      23.496  46.551  32.855  1.00  0.00     0.293 HD
ENDBRANCH   2  22
BRANCH   6  24
ATOM     24  O   UNL     1      25.334  44.065  37.326  1.00  0.00    -0.507 OA
ATOM     25  H   UNL     1      25.006  43.503  36.555  1.00  0.00     0.293 HD
ENDBRANCH   6  24
BRANCH   8  26
ATOM     26  O   UNL     1      23.953  46.582  41.152  1.00  0.00    -0.508 OA
ATOM     27  H   UNL     1      24.698  46.259  41.759  1.00  0.00     0.293 HD
ENDBRANCH   8  26
TORSDOF 6
ENDMDL
MODEL 7
REMARK VINA RESULT:    -4.169      2.679      5.475
REMARK INTER + INTRA:          -5.198
REMARK INTER:                  -4.877
REMARK INTRA:                  -0.321
REMARK UNBOUND:                -0.176
REMARK SMILES O=c1c(O)c(-c2ccc(O)c(O)c2)oc2cc(O)cc(O)c12
REMARK SMILES IDX 5 1 3 2 2 3 1 4 22 5 20 6 19 7 17 8 16 9 15 10 14 11 6 12
REMARK SMILES IDX 7 13 8 14 9 15 13 16 11 17 10 18 12 20 4 22 21 24 18 26
REMARK H PARENT 10 19 12 21 4 23 21 25 18 27
REMARK Flexibility Score: inf
ROOT
ATOM      1  C   UNL     1      23.012  49.455  36.944  1.00  0.00     0.180 A 
ATOM      2  C   UNL     1      22.979  49.811  38.304  1.00  0.00     0.208 A 
ATOM      3  C   UNL     1      23.392  48.871  39.262  1.00  0.00     0.238 A 
ATOM      4  O   UNL     1      23.429  49.221  40.471  1.00  0.00    -0.285 OA
ATOM      5  C   UNL     1      23.778  47.571  38.856  1.00  0.00     0.111 A 
ATOM      6  C   UNL     1      24.171  46.524  39.745  1.00  0.00     0.134 A 
ATOM      7  C   UNL     1      24.634  45.311  39.221  1.00  0.00     0.093 A 
ATOM      8  C   UNL     1      24.660  45.082  37.847  1.00  0.00     0.123 A 
ATOM      9  C   UNL     1      24.226  46.078  36.970  1.00  0.00     0.094 A 
ATOM     10  C   UNL     1      23.794  47.312  37.460  1.00  0.00     0.146 A 
ATOM     11  O   UNL     1      23.411  48.240  36.591  1.00  0.00    -0.452 OA
ENDROOT
BRANCH   1  12
ATOM     12  C   UNL     1      22.607  50.395  35.874  1.00  0.00     0.025 A 
ATOM     13  C   UNL     1      21.285  50.444  35.404  1.00  0.00     0.016 A 
ATOM     14  C   UNL     1      20.923  51.355  34.410  1.00  0.00     0.051 A 
ATOM     15  C   UNL     1      21.864  52.242  33.876  1.00  0.00     0.157 A 
ATOM     16  C   UNL     1      23.548  51.298  35.355  1.00  0.00     0.062 A 
ATOM     17  C   UNL     1      23.195  52.216  34.358  1.00  0.00     0.158 A 
BRANCH  15  18
ATOM     18  O   UNL     1      21.439  53.125  32.881  1.00  0.00    -0.504 OA
ATOM     19  H   UNL     1      22.064  53.657  32.294  1.00  0.00     0.293 HD
ENDBRANCH  15  18
BRANCH  17  20
ATOM     20  O   UNL     1      24.186  53.075  33.881  1.00  0.00    -0.504 OA
ATOM     21  H   UNL     1      24.320  53.297  32.905  1.00  0.00     0.293 HD
ENDBRANCH  17  20
ENDBRANCH   1  12
BRANCH   2  22
ATOM     22  O   UNL     1      22.521  51.072  38.690  1.00  0.00    -0.502 OA
ATOM     23  H   UNL     1      23.114  51.894  38.674  1.00  0.00     0.293 HD
ENDBRANCH   2  22
BRANCH   6  24
ATOM     24  O   UNL     1      24.101  46.613  41.138  1.00  0.00    -0.507 OA
ATOM     25  H   UNL     1      23.301  46.942  41.657  1.00  0.00     0.293 HD
ENDBRANCH   6  24
BRANCH   8  26
ATOM     26  O   UNL     1      25.111  43.857  37.361  1.00  0.00    -0.508 OA
ATOM     27  H   UNL     1      24.783  43.482  36.479  1.00  0.00     0.293 HD
ENDBRANCH   8  26
TORSDOF 6
ENDMDL
