MODEL 1
REMARK VINA RESULT:    -6.097      0.000      0.000
REMARK INTER + INTRA:         -12.443
REMARK INTER:                  -9.305
REMARK INTRA:                  -3.138
REMARK UNBOUND:                -3.138
REMARK SMILES CC(=O)CCC=C(C)CCC=C(C)CCC=C(C)C
REMARK SMILES IDX 10 1 11 2 12 3 13 4 14 5 15 6 16 7 18 8 17 9 19 10 9 11 7 12
REMARK SMILES IDX 6 13 8 14 5 15 4 16 2 17 3 18 1 19
REMARK H PARENT
REMARK Flexibility Score: inf
ROOT
ATOM      1  C   UNL     1     121.614 178.716 127.593  1.00  0.00     0.032 C 
ENDROOT
BRANCH   1   2
ATOM      2  C   UNL     1     121.836 177.905 128.847  1.00  0.00    -0.028 C 
ATOM      3  C   UNL     1     120.868 177.557 129.726  1.00  0.00    -0.077 C 
ATOM      4  C   UNL     1     121.262 176.771 130.949  1.00  0.00     0.039 C 
BRANCH   3   5
ATOM      5  C   UNL     1     119.400 177.860 129.501  1.00  0.00     0.034 C 
BRANCH   5   6
ATOM      6  C   UNL     1     118.553 176.600 129.711  1.00  0.00     0.032 C 
BRANCH   6   7
ATOM      7  C   UNL     1     117.798 176.249 128.453  1.00  0.00    -0.028 C 
ATOM      8  C   UNL     1     119.631 174.790 127.566  1.00  0.00     0.039 C 
ATOM      9  C   UNL     1     118.258 175.416 127.492  1.00  0.00    -0.080 C 
ATOM     10  C   UNL     1     117.371 175.125 126.309  1.00  0.00     0.039 C 
ENDBRANCH   6   7
ENDBRANCH   5   6
ENDBRANCH   3   5
ENDBRANCH   1   2
BRANCH   1  11
ATOM     11  C   UNL     1     121.542 177.824 126.345  1.00  0.00     0.034 C 
BRANCH  11  12
ATOM     12  C   UNL     1     120.212 177.961 125.632  1.00  0.00    -0.077 C 
ATOM     13  C   UNL     1     119.286 178.813 126.127  1.00  0.00    -0.028 C 
ATOM     14  C   UNL     1     119.951 177.124 124.401  1.00  0.00     0.039 C 
BRANCH  13  15
ATOM     15  C   UNL     1     117.937 179.066 125.502  1.00  0.00     0.035 C 
BRANCH  15  16
ATOM     16  C   UNL     1     116.842 179.123 126.572  1.00  0.00     0.079 C 
BRANCH  16  17
ATOM     17  C   UNL     1     115.651 178.300 126.162  1.00  0.00     0.130 C 
ATOM     18  O   UNL     1     114.900 177.854 127.016  1.00  0.00    -0.300 OA
ATOM     19  C   UNL     1     115.395 178.003 124.716  1.00  0.00     0.087 C 
ENDBRANCH  16  17
ENDBRANCH  15  16
ENDBRANCH  13  15
ENDBRANCH  11  12
ENDBRANCH   1  11
TORSDOF 9
ENDMDL
MODEL 2
REMARK VINA RESULT:    -5.847      1.376      2.982
REMARK INTER + INTRA:         -12.062
REMARK INTER:                  -9.250
REMARK INTRA:                  -2.812
REMARK UNBOUND:                -3.138
REMARK SMILES CC(=O)CCC=C(C)CCC=C(C)CCC=C(C)C
REMARK SMILES IDX 10 1 11 2 12 3 13 4 14 5 15 6 16 7 18 8 17 9 19 10 9 11 7 12
REMARK SMILES IDX 6 13 8 14 5 15 4 16 2 17 3 18 1 19
REMARK H PARENT
REMARK Flexibility Score: inf
ROOT
ATOM      1  C   UNL     1     119.845 176.691 125.121  1.00  0.00     0.032 C 
ENDROOT
BRANCH   1   2
ATOM      2  C   UNL     1     120.994 177.421 125.773  1.00  0.00    -0.028 C 
ATOM      3  C   UNL     1     120.896 178.180 126.889  1.00  0.00    -0.077 C 
ATOM      4  C   UNL     1     122.137 178.869 127.394  1.00  0.00     0.039 C 
BRANCH   3   5
ATOM      5  C   UNL     1     119.617 178.310 127.690  1.00  0.00     0.034 C 
BRANCH   5   6
ATOM      6  C   UNL     1     119.827 177.810 129.123  1.00  0.00     0.032 C 
BRANCH   6   7
ATOM      7  C   UNL     1     118.665 176.957 129.568  1.00  0.00    -0.028 C 
ATOM      8  C   UNL     1     119.959 174.819 129.402  1.00  0.00     0.039 C 
ATOM      9  C   UNL     1     118.716 175.615 129.722  1.00  0.00    -0.080 C 
ATOM     10  C   UNL     1     117.483 174.902 130.215  1.00  0.00     0.039 C 
ENDBRANCH   6   7
ENDBRANCH   5   6
ENDBRANCH   3   5
ENDBRANCH   1   2
BRANCH   1  11
ATOM     11  C   UNL     1     119.638 175.297 125.731  1.00  0.00     0.034 C 
BRANCH  11  12
ATOM     12  C   UNL     1     118.209 175.091 126.191  1.00  0.00    -0.077 C 
ATOM     13  C   UNL     1     117.369 176.150 126.223  1.00  0.00    -0.028 C 
ATOM     14  C   UNL     1     117.770 173.710 126.623  1.00  0.00     0.039 C 
BRANCH  13  15
ATOM     15  C   UNL     1     115.920 176.080 126.633  1.00  0.00     0.035 C 
BRANCH  15  16
ATOM     16  C   UNL     1     115.457 177.413 127.231  1.00  0.00     0.079 C 
BRANCH  16  17
ATOM     17  C   UNL     1     115.564 178.519 126.217  1.00  0.00     0.130 C 
ATOM     18  O   UNL     1     114.930 178.451 125.176  1.00  0.00    -0.300 OA
ATOM     19  C   UNL     1     116.463 179.692 126.466  1.00  0.00     0.087 C 
ENDBRANCH  16  17
ENDBRANCH  15  16
ENDBRANCH  13  15
ENDBRANCH  11  12
ENDBRANCH   1  11
TORSDOF 9
ENDMDL
MODEL 3
REMARK VINA RESULT:    -5.790      1.614      3.505
REMARK INTER + INTRA:         -11.975
REMARK INTER:                  -9.216
REMARK INTRA:                  -2.759
REMARK UNBOUND:                -3.138
REMARK SMILES CC(=O)CCC=C(C)CCC=C(C)CCC=C(C)C
REMARK SMILES IDX 10 1 11 2 12 3 13 4 14 5 15 6 16 7 18 8 17 9 19 10 9 11 7 12
REMARK SMILES IDX 6 13 8 14 5 15 4 16 2 17 3 18 1 19
REMARK H PARENT
REMARK Flexibility Score: inf
ROOT
ATOM      1  C   UNL     1     121.883 178.576 126.989  1.00  0.00     0.032 C 
ENDROOT
BRANCH   1   2
ATOM      2  C   UNL     1     122.795 177.714 126.150  1.00  0.00    -0.028 C 
ATOM      3  C   UNL     1     122.385 176.876 125.171  1.00  0.00    -0.077 C 
ATOM      4  C   UNL     1     123.424 176.059 124.448  1.00  0.00     0.039 C 
BRANCH   3   5
ATOM      5  C   UNL     1     120.941 176.773 124.722  1.00  0.00     0.034 C 
BRANCH   5   6
ATOM      6  C   UNL     1     120.437 175.332 124.856  1.00  0.00     0.032 C 
BRANCH   6   7
ATOM      7  C   UNL     1     120.554 174.856 126.283  1.00  0.00    -0.028 C 
ATOM      8  C   UNL     1     118.074 174.760 126.625  1.00  0.00     0.039 C 
ATOM      9  C   UNL     1     119.501 174.570 127.082  1.00  0.00    -0.080 C 
ATOM     10  C   UNL     1     119.774 174.062 128.474  1.00  0.00     0.039 C 
ENDBRANCH   6   7
ENDBRANCH   5   6
ENDBRANCH   3   5
ENDBRANCH   1   2
BRANCH   1  11
ATOM     11  C   UNL     1     121.455 177.861 128.279  1.00  0.00     0.034 C 
BRANCH  11  12
ATOM     12  C   UNL     1     119.953 177.911 128.479  1.00  0.00    -0.077 C 
ATOM     13  C   UNL     1     119.165 178.273 127.442  1.00  0.00    -0.028 C 
ATOM     14  C   UNL     1     119.383 177.578 129.839  1.00  0.00     0.039 C 
BRANCH  13  15
ATOM     15  C   UNL     1     117.659 178.338 127.496  1.00  0.00     0.035 C 
BRANCH  15  16
ATOM     16  C   UNL     1     117.097 179.021 126.244  1.00  0.00     0.079 C 
BRANCH  16  17
ATOM     17  C   UNL     1     116.805 178.010 125.170  1.00  0.00     0.130 C 
ATOM     18  O   UNL     1     117.588 177.866 124.243  1.00  0.00    -0.300 OA
ATOM     19  C   UNL     1     115.548 177.195 125.215  1.00  0.00     0.087 C 
ENDBRANCH  16  17
ENDBRANCH  15  16
ENDBRANCH  13  15
ENDBRANCH  11  12
ENDBRANCH   1  11
TORSDOF 9
ENDMDL
MODEL 4
REMARK VINA RESULT:    -5.756      1.293      2.543
REMARK INTER + INTRA:         -11.923
REMARK INTER:                  -8.808
REMARK INTRA:                  -3.115
REMARK UNBOUND:                -3.138
REMARK SMILES CC(=O)CCC=C(C)CCC=C(C)CCC=C(C)C
REMARK SMILES IDX 10 1 11 2 12 3 13 4 14 5 15 6 16 7 18 8 17 9 19 10 9 11 7 12
REMARK SMILES IDX 6 13 8 14 5 15 4 16 2 17 3 18 1 19
REMARK H PARENT
REMARK Flexibility Score: inf
ROOT
ATOM      1  C   UNL     1     119.508 177.728 129.799  1.00  0.00     0.032 C 
ENDROOT
BRANCH   1   2
ATOM      2  C   UNL     1     119.023 176.476 130.490  1.00  0.00    -0.028 C 
ATOM      3  C   UNL     1     117.982 175.718 130.078  1.00  0.00    -0.077 C 
ATOM      4  C   UNL     1     117.606 174.513 130.902  1.00  0.00     0.039 C 
BRANCH   3   5
ATOM      5  C   UNL     1     117.225 175.981 128.791  1.00  0.00     0.034 C 
BRANCH   5   6
ATOM      6  C   UNL     1     117.281 174.755 127.874  1.00  0.00     0.032 C 
BRANCH   6   7
ATOM      7  C   UNL     1     118.241 174.985 126.733  1.00  0.00    -0.028 C 
ATOM      8  C   UNL     1     120.127 173.784 127.863  1.00  0.00     0.039 C 
ATOM      9  C   UNL     1     119.515 174.532 126.702  1.00  0.00    -0.080 C 
ATOM     10  C   UNL     1     120.343 174.804 125.473  1.00  0.00     0.039 C 
ENDBRANCH   6   7
ENDBRANCH   5   6
ENDBRANCH   3   5
ENDBRANCH   1   2
BRANCH   1  11
ATOM     11  C   UNL     1     120.706 177.443 128.881  1.00  0.00     0.034 C 
BRANCH  11  12
ATOM     12  C   UNL     1     120.505 178.024 127.496  1.00  0.00    -0.077 C 
ATOM     13  C   UNL     1     119.269 178.428 127.126  1.00  0.00    -0.028 C 
ATOM     14  C   UNL     1     121.689 178.114 126.560  1.00  0.00     0.039 C 
BRANCH  13  15
ATOM     15  C   UNL     1     118.935 179.047 125.792  1.00  0.00     0.035 C 
BRANCH  15  16
ATOM     16  C   UNL     1     117.952 178.169 125.013  1.00  0.00     0.079 C 
BRANCH  16  17
ATOM     17  C   UNL     1     116.557 178.319 125.553  1.00  0.00     0.130 C 
ATOM     18  O   UNL     1     116.215 179.375 126.064  1.00  0.00    -0.300 OA
ATOM     19  C   UNL     1     115.591 177.174 125.494  1.00  0.00     0.087 C 
ENDBRANCH  16  17
ENDBRANCH  15  16
ENDBRANCH  13  15
ENDBRANCH  11  12
ENDBRANCH   1  11
TORSDOF 9
ENDMDL
MODEL 5
REMARK VINA RESULT:    -5.730      1.685      3.524
REMARK INTER + INTRA:         -11.883
REMARK INTER:                  -9.119
REMARK INTRA:                  -2.764
REMARK UNBOUND:                -3.138
REMARK SMILES CC(=O)CCC=C(C)CCC=C(C)CCC=C(C)C
REMARK SMILES IDX 10 1 11 2 12 3 13 4 14 5 15 6 16 7 18 8 17 9 19 10 9 11 7 12
REMARK SMILES IDX 6 13 8 14 5 15 4 16 2 17 3 18 1 19
REMARK H PARENT
REMARK Flexibility Score: inf
ROOT
ATOM      1  C   UNL     1     117.456 175.595 130.351  1.00  0.00     0.032 C 
ENDROOT
BRANCH   1   2
ATOM      2  C   UNL     1     118.908 175.671 130.757  1.00  0.00    -0.028 C 
ATOM      3  C   UNL     1     119.789 176.598 130.314  1.00  0.00    -0.077 C 
ATOM      4  C   UNL     1     121.215 176.514 130.793  1.00  0.00     0.039 C 
BRANCH   3   5
ATOM      5  C   UNL     1     119.392 177.754 129.419  1.00  0.00     0.034 C 
BRANCH   5   6
ATOM      6  C   UNL     1     120.341 177.857 128.221  1.00  0.00     0.032 C 
BRANCH   6   7
ATOM      7  C   UNL     1     120.080 176.746 127.235  1.00  0.00    -0.028 C 
ATOM      8  C   UNL     1     122.137 177.233 125.891  1.00  0.00     0.039 C 
ATOM      9  C   UNL     1     120.891 176.437 126.198  1.00  0.00    -0.080 C 
ATOM     10  C   UNL     1     120.520 175.269 125.320  1.00  0.00     0.039 C 
ENDBRANCH   6   7
ENDBRANCH   5   6
ENDBRANCH   3   5
ENDBRANCH   1   2
BRANCH   1  11
ATOM     11  C   UNL     1     117.249 174.657 129.153  1.00  0.00     0.034 C 
BRANCH  11  12
ATOM     12  C   UNL     1     116.807 175.412 127.916  1.00  0.00    -0.077 C 
ATOM     13  C   UNL     1     116.277 176.649 128.056  1.00  0.00    -0.028 C 
ATOM     14  C   UNL     1     116.948 174.752 126.564  1.00  0.00     0.039 C 
BRANCH  13  15
ATOM     15  C   UNL     1     115.823 177.519 126.911  1.00  0.00     0.035 C 
BRANCH  15  16
ATOM     16  C   UNL     1     116.634 178.817 126.857  1.00  0.00     0.079 C 
BRANCH  16  17
ATOM     17  C   UNL     1     117.613 178.788 125.716  1.00  0.00     0.130 C 
ATOM     18  O   UNL     1     118.541 179.581 125.693  1.00  0.00    -0.300 OA
ATOM     19  C   UNL     1     117.442 177.809 124.593  1.00  0.00     0.087 C 
ENDBRANCH  16  17
ENDBRANCH  15  16
ENDBRANCH  13  15
ENDBRANCH  11  12
ENDBRANCH   1  11
TORSDOF 9
ENDMDL
MODEL 6
REMARK VINA RESULT:    -5.710      1.346      3.487
REMARK INTER + INTRA:         -11.853
REMARK INTER:                  -9.198
REMARK INTRA:                  -2.655
REMARK UNBOUND:                -3.138
REMARK SMILES CC(=O)CCC=C(C)CCC=C(C)CCC=C(C)C
REMARK SMILES IDX 10 1 11 2 12 3 13 4 14 5 15 6 16 7 18 8 17 9 19 10 9 11 7 12
REMARK SMILES IDX 6 13 8 14 5 15 4 16 2 17 3 18 1 19
REMARK H PARENT
REMARK Flexibility Score: inf
ROOT
ATOM      1  C   UNL     1     119.767 177.837 129.422  1.00  0.00     0.032 C 
ENDROOT
BRANCH   1   2
ATOM      2  C   UNL     1     121.036 177.960 128.614  1.00  0.00    -0.028 C 
ATOM      3  C   UNL     1     121.088 178.198 127.283  1.00  0.00    -0.077 C 
ATOM      4  C   UNL     1     122.440 178.260 126.621  1.00  0.00     0.039 C 
BRANCH   3   5
ATOM      5  C   UNL     1     119.856 178.476 126.445  1.00  0.00     0.034 C 
BRANCH   5   6
ATOM      6  C   UNL     1     119.756 177.474 125.289  1.00  0.00     0.032 C 
BRANCH   6   7
ATOM      7  C   UNL     1     119.133 176.182 125.756  1.00  0.00    -0.028 C 
ATOM      8  C   UNL     1     121.272 174.892 125.564  1.00  0.00     0.039 C 
ATOM      9  C   UNL     1     119.807 175.019 125.909  1.00  0.00    -0.080 C 
ATOM     10  C   UNL     1     119.058 173.818 126.426  1.00  0.00     0.039 C 
ENDBRANCH   6   7
ENDBRANCH   5   6
ENDBRANCH   3   5
ENDBRANCH   1   2
BRANCH   1  11
ATOM     11  C   UNL     1     119.514 176.388 129.865  1.00  0.00     0.034 C 
BRANCH  11  12
ATOM     12  C   UNL     1     118.094 175.949 129.569  1.00  0.00    -0.077 C 
ATOM     13  C   UNL     1     117.411 176.561 128.576  1.00  0.00    -0.028 C 
ATOM     14  C   UNL     1     117.476 174.855 130.409  1.00  0.00     0.039 C 
BRANCH  13  15
ATOM     15  C   UNL     1     116.006 176.205 128.160  1.00  0.00     0.035 C 
BRANCH  15  16
ATOM     16  C   UNL     1     115.765 176.562 126.689  1.00  0.00     0.079 C 
BRANCH  16  17
ATOM     17  C   UNL     1     115.216 177.956 126.561  1.00  0.00     0.130 C 
ATOM     18  O   UNL     1     114.014 178.146 126.656  1.00  0.00    -0.300 OA
ATOM     19  C   UNL     1     116.133 179.111 126.292  1.00  0.00     0.087 C 
ENDBRANCH  16  17
ENDBRANCH  15  16
ENDBRANCH  13  15
ENDBRANCH  11  12
ENDBRANCH   1  11
TORSDOF 9
ENDMDL
MODEL 7
REMARK VINA RESULT:    -5.635      2.144      4.860
REMARK INTER + INTRA:         -11.738
REMARK INTER:                  -9.504
REMARK INTRA:                  -2.235
REMARK UNBOUND:                -3.138
REMARK SMILES CC(=O)CCC=C(C)CCC=C(C)CCC=C(C)C
REMARK SMILES IDX 10 1 11 2 12 3 13 4 14 5 15 6 16 7 18 8 17 9 19 10 9 11 7 12
REMARK SMILES IDX 6 13 8 14 5 15 4 16 2 17 3 18 1 19
REMARK H PARENT
REMARK Flexibility Score: inf
ROOT
ATOM      1  C   UNL     1     120.817 176.612 125.395  1.00  0.00     0.032 C 
ENDROOT
BRANCH   1   2
ATOM      2  C   UNL     1     120.542 177.279 124.069  1.00  0.00    -0.028 C 
ATOM      3  C   UNL     1     119.542 178.159 123.836  1.00  0.00    -0.077 C 
ATOM      4  C   UNL     1     119.384 178.710 122.443  1.00  0.00     0.039 C 
BRANCH   3   5
ATOM      5  C   UNL     1     118.620 178.668 124.926  1.00  0.00     0.034 C 
BRANCH   5   6
ATOM      6  C   UNL     1     117.260 177.966 124.851  1.00  0.00     0.032 C 
BRANCH   6   7
ATOM      7  C   UNL     1     117.356 176.558 125.386  1.00  0.00    -0.028 C 
ATOM      8  C   UNL     1     115.786 176.999 127.287  1.00  0.00     0.039 C 
ATOM      9  C   UNL     1     116.679 176.102 126.464  1.00  0.00    -0.080 C 
ATOM     10  C   UNL     1     116.844 174.656 126.855  1.00  0.00     0.039 C 
ENDBRANCH   6   7
ENDBRANCH   5   6
ENDBRANCH   3   5
ENDBRANCH   1   2
BRANCH   1  11
ATOM     11  C   UNL     1     121.772 177.445 126.262  1.00  0.00     0.034 C 
BRANCH  11  12
ATOM     12  C   UNL     1     121.141 177.829 127.586  1.00  0.00    -0.077 C 
ATOM     13  C   UNL     1     119.855 177.484 127.824  1.00  0.00    -0.028 C 
ATOM     14  C   UNL     1     121.960 178.605 128.591  1.00  0.00     0.039 C 
BRANCH  13  15
ATOM     15  C   UNL     1     119.115 177.778 129.105  1.00  0.00     0.035 C 
BRANCH  15  16
ATOM     16  C   UNL     1     118.624 176.484 129.760  1.00  0.00     0.079 C 
BRANCH  16  17
ATOM     17  C   UNL     1     119.760 175.518 129.955  1.00  0.00     0.130 C 
ATOM     18  O   UNL     1     120.670 175.798 130.720  1.00  0.00    -0.300 OA
ATOM     19  C   UNL     1     119.798 174.226 129.195  1.00  0.00     0.087 C 
ENDBRANCH  16  17
ENDBRANCH  15  16
ENDBRANCH  13  15
ENDBRANCH  11  12
ENDBRANCH   1  11
TORSDOF 9
ENDMDL
MODEL 8
REMARK VINA RESULT:    -5.609      2.223      5.450
REMARK INTER + INTRA:         -11.699
REMARK INTER:                  -8.982
REMARK INTRA:                  -2.717
REMARK UNBOUND:                -3.138
REMARK SMILES CC(=O)CCC=C(C)CCC=C(C)CCC=C(C)C
REMARK SMILES IDX 10 1 11 2 12 3 13 4 14 5 15 6 16 7 18 8 17 9 19 10 9 11 7 12
REMARK SMILES IDX 6 13 8 14 5 15 4 16 2 17 3 18 1 19
REMARK H PARENT
REMARK Flexibility Score: inf
ROOT
ATOM      1  C   UNL     1     118.102 178.668 126.866  1.00  0.00     0.032 C 
ENDROOT
BRANCH   1   2
ATOM      2  C   UNL     1     118.348 178.934 125.400  1.00  0.00    -0.028 C 
ATOM      3  C   UNL     1     119.072 178.140 124.579  1.00  0.00    -0.077 C 
ATOM      4  C   UNL     1     119.248 178.566 123.145  1.00  0.00     0.039 C 
BRANCH   3   5
ATOM      5  C   UNL     1     119.652 176.810 125.017  1.00  0.00     0.034 C 
BRANCH   5   6
ATOM      6  C   UNL     1     121.086 176.990 125.526  1.00  0.00     0.032 C 
BRANCH   6   7
ATOM      7  C   UNL     1     121.125 176.963 127.033  1.00  0.00    -0.028 C 
ATOM      8  C   UNL     1     122.070 179.276 127.212  1.00  0.00     0.039 C 
ATOM      9  C   UNL     1     121.540 177.993 127.806  1.00  0.00    -0.080 C 
ATOM     10  C   UNL     1     121.482 177.835 129.303  1.00  0.00     0.039 C 
ENDBRANCH   6   7
ENDBRANCH   5   6
ENDBRANCH   3   5
ENDBRANCH   1   2
BRANCH   1  11
ATOM     11  C   UNL     1     116.817 177.857 127.088  1.00  0.00     0.034 C 
BRANCH  11  12
ATOM     12  C   UNL     1     117.116 176.445 127.552  1.00  0.00    -0.077 C 
ATOM     13  C   UNL     1     117.779 176.263 128.716  1.00  0.00    -0.028 C 
ATOM     14  C   UNL     1     116.685 175.283 126.687  1.00  0.00     0.039 C 
BRANCH  13  15
ATOM     15  C   UNL     1     118.116 174.917 129.306  1.00  0.00     0.035 C 
BRANCH  15  16
ATOM     16  C   UNL     1     119.614 174.625 129.179  1.00  0.00     0.079 C 
BRANCH  16  17
ATOM     17  C   UNL     1     119.850 173.388 128.357  1.00  0.00     0.130 C 
ATOM     18  O   UNL     1     119.930 172.300 128.906  1.00  0.00    -0.300 OA
ATOM     19  C   UNL     1     120.014 173.485 126.869  1.00  0.00     0.087 C 
ENDBRANCH  16  17
ENDBRANCH  15  16
ENDBRANCH  13  15
ENDBRANCH  11  12
ENDBRANCH   1  11
TORSDOF 9
ENDMDL
MODEL 9
REMARK VINA RESULT:    -5.548      2.145      5.421
REMARK INTER + INTRA:         -11.605
REMARK INTER:                  -9.151
REMARK INTRA:                  -2.454
REMARK UNBOUND:                -3.138
REMARK SMILES CC(=O)CCC=C(C)CCC=C(C)CCC=C(C)C
REMARK SMILES IDX 10 1 11 2 12 3 13 4 14 5 15 6 16 7 18 8 17 9 19 10 9 11 7 12
REMARK SMILES IDX 6 13 8 14 5 15 4 16 2 17 3 18 1 19
REMARK H PARENT
REMARK Flexibility Score: inf
ROOT
ATOM      1  C   UNL     1     116.172 177.807 125.709  1.00  0.00     0.032 C 
ENDROOT
BRANCH   1   2
ATOM      2  C   UNL     1     117.170 177.783 124.576  1.00  0.00    -0.028 C 
ATOM      3  C   UNL     1     118.394 178.358 124.609  1.00  0.00    -0.077 C 
ATOM      4  C   UNL     1     119.257 178.270 123.377  1.00  0.00     0.039 C 
BRANCH   3   5
ATOM      5  C   UNL     1     118.962 179.022 125.847  1.00  0.00     0.034 C 
BRANCH   5   6
ATOM      6  C   UNL     1     119.618 177.981 126.761  1.00  0.00     0.032 C 
BRANCH   6   7
ATOM      7  C   UNL     1     121.096 177.878 126.478  1.00  0.00    -0.028 C 
ATOM      8  C   UNL     1     120.900 175.619 125.414  1.00  0.00     0.039 C 
ATOM      9  C   UNL     1     121.683 176.834 125.850  1.00  0.00    -0.080 C 
ATOM     10  C   UNL     1     123.168 176.891 125.598  1.00  0.00     0.039 C 
ENDBRANCH   6   7
ENDBRANCH   5   6
ENDBRANCH   3   5
ENDBRANCH   1   2
BRANCH   1  11
ATOM     11  C   UNL     1     115.661 176.398 126.045  1.00  0.00     0.034 C 
BRANCH  11  12
ATOM     12  C   UNL     1     116.557 175.699 127.048  1.00  0.00    -0.077 C 
ATOM     13  C   UNL     1     116.565 176.125 128.331  1.00  0.00    -0.028 C 
ATOM     14  C   UNL     1     117.432 174.560 126.578  1.00  0.00     0.039 C 
BRANCH  13  15
ATOM     15  C   UNL     1     117.386 175.503 129.433  1.00  0.00     0.035 C 
BRANCH  15  16
ATOM     16  C   UNL     1     118.505 176.449 129.879  1.00  0.00     0.079 C 
BRANCH  16  17
ATOM     17  C   UNL     1     119.834 175.743 129.874  1.00  0.00     0.130 C 
ATOM     18  O   UNL     1     120.748 176.166 130.565  1.00  0.00    -0.300 OA
ATOM     19  C   UNL     1     120.052 174.541 129.005  1.00  0.00     0.087 C 
ENDBRANCH  16  17
ENDBRANCH  15  16
ENDBRANCH  13  15
ENDBRANCH  11  12
ENDBRANCH   1  11
TORSDOF 9
ENDMDL
