MODEL 1
REMARK VINA RESULT:    -4.455      0.000      0.000
REMARK INTER + INTRA:          -5.252
REMARK INTER:                  -5.236
REMARK INTRA:                  -0.016
REMARK UNBOUND:                -0.016
REMARK SMILES CCCCC(=O)[O-]
REMARK SMILES IDX 4 1 5 2 6 3 7 4 3 5 2 6 1 7
REMARK H PARENT
REMARK Flexibility Score: inf
ROOT
ATOM      1  C   UNL     1      17.464  24.429  11.627  1.00  0.00     0.053 C 
ENDROOT
BRANCH   1   2
ATOM      2  C   UNL     1      16.669  23.339  12.278  1.00  0.00     0.041 C 
ATOM      3  O   UNL     1      16.684  23.202  13.529  1.00  0.00    -0.550 OA
ATOM      4  O   UNL     1      15.937  22.452  11.499  1.00  0.00    -0.550 OA
ENDBRANCH   1   2
BRANCH   1   5
ATOM      5  C   UNL     1      18.487  23.868  10.630  1.00  0.00     0.006 C 
BRANCH   5   6
ATOM      6  C   UNL     1      19.676  24.817  10.423  1.00  0.00    -0.003 C 
ATOM      7  C   UNL     1      20.988  24.148  10.824  1.00  0.00     0.004 C 
ENDBRANCH   5   6
ENDBRANCH   1   5
TORSDOF 3
ENDMDL
MODEL 2
REMARK VINA RESULT:    -4.191     10.370     11.252
REMARK INTER + INTRA:          -4.941
REMARK INTER:                  -4.926
REMARK INTRA:                  -0.015
REMARK UNBOUND:                -0.016
REMARK SMILES CCCCC(=O)[O-]
REMARK SMILES IDX 4 1 5 2 6 3 7 4 3 5 2 6 1 7
REMARK H PARENT
REMARK Flexibility Score: inf
ROOT
ATOM      1  C   UNL     1      18.841  26.167   0.871  1.00  0.00     0.053 C 
ENDROOT
BRANCH   1   2
ATOM      2  C   UNL     1      18.274  25.938  -0.497  1.00  0.00     0.041 C 
ATOM      3  O   UNL     1      17.095  26.288  -0.763  1.00  0.00    -0.550 OA
ATOM      4  O   UNL     1      19.040  25.308  -1.470  1.00  0.00    -0.550 OA
ENDBRANCH   1   2
BRANCH   1   5
ATOM      5  C   UNL     1      19.158  24.845   1.583  1.00  0.00     0.006 C 
BRANCH   5   6
ATOM      6  C   UNL     1      19.587  25.059   3.040  1.00  0.00    -0.003 C 
ATOM      7  C   UNL     1      20.800  24.200   3.388  1.00  0.00     0.004 C 
ENDBRANCH   5   6
ENDBRANCH   1   5
TORSDOF 3
ENDMDL
MODEL 3
REMARK VINA RESULT:    -4.185     10.021     10.871
REMARK INTER + INTRA:          -4.934
REMARK INTER:                  -4.897
REMARK INTRA:                  -0.037
REMARK UNBOUND:                -0.016
REMARK SMILES CCCCC(=O)[O-]
REMARK SMILES IDX 4 1 5 2 6 3 7 4 3 5 2 6 1 7
REMARK H PARENT
REMARK Flexibility Score: inf
ROOT
ATOM      1  C   UNL     1      18.952  25.035   1.103  1.00  0.00     0.053 C 
ENDROOT
BRANCH   1   2
ATOM      2  C   UNL     1      19.614  24.928   2.442  1.00  0.00     0.041 C 
ATOM      3  O   UNL     1      19.208  25.624   3.409  1.00  0.00    -0.550 OA
ATOM      4  O   UNL     1      20.702  24.082   2.614  1.00  0.00    -0.550 OA
ENDBRANCH   1   2
BRANCH   1   5
ATOM      5  C   UNL     1      18.780  26.497   0.669  1.00  0.00     0.006 C 
BRANCH   5   6
ATOM      6  C   UNL     1      17.744  26.652  -0.452  1.00  0.00    -0.003 C 
ATOM      7  C   UNL     1      17.381  25.297  -1.055  1.00  0.00     0.004 C 
ENDBRANCH   5   6
ENDBRANCH   1   5
TORSDOF 3
ENDMDL
MODEL 4
REMARK VINA RESULT:    -4.175     11.359     12.217
REMARK INTER + INTRA:          -4.923
REMARK INTER:                  -4.872
REMARK INTRA:                  -0.051
REMARK UNBOUND:                -0.016
REMARK SMILES CCCCC(=O)[O-]
REMARK SMILES IDX 4 1 5 2 6 3 7 4 3 5 2 6 1 7
REMARK H PARENT
REMARK Flexibility Score: inf
ROOT
ATOM      1  C   UNL     1      18.690  26.543  -0.179  1.00  0.00     0.053 C 
ENDROOT
BRANCH   1   2
ATOM      2  C   UNL     1      19.055  25.486   0.818  1.00  0.00     0.041 C 
ATOM      3  O   UNL     1      18.971  25.719   2.051  1.00  0.00    -0.550 OA
ATOM      4  O   UNL     1      19.521  24.252   0.382  1.00  0.00    -0.550 OA
ENDBRANCH   1   2
BRANCH   1   5
ATOM      5  C   UNL     1      17.200  26.490  -0.542  1.00  0.00     0.006 C 
BRANCH   5   6
ATOM      6  C   UNL     1      16.904  25.448  -1.630  1.00  0.00    -0.003 C 
ATOM      7  C   UNL     1      15.417  25.109  -1.677  1.00  0.00     0.004 C 
ENDBRANCH   5   6
ENDBRANCH   1   5
TORSDOF 3
ENDMDL
MODEL 5
REMARK VINA RESULT:    -4.081     12.245     13.023
REMARK INTER + INTRA:          -4.812
REMARK INTER:                  -4.767
REMARK INTRA:                  -0.046
REMARK UNBOUND:                -0.016
REMARK SMILES CCCCC(=O)[O-]
REMARK SMILES IDX 4 1 5 2 6 3 7 4 3 5 2 6 1 7
REMARK H PARENT
REMARK Flexibility Score: inf
ROOT
ATOM      1  C   UNL     1      17.014  25.757  -1.507  1.00  0.00     0.053 C 
ENDROOT
BRANCH   1   2
ATOM      2  C   UNL     1      15.725  25.165  -1.989  1.00  0.00     0.041 C 
ATOM      3  O   UNL     1      15.090  24.354  -1.266  1.00  0.00    -0.550 OA
ATOM      4  O   UNL     1      15.242  25.485  -3.251  1.00  0.00    -0.550 OA
ENDBRANCH   1   2
BRANCH   1   5
ATOM      5  C   UNL     1      17.689  24.869  -0.454  1.00  0.00     0.006 C 
BRANCH   5   6
ATOM      6  C   UNL     1      18.656  25.659   0.438  1.00  0.00    -0.003 C 
ATOM      7  C   UNL     1      18.592  27.153   0.130  1.00  0.00     0.004 C 
ENDBRANCH   5   6
ENDBRANCH   1   5
TORSDOF 3
ENDMDL
MODEL 6
REMARK VINA RESULT:    -4.024     12.049     12.837
REMARK INTER + INTRA:          -4.745
REMARK INTER:                  -4.711
REMARK INTRA:                  -0.034
REMARK UNBOUND:                -0.016
REMARK SMILES CCCCC(=O)[O-]
REMARK SMILES IDX 4 1 5 2 6 3 7 4 3 5 2 6 1 7
REMARK H PARENT
REMARK Flexibility Score: inf
ROOT
ATOM      1  C   UNL     1      16.941  25.147  -0.844  1.00  0.00     0.053 C 
ENDROOT
BRANCH   1   2
ATOM      2  C   UNL     1      15.767  25.101  -1.773  1.00  0.00     0.041 C 
ATOM      3  O   UNL     1      15.826  25.658  -2.900  1.00  0.00    -0.550 OA
ATOM      4  O   UNL     1      14.594  24.470  -1.379  1.00  0.00    -0.550 OA
ENDBRANCH   1   2
BRANCH   1   5
ATOM      5  C   UNL     1      17.532  26.560  -0.745  1.00  0.00     0.006 C 
BRANCH   5   6
ATOM      6  C   UNL     1      18.705  26.630   0.241  1.00  0.00    -0.003 C 
ATOM      7  C   UNL     1      18.844  25.327   1.024  1.00  0.00     0.004 C 
ENDBRANCH   5   6
ENDBRANCH   1   5
TORSDOF 3
ENDMDL
MODEL 7
REMARK VINA RESULT:    -3.749      2.456      3.758
REMARK INTER + INTRA:          -4.423
REMARK INTER:                  -4.394
REMARK INTRA:                  -0.029
REMARK UNBOUND:                -0.016
REMARK SMILES CCCCC(=O)[O-]
REMARK SMILES IDX 4 1 5 2 6 3 7 4 3 5 2 6 1 7
REMARK H PARENT
REMARK Flexibility Score: inf
ROOT
ATOM      1  C   UNL     1      17.992  24.368  11.424  1.00  0.00     0.053 C 
ENDROOT
BRANCH   1   2
ATOM      2  C   UNL     1      19.055  24.105  10.402  1.00  0.00     0.041 C 
ATOM      3  O   UNL     1      20.177  24.668  10.494  1.00  0.00    -0.550 OA
ATOM      4  O   UNL     1      18.795  23.262   9.330  1.00  0.00    -0.550 OA
ENDBRANCH   1   2
BRANCH   1   5
ATOM      5  C   UNL     1      16.991  23.208  11.514  1.00  0.00     0.006 C 
BRANCH   5   6
ATOM      6  C   UNL     1      16.065  23.334  12.731  1.00  0.00    -0.003 C 
ATOM      7  C   UNL     1      16.869  23.475  14.021  1.00  0.00     0.004 C 
ENDBRANCH   5   6
ENDBRANCH   1   5
TORSDOF 3
ENDMDL
MODEL 8
REMARK VINA RESULT:    -3.274     11.822     12.585
REMARK INTER + INTRA:          -3.864
REMARK INTER:                  -3.738
REMARK INTRA:                  -0.126
REMARK UNBOUND:                -0.016
REMARK SMILES CCCCC(=O)[O-]
REMARK SMILES IDX 4 1 5 2 6 3 7 4 3 5 2 6 1 7
REMARK H PARENT
REMARK Flexibility Score: inf
ROOT
ATOM      1  C   UNL     1      17.615  24.695  -0.497  1.00  0.00     0.053 C 
ENDROOT
BRANCH   1   2
ATOM      2  C   UNL     1      18.967  24.290  -0.997  1.00  0.00     0.041 C 
ATOM      3  O   UNL     1      19.603  23.362  -0.432  1.00  0.00    -0.550 OA
ATOM      4  O   UNL     1      19.541  24.961  -2.069  1.00  0.00    -0.550 OA
ENDBRANCH   1   2
BRANCH   1   5
ATOM      5  C   UNL     1      17.419  26.215  -0.555  1.00  0.00     0.006 C 
BRANCH   5   6
ATOM      6  C   UNL     1      18.189  26.942   0.557  1.00  0.00    -0.003 C 
ATOM      7  C   UNL     1      19.060  28.057  -0.016  1.00  0.00     0.004 C 
ENDBRANCH   5   6
ENDBRANCH   1   5
TORSDOF 3
ENDMDL
MODEL 9
REMARK VINA RESULT:    -3.208      9.210     10.631
REMARK INTER + INTRA:          -3.786
REMARK INTER:                  -3.707
REMARK INTRA:                  -0.079
REMARK UNBOUND:                -0.016
REMARK SMILES CCCCC(=O)[O-]
REMARK SMILES IDX 4 1 5 2 6 3 7 4 3 5 2 6 1 7
REMARK H PARENT
REMARK Flexibility Score: inf
ROOT
ATOM      1  C   UNL     1      26.020  19.745   6.518  1.00  0.00     0.053 C 
ENDROOT
BRANCH   1   2
ATOM      2  C   UNL     1      25.719  19.712   5.051  1.00  0.00     0.041 C 
ATOM      3  O   UNL     1      24.916  18.861   4.586  1.00  0.00    -0.550 OA
ATOM      4  O   UNL     1      26.352  20.601   4.192  1.00  0.00    -0.550 OA
ENDBRANCH   1   2
BRANCH   1   5
ATOM      5  C   UNL     1      25.601  18.443   7.214  1.00  0.00     0.006 C 
BRANCH   5   6
ATOM      6  C   UNL     1      24.669  18.697   8.406  1.00  0.00    -0.003 C 
ATOM      7  C   UNL     1      23.852  19.970   8.205  1.00  0.00     0.004 C 
ENDBRANCH   5   6
ENDBRANCH   1   5
TORSDOF 3
ENDMDL
