MODEL 1
REMARK VINA RESULT:    -6.024      0.000      0.000
REMARK INTER + INTRA:          -6.606
REMARK INTER:                  -6.376
REMARK INTRA:                  -0.229
REMARK UNBOUND:                -0.229
REMARK SMILES O=c1cc(-c2ccccc2)oc2ccccc12
REMARK SMILES IDX 4 1 3 2 2 3 1 4 17 5 16 6 15 7 14 8 13 9 12 10 11 11 5 12
REMARK SMILES IDX 8 13 7 14 9 15 6 16 10 17
REMARK H PARENT
REMARK Flexibility Score: inf
ROOT
ATOM      1  C   UNL     1      18.415  -1.048 -16.614  1.00  0.00     0.138 A 
ATOM      2  C   UNL     1      17.691  -0.158 -15.793  1.00  0.00     0.100 A 
ATOM      3  C   UNL     1      16.913  -0.663 -14.749  1.00  0.00     0.193 A 
ATOM      4  O   UNL     1      16.266   0.132 -14.015  1.00  0.00    -0.289 OA
ATOM      5  C   UNL     1      16.863  -2.047 -14.532  1.00  0.00     0.065 A 
ATOM      6  C   UNL     1      16.099  -2.621 -13.500  1.00  0.00     0.016 A 
ATOM      7  C   UNL     1      16.085  -4.009 -13.328  1.00  0.00     0.001 A 
ATOM      8  C   UNL     1      16.827  -4.830 -14.180  1.00  0.00     0.004 A 
ATOM      9  C   UNL     1      17.589  -4.270 -15.209  1.00  0.00     0.048 A 
ATOM     10  C   UNL     1      17.611  -2.882 -15.390  1.00  0.00     0.138 A 
ATOM     11  O   UNL     1      18.338  -2.357 -16.371  1.00  0.00    -0.456 OA
ENDROOT
BRANCH   1  12
ATOM     12  C   UNL     1      19.272  -0.592 -17.751  1.00  0.00     0.017 A 
ATOM     13  C   UNL     1      20.828   0.227 -19.960  1.00  0.00     0.000 A 
ATOM     14  C   UNL     1      21.215   0.575 -18.666  1.00  0.00     0.001 A 
ATOM     15  C   UNL     1      19.671  -0.525 -20.161  1.00  0.00     0.001 A 
ATOM     16  C   UNL     1      20.448   0.172 -17.568  1.00  0.00     0.012 A 
ATOM     17  C   UNL     1      18.900  -0.932 -19.069  1.00  0.00     0.012 A 
ENDBRANCH   1  12
TORSDOF 1
ENDMDL
MODEL 2
REMARK VINA RESULT:    -5.920      7.916      9.895
REMARK INTER + INTRA:          -6.496
REMARK INTER:                  -6.275
REMARK INTRA:                  -0.221
REMARK UNBOUND:                -0.229
REMARK SMILES O=c1cc(-c2ccccc2)oc2ccccc12
REMARK SMILES IDX 4 1 3 2 2 3 1 4 17 5 16 6 15 7 14 8 13 9 12 10 11 11 5 12
REMARK SMILES IDX 8 13 7 14 9 15 6 16 10 17
REMARK H PARENT
REMARK Flexibility Score: inf
ROOT
ATOM      1  C   UNL     1      20.865  -2.057  -7.271  1.00  0.00     0.138 A 
ATOM      2  C   UNL     1      20.660  -0.683  -7.029  1.00  0.00     0.100 A 
ATOM      3  C   UNL     1      19.495  -0.069  -7.494  1.00  0.00     0.193 A 
ATOM      4  O   UNL     1      19.310   1.160  -7.277  1.00  0.00    -0.289 OA
ATOM      5  C   UNL     1      18.546  -0.828  -8.194  1.00  0.00     0.065 A 
ATOM      6  C   UNL     1      17.353  -0.272  -8.690  1.00  0.00     0.016 A 
ATOM      7  C   UNL     1      16.442  -1.075  -9.382  1.00  0.00     0.001 A 
ATOM      8  C   UNL     1      16.712  -2.431  -9.585  1.00  0.00     0.004 A 
ATOM      9  C   UNL     1      17.895  -2.992  -9.097  1.00  0.00     0.048 A 
ATOM     10  C   UNL     1      18.814  -2.198  -8.402  1.00  0.00     0.138 A 
ATOM     11  O   UNL     1      19.936  -2.740  -7.941  1.00  0.00    -0.456 OA
ENDROOT
BRANCH   1  12
ATOM     12  C   UNL     1      22.083  -2.792  -6.808  1.00  0.00     0.017 A 
ATOM     13  C   UNL     1      24.429  -4.146  -6.012  1.00  0.00     0.000 A 
ATOM     14  C   UNL     1      23.286  -4.202  -5.215  1.00  0.00     0.001 A 
ATOM     15  C   UNL     1      24.411  -3.421  -7.203  1.00  0.00     0.001 A 
ATOM     16  C   UNL     1      22.121  -3.532  -5.604  1.00  0.00     0.012 A 
ATOM     17  C   UNL     1      23.251  -2.750  -7.599  1.00  0.00     0.012 A 
ENDBRANCH   1  12
TORSDOF 1
ENDMDL
MODEL 3
REMARK VINA RESULT:    -5.840      8.824     10.479
REMARK INTER + INTRA:          -6.410
REMARK INTER:                  -6.180
REMARK INTRA:                  -0.230
REMARK UNBOUND:                -0.229
REMARK SMILES O=c1cc(-c2ccccc2)oc2ccccc12
REMARK SMILES IDX 4 1 3 2 2 3 1 4 17 5 16 6 15 7 14 8 13 9 12 10 11 11 5 12
REMARK SMILES IDX 8 13 7 14 9 15 6 16 10 17
REMARK H PARENT
REMARK Flexibility Score: inf
ROOT
ATOM      1  C   UNL     1      20.962  -1.959  -7.167  1.00  0.00     0.138 A 
ATOM      2  C   UNL     1      19.720  -2.559  -7.465  1.00  0.00     0.100 A 
ATOM      3  C   UNL     1      18.632  -1.755  -7.808  1.00  0.00     0.193 A 
ATOM      4  O   UNL     1      17.522  -2.292  -8.075  1.00  0.00    -0.289 OA
ATOM      5  C   UNL     1      18.788  -0.363  -7.852  1.00  0.00     0.065 A 
ATOM      6  C   UNL     1      17.734   0.504  -8.190  1.00  0.00     0.016 A 
ATOM      7  C   UNL     1      17.945   1.886  -8.219  1.00  0.00     0.001 A 
ATOM      8  C   UNL     1      19.203   2.411  -7.912  1.00  0.00     0.004 A 
ATOM      9  C   UNL     1      20.257   1.558  -7.575  1.00  0.00     0.048 A 
ATOM     10  C   UNL     1      20.057   0.174  -7.543  1.00  0.00     0.138 A 
ATOM     11  O   UNL     1      21.066  -0.630  -7.222  1.00  0.00    -0.456 OA
ENDROOT
BRANCH   1  12
ATOM     12  C   UNL     1      22.177  -2.746  -6.792  1.00  0.00     0.017 A 
ATOM     13  C   UNL     1      24.514  -4.199  -6.164  1.00  0.00     0.000 A 
ATOM     14  C   UNL     1      23.419  -4.232  -5.301  1.00  0.00     0.001 A 
ATOM     15  C   UNL     1      24.453  -3.448  -7.337  1.00  0.00     0.001 A 
ATOM     16  C   UNL     1      22.258  -3.513  -5.607  1.00  0.00     0.012 A 
ATOM     17  C   UNL     1      23.297  -2.728  -7.650  1.00  0.00     0.012 A 
ENDBRANCH   1  12
TORSDOF 1
ENDMDL
MODEL 4
REMARK VINA RESULT:    -5.800      8.372     11.246
REMARK INTER + INTRA:          -6.368
REMARK INTER:                  -6.148
REMARK INTRA:                  -0.220
REMARK UNBOUND:                -0.229
REMARK SMILES O=c1cc(-c2ccccc2)oc2ccccc12
REMARK SMILES IDX 4 1 3 2 2 3 1 4 17 5 16 6 15 7 14 8 13 9 12 10 11 11 5 12
REMARK SMILES IDX 8 13 7 14 9 15 6 16 10 17
REMARK H PARENT
REMARK Flexibility Score: inf
ROOT
ATOM      1  C   UNL     1      10.821  -5.906 -10.361  1.00  0.00     0.138 A 
ATOM      2  C   UNL     1       9.744  -5.328 -11.063  1.00  0.00     0.100 A 
ATOM      3  C   UNL     1       8.557  -5.037 -10.386  1.00  0.00     0.193 A 
ATOM      4  O   UNL     1       7.594  -4.519 -11.014  1.00  0.00    -0.289 OA
ATOM      5  C   UNL     1       8.456  -5.323  -9.017  1.00  0.00     0.065 A 
ATOM      6  C   UNL     1       7.291  -5.055  -8.276  1.00  0.00     0.016 A 
ATOM      7  C   UNL     1       7.243  -5.361  -6.913  1.00  0.00     0.001 A 
ATOM      8  C   UNL     1       8.350  -5.933  -6.281  1.00  0.00     0.004 A 
ATOM      9  C   UNL     1       9.512  -6.203  -7.010  1.00  0.00     0.048 A 
ATOM     10  C   UNL     1       9.571  -5.901  -8.374  1.00  0.00     0.138 A 
ATOM     11  O   UNL     1      10.680  -6.161  -9.059  1.00  0.00    -0.456 OA
ENDROOT
BRANCH   1  12
ATOM     12  C   UNL     1      12.125  -6.249 -11.008  1.00  0.00     0.017 A 
ATOM     13  C   UNL     1      14.552  -6.985 -12.249  1.00  0.00     0.000 A 
ATOM     14  C   UNL     1      14.386  -5.693 -11.751  1.00  0.00     0.001 A 
ATOM     15  C   UNL     1      13.517  -7.913 -12.133  1.00  0.00     0.001 A 
ATOM     16  C   UNL     1      13.186  -5.323 -11.135  1.00  0.00     0.012 A 
ATOM     17  C   UNL     1      12.315  -7.550 -11.520  1.00  0.00     0.012 A 
ENDBRANCH   1  12
TORSDOF 1
ENDMDL
MODEL 5
REMARK VINA RESULT:    -5.746      1.611      2.759
REMARK INTER + INTRA:          -6.312
REMARK INTER:                  -6.090
REMARK INTRA:                  -0.221
REMARK UNBOUND:                -0.229
REMARK SMILES O=c1cc(-c2ccccc2)oc2ccccc12
REMARK SMILES IDX 4 1 3 2 2 3 1 4 17 5 16 6 15 7 14 8 13 9 12 10 11 11 5 12
REMARK SMILES IDX 8 13 7 14 9 15 6 16 10 17
REMARK H PARENT
REMARK Flexibility Score: inf
ROOT
ATOM      1  C   UNL     1      18.006  -0.896 -16.202  1.00  0.00     0.138 A 
ATOM      2  C   UNL     1      18.008  -2.119 -15.500  1.00  0.00     0.100 A 
ATOM      3  C   UNL     1      17.070  -2.332 -14.487  1.00  0.00     0.193 A 
ATOM      4  O   UNL     1      17.071  -3.426 -13.859  1.00  0.00    -0.289 OA
ATOM      5  C   UNL     1      16.142  -1.327 -14.183  1.00  0.00     0.065 A 
ATOM      6  C   UNL     1      15.172  -1.477 -13.175  1.00  0.00     0.016 A 
ATOM      7  C   UNL     1      14.270  -0.441 -12.913  1.00  0.00     0.001 A 
ATOM      8  C   UNL     1      14.327   0.745 -13.649  1.00  0.00     0.004 A 
ATOM      9  C   UNL     1      15.287   0.903 -14.652  1.00  0.00     0.048 A 
ATOM     10  C   UNL     1      16.195  -0.127 -14.924  1.00  0.00     0.138 A 
ATOM     11  O   UNL     1      17.104   0.032 -15.880  1.00  0.00    -0.456 OA
ENDROOT
BRANCH   1  12
ATOM     12  C   UNL     1      18.974  -0.587 -17.301  1.00  0.00     0.017 A 
ATOM     13  C   UNL     1      20.744  -0.055 -19.434  1.00  0.00     0.000 A 
ATOM     14  C   UNL     1      20.999   0.470 -18.168  1.00  0.00     0.001 A 
ATOM     15  C   UNL     1      19.612  -0.843 -19.645  1.00  0.00     0.001 A 
ATOM     16  C   UNL     1      20.125   0.210 -17.107  1.00  0.00     0.012 A 
ATOM     17  C   UNL     1      18.735  -1.108 -18.590  1.00  0.00     0.012 A 
ENDBRANCH   1  12
TORSDOF 1
ENDMDL
MODEL 6
REMARK VINA RESULT:    -5.676      1.837      5.954
REMARK INTER + INTRA:          -6.238
REMARK INTER:                  -6.017
REMARK INTRA:                  -0.220
REMARK UNBOUND:                -0.229
REMARK SMILES O=c1cc(-c2ccccc2)oc2ccccc12
REMARK SMILES IDX 4 1 3 2 2 3 1 4 17 5 16 6 15 7 14 8 13 9 12 10 11 11 5 12
REMARK SMILES IDX 8 13 7 14 9 15 6 16 10 17
REMARK H PARENT
REMARK Flexibility Score: inf
ROOT
ATOM      1  C   UNL     1      17.657  -0.149 -15.503  1.00  0.00     0.138 A 
ATOM      2  C   UNL     1      18.751   0.600 -15.023  1.00  0.00     0.100 A 
ATOM      3  C   UNL     1      19.864   0.796 -15.843  1.00  0.00     0.193 A 
ATOM      4  O   UNL     1      20.842   1.467 -15.414  1.00  0.00    -0.289 OA
ATOM      5  C   UNL     1      19.878   0.244 -17.132  1.00  0.00     0.065 A 
ATOM      6  C   UNL     1      20.967   0.403 -18.008  1.00  0.00     0.016 A 
ATOM      7  C   UNL     1      20.928  -0.169 -19.283  1.00  0.00     0.001 A 
ATOM      8  C   UNL     1      19.810  -0.900 -19.692  1.00  0.00     0.004 A 
ATOM      9  C   UNL     1      18.723  -1.064 -18.828  1.00  0.00     0.048 A 
ATOM     10  C   UNL     1      18.751  -0.495 -17.550  1.00  0.00     0.138 A 
ATOM     11  O   UNL     1      17.713  -0.656 -16.736  1.00  0.00    -0.456 OA
ENDROOT
BRANCH   1  12
ATOM     12  C   UNL     1      16.427  -0.406 -14.692  1.00  0.00     0.017 A 
ATOM     13  C   UNL     1      14.064  -0.810 -13.200  1.00  0.00     0.000 A 
ATOM     14  C   UNL     1      15.131  -1.699 -13.072  1.00  0.00     0.001 A 
ATOM     15  C   UNL     1      14.166   0.278 -14.066  1.00  0.00     0.001 A 
ATOM     16  C   UNL     1      16.305  -1.503 -13.809  1.00  0.00     0.012 A 
ATOM     17  C   UNL     1      15.335   0.480 -14.805  1.00  0.00     0.012 A 
ENDBRANCH   1  12
TORSDOF 1
ENDMDL
MODEL 7
REMARK VINA RESULT:    -5.665     10.457     11.484
REMARK INTER + INTRA:          -6.225
REMARK INTER:                  -5.998
REMARK INTRA:                  -0.227
REMARK UNBOUND:                -0.229
REMARK SMILES O=c1cc(-c2ccccc2)oc2ccccc12
REMARK SMILES IDX 4 1 3 2 2 3 1 4 17 5 16 6 15 7 14 8 13 9 12 10 11 11 5 12
REMARK SMILES IDX 8 13 7 14 9 15 6 16 10 17
REMARK H PARENT
REMARK Flexibility Score: inf
ROOT
ATOM      1  C   UNL     1       8.695   3.643 -17.877  1.00  0.00     0.138 A 
ATOM      2  C   UNL     1       8.620   3.083 -16.585  1.00  0.00     0.100 A 
ATOM      3  C   UNL     1       7.641   2.127 -16.304  1.00  0.00     0.193 A 
ATOM      4  O   UNL     1       7.573   1.626 -15.149  1.00  0.00    -0.289 OA
ATOM      5  C   UNL     1       6.748   1.737 -17.313  1.00  0.00     0.065 A 
ATOM      6  C   UNL     1       5.739   0.781 -17.098  1.00  0.00     0.016 A 
ATOM      7  C   UNL     1       4.875   0.429 -18.139  1.00  0.00     0.001 A 
ATOM      8  C   UNL     1       5.009   1.025 -19.395  1.00  0.00     0.004 A 
ATOM      9  C   UNL     1       6.007   1.977 -19.619  1.00  0.00     0.048 A 
ATOM     10  C   UNL     1       6.878   2.336 -18.584  1.00  0.00     0.138 A 
ATOM     11  O   UNL     1       7.825   3.242 -18.806  1.00  0.00    -0.456 OA
ENDROOT
BRANCH   1  12
ATOM     12  C   UNL     1       9.712   4.670 -18.261  1.00  0.00     0.017 A 
ATOM     13  C   UNL     1      11.674   6.543 -19.043  1.00  0.00     0.000 A 
ATOM     14  C   UNL     1      10.666   6.918 -18.155  1.00  0.00     0.001 A 
ATOM     15  C   UNL     1      11.711   5.242 -19.544  1.00  0.00     0.001 A 
ATOM     16  C   UNL     1       9.691   5.994 -17.764  1.00  0.00     0.012 A 
ATOM     17  C   UNL     1      10.741   4.314 -19.158  1.00  0.00     0.012 A 
ENDBRANCH   1  12
TORSDOF 1
ENDMDL
MODEL 8
REMARK VINA RESULT:    -5.656     10.331     13.721
REMARK INTER + INTRA:          -6.216
REMARK INTER:                  -5.954
REMARK INTRA:                  -0.262
REMARK UNBOUND:                -0.229
REMARK SMILES O=c1cc(-c2ccccc2)oc2ccccc12
REMARK SMILES IDX 4 1 3 2 2 3 1 4 17 5 16 6 15 7 14 8 13 9 12 10 11 11 5 12
REMARK SMILES IDX 8 13 7 14 9 15 6 16 10 17
REMARK H PARENT
REMARK Flexibility Score: inf
ROOT
ATOM      1  C   UNL     1      12.831   3.494  -5.928  1.00  0.00     0.138 A 
ATOM      2  C   UNL     1      12.708   2.610  -7.020  1.00  0.00     0.100 A 
ATOM      3  C   UNL     1      13.725   2.550  -7.976  1.00  0.00     0.193 A 
ATOM      4  O   UNL     1      13.615   1.759  -8.952  1.00  0.00    -0.289 OA
ATOM      5  C   UNL     1      14.853   3.370  -7.835  1.00  0.00     0.065 A 
ATOM      6  C   UNL     1      15.912   3.359  -8.761  1.00  0.00     0.016 A 
ATOM      7  C   UNL     1      17.015   4.198  -8.572  1.00  0.00     0.001 A 
ATOM      8  C   UNL     1      17.069   5.049  -7.466  1.00  0.00     0.004 A 
ATOM      9  C   UNL     1      16.022   5.067  -6.541  1.00  0.00     0.048 A 
ATOM     10  C   UNL     1      14.914   4.232  -6.719  1.00  0.00     0.138 A 
ATOM     11  O   UNL     1      13.923   4.255  -5.834  1.00  0.00    -0.456 OA
ENDROOT
BRANCH   1  12
ATOM     12  C   UNL     1      11.791   3.619  -4.861  1.00  0.00     0.017 A 
ATOM     13  C   UNL     1       9.790   3.771  -2.875  1.00  0.00     0.000 A 
ATOM     14  C   UNL     1      10.735   4.790  -2.993  1.00  0.00     0.001 A 
ATOM     15  C   UNL     1       9.835   2.677  -3.739  1.00  0.00     0.001 A 
ATOM     16  C   UNL     1      11.729   4.720  -3.976  1.00  0.00     0.012 A 
ATOM     17  C   UNL     1      10.824   2.601  -4.723  1.00  0.00     0.012 A 
ENDBRANCH   1  12
TORSDOF 1
ENDMDL
MODEL 9
REMARK VINA RESULT:    -5.572     10.627     12.544
REMARK INTER + INTRA:          -6.127
REMARK INTER:                  -5.901
REMARK INTRA:                  -0.226
REMARK UNBOUND:                -0.229
REMARK SMILES O=c1cc(-c2ccccc2)oc2ccccc12
REMARK SMILES IDX 4 1 3 2 2 3 1 4 17 5 16 6 15 7 14 8 13 9 12 10 11 11 5 12
REMARK SMILES IDX 8 13 7 14 9 15 6 16 10 17
REMARK H PARENT
REMARK Flexibility Score: inf
ROOT
ATOM      1  C   UNL     1       7.821   3.615 -18.134  1.00  0.00     0.138 A 
ATOM      2  C   UNL     1       7.446   4.840 -17.543  1.00  0.00     0.100 A 
ATOM      3  C   UNL     1       8.370   5.885 -17.478  1.00  0.00     0.193 A 
ATOM      4  O   UNL     1       8.035   6.980 -16.950  1.00  0.00    -0.289 OA
ATOM      5  C   UNL     1       9.658   5.702 -18.002  1.00  0.00     0.065 A 
ATOM      6  C   UNL     1      10.636   6.712 -17.969  1.00  0.00     0.016 A 
ATOM      7  C   UNL     1      11.905   6.475 -18.506  1.00  0.00     0.001 A 
ATOM      8  C   UNL     1      12.207   5.236 -19.077  1.00  0.00     0.004 A 
ATOM      9  C   UNL     1      11.242   4.226 -19.114  1.00  0.00     0.048 A 
ATOM     10  C   UNL     1       9.969   4.452 -18.580  1.00  0.00     0.138 A 
ATOM     11  O   UNL     1       9.057   3.486 -18.620  1.00  0.00    -0.456 OA
ENDROOT
BRANCH   1  12
ATOM     12  C   UNL     1       6.894   2.447 -18.245  1.00  0.00     0.017 A 
ATOM     13  C   UNL     1       5.136   0.259 -18.549  1.00  0.00     0.000 A 
ATOM     14  C   UNL     1       5.671   0.556 -17.296  1.00  0.00     0.001 A 
ATOM     15  C   UNL     1       5.471   1.045 -19.652  1.00  0.00     0.001 A 
ATOM     16  C   UNL     1       6.543   1.639 -17.139  1.00  0.00     0.012 A 
ATOM     17  C   UNL     1       6.341   2.129 -19.503  1.00  0.00     0.012 A 
ENDBRANCH   1  12
TORSDOF 1
ENDMDL
