MODEL 1
REMARK VINA RESULT:     0.000      0.000      0.000
REMARK INTER + INTRA:          -0.116
REMARK INTER:                   0.000
REMARK INTRA:                  -0.116
REMARK UNBOUND:                -0.116
REMARK SMILES OCCc1ccc(O)c(O)c1
REMARK SMILES IDX 3 1 4 2 5 3 6 4 7 5 11 6 9 7 8 8 10 10 2 12 1 13
REMARK H PARENT 8 9 10 11 1 14
REMARK Flexibility Score: inf
ROOT
ATOM      1  C   UNL     1       8.858  18.240  52.385  1.00  0.00     0.064 C 
ENDROOT
BRANCH   1   2
ATOM      2  C   UNL     1       9.090  18.599  50.940  1.00  0.00    -0.042 A 
ATOM      3  C   UNL     1      10.223  18.122  50.263  1.00  0.00     0.008 A 
ATOM      4  C   UNL     1      10.422  18.432  48.915  1.00  0.00     0.050 A 
ATOM      5  C   UNL     1       9.490  19.214  48.224  1.00  0.00     0.157 A 
ATOM      6  C   UNL     1       8.149  19.374  50.244  1.00  0.00     0.054 A 
ATOM      7  C   UNL     1       8.346  19.687  48.891  1.00  0.00     0.157 A 
BRANCH   5   8
ATOM      8  O   UNL     1       9.714  19.507  46.880  1.00  0.00    -0.504 OA
ATOM      9  H   UNL     1       8.968  19.806  46.263  1.00  0.00     0.293 HD
ENDBRANCH   5   8
BRANCH   7  10
ATOM     10  O   UNL     1       7.411  20.462  48.208  1.00  0.00    -0.504 OA
ATOM     11  H   UNL     1       6.666  20.040  47.665  1.00  0.00     0.293 HD
ENDBRANCH   7  10
ENDBRANCH   1   2
BRANCH   1  12
ATOM     12  C   UNL     1       8.834  16.726  52.585  1.00  0.00     0.161 C 
BRANCH  12  13
ATOM     13  O   UNL     1       7.713  16.174  51.950  1.00  0.00    -0.396 OA
ATOM     14  H   UNL     1       7.772  15.193  52.092  1.00  0.00     0.210 HD
ENDBRANCH  12  13
ENDBRANCH   1  12
TORSDOF 5
ENDMDL
MODEL 2
REMARK VINA RESULT:     0.000     11.291     11.963
REMARK INTER + INTRA:          -0.116
REMARK INTER:                   0.000
REMARK INTRA:                  -0.116
REMARK UNBOUND:                -0.116
REMARK SMILES OCCc1ccc(O)c(O)c1
REMARK SMILES IDX 3 1 4 2 5 3 6 4 7 5 11 6 9 7 8 8 10 10 2 12 1 13
REMARK H PARENT 8 9 10 11 1 14
REMARK Flexibility Score: inf
ROOT
ATOM      1  C   UNL     1      17.962  21.111  60.008  1.00  0.00     0.064 C 
ENDROOT
BRANCH   1   2
ATOM      2  C   UNL     1      17.522  21.737  58.710  1.00  0.00    -0.042 A 
ATOM      3  C   UNL     1      18.391  22.573  57.994  1.00  0.00     0.008 A 
ATOM      4  C   UNL     1      17.991  23.130  56.776  1.00  0.00     0.050 A 
ATOM      5  C   UNL     1      16.724  22.852  56.254  1.00  0.00     0.157 A 
ATOM      6  C   UNL     1      16.253  21.449  58.181  1.00  0.00     0.054 A 
ATOM      7  C   UNL     1      15.850  22.006  56.958  1.00  0.00     0.157 A 
BRANCH   5   8
ATOM      8  O   UNL     1      16.352  23.421  55.037  1.00  0.00    -0.504 OA
ATOM      9  H   UNL     1      16.954  24.066  54.538  1.00  0.00     0.293 HD
ENDBRANCH   5   8
BRANCH   7  10
ATOM     10  O   UNL     1      14.587  21.721  56.442  1.00  0.00    -0.504 OA
ATOM     11  H   UNL     1      14.407  21.729  55.444  1.00  0.00     0.293 HD
ENDBRANCH   7  10
ENDBRANCH   1   2
BRANCH   1  12
ATOM     12  C   UNL     1      19.241  20.295  59.826  1.00  0.00     0.161 C 
BRANCH  12  13
ATOM     13  O   UNL     1      18.989  19.178  59.019  1.00  0.00    -0.396 OA
ATOM     14  H   UNL     1      19.550  19.291  58.208  1.00  0.00     0.210 HD
ENDBRANCH  12  13
ENDBRANCH   1  12
TORSDOF 5
ENDMDL
MODEL 3
REMARK VINA RESULT:     0.000     10.923     12.422
REMARK INTER + INTRA:          -0.116
REMARK INTER:                   0.000
REMARK INTRA:                  -0.116
REMARK UNBOUND:                -0.116
REMARK SMILES OCCc1ccc(O)c(O)c1
REMARK SMILES IDX 3 1 4 2 5 3 6 4 7 5 11 6 9 7 8 8 10 10 2 12 1 13
REMARK H PARENT 8 9 10 11 1 14
REMARK Flexibility Score: inf
ROOT
ATOM      1  C   UNL     1      21.771  18.364  51.235  1.00  0.00     0.064 C 
ENDROOT
BRANCH   1   2
ATOM      2  C   UNL     1      20.777  18.168  52.350  1.00  0.00    -0.042 A 
ATOM      3  C   UNL     1      19.523  18.797  52.303  1.00  0.00     0.008 A 
ATOM      4  C   UNL     1      18.592  18.591  53.324  1.00  0.00     0.050 A 
ATOM      5  C   UNL     1      18.895  17.750  54.400  1.00  0.00     0.157 A 
ATOM      6  C   UNL     1      21.078  17.314  53.424  1.00  0.00     0.054 A 
ATOM      7  C   UNL     1      20.144  17.105  54.450  1.00  0.00     0.157 A 
BRANCH   5   8
ATOM      8  O   UNL     1      17.947  17.564  55.404  1.00  0.00    -0.504 OA
ATOM      9  H   UNL     1      16.983  17.331  55.196  1.00  0.00     0.293 HD
ENDBRANCH   5   8
BRANCH   7  10
ATOM     10  O   UNL     1      20.452  16.262  55.516  1.00  0.00    -0.504 OA
ATOM     11  H   UNL     1      19.772  16.049  56.237  1.00  0.00     0.293 HD
ENDBRANCH   7  10
ENDBRANCH   1   2
BRANCH   1  12
ATOM     12  C   UNL     1      21.176  17.967  49.885  1.00  0.00     0.161 C 
BRANCH  12  13
ATOM     13  O   UNL     1      20.944  16.586  49.847  1.00  0.00    -0.396 OA
ATOM     14  H   UNL     1      21.204  16.238  50.739  1.00  0.00     0.210 HD
ENDBRANCH  12  13
ENDBRANCH   1  12
TORSDOF 5
ENDMDL
MODEL 4
REMARK VINA RESULT:     0.000      4.902      5.964
REMARK INTER + INTRA:          -0.116
REMARK INTER:                   0.000
REMARK INTRA:                  -0.116
REMARK UNBOUND:                -0.116
REMARK SMILES OCCc1ccc(O)c(O)c1
REMARK SMILES IDX 3 1 4 2 5 3 6 4 7 5 11 6 9 7 8 8 10 10 2 12 1 13
REMARK H PARENT 8 9 10 11 1 14
REMARK Flexibility Score: inf
ROOT
ATOM      1  C   UNL     1      11.970  15.953  50.804  1.00  0.00     0.064 C 
ENDROOT
BRANCH   1   2
ATOM      2  C   UNL     1      13.256  16.383  50.148  1.00  0.00    -0.042 A 
ATOM      3  C   UNL     1      13.516  16.052  48.810  1.00  0.00     0.008 A 
ATOM      4  C   UNL     1      14.697  16.476  48.194  1.00  0.00     0.050 A 
ATOM      5  C   UNL     1      15.628  17.242  48.903  1.00  0.00     0.157 A 
ATOM      6  C   UNL     1      14.185  17.162  50.857  1.00  0.00     0.054 A 
ATOM      7  C   UNL     1      15.372  17.589  50.241  1.00  0.00     0.157 A 
BRANCH   5   8
ATOM      8  O   UNL     1      16.797  17.651  48.264  1.00  0.00    -0.504 OA
ATOM      9  H   UNL     1      17.130  17.208  47.415  1.00  0.00     0.293 HD
ENDBRANCH   5   8
BRANCH   7  10
ATOM     10  O   UNL     1      16.293  18.356  50.953  1.00  0.00    -0.504 OA
ATOM     11  H   UNL     1      16.319  18.349  51.966  1.00  0.00     0.293 HD
ENDBRANCH   7  10
ENDBRANCH   1   2
BRANCH   1  12
ATOM     12  C   UNL     1      10.755  16.455  50.026  1.00  0.00     0.161 C 
BRANCH  12  13
ATOM     13  O   UNL     1      10.680  17.852  50.096  1.00  0.00    -0.396 OA
ATOM     14  H   UNL     1       9.714  18.078  50.076  1.00  0.00     0.210 HD
ENDBRANCH  12  13
ENDBRANCH   1  12
TORSDOF 5
ENDMDL
MODEL 5
REMARK VINA RESULT:     0.000      3.390      4.417
REMARK INTER + INTRA:          -0.116
REMARK INTER:                   0.000
REMARK INTRA:                  -0.116
REMARK UNBOUND:                -0.116
REMARK SMILES OCCc1ccc(O)c(O)c1
REMARK SMILES IDX 3 1 4 2 5 3 6 4 7 5 11 6 9 7 8 8 10 10 2 12 1 13
REMARK H PARENT 8 9 10 11 1 14
REMARK Flexibility Score: inf
ROOT
ATOM      1  C   UNL     1       5.896  16.624  47.515  1.00  0.00     0.064 C 
ENDROOT
BRANCH   1   2
ATOM      2  C   UNL     1       6.699  17.817  47.066  1.00  0.00    -0.042 A 
ATOM      3  C   UNL     1       6.572  18.306  45.757  1.00  0.00     0.008 A 
ATOM      4  C   UNL     1       7.296  19.430  45.350  1.00  0.00     0.050 A 
ATOM      5  C   UNL     1       8.148  20.085  46.246  1.00  0.00     0.157 A 
ATOM      6  C   UNL     1       7.545  18.481  47.969  1.00  0.00     0.054 A 
ATOM      7  C   UNL     1       8.272  19.610  47.563  1.00  0.00     0.157 A 
BRANCH   5   8
ATOM      8  O   UNL     1       8.857  21.203  45.812  1.00  0.00    -0.504 OA
ATOM      9  H   UNL     1       9.532  21.154  45.059  1.00  0.00     0.293 HD
ENDBRANCH   5   8
BRANCH   7  10
ATOM     10  O   UNL     1       9.115  20.260  48.463  1.00  0.00    -0.504 OA
ATOM     11  H   UNL     1       8.796  20.537  49.384  1.00  0.00     0.293 HD
ENDBRANCH   7  10
ENDBRANCH   1   2
BRANCH   1  12
ATOM     12  C   UNL     1       4.399  16.855  47.319  1.00  0.00     0.161 C 
BRANCH  12  13
ATOM     13  O   UNL     1       3.950  17.866  48.180  1.00  0.00    -0.396 OA
ATOM     14  H   UNL     1       4.547  17.839  48.972  1.00  0.00     0.210 HD
ENDBRANCH  12  13
ENDBRANCH   1  12
TORSDOF 5
ENDMDL
MODEL 6
REMARK VINA RESULT:     0.000      8.079      9.554
REMARK INTER + INTRA:          -0.116
REMARK INTER:                   0.000
REMARK INTRA:                  -0.116
REMARK UNBOUND:                -0.116
REMARK SMILES OCCc1ccc(O)c(O)c1
REMARK SMILES IDX 3 1 4 2 5 3 6 4 7 5 11 6 9 7 8 8 10 10 2 12 1 13
REMARK H PARENT 8 9 10 11 1 14
REMARK Flexibility Score: inf
ROOT
ATOM      1  C   UNL     1       8.396  27.303  45.718  1.00  0.00     0.064 C 
ENDROOT
BRANCH   1   2
ATOM      2  C   UNL     1       9.468  26.249  45.616  1.00  0.00    -0.042 A 
ATOM      3  C   UNL     1       9.301  25.148  44.763  1.00  0.00     0.008 A 
ATOM      4  C   UNL     1      10.309  24.186  44.648  1.00  0.00     0.050 A 
ATOM      5  C   UNL     1      11.497  24.316  45.374  1.00  0.00     0.157 A 
ATOM      6  C   UNL     1      10.666  26.387  46.336  1.00  0.00     0.054 A 
ATOM      7  C   UNL     1      11.679  25.423  46.221  1.00  0.00     0.157 A 
BRANCH   5   8
ATOM      8  O   UNL     1      12.485  23.342  45.238  1.00  0.00    -0.504 OA
ATOM      9  H   UNL     1      13.383  23.418  45.701  1.00  0.00     0.293 HD
ENDBRANCH   5   8
BRANCH   7  10
ATOM     10  O   UNL     1      12.863  25.562  46.944  1.00  0.00    -0.504 OA
ATOM     11  H   UNL     1      13.751  25.717  46.482  1.00  0.00     0.293 HD
ENDBRANCH   7  10
ENDBRANCH   1   2
BRANCH   1  12
ATOM     12  C   UNL     1       8.073  27.902  44.351  1.00  0.00     0.161 C 
BRANCH  12  13
ATOM     13  O   UNL     1       9.170  28.630  43.871  1.00  0.00    -0.396 OA
ATOM     14  H   UNL     1       8.817  29.518  43.606  1.00  0.00     0.210 HD
ENDBRANCH  12  13
ENDBRANCH   1  12
TORSDOF 5
ENDMDL
MODEL 7
REMARK VINA RESULT:     0.000     11.535     11.962
REMARK INTER + INTRA:          -0.116
REMARK INTER:                   0.000
REMARK INTRA:                  -0.116
REMARK UNBOUND:                -0.116
REMARK SMILES OCCc1ccc(O)c(O)c1
REMARK SMILES IDX 3 1 4 2 5 3 6 4 7 5 11 6 9 7 8 8 10 10 2 12 1 13
REMARK H PARENT 8 9 10 11 1 14
REMARK Flexibility Score: inf
ROOT
ATOM      1  C   UNL     1      14.882  24.570  60.163  1.00  0.00     0.064 C 
ENDROOT
BRANCH   1   2
ATOM      2  C   UNL     1      15.622  24.248  58.891  1.00  0.00    -0.042 A 
ATOM      3  C   UNL     1      16.101  22.950  58.658  1.00  0.00     0.008 A 
ATOM      4  C   UNL     1      16.763  22.646  57.465  1.00  0.00     0.050 A 
ATOM      5  C   UNL     1      16.946  23.629  56.488  1.00  0.00     0.157 A 
ATOM      6  C   UNL     1      15.795  25.232  57.905  1.00  0.00     0.054 A 
ATOM      7  C   UNL     1      16.458  24.929  56.706  1.00  0.00     0.157 A 
BRANCH   5   8
ATOM      8  O   UNL     1      17.609  23.297  55.307  1.00  0.00    -0.504 OA
ATOM      9  H   UNL     1      17.284  22.556  54.698  1.00  0.00     0.293 HD
ENDBRANCH   5   8
BRANCH   7  10
ATOM     10  O   UNL     1      16.633  25.913  55.735  1.00  0.00    -0.504 OA
ATOM     11  H   UNL     1      15.943  26.641  55.587  1.00  0.00     0.293 HD
ENDBRANCH   7  10
ENDBRANCH   1   2
BRANCH   1  12
ATOM     12  C   UNL     1      13.670  23.658  60.348  1.00  0.00     0.161 C 
BRANCH  12  13
ATOM     13  O   UNL     1      12.711  23.924  59.362  1.00  0.00    -0.396 OA
ATOM     14  H   UNL     1      12.845  24.871  59.096  1.00  0.00     0.210 HD
ENDBRANCH  12  13
ENDBRANCH   1  12
TORSDOF 5
ENDMDL
MODEL 8
REMARK VINA RESULT:     0.000      5.413      5.730
REMARK INTER + INTRA:          -0.116
REMARK INTER:                   0.000
REMARK INTRA:                  -0.116
REMARK UNBOUND:                -0.116
REMARK SMILES OCCc1ccc(O)c(O)c1
REMARK SMILES IDX 3 1 4 2 5 3 6 4 7 5 11 6 9 7 8 8 10 10 2 12 1 13
REMARK H PARENT 8 9 10 11 1 14
REMARK Flexibility Score: inf
ROOT
ATOM      1  C   UNL     1      12.895  15.768  52.153  1.00  0.00     0.064 C 
ENDROOT
BRANCH   1   2
ATOM      2  C   UNL     1      13.409  16.851  51.240  1.00  0.00    -0.042 A 
ATOM      3  C   UNL     1      13.413  18.190  51.659  1.00  0.00     0.008 A 
ATOM      4  C   UNL     1      13.917  19.190  50.822  1.00  0.00     0.050 A 
ATOM      5  C   UNL     1      14.430  18.865  49.562  1.00  0.00     0.157 A 
ATOM      6  C   UNL     1      13.935  16.523  49.980  1.00  0.00     0.054 A 
ATOM      7  C   UNL     1      14.441  17.524  49.138  1.00  0.00     0.157 A 
BRANCH   5   8
ATOM      8  O   UNL     1      14.926  19.882  48.749  1.00  0.00    -0.504 OA
ATOM      9  H   UNL     1      15.483  20.643  49.118  1.00  0.00     0.293 HD
ENDBRANCH   5   8
BRANCH   7  10
ATOM     10  O   UNL     1      14.955  17.192  47.886  1.00  0.00    -0.504 OA
ATOM     11  H   UNL     1      14.957  16.236  47.549  1.00  0.00     0.293 HD
ENDBRANCH   7  10
ENDBRANCH   1   2
BRANCH   1  12
ATOM     12  C   UNL     1      13.639  15.767  53.487  1.00  0.00     0.161 C 
BRANCH  12  13
ATOM     13  O   UNL     1      14.975  15.393  53.294  1.00  0.00    -0.396 OA
ATOM     14  H   UNL     1      15.268  14.969  54.143  1.00  0.00     0.210 HD
ENDBRANCH  12  13
ENDBRANCH   1  12
TORSDOF 5
ENDMDL
MODEL 9
REMARK VINA RESULT:     0.000      4.299      5.959
REMARK INTER + INTRA:          -0.116
REMARK INTER:                   0.000
REMARK INTRA:                  -0.116
REMARK UNBOUND:                -0.116
REMARK SMILES OCCc1ccc(O)c(O)c1
REMARK SMILES IDX 3 1 4 2 5 3 6 4 7 5 11 6 9 7 8 8 10 10 2 12 1 13
REMARK H PARENT 8 9 10 11 1 14
REMARK Flexibility Score: inf
ROOT
ATOM      1  C   UNL     1      14.125  20.141  47.962  1.00  0.00     0.064 C 
ENDROOT
BRANCH   1   2
ATOM      2  C   UNL     1      13.121  21.215  48.295  1.00  0.00    -0.042 A 
ATOM      3  C   UNL     1      13.309  22.528  47.838  1.00  0.00     0.008 A 
ATOM      4  C   UNL     1      12.363  23.517  48.123  1.00  0.00     0.050 A 
ATOM      5  C   UNL     1      11.215  23.205  48.858  1.00  0.00     0.157 A 
ATOM      6  C   UNL     1      11.963  20.899  49.023  1.00  0.00     0.054 A 
ATOM      7  C   UNL     1      11.011  21.890  49.310  1.00  0.00     0.157 A 
BRANCH   5   8
ATOM      8  O   UNL     1      10.288  24.211  49.127  1.00  0.00    -0.504 OA
ATOM      9  H   UNL     1      10.366  24.812  49.939  1.00  0.00     0.293 HD
ENDBRANCH   5   8
BRANCH   7  10
ATOM     10  O   UNL     1       9.867  21.571  50.039  1.00  0.00    -0.504 OA
ATOM     11  H   UNL     1       8.968  21.987  49.824  1.00  0.00     0.293 HD
ENDBRANCH   7  10
ENDBRANCH   1   2
BRANCH   1  12
ATOM     12  C   UNL     1      14.324  20.014  46.453  1.00  0.00     0.161 C 
BRANCH  12  13
ATOM     13  O   UNL     1      13.154  19.534  45.851  1.00  0.00    -0.396 OA
ATOM     14  H   UNL     1      12.464  19.516  46.564  1.00  0.00     0.210 HD
ENDBRANCH  12  13
ENDBRANCH   1  12
TORSDOF 5
ENDMDL
