MODEL 1
REMARK VINA RESULT:    -2.190      0.000      0.000
REMARK INTER + INTRA:          -2.499
REMARK INTER:                  -2.446
REMARK INTRA:                  -0.053
REMARK UNBOUND:                -0.053
REMARK SMILES COc1cc2ccc(=O)oc2c(O)c1O
REMARK SMILES IDX 3 1 14 2 12 3 11 4 5 5 4 6 6 7 7 8 8 9 9 10 10 11 2 12 1 13
REMARK SMILES IDX 15 14 13 16
REMARK H PARENT 15 15 13 17
REMARK Flexibility Score: inf
ROOT
ATOM      1  C   UNL     1     159.244 163.744 165.712  1.00  0.00     0.165 A 
ATOM      2  C   UNL     1     160.251 162.992 166.347  1.00  0.00     0.204 A 
ATOM      3  C   UNL     1     161.411 162.623 165.650  1.00  0.00     0.205 A 
ATOM      4  C   UNL     1     161.573 163.005 164.309  1.00  0.00     0.184 A 
ATOM      5  C   UNL     1     160.568 163.758 163.668  1.00  0.00     0.025 A 
ATOM      6  C   UNL     1     159.411 164.125 164.366  1.00  0.00     0.062 A 
ATOM      7  C   UNL     1     160.757 164.124 162.330  1.00  0.00     0.020 A 
ATOM      8  C   UNL     1     161.924 163.739 161.672  1.00  0.00     0.094 A 
ATOM      9  C   UNL     1     162.878 162.992 162.369  1.00  0.00     0.336 A 
ATOM     10  O   UNL     1     163.938 162.634 161.794  1.00  0.00    -0.246 OA
ATOM     11  O   UNL     1     162.673 162.657 163.641  1.00  0.00    -0.419 OA
ENDROOT
BRANCH   1  12
ATOM     12  O   UNL     1     158.098 164.093 166.444  1.00  0.00    -0.493 OA
ATOM     13  C   UNL     1     156.777 164.123 165.913  1.00  0.00     0.278 C 
ENDBRANCH   1  12
BRANCH   2  14
ATOM     14  O   UNL     1     160.114 162.599 167.680  1.00  0.00    -0.502 OA
ATOM     15  H   UNL     1     159.522 163.098 168.334  1.00  0.00     0.293 HD
ENDBRANCH   2  14
BRANCH   3  16
ATOM     16  O   UNL     1     162.391 161.878 166.307  1.00  0.00    -0.502 OA
ATOM     17  H   UNL     1     162.188 160.989 166.747  1.00  0.00     0.293 HD
ENDBRANCH   3  16
TORSDOF 3
ENDMDL
MODEL 2
REMARK VINA RESULT:    -1.709     12.867     14.603
REMARK INTER + INTRA:          -1.962
REMARK INTER:                  -1.993
REMARK INTRA:                   0.031
REMARK UNBOUND:                -0.053
REMARK SMILES COc1cc2ccc(=O)oc2c(O)c1O
REMARK SMILES IDX 3 1 14 2 12 3 11 4 5 5 4 6 6 7 7 8 8 9 9 10 10 11 2 12 1 13
REMARK SMILES IDX 15 14 13 16
REMARK H PARENT 15 15 13 17
REMARK Flexibility Score: inf
ROOT
ATOM      1  C   UNL     1     147.462 162.366 160.617  1.00  0.00     0.165 A 
ATOM      2  C   UNL     1     148.660 161.660 160.402  1.00  0.00     0.204 A 
ATOM      3  C   UNL     1     148.779 160.321 160.805  1.00  0.00     0.205 A 
ATOM      4  C   UNL     1     147.698 159.677 161.426  1.00  0.00     0.184 A 
ATOM      5  C   UNL     1     146.495 160.380 161.644  1.00  0.00     0.025 A 
ATOM      6  C   UNL     1     146.379 161.716 161.242  1.00  0.00     0.062 A 
ATOM      7  C   UNL     1     145.433 159.713 162.266  1.00  0.00     0.020 A 
ATOM      8  C   UNL     1     145.592 158.382 162.650  1.00  0.00     0.094 A 
ATOM      9  C   UNL     1     146.813 157.748 162.404  1.00  0.00     0.336 A 
ATOM     10  O   UNL     1     146.976 156.547 162.742  1.00  0.00    -0.246 OA
ATOM     11  O   UNL     1     147.805 158.406 161.811  1.00  0.00    -0.419 OA
ENDROOT
BRANCH   1  12
ATOM     12  O   UNL     1     147.382 163.705 160.201  1.00  0.00    -0.493 OA
ATOM     13  C   UNL     1     147.215 164.125 158.851  1.00  0.00     0.278 C 
ENDBRANCH   1  12
BRANCH   2  14
ATOM     14  O   UNL     1     149.751 162.277 159.787  1.00  0.00    -0.502 OA
ATOM     15  H   UNL     1     149.652 162.854 158.960  1.00  0.00     0.293 HD
ENDBRANCH   2  14
BRANCH   3  16
ATOM     16  O   UNL     1     149.980 159.647 160.577  1.00  0.00    -0.502 OA
ATOM     17  H   UNL     1     150.861 160.136 160.471  1.00  0.00     0.293 HD
ENDBRANCH   3  16
TORSDOF 3
ENDMDL
MODEL 3
REMARK VINA RESULT:    -1.298     18.599     20.158
REMARK INTER + INTRA:          -1.503
REMARK INTER:                  -1.451
REMARK INTRA:                  -0.052
REMARK UNBOUND:                -0.053
REMARK SMILES COc1cc2ccc(=O)oc2c(O)c1O
REMARK SMILES IDX 3 1 14 2 12 3 11 4 5 5 4 6 6 7 7 8 8 9 9 10 10 11 2 12 1 13
REMARK SMILES IDX 15 14 13 16
REMARK H PARENT 15 15 13 17
REMARK Flexibility Score: inf
ROOT
ATOM      1  C   UNL     1     159.409 144.908 171.311  1.00  0.00     0.165 A 
ATOM      2  C   UNL     1     160.417 145.853 171.045  1.00  0.00     0.204 A 
ATOM      3  C   UNL     1     161.334 146.216 172.043  1.00  0.00     0.205 A 
ATOM      4  C   UNL     1     161.250 145.633 173.317  1.00  0.00     0.184 A 
ATOM      5  C   UNL     1     160.242 144.686 173.590  1.00  0.00     0.025 A 
ATOM      6  C   UNL     1     159.327 144.326 172.592  1.00  0.00     0.062 A 
ATOM      7  C   UNL     1     160.181 144.122 174.869  1.00  0.00     0.020 A 
ATOM      8  C   UNL     1     161.112 144.508 175.832  1.00  0.00     0.094 A 
ATOM      9  C   UNL     1     162.084 145.454 175.494  1.00  0.00     0.336 A 
ATOM     10  O   UNL     1     162.933 145.815 176.348  1.00  0.00    -0.246 OA
ATOM     11  O   UNL     1     162.118 145.974 174.269  1.00  0.00    -0.419 OA
ENDROOT
BRANCH   1  12
ATOM     12  O   UNL     1     158.509 144.572 170.287  1.00  0.00    -0.493 OA
ATOM     13  C   UNL     1     157.279 145.244 170.037  1.00  0.00     0.278 C 
ENDBRANCH   1  12
BRANCH   2  14
ATOM     14  O   UNL     1     160.523 146.448 169.787  1.00  0.00    -0.502 OA
ATOM     15  H   UNL     1     160.294 145.953 168.933  1.00  0.00     0.293 HD
ENDBRANCH   2  14
BRANCH   3  16
ATOM     16  O   UNL     1     162.323 147.156 171.748  1.00  0.00    -0.502 OA
ATOM     17  H   UNL     1     162.101 148.113 171.505  1.00  0.00     0.293 HD
ENDBRANCH   3  16
TORSDOF 3
ENDMDL
MODEL 4
REMARK VINA RESULT:    -0.728      1.261      4.605
REMARK INTER + INTRA:          -0.866
REMARK INTER:                  -0.812
REMARK INTRA:                  -0.054
REMARK UNBOUND:                -0.053
REMARK SMILES COc1cc2ccc(=O)oc2c(O)c1O
REMARK SMILES IDX 3 1 14 2 12 3 11 4 5 5 4 6 6 7 7 8 8 9 9 10 10 11 2 12 1 13
REMARK SMILES IDX 15 14 13 16
REMARK H PARENT 15 15 13 17
REMARK Flexibility Score: inf
ROOT
ATOM      1  C   UNL     1     161.560 163.757 162.115  1.00  0.00     0.165 A 
ATOM      2  C   UNL     1     162.592 163.005 162.707  1.00  0.00     0.204 A 
ATOM      3  C   UNL     1     162.511 162.623 164.055  1.00  0.00     0.205 A 
ATOM      4  C   UNL     1     161.395 162.991 164.822  1.00  0.00     0.184 A 
ATOM      5  C   UNL     1     160.358 163.745 164.234  1.00  0.00     0.025 A 
ATOM      6  C   UNL     1     160.441 164.125 162.889  1.00  0.00     0.062 A 
ATOM      7  C   UNL     1     159.257 164.099 165.023  1.00  0.00     0.020 A 
ATOM      8  C   UNL     1     159.215 163.699 166.357  1.00  0.00     0.094 A 
ATOM      9  C   UNL     1     160.278 162.954 166.875  1.00  0.00     0.336 A 
ATOM     10  O   UNL     1     160.259 162.583 168.077  1.00  0.00    -0.246 OA
ATOM     11  O   UNL     1     161.313 162.632 166.103  1.00  0.00    -0.419 OA
ENDROOT
BRANCH   1  12
ATOM     12  O   UNL     1     161.678 164.121 160.764  1.00  0.00    -0.493 OA
ATOM     13  C   UNL     1     160.609 164.102 159.824  1.00  0.00     0.278 C 
ENDBRANCH   1  12
BRANCH   2  14
ATOM     14  O   UNL     1     163.713 162.626 161.967  1.00  0.00    -0.502 OA
ATOM     15  H   UNL     1     164.076 163.188 161.206  1.00  0.00     0.293 HD
ENDBRANCH   2  14
BRANCH   3  16
ATOM     16  O   UNL     1     163.550 161.877 164.613  1.00  0.00    -0.502 OA
ATOM     17  H   UNL     1     164.215 162.281 165.262  1.00  0.00     0.293 HD
ENDBRANCH   3  16
TORSDOF 3
ENDMDL
MODEL 5
REMARK VINA RESULT:    -0.197     12.533     14.877
REMARK INTER + INTRA:          -0.272
REMARK INTER:                  -0.238
REMARK INTRA:                  -0.035
REMARK UNBOUND:                -0.053
REMARK SMILES COc1cc2ccc(=O)oc2c(O)c1O
REMARK SMILES IDX 3 1 14 2 12 3 11 4 5 5 4 6 6 7 7 8 8 9 9 10 10 11 2 12 1 13
REMARK SMILES IDX 15 14 13 16
REMARK H PARENT 15 15 13 17
REMARK Flexibility Score: inf
ROOT
ATOM      1  C   UNL     1     148.266 161.887 160.249  1.00  0.00     0.165 A 
ATOM      2  C   UNL     1     146.933 162.117 160.643  1.00  0.00     0.204 A 
ATOM      3  C   UNL     1     146.194 161.106 161.274  1.00  0.00     0.205 A 
ATOM      4  C   UNL     1     146.782 159.855 161.517  1.00  0.00     0.184 A 
ATOM      5  C   UNL     1     148.116 159.619 161.125  1.00  0.00     0.025 A 
ATOM      6  C   UNL     1     148.852 160.630 160.496  1.00  0.00     0.062 A 
ATOM      7  C   UNL     1     148.676 158.362 161.380  1.00  0.00     0.020 A 
ATOM      8  C   UNL     1     147.907 157.385 162.010  1.00  0.00     0.094 A 
ATOM      9  C   UNL     1     146.591 157.687 162.371  1.00  0.00     0.336 A 
ATOM     10  O   UNL     1     145.881 156.819 162.940  1.00  0.00    -0.246 OA
ATOM     11  O   UNL     1     146.083 158.890 162.116  1.00  0.00    -0.419 OA
ENDROOT
BRANCH   1  12
ATOM     12  O   UNL     1     148.973 162.924 159.620  1.00  0.00    -0.493 OA
ATOM     13  C   UNL     1     149.680 163.953 160.303  1.00  0.00     0.278 C 
ENDBRANCH   1  12
BRANCH   2  14
ATOM     14  O   UNL     1     146.325 163.352 160.412  1.00  0.00    -0.502 OA
ATOM     15  H   UNL     1     145.736 163.804 161.102  1.00  0.00     0.293 HD
ENDBRANCH   2  14
BRANCH   3  16
ATOM     16  O   UNL     1     144.875 161.364 161.652  1.00  0.00    -0.502 OA
ATOM     17  H   UNL     1     144.419 162.245 161.450  1.00  0.00     0.293 HD
ENDBRANCH   3  16
TORSDOF 3
ENDMDL
MODEL 6
REMARK VINA RESULT:     0.123     18.246     19.542
REMARK INTER + INTRA:           0.085
REMARK INTER:                  -0.485
REMARK INTRA:                   0.570
REMARK UNBOUND:                -0.053
REMARK SMILES COc1cc2ccc(=O)oc2c(O)c1O
REMARK SMILES IDX 3 1 14 2 12 3 11 4 5 5 4 6 6 7 7 8 8 9 9 10 10 11 2 12 1 13
REMARK SMILES IDX 15 14 13 16
REMARK H PARENT 15 15 13 17
REMARK Flexibility Score: inf
ROOT
ATOM      1  C   UNL     1     160.327 144.935 173.736  1.00  0.00     0.165 A 
ATOM      2  C   UNL     1     161.379 145.727 173.238  1.00  0.00     0.204 A 
ATOM      3  C   UNL     1     161.406 146.107 171.888  1.00  0.00     0.205 A 
ATOM      4  C   UNL     1     160.378 145.698 171.024  1.00  0.00     0.184 A 
ATOM      5  C   UNL     1     159.322 144.904 171.518  1.00  0.00     0.025 A 
ATOM      6  C   UNL     1     159.298 144.526 172.866  1.00  0.00     0.062 A 
ATOM      7  C   UNL     1     158.311 144.510 170.633  1.00  0.00     0.020 A 
ATOM      8  C   UNL     1     158.374 144.909 169.300  1.00  0.00     0.094 A 
ATOM      9  C   UNL     1     159.450 145.695 168.879  1.00  0.00     0.336 A 
ATOM     10  O   UNL     1     159.525 146.067 167.679  1.00  0.00    -0.246 OA
ATOM     11  O   UNL     1     160.398 146.056 169.741  1.00  0.00    -0.419 OA
ENDROOT
BRANCH   1  12
ATOM     12  O   UNL     1     160.337 144.574 175.093  1.00  0.00    -0.493 OA
ATOM     13  C   UNL     1     161.505 144.239 175.834  1.00  0.00     0.278 C 
ENDBRANCH   1  12
BRANCH   2  14
ATOM     14  O   UNL     1     162.413 146.147 174.076  1.00  0.00    -0.502 OA
ATOM     15  H   UNL     1     163.016 145.494 174.562  1.00  0.00     0.293 HD
ENDBRANCH   2  14
BRANCH   3  16
ATOM     16  O   UNL     1     162.461 146.893 171.424  1.00  0.00    -0.502 OA
ATOM     17  H   UNL     1     162.311 147.705 170.836  1.00  0.00     0.293 HD
ENDBRANCH   3  16
TORSDOF 3
ENDMDL
MODEL 7
REMARK VINA RESULT:     0.334     18.748     20.181
REMARK INTER + INTRA:           0.321
REMARK INTER:                   0.370
REMARK INTRA:                  -0.049
REMARK UNBOUND:                -0.053
REMARK SMILES COc1cc2ccc(=O)oc2c(O)c1O
REMARK SMILES IDX 3 1 14 2 12 3 11 4 5 5 4 6 6 7 7 8 8 9 9 10 10 11 2 12 1 13
REMARK SMILES IDX 15 14 13 16
REMARK H PARENT 15 15 13 17
REMARK Flexibility Score: inf
ROOT
ATOM      1  C   UNL     1     162.043 145.557 174.733  1.00  0.00     0.165 A 
ATOM      2  C   UNL     1     160.865 144.826 174.980  1.00  0.00     0.204 A 
ATOM      3  C   UNL     1     159.936 144.605 173.954  1.00  0.00     0.205 A 
ATOM      4  C   UNL     1     160.177 145.114 172.668  1.00  0.00     0.184 A 
ATOM      5  C   UNL     1     161.355 145.847 172.414  1.00  0.00     0.025 A 
ATOM      6  C   UNL     1     162.281 146.067 173.441  1.00  0.00     0.062 A 
ATOM      7  C   UNL     1     161.569 146.344 171.123  1.00  0.00     0.020 A 
ATOM      8  C   UNL     1     160.621 146.101 170.130  1.00  0.00     0.094 A 
ATOM      9  C   UNL     1     159.476 145.367 170.453  1.00  0.00     0.336 A 
ATOM     10  O   UNL     1     158.609 145.137 169.571  1.00  0.00    -0.246 OA
ATOM     11  O   UNL     1     159.298 144.907 171.688  1.00  0.00    -0.419 OA
ENDROOT
BRANCH   1  12
ATOM     12  O   UNL     1     162.948 145.759 175.787  1.00  0.00    -0.493 OA
ATOM     13  C   UNL     1     164.310 146.141 175.623  1.00  0.00     0.278 C 
ENDBRANCH   1  12
BRANCH   2  14
ATOM     14  O   UNL     1     160.601 144.309 176.250  1.00  0.00    -0.502 OA
ATOM     15  H   UNL     1     161.339 144.063 176.900  1.00  0.00     0.293 HD
ENDBRANCH   2  14
BRANCH   3  16
ATOM     16  O   UNL     1     158.778 143.875 174.230  1.00  0.00    -0.502 OA
ATOM     17  H   UNL     1     158.628 143.421 175.123  1.00  0.00     0.293 HD
ENDBRANCH   3  16
TORSDOF 3
ENDMDL
