MODEL 1
REMARK VINA RESULT:    -5.683      0.000      0.000
REMARK INTER + INTRA:          -7.030
REMARK INTER:                  -6.846
REMARK INTRA:                  -0.184
REMARK UNBOUND:                -0.184
REMARK SMILES O=c1c(O)c(-c2ccc(O)c(O)c2)oc2cc(O)cc(O)c12
REMARK SMILES IDX 5 1 3 2 2 3 1 4 22 5 20 6 19 7 17 8 16 9 15 10 14 11 6 12
REMARK SMILES IDX 7 13 8 14 9 15 13 16 11 17 10 18 12 20 4 22 21 24 18 26
REMARK H PARENT 10 19 12 21 4 23 21 25 18 27
REMARK Flexibility Score: inf
ROOT
ATOM      1  C   UNL     1      18.959  39.419  91.824  1.00  0.00     0.180 A 
ATOM      2  C   UNL     1      19.903  38.813  90.973  1.00  0.00     0.208 A 
ATOM      3  C   UNL     1      19.456  37.900  90.006  1.00  0.00     0.238 A 
ATOM      4  O   UNL     1      20.291  37.359  89.230  1.00  0.00    -0.285 OA
ATOM      5  C   UNL     1      18.082  37.594  89.918  1.00  0.00     0.111 A 
ATOM      6  C   UNL     1      17.551  36.682  88.974  1.00  0.00     0.134 A 
ATOM      7  C   UNL     1      16.172  36.424  88.958  1.00  0.00     0.093 A 
ATOM      8  C   UNL     1      15.317  37.058  89.865  1.00  0.00     0.123 A 
ATOM      9  C   UNL     1      15.837  37.958  90.797  1.00  0.00     0.094 A 
ATOM     10  C   UNL     1      17.207  38.230  90.829  1.00  0.00     0.146 A 
ATOM     11  O   UNL     1      17.673  39.095  91.722  1.00  0.00    -0.452 OA
ENDROOT
BRANCH   1  12
ATOM     12  C   UNL     1      19.351  40.407  92.857  1.00  0.00     0.025 A 
ATOM     13  C   UNL     1      19.098  40.128  94.209  1.00  0.00     0.016 A 
ATOM     14  C   UNL     1      19.439  41.053  95.198  1.00  0.00     0.051 A 
ATOM     15  C   UNL     1      20.024  42.278  94.849  1.00  0.00     0.157 A 
ATOM     16  C   UNL     1      19.918  41.645  92.508  1.00  0.00     0.062 A 
ATOM     17  C   UNL     1      20.260  42.576  93.496  1.00  0.00     0.158 A 
BRANCH  15  18
ATOM     18  O   UNL     1      20.366  43.199  95.838  1.00  0.00    -0.504 OA
ATOM     19  H   UNL     1      20.533  42.911  96.795  1.00  0.00     0.293 HD
ENDBRANCH  15  18
BRANCH  17  20
ATOM     20  O   UNL     1      20.827  43.792  93.114  1.00  0.00    -0.504 OA
ATOM     21  H   UNL     1      21.786  44.032  93.339  1.00  0.00     0.293 HD
ENDBRANCH  17  20
ENDBRANCH   1  12
BRANCH   2  22
ATOM     22  O   UNL     1      21.264  39.097  91.112  1.00  0.00    -0.502 OA
ATOM     23  H   UNL     1      21.841  39.383  90.331  1.00  0.00     0.293 HD
ENDBRANCH   2  22
BRANCH   6  24
ATOM     24  O   UNL     1      18.378  36.033  88.057  1.00  0.00    -0.507 OA
ATOM     25  H   UNL     1      18.024  35.319  87.432  1.00  0.00     0.293 HD
ENDBRANCH   6  24
BRANCH   8  26
ATOM     26  O   UNL     1      13.947  36.801  89.849  1.00  0.00    -0.508 OA
ATOM     27  H   UNL     1      13.585  35.858  89.921  1.00  0.00     0.293 HD
ENDBRANCH   8  26
TORSDOF 6
ENDMDL
MODEL 2
REMARK VINA RESULT:    -5.553      1.425      7.195
REMARK INTER + INTRA:          -6.873
REMARK INTER:                  -6.737
REMARK INTRA:                  -0.136
REMARK UNBOUND:                -0.184
REMARK SMILES O=c1c(O)c(-c2ccc(O)c(O)c2)oc2cc(O)cc(O)c12
REMARK SMILES IDX 5 1 3 2 2 3 1 4 22 5 20 6 19 7 17 8 16 9 15 10 14 11 6 12
REMARK SMILES IDX 7 13 8 14 9 15 13 16 11 17 10 18 12 20 4 22 21 24 18 26
REMARK H PARENT 10 19 12 21 4 23 21 25 18 27
REMARK Flexibility Score: inf
ROOT
ATOM      1  C   UNL     1      18.587  39.218  92.041  1.00  0.00     0.180 A 
ATOM      2  C   UNL     1      18.317  38.944  93.396  1.00  0.00     0.208 A 
ATOM      3  C   UNL     1      18.780  39.837  94.374  1.00  0.00     0.238 A 
ATOM      4  O   UNL     1      18.533  39.607  95.590  1.00  0.00    -0.285 OA
ATOM      5  C   UNL     1      19.518  40.974  93.987  1.00  0.00     0.111 A 
ATOM      6  C   UNL     1      20.023  41.920  94.911  1.00  0.00     0.134 A 
ATOM      7  C   UNL     1      20.758  43.021  94.446  1.00  0.00     0.093 A 
ATOM      8  C   UNL     1      20.997  43.193  93.078  1.00  0.00     0.123 A 
ATOM      9  C   UNL     1      20.501  42.262  92.164  1.00  0.00     0.094 A 
ATOM     10  C   UNL     1      19.765  41.159  92.606  1.00  0.00     0.146 A 
ATOM     11  O   UNL     1      19.300  40.293  91.714  1.00  0.00    -0.452 OA
ENDROOT
BRANCH   1  12
ATOM     12  C   UNL     1      18.116  38.334  90.950  1.00  0.00     0.025 A 
ATOM     13  C   UNL     1      19.048  37.788  90.054  1.00  0.00     0.016 A 
ATOM     14  C   UNL     1      18.626  36.969  89.004  1.00  0.00     0.051 A 
ATOM     15  C   UNL     1      17.263  36.696  88.825  1.00  0.00     0.157 A 
ATOM     16  C   UNL     1      16.748  38.076  90.755  1.00  0.00     0.062 A 
ATOM     17  C   UNL     1      16.320  37.257  89.703  1.00  0.00     0.158 A 
BRANCH  15  18
ATOM     18  O   UNL     1      16.843  35.876  87.779  1.00  0.00    -0.504 OA
ATOM     19  H   UNL     1      16.560  34.916  87.939  1.00  0.00     0.293 HD
ENDBRANCH  15  18
BRANCH  17  20
ATOM     20  O   UNL     1      14.955  37.017  89.544  1.00  0.00    -0.504 OA
ATOM     21  H   UNL     1      14.594  36.098  89.316  1.00  0.00     0.293 HD
ENDBRANCH  17  20
ENDBRANCH   1  12
BRANCH   2  22
ATOM     22  O   UNL     1      17.625  37.785  93.756  1.00  0.00    -0.502 OA
ATOM     23  H   UNL     1      17.103  37.234  93.086  1.00  0.00     0.293 HD
ENDBRANCH   2  22
BRANCH   6  24
ATOM     24  O   UNL     1      19.803  41.776  96.281  1.00  0.00    -0.507 OA
ATOM     25  H   UNL     1      19.335  40.962  96.663  1.00  0.00     0.293 HD
ENDBRANCH   6  24
BRANCH   8  26
ATOM     26  O   UNL     1      21.727  44.286  92.617  1.00  0.00    -0.508 OA
ATOM     27  H   UNL     1      21.410  45.236  92.766  1.00  0.00     0.293 HD
ENDBRANCH   8  26
TORSDOF 6
ENDMDL
MODEL 3
REMARK VINA RESULT:    -5.460      2.953      8.624
REMARK INTER + INTRA:          -6.761
REMARK INTER:                  -6.466
REMARK INTRA:                  -0.295
REMARK UNBOUND:                -0.184
REMARK SMILES O=c1c(O)c(-c2ccc(O)c(O)c2)oc2cc(O)cc(O)c12
REMARK SMILES IDX 5 1 3 2 2 3 1 4 22 5 20 6 19 7 17 8 16 9 15 10 14 11 6 12
REMARK SMILES IDX 7 13 8 14 9 15 13 16 11 17 10 18 12 20 4 22 21 24 18 26
REMARK H PARENT 10 19 12 21 4 23 21 25 18 27
REMARK Flexibility Score: inf
ROOT
ATOM      1  C   UNL     1      21.553  42.493  92.946  1.00  0.00     0.180 A 
ATOM      2  C   UNL     1      21.801  42.143  94.287  1.00  0.00     0.208 A 
ATOM      3  C   UNL     1      22.224  43.140  95.181  1.00  0.00     0.238 A 
ATOM      4  O   UNL     1      22.438  42.840  96.387  1.00  0.00    -0.285 OA
ATOM      5  C   UNL     1      22.410  44.458  94.717  1.00  0.00     0.111 A 
ATOM      6  C   UNL     1      22.837  45.519  95.552  1.00  0.00     0.134 A 
ATOM      7  C   UNL     1      23.009  46.802  95.012  1.00  0.00     0.093 A 
ATOM      8  C   UNL     1      22.761  47.045  93.657  1.00  0.00     0.123 A 
ATOM      9  C   UNL     1      22.340  46.001  92.830  1.00  0.00     0.094 A 
ATOM     10  C   UNL     1      22.162  44.716  93.349  1.00  0.00     0.146 A 
ATOM     11  O   UNL     1      21.754  43.744  92.541  1.00  0.00    -0.452 OA
ENDROOT
BRANCH   1  12
ATOM     12  C   UNL     1      21.087  41.503  91.948  1.00  0.00     0.025 A 
ATOM     13  C   UNL     1      21.985  41.019  90.984  1.00  0.00     0.016 A 
ATOM     14  C   UNL     1      21.562  40.101  90.020  1.00  0.00     0.051 A 
ATOM     15  C   UNL     1      20.231  39.664  89.995  1.00  0.00     0.157 A 
ATOM     16  C   UNL     1      19.747  41.078  91.907  1.00  0.00     0.062 A 
ATOM     17  C   UNL     1      19.318  40.160  90.941  1.00  0.00     0.158 A 
BRANCH  15  18
ATOM     18  O   UNL     1      19.812  38.746  89.034  1.00  0.00    -0.504 OA
ATOM     19  H   UNL     1      19.099  38.054  89.237  1.00  0.00     0.293 HD
ENDBRANCH  15  18
BRANCH  17  20
ATOM     20  O   UNL     1      17.984  39.757  90.936  1.00  0.00    -0.504 OA
ATOM     21  H   UNL     1      17.632  39.052  91.574  1.00  0.00     0.293 HD
ENDBRANCH  17  20
ENDBRANCH   1  12
BRANCH   2  22
ATOM     22  O   UNL     1      21.656  40.819  94.710  1.00  0.00    -0.502 OA
ATOM     23  H   UNL     1      22.376  40.334  95.230  1.00  0.00     0.293 HD
ENDBRANCH   2  22
BRANCH   6  24
ATOM     24  O   UNL     1      23.093  45.309  96.908  1.00  0.00    -0.507 OA
ATOM     25  H   UNL     1      22.832  45.989  97.611  1.00  0.00     0.293 HD
ENDBRANCH   6  24
BRANCH   8  26
ATOM     26  O   UNL     1      22.932  48.319  93.120  1.00  0.00    -0.508 OA
ATOM     27  H   UNL     1      23.818  48.613  92.725  1.00  0.00     0.293 HD
ENDBRANCH   8  26
TORSDOF 6
ENDMDL
MODEL 4
REMARK VINA RESULT:    -5.351      1.639      3.267
REMARK INTER + INTRA:          -6.629
REMARK INTER:                  -6.473
REMARK INTRA:                  -0.157
REMARK UNBOUND:                -0.184
REMARK SMILES O=c1c(O)c(-c2ccc(O)c(O)c2)oc2cc(O)cc(O)c12
REMARK SMILES IDX 5 1 3 2 2 3 1 4 22 5 20 6 19 7 17 8 16 9 15 10 14 11 6 12
REMARK SMILES IDX 7 13 8 14 9 15 13 16 11 17 10 18 12 20 4 22 21 24 18 26
REMARK H PARENT 10 19 12 21 4 23 21 25 18 27
REMARK Flexibility Score: inf
ROOT
ATOM      1  C   UNL     1      18.199  39.150  93.270  1.00  0.00     0.180 A 
ATOM      2  C   UNL     1      16.804  39.247  93.438  1.00  0.00     0.208 A 
ATOM      3  C   UNL     1      15.964  38.672  92.472  1.00  0.00     0.238 A 
ATOM      4  O   UNL     1      14.713  38.742  92.619  1.00  0.00    -0.285 OA
ATOM      5  C   UNL     1      16.528  38.031  91.349  1.00  0.00     0.111 A 
ATOM      6  C   UNL     1      15.750  37.431  90.330  1.00  0.00     0.134 A 
ATOM      7  C   UNL     1      16.387  36.821  89.239  1.00  0.00     0.093 A 
ATOM      8  C   UNL     1      17.783  36.800  89.148  1.00  0.00     0.123 A 
ATOM      9  C   UNL     1      18.553  37.392  90.152  1.00  0.00     0.094 A 
ATOM     10  C   UNL     1      17.938  38.003  91.248  1.00  0.00     0.146 A 
ATOM     11  O   UNL     1      18.695  38.552  92.190  1.00  0.00    -0.452 OA
ENDROOT
BRANCH   1  12
ATOM     12  C   UNL     1      19.151  39.715  94.254  1.00  0.00     0.025 A 
ATOM     13  C   UNL     1      19.967  38.849  94.999  1.00  0.00     0.016 A 
ATOM     14  C   UNL     1      20.858  39.357  95.949  1.00  0.00     0.051 A 
ATOM     15  C   UNL     1      20.934  40.737  96.178  1.00  0.00     0.157 A 
ATOM     16  C   UNL     1      19.216  41.097  94.503  1.00  0.00     0.062 A 
ATOM     17  C   UNL     1      20.105  41.610  95.454  1.00  0.00     0.158 A 
BRANCH  15  18
ATOM     18  O   UNL     1      21.825  41.242  97.124  1.00  0.00    -0.504 OA
ATOM     19  H   UNL     1      21.803  42.216  97.406  1.00  0.00     0.293 HD
ENDBRANCH  15  18
BRANCH  17  20
ATOM     20  O   UNL     1      20.146  42.988  95.669  1.00  0.00    -0.504 OA
ATOM     21  H   UNL     1      20.068  43.653  94.908  1.00  0.00     0.293 HD
ENDBRANCH  17  20
ENDBRANCH   1  12
BRANCH   2  22
ATOM     22  O   UNL     1      16.271  39.929  94.534  1.00  0.00    -0.502 OA
ATOM     23  H   UNL     1      15.294  40.191  94.587  1.00  0.00     0.293 HD
ENDBRANCH   2  22
BRANCH   6  24
ATOM     24  O   UNL     1      14.356  37.436  90.391  1.00  0.00    -0.507 OA
ATOM     25  H   UNL     1      13.861  37.619  91.256  1.00  0.00     0.293 HD
ENDBRANCH   6  24
BRANCH   8  26
ATOM     26  O   UNL     1      18.416  36.196  88.064  1.00  0.00    -0.508 OA
ATOM     27  H   UNL     1      18.376  35.194  87.920  1.00  0.00     0.293 HD
ENDBRANCH   8  26
TORSDOF 6
ENDMDL
MODEL 5
REMARK VINA RESULT:    -5.142      1.843      2.491
REMARK INTER + INTRA:          -6.378
REMARK INTER:                  -6.070
REMARK INTRA:                  -0.308
REMARK UNBOUND:                -0.184
REMARK SMILES O=c1c(O)c(-c2ccc(O)c(O)c2)oc2cc(O)cc(O)c12
REMARK SMILES IDX 5 1 3 2 2 3 1 4 22 5 20 6 19 7 17 8 16 9 15 10 14 11 6 12
REMARK SMILES IDX 7 13 8 14 9 15 13 16 11 17 10 18 12 20 4 22 21 24 18 26
REMARK H PARENT 10 19 12 21 4 23 21 25 18 27
REMARK Flexibility Score: inf
ROOT
ATOM      1  C   UNL     1      18.152  39.315  93.238  1.00  0.00     0.180 A 
ATOM      2  C   UNL     1      18.562  38.903  91.956  1.00  0.00     0.208 A 
ATOM      3  C   UNL     1      17.599  38.409  91.062  1.00  0.00     0.238 A 
ATOM      4  O   UNL     1      17.953  38.048  89.907  1.00  0.00    -0.285 OA
ATOM      5  C   UNL     1      16.252  38.319  91.469  1.00  0.00     0.111 A 
ATOM      6  C   UNL     1      15.222  37.829  90.630  1.00  0.00     0.134 A 
ATOM      7  C   UNL     1      13.907  37.761  91.113  1.00  0.00     0.093 A 
ATOM      8  C   UNL     1      13.603  38.171  92.416  1.00  0.00     0.123 A 
ATOM      9  C   UNL     1      14.616  38.654  93.246  1.00  0.00     0.094 A 
ATOM     10  C   UNL     1      15.933  38.732  92.784  1.00  0.00     0.146 A 
ATOM     11  O   UNL     1      16.875  39.201  93.593  1.00  0.00    -0.452 OA
ENDROOT
BRANCH   1  12
ATOM     12  C   UNL     1      19.105  39.864  94.231  1.00  0.00     0.025 A 
ATOM     13  C   UNL     1      19.848  38.985  95.034  1.00  0.00     0.016 A 
ATOM     14  C   UNL     1      20.737  39.480  95.992  1.00  0.00     0.051 A 
ATOM     15  C   UNL     1      20.885  40.862  96.170  1.00  0.00     0.157 A 
ATOM     16  C   UNL     1      19.241  41.250  94.428  1.00  0.00     0.062 A 
ATOM     17  C   UNL     1      20.129  41.750  95.387  1.00  0.00     0.158 A 
BRANCH  15  18
ATOM     18  O   UNL     1      21.775  41.354  97.124  1.00  0.00    -0.504 OA
ATOM     19  H   UNL     1      22.735  41.576  96.888  1.00  0.00     0.293 HD
ENDBRANCH  15  18
BRANCH  17  20
ATOM     20  O   UNL     1      20.243  43.131  95.550  1.00  0.00    -0.504 OA
ATOM     21  H   UNL     1      21.141  43.600  95.549  1.00  0.00     0.293 HD
ENDBRANCH  17  20
ENDBRANCH   1  12
BRANCH   2  22
ATOM     22  O   UNL     1      19.911  38.958  91.595  1.00  0.00    -0.502 OA
ATOM     23  H   UNL     1      20.640  38.537  92.156  1.00  0.00     0.293 HD
ENDBRANCH   2  22
BRANCH   6  24
ATOM     24  O   UNL     1      15.493  37.412  89.327  1.00  0.00    -0.507 OA
ATOM     25  H   UNL     1      16.085  37.951  88.707  1.00  0.00     0.293 HD
ENDBRANCH   6  24
BRANCH   8  26
ATOM     26  O   UNL     1      12.297  38.103  92.896  1.00  0.00    -0.508 OA
ATOM     27  H   UNL     1      11.526  38.529  92.396  1.00  0.00     0.293 HD
ENDBRANCH   8  26
TORSDOF 6
ENDMDL
MODEL 6
REMARK VINA RESULT:    -5.130      3.921      6.645
REMARK INTER + INTRA:          -6.363
REMARK INTER:                  -6.199
REMARK INTRA:                  -0.164
REMARK UNBOUND:                -0.184
REMARK SMILES O=c1c(O)c(-c2ccc(O)c(O)c2)oc2cc(O)cc(O)c12
REMARK SMILES IDX 5 1 3 2 2 3 1 4 22 5 20 6 19 7 17 8 16 9 15 10 14 11 6 12
REMARK SMILES IDX 7 13 8 14 9 15 13 16 11 17 10 18 12 20 4 22 21 24 18 26
REMARK H PARENT 10 19 12 21 4 23 21 25 18 27
REMARK Flexibility Score: inf
ROOT
ATOM      1  C   UNL     1      19.452  41.047  94.139  1.00  0.00     0.180 A 
ATOM      2  C   UNL     1      20.094  42.019  94.930  1.00  0.00     0.208 A 
ATOM      3  C   UNL     1      20.930  42.958  94.305  1.00  0.00     0.238 A 
ATOM      4  O   UNL     1      21.501  43.840  95.003  1.00  0.00    -0.285 OA
ATOM      5  C   UNL     1      21.125  42.898  92.910  1.00  0.00     0.111 A 
ATOM      6  C   UNL     1      21.954  43.804  92.205  1.00  0.00     0.134 A 
ATOM      7  C   UNL     1      22.104  43.672  90.817  1.00  0.00     0.093 A 
ATOM      8  C   UNL     1      21.442  42.654  90.121  1.00  0.00     0.123 A 
ATOM      9  C   UNL     1      20.624  41.759  90.813  1.00  0.00     0.094 A 
ATOM     10  C   UNL     1      20.460  41.874  92.196  1.00  0.00     0.146 A 
ATOM     11  O   UNL     1      19.671  41.012  92.827  1.00  0.00    -0.452 OA
ENDROOT
BRANCH   1  12
ATOM     12  C   UNL     1      18.541  40.035  94.721  1.00  0.00     0.025 A 
ATOM     13  C   UNL     1      19.058  39.054  95.581  1.00  0.00     0.016 A 
ATOM     14  C   UNL     1      18.222  38.077  96.126  1.00  0.00     0.051 A 
ATOM     15  C   UNL     1      16.858  38.056  95.806  1.00  0.00     0.157 A 
ATOM     16  C   UNL     1      17.176  39.998  94.385  1.00  0.00     0.062 A 
ATOM     17  C   UNL     1      16.334  39.019  94.927  1.00  0.00     0.158 A 
BRANCH  15  18
ATOM     18  O   UNL     1      16.024  37.081  96.351  1.00  0.00    -0.504 OA
ATOM     19  H   UNL     1      15.883  37.005  97.352  1.00  0.00     0.293 HD
ENDBRANCH  15  18
BRANCH  17  20
ATOM     20  O   UNL     1      14.984  39.018  94.576  1.00  0.00    -0.504 OA
ATOM     21  H   UNL     1      14.354  39.759  94.861  1.00  0.00     0.293 HD
ENDBRANCH  17  20
ENDBRANCH   1  12
BRANCH   2  22
ATOM     22  O   UNL     1      19.923  42.026  96.316  1.00  0.00    -0.502 OA
ATOM     23  H   UNL     1      20.511  41.486  96.938  1.00  0.00     0.293 HD
ENDBRANCH   2  22
BRANCH   6  24
ATOM     24  O   UNL     1      22.627  44.829  92.870  1.00  0.00    -0.507 OA
ATOM     25  H   UNL     1      22.777  44.806  93.872  1.00  0.00     0.293 HD
ENDBRANCH   6  24
BRANCH   8  26
ATOM     26  O   UNL     1      21.592  42.522  88.742  1.00  0.00    -0.508 OA
ATOM     27  H   UNL     1      22.501  42.376  88.320  1.00  0.00     0.293 HD
ENDBRANCH   8  26
TORSDOF 6
ENDMDL
MODEL 7
REMARK VINA RESULT:    -5.093      1.736      3.200
REMARK INTER + INTRA:          -6.319
REMARK INTER:                  -6.096
REMARK INTRA:                  -0.223
REMARK UNBOUND:                -0.184
REMARK SMILES O=c1c(O)c(-c2ccc(O)c(O)c2)oc2cc(O)cc(O)c12
REMARK SMILES IDX 5 1 3 2 2 3 1 4 22 5 20 6 19 7 17 8 16 9 15 10 14 11 6 12
REMARK SMILES IDX 7 13 8 14 9 15 13 16 11 17 10 18 12 20 4 22 21 24 18 26
REMARK H PARENT 10 19 12 21 4 23 21 25 18 27
REMARK Flexibility Score: inf
ROOT
ATOM      1  C   UNL     1      19.388  40.404  92.981  1.00  0.00     0.180 A 
ATOM      2  C   UNL     1      18.195  40.087  93.657  1.00  0.00     0.208 A 
ATOM      3  C   UNL     1      17.336  39.125  93.103  1.00  0.00     0.238 A 
ATOM      4  O   UNL     1      16.270  38.824  93.706  1.00  0.00    -0.285 OA
ATOM      5  C   UNL     1      17.674  38.513  91.877  1.00  0.00     0.111 A 
ATOM      6  C   UNL     1      16.861  37.537  91.250  1.00  0.00     0.134 A 
ATOM      7  C   UNL     1      17.262  36.983  90.026  1.00  0.00     0.093 A 
ATOM      8  C   UNL     1      18.457  37.385  89.418  1.00  0.00     0.123 A 
ATOM      9  C   UNL     1      19.260  38.346  90.033  1.00  0.00     0.094 A 
ATOM     10  C   UNL     1      18.880  38.910  91.254  1.00  0.00     0.146 A 
ATOM     11  O   UNL     1      19.666  39.818  91.819  1.00  0.00    -0.452 OA
ENDROOT
BRANCH   1  12
ATOM     12  C   UNL     1      20.354  41.394  93.512  1.00  0.00     0.025 A 
ATOM     13  C   UNL     1      21.097  41.086  94.662  1.00  0.00     0.016 A 
ATOM     14  C   UNL     1      21.998  42.013  95.193  1.00  0.00     0.051 A 
ATOM     15  C   UNL     1      22.158  43.267  94.590  1.00  0.00     0.157 A 
ATOM     16  C   UNL     1      20.502  42.662  92.922  1.00  0.00     0.062 A 
ATOM     17  C   UNL     1      21.402  43.594  93.451  1.00  0.00     0.158 A 
BRANCH  15  18
ATOM     18  O   UNL     1      23.059  44.189  95.119  1.00  0.00    -0.504 OA
ATOM     19  H   UNL     1      22.816  45.168  95.225  1.00  0.00     0.293 HD
ENDBRANCH  15  18
BRANCH  17  20
ATOM     20  O   UNL     1      21.527  44.839  92.836  1.00  0.00    -0.504 OA
ATOM     21  H   UNL     1      21.703  44.932  91.842  1.00  0.00     0.293 HD
ENDBRANCH  17  20
ENDBRANCH   1  12
BRANCH   2  22
ATOM     22  O   UNL     1      17.860  40.742  94.845  1.00  0.00    -0.502 OA
ATOM     23  H   UNL     1      18.559  41.130  95.465  1.00  0.00     0.293 HD
ENDBRANCH   2  22
BRANCH   6  24
ATOM     24  O   UNL     1      15.664  37.117  91.831  1.00  0.00    -0.507 OA
ATOM     25  H   UNL     1      14.773  37.245  91.367  1.00  0.00     0.293 HD
ENDBRANCH   6  24
BRANCH   8  26
ATOM     26  O   UNL     1      18.855  36.835  88.201  1.00  0.00    -0.508 OA
ATOM     27  H   UNL     1      18.185  36.632  87.468  1.00  0.00     0.293 HD
ENDBRANCH   8  26
TORSDOF 6
ENDMDL
MODEL 8
REMARK VINA RESULT:    -5.068      2.102      6.696
REMARK INTER + INTRA:          -6.288
REMARK INTER:                  -5.978
REMARK INTRA:                  -0.310
REMARK UNBOUND:                -0.184
REMARK SMILES O=c1c(O)c(-c2ccc(O)c(O)c2)oc2cc(O)cc(O)c12
REMARK SMILES IDX 5 1 3 2 2 3 1 4 22 5 20 6 19 7 17 8 16 9 15 10 14 11 6 12
REMARK SMILES IDX 7 13 8 14 9 15 13 16 11 17 10 18 12 20 4 22 21 24 18 26
REMARK H PARENT 10 19 12 21 4 23 21 25 18 27
REMARK Flexibility Score: inf
ROOT
ATOM      1  C   UNL     1      16.803  38.718  92.450  1.00  0.00     0.180 A 
ATOM      2  C   UNL     1      17.631  38.781  91.312  1.00  0.00     0.208 A 
ATOM      3  C   UNL     1      18.852  39.467  91.399  1.00  0.00     0.238 A 
ATOM      4  O   UNL     1      19.607  39.520  90.390  1.00  0.00    -0.285 OA
ATOM      5  C   UNL     1      19.216  40.091  92.610  1.00  0.00     0.111 A 
ATOM      6  C   UNL     1      20.428  40.804  92.779  1.00  0.00     0.134 A 
ATOM      7  C   UNL     1      20.713  41.406  94.014  1.00  0.00     0.093 A 
ATOM      8  C   UNL     1      19.812  41.308  95.080  1.00  0.00     0.123 A 
ATOM      9  C   UNL     1      18.616  40.606  94.917  1.00  0.00     0.094 A 
ATOM     10  C   UNL     1      18.314  39.998  93.695  1.00  0.00     0.146 A 
ATOM     11  O   UNL     1      17.173  39.331  93.571  1.00  0.00    -0.452 OA
ENDROOT
BRANCH   1  12
ATOM     12  C   UNL     1      15.509  37.997  92.442  1.00  0.00     0.025 A 
ATOM     13  C   UNL     1      15.492  36.606  92.623  1.00  0.00     0.016 A 
ATOM     14  C   UNL     1      14.285  35.903  92.599  1.00  0.00     0.051 A 
ATOM     15  C   UNL     1      13.078  36.579  92.378  1.00  0.00     0.157 A 
ATOM     16  C   UNL     1      14.298  38.669  92.199  1.00  0.00     0.062 A 
ATOM     17  C   UNL     1      13.086  37.969  92.172  1.00  0.00     0.158 A 
BRANCH  15  18
ATOM     18  O   UNL     1      11.875  35.876  92.356  1.00  0.00    -0.504 OA
ATOM     19  H   UNL     1      11.230  35.953  91.578  1.00  0.00     0.293 HD
ENDBRANCH  15  18
BRANCH  17  20
ATOM     20  O   UNL     1      11.904  38.670  91.935  1.00  0.00    -0.504 OA
ATOM     21  H   UNL     1      11.000  38.212  91.930  1.00  0.00     0.293 HD
ENDBRANCH  17  20
ENDBRANCH   1  12
BRANCH   2  22
ATOM     22  O   UNL     1      17.224  38.196  90.110  1.00  0.00    -0.502 OA
ATOM     23  H   UNL     1      17.859  38.054  89.334  1.00  0.00     0.293 HD
ENDBRANCH   2  22
BRANCH   6  24
ATOM     24  O   UNL     1      21.346  40.920  91.735  1.00  0.00    -0.507 OA
ATOM     25  H   UNL     1      22.238  41.385  91.858  1.00  0.00     0.293 HD
ENDBRANCH   6  24
BRANCH   8  26
ATOM     26  O   UNL     1      20.094  41.907  96.306  1.00  0.00    -0.508 OA
ATOM     27  H   UNL     1      19.428  42.518  96.763  1.00  0.00     0.293 HD
ENDBRANCH   8  26
TORSDOF 6
ENDMDL
MODEL 9
REMARK VINA RESULT:    -5.047      2.996      5.689
REMARK INTER + INTRA:          -6.264
REMARK INTER:                  -5.983
REMARK INTRA:                  -0.280
REMARK UNBOUND:                -0.184
REMARK SMILES O=c1c(O)c(-c2ccc(O)c(O)c2)oc2cc(O)cc(O)c12
REMARK SMILES IDX 5 1 3 2 2 3 1 4 22 5 20 6 19 7 17 8 16 9 15 10 14 11 6 12
REMARK SMILES IDX 7 13 8 14 9 15 13 16 11 17 10 18 12 20 4 22 21 24 18 26
REMARK H PARENT 10 19 12 21 4 23 21 25 18 27
REMARK Flexibility Score: inf
ROOT
ATOM      1  C   UNL     1      18.147  39.741  93.698  1.00  0.00     0.180 A 
ATOM      2  C   UNL     1      18.952  40.774  94.213  1.00  0.00     0.208 A 
ATOM      3  C   UNL     1      19.913  41.365  93.378  1.00  0.00     0.238 A 
ATOM      4  O   UNL     1      20.633  42.300  93.825  1.00  0.00    -0.285 OA
ATOM      5  C   UNL     1      20.066  40.902  92.054  1.00  0.00     0.111 A 
ATOM      6  C   UNL     1      21.013  41.442  91.151  1.00  0.00     0.134 A 
ATOM      7  C   UNL     1      21.110  40.919  89.853  1.00  0.00     0.093 A 
ATOM      8  C   UNL     1      20.280  39.870  89.442  1.00  0.00     0.123 A 
ATOM      9  C   UNL     1      19.345  39.336  90.330  1.00  0.00     0.094 A 
ATOM     10  C   UNL     1      19.231  39.843  91.628  1.00  0.00     0.146 A 
ATOM     11  O   UNL     1      18.329  39.320  92.449  1.00  0.00    -0.452 OA
ENDROOT
BRANCH   1  12
ATOM     12  C   UNL     1      17.098  39.080  94.511  1.00  0.00     0.025 A 
ATOM     13  C   UNL     1      17.466  38.102  95.448  1.00  0.00     0.016 A 
ATOM     14  C   UNL     1      16.493  37.451  96.210  1.00  0.00     0.051 A 
ATOM     15  C   UNL     1      15.137  37.757  96.036  1.00  0.00     0.157 A 
ATOM     16  C   UNL     1      15.735  39.370  94.324  1.00  0.00     0.062 A 
ATOM     17  C   UNL     1      14.757  38.719  95.084  1.00  0.00     0.158 A 
BRANCH  15  18
ATOM     18  O   UNL     1      14.168  37.109  96.800  1.00  0.00    -0.504 OA
ATOM     19  H   UNL     1      14.350  36.821  97.754  1.00  0.00     0.293 HD
ENDBRANCH  15  18
BRANCH  17  20
ATOM     20  O   UNL     1      13.415  39.036  94.876  1.00  0.00    -0.504 OA
ATOM     21  H   UNL     1      12.971  38.927  93.972  1.00  0.00     0.293 HD
ENDBRANCH  17  20
ENDBRANCH   1  12
BRANCH   2  22
ATOM     22  O   UNL     1      18.814  41.181  95.542  1.00  0.00    -0.502 OA
ATOM     23  H   UNL     1      18.719  40.521  96.304  1.00  0.00     0.293 HD
ENDBRANCH   2  22
BRANCH   6  24
ATOM     24  O   UNL     1      21.855  42.487  91.531  1.00  0.00    -0.507 OA
ATOM     25  H   UNL     1      22.270  42.529  92.454  1.00  0.00     0.293 HD
ENDBRANCH   6  24
BRANCH   8  26
ATOM     26  O   UNL     1      20.377  39.351  88.153  1.00  0.00    -0.508 OA
ATOM     27  H   UNL     1      21.275  39.204  87.707  1.00  0.00     0.293 HD
ENDBRANCH   8  26
TORSDOF 6
ENDMDL
