MODEL 1
REMARK VINA RESULT:    -4.288      0.000      0.000
REMARK INTER + INTRA:          -7.334
REMARK INTER:                  -6.167
REMARK INTRA:                  -1.166
REMARK UNBOUND:                -1.166
REMARK SMILES O=C(CO)[C@@H](O)[C@@H](O)[C@@H](O)CO
REMARK SMILES IDX 7 1 9 2 11 3 12 4 10 6 5 8 2 9 1 10 3 11 4 12 6 14 8 16
REMARK H PARENT 12 5 10 7 4 13 6 15 8 17
REMARK Flexibility Score: inf
ROOT
ATOM      1  C   UNL     1       0.735  -9.609  10.343  1.00  0.00     0.181 C 
ENDROOT
BRANCH   1   2
ATOM      2  C   UNL     1      -0.048  -8.271  10.307  1.00  0.00     0.171 C 
BRANCH   2   3
ATOM      3  C   UNL     1       0.906  -7.075  10.164  1.00  0.00     0.190 C 
BRANCH   3   4
ATOM      4  O   UNL     1       1.641  -6.907  11.345  1.00  0.00    -0.394 OA
ATOM      5  H   UNL     1       1.083  -6.341  11.939  1.00  0.00     0.210 HD
ENDBRANCH   3   4
ENDBRANCH   2   3
BRANCH   2   6
ATOM      6  O   UNL     1      -0.790  -8.127  11.493  1.00  0.00    -0.388 OA
ATOM      7  H   UNL     1      -1.737  -8.324  11.270  1.00  0.00     0.211 HD
ENDBRANCH   2   6
ENDBRANCH   1   2
BRANCH   1   8
ATOM      8  C   UNL     1       1.773  -9.713   9.196  1.00  0.00     0.214 C 
BRANCH   8   9
ATOM      9  C   UNL     1       3.139 -10.064   9.745  1.00  0.00     0.189 C 
ATOM     10  O   UNL     1       3.380 -11.217  10.069  1.00  0.00    -0.294 OA
BRANCH   9  11
ATOM     11  C   UNL     1       4.210  -9.018   9.903  1.00  0.00     0.234 C 
BRANCH  11  12
ATOM     12  O   UNL     1       4.101  -8.400  11.155  1.00  0.00    -0.388 OA
ATOM     13  H   UNL     1       3.353  -8.847  11.631  1.00  0.00     0.211 HD
ENDBRANCH  11  12
ENDBRANCH   9  11
ENDBRANCH   8   9
BRANCH   8  14
ATOM     14  O   UNL     1       1.381 -10.704   8.281  1.00  0.00    -0.382 OA
ATOM     15  H   UNL     1       1.550 -11.580   8.717  1.00  0.00     0.211 HD
ENDBRANCH   8  14
ENDBRANCH   1   8
BRANCH   1  16
ATOM     16  O   UNL     1       1.371  -9.774  11.588  1.00  0.00    -0.387 OA
ATOM     17  H   UNL     1       0.789  -9.361  12.279  1.00  0.00     0.211 HD
ENDBRANCH   1  16
TORSDOF 10
ENDMDL
MODEL 2
REMARK VINA RESULT:    -4.283      1.698      4.105
REMARK INTER + INTRA:          -7.328
REMARK INTER:                  -6.289
REMARK INTRA:                  -1.039
REMARK UNBOUND:                -1.166
REMARK SMILES O=C(CO)[C@@H](O)[C@@H](O)[C@@H](O)CO
REMARK SMILES IDX 7 1 9 2 11 3 12 4 10 6 5 8 2 9 1 10 3 11 4 12 6 14 8 16
REMARK H PARENT 12 5 10 7 4 13 6 15 8 17
REMARK Flexibility Score: inf
ROOT
ATOM      1  C   UNL     1       2.266  -8.398  10.072  1.00  0.00     0.181 C 
ENDROOT
BRANCH   1   2
ATOM      2  C   UNL     1       3.294  -8.847  11.142  1.00  0.00     0.171 C 
BRANCH   2   3
ATOM      3  C   UNL     1       4.670  -9.112  10.513  1.00  0.00     0.190 C 
BRANCH   3   4
ATOM      4  O   UNL     1       5.355  -7.903  10.335  1.00  0.00    -0.394 OA
ATOM      5  H   UNL     1       6.241  -8.022  10.763  1.00  0.00     0.210 HD
ENDBRANCH   3   4
ENDBRANCH   2   3
BRANCH   2   6
ATOM      6  O   UNL     1       2.841 -10.022  11.767  1.00  0.00    -0.388 OA
ATOM      7  H   UNL     1       3.569 -10.333  12.367  1.00  0.00     0.211 HD
ENDBRANCH   2   6
ENDBRANCH   1   2
BRANCH   1   8
ATOM      8  C   UNL     1       1.036  -7.693  10.699  1.00  0.00     0.214 C 
BRANCH   8   9
ATOM      9  C   UNL     1      -0.237  -8.430  10.345  1.00  0.00     0.189 C 
ATOM     10  O   UNL     1      -0.618  -8.453   9.184  1.00  0.00    -0.294 OA
BRANCH   9  11
ATOM     11  C   UNL     1      -1.050  -9.136  11.398  1.00  0.00     0.234 C 
BRANCH  11  12
ATOM     12  O   UNL     1      -0.224  -9.964  12.169  1.00  0.00    -0.388 OA
ATOM     13  H   UNL     1       0.600  -9.446  12.363  1.00  0.00     0.211 HD
ENDBRANCH  11  12
ENDBRANCH   9  11
ENDBRANCH   8   9
BRANCH   8  14
ATOM     14  O   UNL     1       1.166  -7.652  12.097  1.00  0.00    -0.382 OA
ATOM     15  H   UNL     1       0.446  -8.226  12.469  1.00  0.00     0.211 HD
ENDBRANCH   8  14
ENDBRANCH   1   8
BRANCH   1  16
ATOM     16  O   UNL     1       2.879  -7.552   9.127  1.00  0.00    -0.387 OA
ATOM     17  H   UNL     1       2.416  -6.675   9.166  1.00  0.00     0.211 HD
ENDBRANCH   1  16
TORSDOF 10
ENDMDL
MODEL 3
REMARK VINA RESULT:    -4.264     15.605     16.611
REMARK INTER + INTRA:          -7.301
REMARK INTER:                  -6.321
REMARK INTRA:                  -0.980
REMARK UNBOUND:                -1.166
REMARK SMILES O=C(CO)[C@@H](O)[C@@H](O)[C@@H](O)CO
REMARK SMILES IDX 7 1 9 2 11 3 12 4 10 6 5 8 2 9 1 10 3 11 4 12 6 14 8 16
REMARK H PARENT 12 5 10 7 4 13 6 15 8 17
REMARK Flexibility Score: inf
ROOT
ATOM      1  C   UNL     1      15.552 -18.065  11.290  1.00  0.00     0.181 C 
ENDROOT
BRANCH   1   2
ATOM      2  C   UNL     1      14.835 -19.381  10.896  1.00  0.00     0.171 C 
BRANCH   2   3
ATOM      3  C   UNL     1      14.011 -19.201   9.611  1.00  0.00     0.190 C 
BRANCH   3   4
ATOM      4  O   UNL     1      14.829 -18.711   8.585  1.00  0.00    -0.394 OA
ATOM      5  H   UNL     1      14.278 -18.728   7.760  1.00  0.00     0.210 HD
ENDBRANCH   3   4
ENDBRANCH   2   3
BRANCH   2   6
ATOM      6  O   UNL     1      13.980 -19.783  11.937  1.00  0.00    -0.388 OA
ATOM      7  H   UNL     1      13.090 -19.958  11.532  1.00  0.00     0.211 HD
ENDBRANCH   2   6
ENDBRANCH   1   2
BRANCH   1   8
ATOM      8  C   UNL     1      15.505 -17.806  12.818  1.00  0.00     0.214 C 
BRANCH   8   9
ATOM      9  C   UNL     1      16.566 -16.804  13.221  1.00  0.00     0.189 C 
ATOM     10  O   UNL     1      17.661 -17.201  13.591  1.00  0.00    -0.294 OA
BRANCH   9  11
ATOM     11  C   UNL     1      16.299 -15.323  13.177  1.00  0.00     0.234 C 
BRANCH  11  12
ATOM     12  O   UNL     1      15.503 -14.944  14.265  1.00  0.00    -0.388 OA
ATOM     13  H   UNL     1      15.808 -14.041  14.543  1.00  0.00     0.211 HD
ENDBRANCH  11  12
ENDBRANCH   9  11
ENDBRANCH   8   9
BRANCH   8  14
ATOM     14  O   UNL     1      14.244 -17.305  13.182  1.00  0.00    -0.382 OA
ATOM     15  H   UNL     1      14.397 -16.418  13.600  1.00  0.00     0.211 HD
ENDBRANCH   8  14
ENDBRANCH   1   8
BRANCH   1  16
ATOM     16  O   UNL     1      16.887 -18.079  10.843  1.00  0.00    -0.387 OA
ATOM     17  H   UNL     1      17.466 -18.249  11.632  1.00  0.00     0.211 HD
ENDBRANCH   1  16
TORSDOF 10
ENDMDL
MODEL 4
REMARK VINA RESULT:    -4.262      1.635      3.443
REMARK INTER + INTRA:          -7.297
REMARK INTER:                  -6.430
REMARK INTRA:                  -0.867
REMARK UNBOUND:                -1.166
REMARK SMILES O=C(CO)[C@@H](O)[C@@H](O)[C@@H](O)CO
REMARK SMILES IDX 7 1 9 2 11 3 12 4 10 6 5 8 2 9 1 10 3 11 4 12 6 14 8 16
REMARK H PARENT 12 5 10 7 4 13 6 15 8 17
REMARK Flexibility Score: inf
ROOT
ATOM      1  C   UNL     1       1.080  -7.997   9.814  1.00  0.00     0.181 C 
ENDROOT
BRANCH   1   2
ATOM      2  C   UNL     1       1.922  -7.907  11.114  1.00  0.00     0.171 C 
BRANCH   2   3
ATOM      3  C   UNL     1       3.019  -8.983  11.139  1.00  0.00     0.190 C 
BRANCH   3   4
ATOM      4  O   UNL     1       4.281  -8.376  11.149  1.00  0.00    -0.394 OA
ATOM      5  H   UNL     1       4.899  -9.028  11.570  1.00  0.00     0.210 HD
ENDBRANCH   3   4
ENDBRANCH   2   3
BRANCH   2   6
ATOM      6  O   UNL     1       1.085  -8.079  12.230  1.00  0.00    -0.388 OA
ATOM      7  H   UNL     1       0.169  -8.248  11.885  1.00  0.00     0.211 HD
ENDBRANCH   2   6
ENDBRANCH   1   2
BRANCH   1   8
ATOM      8  C   UNL     1       1.128  -9.410   9.181  1.00  0.00     0.214 C 
BRANCH   8   9
ATOM      9  C   UNL     1      -0.102 -10.206   9.562  1.00  0.00     0.189 C 
ATOM     10  O   UNL     1      -0.388 -10.345  10.742  1.00  0.00    -0.294 OA
BRANCH   9  11
ATOM     11  C   UNL     1      -0.982 -10.835   8.515  1.00  0.00     0.234 C 
BRANCH  11  12
ATOM     12  O   UNL     1      -0.254 -11.775   7.774  1.00  0.00    -0.388 OA
ATOM     13  H   UNL     1       0.218 -12.352   8.430  1.00  0.00     0.211 HD
ENDBRANCH  11  12
ENDBRANCH   9  11
ENDBRANCH   8   9
BRANCH   8  14
ATOM     14  O   UNL     1       1.188  -9.308   7.781  1.00  0.00    -0.382 OA
ATOM     15  H   UNL     1       1.890  -9.941   7.476  1.00  0.00     0.211 HD
ENDBRANCH   8  14
ENDBRANCH   1   8
BRANCH   1  16
ATOM     16  O   UNL     1      -0.254  -7.624  10.066  1.00  0.00    -0.387 OA
ATOM     17  H   UNL     1      -0.653  -7.337   9.203  1.00  0.00     0.211 HD
ENDBRANCH   1  16
TORSDOF 10
ENDMDL
MODEL 5
REMARK VINA RESULT:    -4.223      1.402      2.186
REMARK INTER + INTRA:          -7.241
REMARK INTER:                  -6.331
REMARK INTRA:                  -0.910
REMARK UNBOUND:                -1.166
REMARK SMILES O=C(CO)[C@@H](O)[C@@H](O)[C@@H](O)CO
REMARK SMILES IDX 7 1 9 2 11 3 12 4 10 6 5 8 2 9 1 10 3 11 4 12 6 14 8 16
REMARK H PARENT 12 5 10 7 4 13 6 15 8 17
REMARK Flexibility Score: inf
ROOT
ATOM      1  C   UNL     1       1.756  -9.508  10.235  1.00  0.00     0.181 C 
ENDROOT
BRANCH   1   2
ATOM      2  C   UNL     1       0.320  -9.570  10.816  1.00  0.00     0.171 C 
BRANCH   2   3
ATOM      3  C   UNL     1      -0.554  -8.436  10.258  1.00  0.00     0.190 C 
BRANCH   3   4
ATOM      4  O   UNL     1       0.210  -7.270  10.121  1.00  0.00    -0.394 OA
ATOM      5  H   UNL     1      -0.307  -6.548  10.563  1.00  0.00     0.210 HD
ENDBRANCH   3   4
ENDBRANCH   2   3
BRANCH   2   6
ATOM      6  O   UNL     1       0.372  -9.462  12.217  1.00  0.00    -0.388 OA
ATOM      7  H   UNL     1       1.280  -9.133  12.450  1.00  0.00     0.211 HD
ENDBRANCH   2   6
ENDBRANCH   1   2
BRANCH   1   8
ATOM      8  C   UNL     1       2.814  -9.177  11.319  1.00  0.00     0.214 C 
BRANCH   8   9
ATOM      9  C   UNL     1       4.185  -9.650  10.887  1.00  0.00     0.189 C 
ATOM     10  O   UNL     1       4.707 -10.592  11.464  1.00  0.00    -0.294 OA
BRANCH   9  11
ATOM     11  C   UNL     1       4.923  -8.980   9.759  1.00  0.00     0.234 C 
BRANCH  11  12
ATOM     12  O   UNL     1       5.416  -7.737  10.175  1.00  0.00    -0.388 OA
ATOM     13  H   UNL     1       6.121  -7.477   9.526  1.00  0.00     0.211 HD
ENDBRANCH  11  12
ENDBRANCH   9  11
ENDBRANCH   8   9
BRANCH   8  14
ATOM     14  O   UNL     1       2.858  -7.790  11.540  1.00  0.00    -0.382 OA
ATOM     15  H   UNL     1       2.562  -7.356  10.697  1.00  0.00     0.211 HD
ENDBRANCH   8  14
ENDBRANCH   1   8
BRANCH   1  16
ATOM     16  O   UNL     1       2.081 -10.720   9.596  1.00  0.00    -0.387 OA
ATOM     17  H   UNL     1       1.462 -10.828   8.827  1.00  0.00     0.211 HD
ENDBRANCH   1  16
TORSDOF 10
ENDMDL
MODEL 6
REMARK VINA RESULT:    -4.212     14.262     16.181
REMARK INTER + INTRA:          -7.225
REMARK INTER:                  -6.417
REMARK INTRA:                  -0.808
REMARK UNBOUND:                -1.166
REMARK SMILES O=C(CO)[C@@H](O)[C@@H](O)[C@@H](O)CO
REMARK SMILES IDX 7 1 9 2 11 3 12 4 10 6 5 8 2 9 1 10 3 11 4 12 6 14 8 16
REMARK H PARENT 12 5 10 7 4 13 6 15 8 17
REMARK Flexibility Score: inf
ROOT
ATOM      1  C   UNL     1      17.492 -14.989  12.930  1.00  0.00     0.181 C 
ENDROOT
BRANCH   1   2
ATOM      2  C   UNL     1      16.448 -15.713  13.818  1.00  0.00     0.171 C 
BRANCH   2   3
ATOM      3  C   UNL     1      15.843 -16.922  13.088  1.00  0.00     0.190 C 
BRANCH   3   4
ATOM      4  O   UNL     1      14.475 -17.018  13.376  1.00  0.00    -0.394 OA
ATOM      5  H   UNL     1      14.113 -16.097  13.309  1.00  0.00     0.210 HD
ENDBRANCH   3   4
ENDBRANCH   2   3
BRANCH   2   6
ATOM      6  O   UNL     1      15.417 -14.819  14.158  1.00  0.00    -0.388 OA
ATOM      7  H   UNL     1      15.412 -14.103  13.470  1.00  0.00     0.211 HD
ENDBRANCH   2   6
ENDBRANCH   1   2
BRANCH   1   8
ATOM      8  C   UNL     1      17.073 -14.957  11.438  1.00  0.00     0.214 C 
BRANCH   8   9
ATOM      9  C   UNL     1      17.042 -13.534  10.923  1.00  0.00     0.189 C 
ATOM     10  O   UNL     1      18.091 -12.966  10.659  1.00  0.00    -0.294 OA
BRANCH   9  11
ATOM     11  C   UNL     1      15.742 -12.800  10.731  1.00  0.00     0.234 C 
BRANCH  11  12
ATOM     12  O   UNL     1      14.958 -12.896  11.888  1.00  0.00    -0.388 OA
ATOM     13  H   UNL     1      15.236 -12.153  12.484  1.00  0.00     0.211 HD
ENDBRANCH  11  12
ENDBRANCH   9  11
ENDBRANCH   8   9
BRANCH   8  14
ATOM     14  O   UNL     1      17.982 -15.700  10.667  1.00  0.00    -0.382 OA
ATOM     15  H   UNL     1      17.866 -15.409   9.725  1.00  0.00     0.211 HD
ENDBRANCH   8  14
ENDBRANCH   1   8
BRANCH   1  16
ATOM     16  O   UNL     1      17.711 -13.679  13.398  1.00  0.00    -0.387 OA
ATOM     17  H   UNL     1      18.475 -13.302  12.888  1.00  0.00     0.211 HD
ENDBRANCH   1  16
TORSDOF 10
ENDMDL
MODEL 7
REMARK VINA RESULT:    -4.174      1.762      3.241
REMARK INTER + INTRA:          -7.171
REMARK INTER:                  -5.996
REMARK INTRA:                  -1.175
REMARK UNBOUND:                -1.166
REMARK SMILES O=C(CO)[C@@H](O)[C@@H](O)[C@@H](O)CO
REMARK SMILES IDX 7 1 9 2 11 3 12 4 10 6 5 8 2 9 1 10 3 11 4 12 6 14 8 16
REMARK H PARENT 12 5 10 7 4 13 6 15 8 17
REMARK Flexibility Score: inf
ROOT
ATOM      1  C   UNL     1      -0.509  -8.822   9.954  1.00  0.00     0.181 C 
ENDROOT
BRANCH   1   2
ATOM      2  C   UNL     1      -1.076  -9.503   8.681  1.00  0.00     0.171 C 
BRANCH   2   3
ATOM      3  C   UNL     1      -1.051 -11.033   8.813  1.00  0.00     0.190 C 
BRANCH   3   4
ATOM      4  O   UNL     1      -0.109 -11.573   7.928  1.00  0.00    -0.394 OA
ATOM      5  H   UNL     1       0.516 -12.109   8.482  1.00  0.00     0.210 HD
ENDBRANCH   3   4
ENDBRANCH   2   3
BRANCH   2   6
ATOM      6  O   UNL     1      -0.309  -9.126   7.564  1.00  0.00    -0.388 OA
ATOM      7  H   UNL     1      -0.081  -9.958   7.072  1.00  0.00     0.211 HD
ENDBRANCH   2   6
ENDBRANCH   1   2
BRANCH   1   8
ATOM      8  C   UNL     1       0.435  -9.760  10.750  1.00  0.00     0.214 C 
BRANCH   8   9
ATOM      9  C   UNL     1       1.870  -9.572  10.306  1.00  0.00     0.189 C 
ATOM     10  O   UNL     1       2.188  -9.849   9.160  1.00  0.00    -0.294 OA
BRANCH   9  11
ATOM     11  C   UNL     1       2.918  -9.050  11.252  1.00  0.00     0.234 C 
BRANCH  11  12
ATOM     12  O   UNL     1       2.660  -7.709  11.567  1.00  0.00    -0.388 OA
ATOM     13  H   UNL     1       1.684  -7.570  11.445  1.00  0.00     0.211 HD
ENDBRANCH  11  12
ENDBRANCH   9  11
ENDBRANCH   8   9
BRANCH   8  14
ATOM     14  O   UNL     1       0.343  -9.481  12.124  1.00  0.00    -0.382 OA
ATOM     15  H   UNL     1       0.271  -8.495  12.213  1.00  0.00     0.211 HD
ENDBRANCH   8  14
ENDBRANCH   1   8
BRANCH   1  16
ATOM     16  O   UNL     1       0.164  -7.632   9.617  1.00  0.00    -0.387 OA
ATOM     17  H   UNL     1      -0.255  -6.895  10.135  1.00  0.00     0.211 HD
ENDBRANCH   1  16
TORSDOF 10
ENDMDL
MODEL 8
REMARK VINA RESULT:    -4.164      1.682      2.475
REMARK INTER + INTRA:          -7.157
REMARK INTER:                  -6.206
REMARK INTRA:                  -0.951
REMARK UNBOUND:                -1.166
REMARK SMILES O=C(CO)[C@@H](O)[C@@H](O)[C@@H](O)CO
REMARK SMILES IDX 7 1 9 2 11 3 12 4 10 6 5 8 2 9 1 10 3 11 4 12 6 14 8 16
REMARK H PARENT 12 5 10 7 4 13 6 15 8 17
REMARK Flexibility Score: inf
ROOT
ATOM      1  C   UNL     1       1.436  -8.956  11.506  1.00  0.00     0.181 C 
ENDROOT
BRANCH   1   2
ATOM      2  C   UNL     1       0.407  -9.460  10.462  1.00  0.00     0.171 C 
BRANCH   2   3
ATOM      3  C   UNL     1      -0.929  -9.821  11.130  1.00  0.00     0.190 C 
BRANCH   3   4
ATOM      4  O   UNL     1      -0.705 -10.239  12.449  1.00  0.00    -0.394 OA
ATOM      5  H   UNL     1      -0.915  -9.460  13.025  1.00  0.00     0.210 HD
ENDBRANCH   3   4
ENDBRANCH   2   3
BRANCH   2   6
ATOM      6  O   UNL     1       0.915 -10.596   9.809  1.00  0.00    -0.388 OA
ATOM      7  H   UNL     1       0.908 -10.401   8.835  1.00  0.00     0.211 HD
ENDBRANCH   2   6
ENDBRANCH   1   2
BRANCH   1   8
ATOM      8  C   UNL     1       2.745  -8.453  10.844  1.00  0.00     0.214 C 
BRANCH   8   9
ATOM      9  C   UNL     1       3.868  -9.442  11.066  1.00  0.00     0.189 C 
ATOM     10  O   UNL     1       3.613 -10.558  11.494  1.00  0.00    -0.294 OA
BRANCH   9  11
ATOM     11  C   UNL     1       5.299  -9.079  10.773  1.00  0.00     0.234 C 
BRANCH  11  12
ATOM     12  O   UNL     1       5.359  -7.836  10.130  1.00  0.00    -0.388 OA
ATOM     13  H   UNL     1       6.250  -7.782   9.694  1.00  0.00     0.211 HD
ENDBRANCH  11  12
ENDBRANCH   9  11
ENDBRANCH   8   9
BRANCH   8  14
ATOM     14  O   UNL     1       2.551  -8.286   9.463  1.00  0.00    -0.382 OA
ATOM     15  H   UNL     1       3.447  -8.125   9.065  1.00  0.00     0.211 HD
ENDBRANCH   8  14
ENDBRANCH   1   8
BRANCH   1  16
ATOM     16  O   UNL     1       0.874  -7.938  12.299  1.00  0.00    -0.387 OA
ATOM     17  H   UNL     1       0.654  -8.334  13.183  1.00  0.00     0.211 HD
ENDBRANCH   1  16
TORSDOF 10
ENDMDL
MODEL 9
REMARK VINA RESULT:    -4.132      1.347      3.947
REMARK INTER + INTRA:          -7.110
REMARK INTER:                  -5.780
REMARK INTRA:                  -1.330
REMARK UNBOUND:                -1.166
REMARK SMILES O=C(CO)[C@@H](O)[C@@H](O)[C@@H](O)CO
REMARK SMILES IDX 7 1 9 2 11 3 12 4 10 6 5 8 2 9 1 10 3 11 4 12 6 14 8 16
REMARK H PARENT 12 5 10 7 4 13 6 15 8 17
REMARK Flexibility Score: inf
ROOT
ATOM      1  C   UNL     1       2.691  -7.949  10.632  1.00  0.00     0.181 C 
ENDROOT
BRANCH   1   2
ATOM      2  C   UNL     1       3.969  -8.672  10.134  1.00  0.00     0.171 C 
BRANCH   2   3
ATOM      3  C   UNL     1       4.367  -9.812  11.084  1.00  0.00     0.190 C 
BRANCH   3   4
ATOM      4  O   UNL     1       3.598 -10.951  10.810  1.00  0.00    -0.394 OA
ATOM      5  H   UNL     1       3.787 -11.191   9.866  1.00  0.00     0.210 HD
ENDBRANCH   3   4
ENDBRANCH   2   3
BRANCH   2   6
ATOM      6  O   UNL     1       5.029  -7.751  10.053  1.00  0.00    -0.388 OA
ATOM      7  H   UNL     1       5.584  -8.013   9.272  1.00  0.00     0.211 HD
ENDBRANCH   2   6
ENDBRANCH   1   2
BRANCH   1   8
ATOM      8  C   UNL     1       1.533  -8.030   9.605  1.00  0.00     0.214 C 
BRANCH   8   9
ATOM      9  C   UNL     1       0.566  -9.133   9.979  1.00  0.00     0.189 C 
ATOM     10  O   UNL     1       0.919 -10.299   9.892  1.00  0.00    -0.294 OA
BRANCH   9  11
ATOM     11  C   UNL     1      -0.827  -8.822  10.456  1.00  0.00     0.234 C 
BRANCH  11  12
ATOM     12  O   UNL     1      -0.777  -8.092  11.651  1.00  0.00    -0.388 OA
ATOM     13  H   UNL     1      -1.683  -8.139  12.053  1.00  0.00     0.211 HD
ENDBRANCH  11  12
ENDBRANCH   9  11
ENDBRANCH   8   9
BRANCH   8  14
ATOM     14  O   UNL     1       0.839  -6.809   9.567  1.00  0.00    -0.382 OA
ATOM     15  H   UNL     1      -0.060  -6.977   9.954  1.00  0.00     0.211 HD
ENDBRANCH   8  14
ENDBRANCH   1   8
BRANCH   1  16
ATOM     16  O   UNL     1       2.278  -8.479  11.870  1.00  0.00    -0.387 OA
ATOM     17  H   UNL     1       2.687  -9.379  11.962  1.00  0.00     0.211 HD
ENDBRANCH   1  16
TORSDOF 10
ENDMDL
