MODEL 1
REMARK VINA RESULT:    -4.111      0.000      0.000
REMARK INTER + INTRA:          -6.295
REMARK INTER:                  -5.793
REMARK INTRA:                  -0.502
REMARK UNBOUND:                -0.502
REMARK SMILES CCCCCCCCC(=O)[O-]
REMARK SMILES IDX 6 1 7 2 8 3 9 4 10 5 11 6 5 7 4 8 3 9 2 10 1 11
REMARK H PARENT
REMARK Flexibility Score: inf
ROOT
ATOM      1  C   UNL     1      13.930 -30.858  21.226  1.00  0.00     0.000 C 
ENDROOT
BRANCH   1   2
ATOM      2  C   UNL     1      13.856 -32.370  20.942  1.00  0.00     0.006 C 
BRANCH   2   3
ATOM      3  C   UNL     1      14.762 -33.228  21.839  1.00  0.00     0.053 C 
BRANCH   3   4
ATOM      4  C   UNL     1      15.492 -34.277  21.060  1.00  0.00     0.041 C 
ATOM      5  O   UNL     1      16.342 -35.012  21.628  1.00  0.00    -0.550 OA
ATOM      6  O   UNL     1      15.210 -34.466  19.713  1.00  0.00    -0.550 OA
ENDBRANCH   3   4
ENDBRANCH   2   3
ENDBRANCH   1   2
BRANCH   1   7
ATOM      7  C   UNL     1      15.175 -30.465  22.041  1.00  0.00     0.000 C 
BRANCH   7   8
ATOM      8  C   UNL     1      14.809 -29.692  23.326  1.00  0.00    -0.000 C 
BRANCH   8   9
ATOM      9  C   UNL     1      13.383 -29.975  23.834  1.00  0.00    -0.000 C 
BRANCH   9  10
ATOM     10  C   UNL     1      12.566 -28.720  24.183  1.00  0.00    -0.003 C 
ATOM     11  C   UNL     1      11.330 -28.553  23.299  1.00  0.00     0.004 C 
ENDBRANCH   9  10
ENDBRANCH   8   9
ENDBRANCH   7   8
ENDBRANCH   1   7
TORSDOF 7
ENDMDL
MODEL 2
REMARK VINA RESULT:    -4.062      1.512      2.174
REMARK INTER + INTRA:          -6.226
REMARK INTER:                  -6.017
REMARK INTRA:                  -0.210
REMARK UNBOUND:                -0.502
REMARK SMILES CCCCCCCCC(=O)[O-]
REMARK SMILES IDX 6 1 7 2 8 3 9 4 10 5 11 6 5 7 4 8 3 9 2 10 1 11
REMARK H PARENT
REMARK Flexibility Score: inf
ROOT
ATOM      1  C   UNL     1      14.301 -32.766  21.291  1.00  0.00     0.000 C 
ENDROOT
BRANCH   1   2
ATOM      2  C   UNL     1      14.629 -33.655  20.078  1.00  0.00     0.006 C 
BRANCH   2   3
ATOM      3  C   UNL     1      15.404 -34.937  20.423  1.00  0.00     0.053 C 
BRANCH   3   4
ATOM      4  C   UNL     1      16.524 -35.191  19.464  1.00  0.00     0.041 C 
ATOM      5  O   UNL     1      17.043 -34.236  18.828  1.00  0.00    -0.550 OA
ATOM      6  O   UNL     1      17.019 -36.478  19.296  1.00  0.00    -0.550 OA
ENDBRANCH   3   4
ENDBRANCH   2   3
ENDBRANCH   1   2
BRANCH   1   7
ATOM      7  C   UNL     1      13.471 -31.526  20.915  1.00  0.00     0.000 C 
BRANCH   7   8
ATOM      8  C   UNL     1      12.572 -31.052  22.077  1.00  0.00    -0.000 C 
BRANCH   8   9
ATOM      9  C   UNL     1      13.347 -30.743  23.372  1.00  0.00    -0.000 C 
BRANCH   9  10
ATOM     10  C   UNL     1      13.674 -29.255  23.583  1.00  0.00    -0.003 C 
ATOM     11  C   UNL     1      12.574 -28.507  24.336  1.00  0.00     0.004 C 
ENDBRANCH   9  10
ENDBRANCH   8   9
ENDBRANCH   7   8
ENDBRANCH   1   7
TORSDOF 7
ENDMDL
MODEL 3
REMARK VINA RESULT:    -4.004      1.602      2.247
REMARK INTER + INTRA:          -6.144
REMARK INTER:                  -5.855
REMARK INTRA:                  -0.289
REMARK UNBOUND:                -0.502
REMARK SMILES CCCCCCCCC(=O)[O-]
REMARK SMILES IDX 6 1 7 2 8 3 9 4 10 5 11 6 5 7 4 8 3 9 2 10 1 11
REMARK H PARENT
REMARK Flexibility Score: inf
ROOT
ATOM      1  C   UNL     1      14.623 -32.876  22.061  1.00  0.00     0.000 C 
ENDROOT
BRANCH   1   2
ATOM      2  C   UNL     1      15.429 -34.129  21.673  1.00  0.00     0.006 C 
BRANCH   2   3
ATOM      3  C   UNL     1      15.175 -34.626  20.240  1.00  0.00     0.053 C 
BRANCH   3   4
ATOM      4  C   UNL     1      16.442 -35.030  19.554  1.00  0.00     0.041 C 
ATOM      5  O   UNL     1      16.700 -36.247  19.361  1.00  0.00    -0.550 OA
ATOM      6  O   UNL     1      17.325 -34.060  19.095  1.00  0.00    -0.550 OA
ENDBRANCH   3   4
ENDBRANCH   2   3
ENDBRANCH   1   2
BRANCH   1   7
ATOM      7  C   UNL     1      13.884 -32.249  20.866  1.00  0.00     0.000 C 
BRANCH   7   8
ATOM      8  C   UNL     1      12.788 -31.258  21.313  1.00  0.00    -0.000 C 
BRANCH   8   9
ATOM      9  C   UNL     1      12.943 -30.781  22.770  1.00  0.00    -0.000 C 
BRANCH   9  10
ATOM     10  C   UNL     1      12.224 -29.461  23.092  1.00  0.00    -0.003 C 
ATOM     11  C   UNL     1      12.858 -28.712  24.265  1.00  0.00     0.004 C 
ENDBRANCH   9  10
ENDBRANCH   8   9
ENDBRANCH   7   8
ENDBRANCH   1   7
TORSDOF 7
ENDMDL
MODEL 4
REMARK VINA RESULT:    -3.945      1.280      1.827
REMARK INTER + INTRA:          -6.061
REMARK INTER:                  -5.720
REMARK INTRA:                  -0.341
REMARK UNBOUND:                -0.502
REMARK SMILES CCCCCCCCC(=O)[O-]
REMARK SMILES IDX 6 1 7 2 8 3 9 4 10 5 11 6 5 7 4 8 3 9 2 10 1 11
REMARK H PARENT
REMARK Flexibility Score: inf
ROOT
ATOM      1  C   UNL     1      15.675 -31.328  23.604  1.00  0.00     0.000 C 
ENDROOT
BRANCH   1   2
ATOM      2  C   UNL     1      14.884 -32.648  23.654  1.00  0.00     0.006 C 
BRANCH   2   3
ATOM      3  C   UNL     1      15.516 -33.795  22.849  1.00  0.00     0.053 C 
BRANCH   3   4
ATOM      4  C   UNL     1      15.049 -33.807  21.427  1.00  0.00     0.041 C 
ATOM      5  O   UNL     1      15.419 -34.722  20.645  1.00  0.00    -0.550 OA
ATOM      6  O   UNL     1      14.178 -32.825  20.972  1.00  0.00    -0.550 OA
ENDBRANCH   3   4
ENDBRANCH   2   3
ENDBRANCH   1   2
BRANCH   1   7
ATOM      7  C   UNL     1      14.784 -30.111  23.298  1.00  0.00     0.000 C 
BRANCH   7   8
ATOM      8  C   UNL     1      13.341 -30.300  23.816  1.00  0.00    -0.000 C 
BRANCH   8   9
ATOM      9  C   UNL     1      12.689 -28.998  24.317  1.00  0.00    -0.000 C 
BRANCH   9  10
ATOM     10  C   UNL     1      11.626 -28.410  23.375  1.00  0.00    -0.003 C 
ATOM     11  C   UNL     1      11.027 -29.454  22.432  1.00  0.00     0.004 C 
ENDBRANCH   9  10
ENDBRANCH   8   9
ENDBRANCH   7   8
ENDBRANCH   1   7
TORSDOF 7
ENDMDL
MODEL 5
REMARK VINA RESULT:    -3.899      3.638      5.420
REMARK INTER + INTRA:          -5.996
REMARK INTER:                  -5.305
REMARK INTRA:                  -0.692
REMARK UNBOUND:                -0.502
REMARK SMILES CCCCCCCCC(=O)[O-]
REMARK SMILES IDX 6 1 7 2 8 3 9 4 10 5 11 6 5 7 4 8 3 9 2 10 1 11
REMARK H PARENT
REMARK Flexibility Score: inf
ROOT
ATOM      1  C   UNL     1      14.717 -30.380  21.379  1.00  0.00     0.000 C 
ENDROOT
BRANCH   1   2
ATOM      2  C   UNL     1      14.405 -29.611  22.675  1.00  0.00     0.006 C 
BRANCH   2   3
ATOM      3  C   UNL     1      13.066 -29.989  23.329  1.00  0.00     0.053 C 
BRANCH   3   4
ATOM      4  C   UNL     1      12.343 -28.792  23.862  1.00  0.00     0.041 C 
ATOM      5  O   UNL     1      12.823 -28.136  24.823  1.00  0.00    -0.550 OA
ATOM      6  O   UNL     1      11.154 -28.379  23.273  1.00  0.00    -0.550 OA
ENDBRANCH   3   4
ENDBRANCH   2   3
ENDBRANCH   1   2
BRANCH   1   7
ATOM      7  C   UNL     1      13.612 -31.381  20.999  1.00  0.00     0.000 C 
BRANCH   7   8
ATOM      8  C   UNL     1      14.173 -32.793  20.729  1.00  0.00    -0.000 C 
BRANCH   8   9
ATOM      9  C   UNL     1      15.465 -33.105  21.508  1.00  0.00    -0.000 C 
BRANCH   9  10
ATOM     10  C   UNL     1      15.259 -33.952  22.775  1.00  0.00    -0.003 C 
ATOM     11  C   UNL     1      14.978 -33.104  24.016  1.00  0.00     0.004 C 
ENDBRANCH   9  10
ENDBRANCH   8   9
ENDBRANCH   7   8
ENDBRANCH   1   7
TORSDOF 7
ENDMDL
MODEL 6
REMARK VINA RESULT:    -3.890      1.712      2.489
REMARK INTER + INTRA:          -5.984
REMARK INTER:                  -5.762
REMARK INTRA:                  -0.222
REMARK UNBOUND:                -0.502
REMARK SMILES CCCCCCCCC(=O)[O-]
REMARK SMILES IDX 6 1 7 2 8 3 9 4 10 5 11 6 5 7 4 8 3 9 2 10 1 11
REMARK H PARENT
REMARK Flexibility Score: inf
ROOT
ATOM      1  C   UNL     1      15.005 -33.233  22.184  1.00  0.00     0.000 C 
ENDROOT
BRANCH   1   2
ATOM      2  C   UNL     1      15.581 -34.541  21.612  1.00  0.00     0.006 C 
BRANCH   2   3
ATOM      3  C   UNL     1      15.357 -34.725  20.102  1.00  0.00     0.053 C 
BRANCH   3   4
ATOM      4  C   UNL     1      16.629 -35.040  19.380  1.00  0.00     0.041 C 
ATOM      5  O   UNL     1      17.304 -34.117  18.853  1.00  0.00    -0.550 OA
ATOM      6  O   UNL     1      17.089 -36.349  19.317  1.00  0.00    -0.550 OA
ENDBRANCH   3   4
ENDBRANCH   2   3
ENDBRANCH   1   2
BRANCH   1   7
ATOM      7  C   UNL     1      15.064 -33.178  23.721  1.00  0.00     0.000 C 
BRANCH   7   8
ATOM      8  C   UNL     1      13.860 -32.422  24.323  1.00  0.00    -0.000 C 
BRANCH   8   9
ATOM      9  C   UNL     1      13.333 -31.284  23.428  1.00  0.00    -0.000 C 
BRANCH   9  10
ATOM     10  C   UNL     1      13.586 -29.870  23.976  1.00  0.00    -0.003 C 
ATOM     11  C   UNL     1      12.382 -28.943  23.800  1.00  0.00     0.004 C 
ENDBRANCH   9  10
ENDBRANCH   8   9
ENDBRANCH   7   8
ENDBRANCH   1   7
TORSDOF 7
ENDMDL
MODEL 7
REMARK VINA RESULT:    -3.865      3.844      4.914
REMARK INTER + INTRA:          -5.949
REMARK INTER:                  -5.167
REMARK INTRA:                  -0.782
REMARK UNBOUND:                -0.502
REMARK SMILES CCCCCCCCC(=O)[O-]
REMARK SMILES IDX 6 1 7 2 8 3 9 4 10 5 11 6 5 7 4 8 3 9 2 10 1 11
REMARK H PARENT
REMARK Flexibility Score: inf
ROOT
ATOM      1  C   UNL     1      14.647 -31.674  22.972  1.00  0.00     0.000 C 
ENDROOT
BRANCH   1   2
ATOM      2  C   UNL     1      13.381 -31.083  23.619  1.00  0.00     0.006 C 
BRANCH   2   3
ATOM      3  C   UNL     1      12.672 -30.018  22.766  1.00  0.00     0.053 C 
BRANCH   3   4
ATOM      4  C   UNL     1      12.119 -28.907  23.602  1.00  0.00     0.041 C 
ATOM      5  O   UNL     1      12.622 -28.648  24.727  1.00  0.00    -0.550 OA
ATOM      6  O   UNL     1      11.068 -28.134  23.125  1.00  0.00    -0.550 OA
ENDBRANCH   3   4
ENDBRANCH   2   3
ENDBRANCH   1   2
BRANCH   1   7
ATOM      7  C   UNL     1      15.908 -31.462  23.829  1.00  0.00     0.000 C 
BRANCH   7   8
ATOM      8  C   UNL     1      16.713 -30.223  23.383  1.00  0.00    -0.000 C 
BRANCH   8   9
ATOM      9  C   UNL     1      16.400 -29.767  21.945  1.00  0.00    -0.000 C 
BRANCH   9  10
ATOM     10  C   UNL     1      15.931 -28.307  21.824  1.00  0.00    -0.003 C 
ATOM     11  C   UNL     1      15.585 -27.683  23.176  1.00  0.00     0.004 C 
ENDBRANCH   9  10
ENDBRANCH   8   9
ENDBRANCH   7   8
ENDBRANCH   1   7
TORSDOF 7
ENDMDL
MODEL 8
REMARK VINA RESULT:    -3.857      3.324      5.844
REMARK INTER + INTRA:          -5.938
REMARK INTER:                  -5.558
REMARK INTRA:                  -0.380
REMARK UNBOUND:                -0.502
REMARK SMILES CCCCCCCCC(=O)[O-]
REMARK SMILES IDX 6 1 7 2 8 3 9 4 10 5 11 6 5 7 4 8 3 9 2 10 1 11
REMARK H PARENT
REMARK Flexibility Score: inf
ROOT
ATOM      1  C   UNL     1      13.509 -31.779  20.941  1.00  0.00     0.000 C 
ENDROOT
BRANCH   1   2
ATOM      2  C   UNL     1      12.619 -30.992  21.919  1.00  0.00     0.006 C 
BRANCH   2   3
ATOM      3  C   UNL     1      13.191 -30.874  23.341  1.00  0.00     0.053 C 
BRANCH   3   4
ATOM      4  C   UNL     1      13.449 -29.451  23.726  1.00  0.00     0.041 C 
ATOM      5  O   UNL     1      12.746 -28.895  24.610  1.00  0.00    -0.550 OA
ATOM      6  O   UNL     1      14.489 -28.747  23.132  1.00  0.00    -0.550 OA
ENDBRANCH   3   4
ENDBRANCH   2   3
ENDBRANCH   1   2
BRANCH   1   7
ATOM      7  C   UNL     1      14.845 -32.214  21.569  1.00  0.00     0.000 C 
BRANCH   7   8
ATOM      8  C   UNL     1      15.035 -33.745  21.534  1.00  0.00    -0.000 C 
BRANCH   8   9
ATOM      9  C   UNL     1      15.027 -34.337  20.111  1.00  0.00    -0.000 C 
BRANCH   9  10
ATOM     10  C   UNL     1      16.278 -35.156  19.752  1.00  0.00    -0.003 C 
ATOM     11  C   UNL     1      17.341 -34.329  19.030  1.00  0.00     0.004 C 
ENDBRANCH   9  10
ENDBRANCH   8   9
ENDBRANCH   7   8
ENDBRANCH   1   7
TORSDOF 7
ENDMDL
MODEL 9
REMARK VINA RESULT:    -3.842      8.752     10.158
REMARK INTER + INTRA:          -5.916
REMARK INTER:                  -5.435
REMARK INTRA:                  -0.481
REMARK UNBOUND:                -0.502
REMARK SMILES CCCCCCCCC(=O)[O-]
REMARK SMILES IDX 6 1 7 2 8 3 9 4 10 5 11 6 5 7 4 8 3 9 2 10 1 11
REMARK H PARENT
REMARK Flexibility Score: inf
ROOT
ATOM      1  C   UNL     1      21.956 -27.535  21.123  1.00  0.00     0.000 C 
ENDROOT
BRANCH   1   2
ATOM      2  C   UNL     1      23.170 -26.878  20.441  1.00  0.00     0.006 C 
BRANCH   2   3
ATOM      3  C   UNL     1      22.851 -25.561  19.714  1.00  0.00     0.053 C 
BRANCH   3   4
ATOM      4  C   UNL     1      23.451 -24.378  20.408  1.00  0.00     0.041 C 
ATOM      5  O   UNL     1      23.076 -24.067  21.568  1.00  0.00    -0.550 OA
ATOM      6  O   UNL     1      24.449 -23.639  19.786  1.00  0.00    -0.550 OA
ENDBRANCH   3   4
ENDBRANCH   2   3
ENDBRANCH   1   2
BRANCH   1   7
ATOM      7  C   UNL     1      20.615 -26.944  20.651  1.00  0.00     0.000 C 
BRANCH   7   8
ATOM      8  C   UNL     1      19.438 -27.917  20.880  1.00  0.00    -0.000 C 
BRANCH   8   9
ATOM      9  C   UNL     1      19.749 -29.039  21.888  1.00  0.00    -0.000 C 
BRANCH   9  10
ATOM     10  C   UNL     1      19.588 -30.463  21.332  1.00  0.00    -0.003 C 
ATOM     11  C   UNL     1      20.925 -31.119  20.986  1.00  0.00     0.004 C 
ENDBRANCH   9  10
ENDBRANCH   8   9
ENDBRANCH   7   8
ENDBRANCH   1   7
TORSDOF 7
ENDMDL
