MODEL 1
REMARK VINA RESULT:    -3.965      0.000      0.000
REMARK INTER + INTRA:          -3.965
REMARK INTER:                  -3.965
REMARK INTRA:                   0.000
REMARK UNBOUND:                 0.000
REMARK SMILES CC1(C)C(=O)[C@]2(C)CC[C@H]1C2
REMARK SMILES IDX 1 1 2 2 10 3 9 4 8 5 6 6 11 7 4 8 5 9 7 10 3 11
REMARK H PARENT
REMARK Flexibility Score: inf
ROOT
ATOM      1  C   UNL     1     116.317 116.435 115.281  1.00  0.00     0.020 C 
ATOM      2  C   UNL     1     116.341 116.672 116.805  1.00  0.00     0.027 C 
ATOM      3  C   UNL     1     117.754 116.359 117.418  1.00  0.00     0.003 C 
ATOM      4  C   UNL     1     117.821 116.773 118.910  1.00  0.00     0.005 C 
ATOM      5  C   UNL     1     116.868 115.766 119.594  1.00  0.00     0.015 C 
ATOM      6  C   UNL     1     116.458 114.845 118.428  1.00  0.00     0.027 C 
ATOM      7  C   UNL     1     117.718 114.841 117.586  1.00  0.00     0.019 C 
ATOM      8  C   UNL     1     115.540 115.629 117.530  1.00  0.00     0.144 C 
ATOM      9  O   UNL     1     114.328 115.491 117.458  1.00  0.00    -0.298 OA
ATOM     10  C   UNL     1     115.953 113.460 118.833  1.00  0.00     0.020 C 
ATOM     11  C   UNL     1     115.820 118.095 117.104  1.00  0.00     0.020 C 
ENDROOT
TORSDOF 0
ENDMDL
MODEL 2
REMARK VINA RESULT:    -3.945      1.652      2.469
REMARK INTER + INTRA:          -3.945
REMARK INTER:                  -3.945
REMARK INTRA:                   0.000
REMARK UNBOUND:                 0.000
REMARK SMILES CC1(C)C(=O)[C@]2(C)CC[C@H]1C2
REMARK SMILES IDX 1 1 2 2 10 3 9 4 8 5 6 6 11 7 4 8 5 9 7 10 3 11
REMARK H PARENT
REMARK Flexibility Score: inf
ROOT
ATOM      1  C   UNL     1     116.417 116.843 115.250  1.00  0.00     0.020 C 
ATOM      2  C   UNL     1     116.666 116.876 116.773  1.00  0.00     0.027 C 
ATOM      3  C   UNL     1     116.355 115.487 117.440  1.00  0.00     0.003 C 
ATOM      4  C   UNL     1     116.780 115.475 118.930  1.00  0.00     0.005 C 
ATOM      5  C   UNL     1     115.780 116.455 119.586  1.00  0.00     0.015 C 
ATOM      6  C   UNL     1     114.852 116.824 118.413  1.00  0.00     0.027 C 
ATOM      7  C   UNL     1     114.838 115.534 117.619  1.00  0.00     0.019 C 
ATOM      8  C   UNL     1     115.630 117.706 117.475  1.00  0.00     0.144 C 
ATOM      9  O   UNL     1     115.494 118.914 117.359  1.00  0.00    -0.298 OA
ATOM     10  C   UNL     1     113.470 117.347 118.809  1.00  0.00     0.020 C 
ATOM     11  C   UNL     1     118.092 117.404 117.041  1.00  0.00     0.020 C 
ENDROOT
TORSDOF 0
ENDMDL
MODEL 3
REMARK VINA RESULT:    -3.943      2.057      3.471
REMARK INTER + INTRA:          -3.943
REMARK INTER:                  -3.943
REMARK INTRA:                   0.000
REMARK UNBOUND:                 0.000
REMARK SMILES CC1(C)C(=O)[C@]2(C)CC[C@H]1C2
REMARK SMILES IDX 1 1 2 2 10 3 9 4 8 5 6 6 11 7 4 8 5 9 7 10 3 11
REMARK H PARENT
REMARK Flexibility Score: inf
ROOT
ATOM      1  C   UNL     1     116.846 116.768 115.282  1.00  0.00     0.020 C 
ATOM      2  C   UNL     1     116.855 116.544 116.809  1.00  0.00     0.027 C 
ATOM      3  C   UNL     1     115.461 116.882 117.452  1.00  0.00     0.003 C 
ATOM      4  C   UNL     1     115.424 116.482 118.949  1.00  0.00     0.005 C 
ATOM      5  C   UNL     1     116.407 117.482 119.602  1.00  0.00     0.015 C 
ATOM      6  C   UNL     1     116.802 118.387 118.418  1.00  0.00     0.027 C 
ATOM      7  C   UNL     1     115.523 118.401 117.606  1.00  0.00     0.019 C 
ATOM      8  C   UNL     1     117.687 117.583 117.506  1.00  0.00     0.144 C 
ATOM      9  O   UNL     1     118.899 117.703 117.404  1.00  0.00    -0.298 OA
ATOM     10  C   UNL     1     117.335 119.768 118.798  1.00  0.00     0.020 C 
ATOM     11  C   UNL     1     117.363 115.118 117.108  1.00  0.00     0.020 C 
ENDROOT
TORSDOF 0
ENDMDL
MODEL 4
REMARK VINA RESULT:    -3.930      1.653      2.458
REMARK INTER + INTRA:          -3.930
REMARK INTER:                  -3.930
REMARK INTRA:                   0.000
REMARK UNBOUND:                 0.000
REMARK SMILES CC1(C)C(=O)[C@]2(C)CC[C@H]1C2
REMARK SMILES IDX 1 1 2 2 10 3 9 4 8 5 6 6 11 7 4 8 5 9 7 10 3 11
REMARK H PARENT
REMARK Flexibility Score: inf
ROOT
ATOM      1  C   UNL     1     116.810 116.408 115.253  1.00  0.00     0.020 C 
ATOM      2  C   UNL     1     116.555 116.383 116.774  1.00  0.00     0.027 C 
ATOM      3  C   UNL     1     116.842 117.781 117.433  1.00  0.00     0.003 C 
ATOM      4  C   UNL     1     116.410 117.798 118.921  1.00  0.00     0.005 C 
ATOM      5  C   UNL     1     117.420 116.837 119.589  1.00  0.00     0.015 C 
ATOM      6  C   UNL     1     118.360 116.473 118.423  1.00  0.00     0.027 C 
ATOM      7  C   UNL     1     118.358 117.758 117.619  1.00  0.00     0.019 C 
ATOM      8  C   UNL     1     117.599 115.574 117.488  1.00  0.00     0.144 C 
ATOM      9  O   UNL     1     117.753 114.366 117.382  1.00  0.00    -0.298 OA
ATOM     10  C   UNL     1     119.747 115.974 118.829  1.00  0.00     0.020 C 
ATOM     11  C   UNL     1     115.135 115.836 117.040  1.00  0.00     0.020 C 
ENDROOT
TORSDOF 0
ENDMDL
MODEL 5
REMARK VINA RESULT:    -3.596      1.492      2.578
REMARK INTER + INTRA:          -3.596
REMARK INTER:                  -3.596
REMARK INTRA:                   0.000
REMARK UNBOUND:                 0.000
REMARK SMILES CC1(C)C(=O)[C@]2(C)CC[C@H]1C2
REMARK SMILES IDX 1 1 2 2 10 3 9 4 8 5 6 6 11 7 4 8 5 9 7 10 3 11
REMARK H PARENT
REMARK Flexibility Score: inf
ROOT
ATOM      1  C   UNL     1     117.335 115.173 117.331  1.00  0.00     0.020 C 
ATOM      2  C   UNL     1     116.401 116.390 117.161  1.00  0.00     0.027 C 
ATOM      3  C   UNL     1     116.822 117.579 118.099  1.00  0.00     0.003 C 
ATOM      4  C   UNL     1     115.997 118.854 117.790  1.00  0.00     0.005 C 
ATOM      5  C   UNL     1     114.574 118.471 118.260  1.00  0.00     0.015 C 
ATOM      6  C   UNL     1     114.786 117.070 118.867  1.00  0.00     0.027 C 
ATOM      7  C   UNL     1     116.186 117.193 119.434  1.00  0.00     0.019 C 
ATOM      8  C   UNL     1     115.040 116.116 117.733  1.00  0.00     0.144 C 
ATOM      9  O   UNL     1     114.241 115.301 117.298  1.00  0.00    -0.298 OA
ATOM     10  C   UNL     1     113.725 116.625 119.874  1.00  0.00     0.020 C 
ATOM     11  C   UNL     1     116.321 116.760 115.664  1.00  0.00     0.020 C 
ENDROOT
TORSDOF 0
ENDMDL
MODEL 6
REMARK VINA RESULT:    -3.595      1.803      3.123
REMARK INTER + INTRA:          -3.595
REMARK INTER:                  -3.595
REMARK INTRA:                   0.000
REMARK UNBOUND:                 0.000
REMARK SMILES CC1(C)C(=O)[C@]2(C)CC[C@H]1C2
REMARK SMILES IDX 1 1 2 2 10 3 9 4 8 5 6 6 11 7 4 8 5 9 7 10 3 11
REMARK H PARENT
REMARK Flexibility Score: inf
ROOT
ATOM      1  C   UNL     1     115.159 115.876 117.341  1.00  0.00     0.020 C 
ATOM      2  C   UNL     1     116.365 116.818 117.148  1.00  0.00     0.027 C 
ATOM      3  C   UNL     1     117.559 116.433 118.095  1.00  0.00     0.003 C 
ATOM      4  C   UNL     1     118.824 117.264 117.767  1.00  0.00     0.005 C 
ATOM      5  C   UNL     1     118.426 118.693 118.203  1.00  0.00     0.015 C 
ATOM      6  C   UNL     1     117.028 118.480 118.816  1.00  0.00     0.027 C 
ATOM      7  C   UNL     1     117.166 117.095 119.415  1.00  0.00     0.019 C 
ATOM      8  C   UNL     1     116.076 118.189 117.689  1.00  0.00     0.144 C 
ATOM      9  O   UNL     1     115.253 118.970 117.235  1.00  0.00    -0.298 OA
ATOM     10  C   UNL     1     116.571 119.560 119.798  1.00  0.00     0.020 C 
ATOM     11  C   UNL     1     116.734 116.867 115.649  1.00  0.00     0.020 C 
ENDROOT
TORSDOF 0
ENDMDL
MODEL 7
REMARK VINA RESULT:    -3.587      1.835      3.047
REMARK INTER + INTRA:          -3.587
REMARK INTER:                  -3.587
REMARK INTRA:                   0.000
REMARK UNBOUND:                 0.000
REMARK SMILES CC1(C)C(=O)[C@]2(C)CC[C@H]1C2
REMARK SMILES IDX 1 1 2 2 10 3 9 4 8 5 6 6 11 7 4 8 5 9 7 10 3 11
REMARK H PARENT
REMARK Flexibility Score: inf
ROOT
ATOM      1  C   UNL     1     115.880 118.105 117.350  1.00  0.00     0.020 C 
ATOM      2  C   UNL     1     116.812 116.888 117.174  1.00  0.00     0.027 C 
ATOM      3  C   UNL     1     116.413 115.709 118.135  1.00  0.00     0.003 C 
ATOM      4  C   UNL     1     117.234 114.432 117.823  1.00  0.00     0.005 C 
ATOM      5  C   UNL     1     118.665 114.822 118.259  1.00  0.00     0.015 C 
ATOM      6  C   UNL     1     118.463 116.230 118.855  1.00  0.00     0.027 C 
ATOM      7  C   UNL     1     117.075 116.111 119.451  1.00  0.00     0.019 C 
ATOM      8  C   UNL     1     118.184 117.171 117.715  1.00  0.00     0.144 C 
ATOM      9  O   UNL     1     118.973 117.982 117.254  1.00  0.00    -0.298 OA
ATOM     10  C   UNL     1     119.544 116.689 119.834  1.00  0.00     0.020 C 
ATOM     11  C   UNL     1     116.861 116.500 115.680  1.00  0.00     0.020 C 
ENDROOT
TORSDOF 0
ENDMDL
MODEL 8
REMARK VINA RESULT:    -3.556      1.563      2.496
REMARK INTER + INTRA:          -3.556
REMARK INTER:                  -3.556
REMARK INTRA:                   0.000
REMARK UNBOUND:                 0.000
REMARK SMILES CC1(C)C(=O)[C@]2(C)CC[C@H]1C2
REMARK SMILES IDX 1 1 2 2 10 3 9 4 8 5 6 6 11 7 4 8 5 9 7 10 3 11
REMARK H PARENT
REMARK Flexibility Score: inf
ROOT
ATOM      1  C   UNL     1     118.088 117.338 117.370  1.00  0.00     0.020 C 
ATOM      2  C   UNL     1     116.881 116.391 117.206  1.00  0.00     0.027 C 
ATOM      3  C   UNL     1     115.685 116.811 118.136  1.00  0.00     0.003 C 
ATOM      4  C   UNL     1     114.419 115.970 117.833  1.00  0.00     0.005 C 
ATOM      5  C   UNL     1     114.814 114.557 118.320  1.00  0.00     0.015 C 
ATOM      6  C   UNL     1     116.211 114.789 118.930  1.00  0.00     0.027 C 
ATOM      7  C   UNL     1     116.073 116.194 119.479  1.00  0.00     0.019 C 
ATOM      8  C   UNL     1     117.166 115.039 117.796  1.00  0.00     0.144 C 
ATOM      9  O   UNL     1     117.990 114.242 117.372  1.00  0.00    -0.298 OA
ATOM     10  C   UNL     1     116.663 113.744 119.950  1.00  0.00     0.020 C 
ATOM     11  C   UNL     1     116.516 116.290 115.709  1.00  0.00     0.020 C 
ENDROOT
TORSDOF 0
ENDMDL
MODEL 9
REMARK VINA RESULT:    -3.538      1.379      3.185
REMARK INTER + INTRA:          -3.538
REMARK INTER:                  -3.538
REMARK INTRA:                   0.000
REMARK UNBOUND:                 0.000
REMARK SMILES CC1(C)C(=O)[C@]2(C)CC[C@H]1C2
REMARK SMILES IDX 1 1 2 2 10 3 9 4 8 5 6 6 11 7 4 8 5 9 7 10 3 11
REMARK H PARENT
REMARK Flexibility Score: inf
ROOT
ATOM      1  C   UNL     1     118.715 115.933 119.435  1.00  0.00     0.020 C 
ATOM      2  C   UNL     1     117.761 115.582 118.275  1.00  0.00     0.027 C 
ATOM      3  C   UNL     1     117.748 116.706 117.175  1.00  0.00     0.003 C 
ATOM      4  C   UNL     1     116.933 116.265 115.934  1.00  0.00     0.005 C 
ATOM      5  C   UNL     1     115.481 116.225 116.466  1.00  0.00     0.015 C 
ATOM      6  C   UNL     1     115.638 116.743 117.910  1.00  0.00     0.027 C 
ATOM      7  C   UNL     1     116.776 117.731 117.756  1.00  0.00     0.019 C 
ATOM      8  C   UNL     1     116.325 115.668 118.707  1.00  0.00     0.144 C 
ATOM      9  O   UNL     1     115.786 114.933 119.520  1.00  0.00    -0.298 OA
ATOM     10  C   UNL     1     114.370 117.318 118.541  1.00  0.00     0.020 C 
ATOM     11  C   UNL     1     118.108 114.176 117.741  1.00  0.00     0.020 C 
ENDROOT
TORSDOF 0
ENDMDL
