MODEL 1
REMARK VINA RESULT:    -8.662      0.000      0.000
REMARK INTER + INTRA:         -13.586
REMARK INTER:                 -12.207
REMARK INTRA:                  -1.380
REMARK UNBOUND:                -1.380
REMARK SMILES COc1c(O[C@H]2O[C@H](C(=O)[O-])[C@H](O)[C@@H](O)[C@@H]2O)cc(O)c2c(=O)cc(-c3ccccc3)oc12
REMARK SMILES IDX 5 1 6 2 8 3 12 4 7 5 14 6 16 7 9 8 10 9 11 10 13 11 15 13
REMARK SMILES IDX 17 15 4 17 3 18 18 19 33 20 19 21 21 22 32 23 22 24 25 25
REMARK SMILES IDX 24 26 23 27 2 28 1 29 20 30 26 32 27 33 31 34 28 35 30 36
REMARK SMILES IDX 29 37
REMARK H PARENT 13 12 15 14 17 16 20 31
REMARK Flexibility Score: inf
ROOT
ATOM      1  O   UNL     1      24.043  59.820  30.100  1.00  0.00    -0.458 OA
ENDROOT
BRANCH   1   2
ATOM      2  C   UNL     1      25.051  58.809  30.198  1.00  0.00     0.339 C 
ATOM      3  C   UNL     1      26.564  60.291  31.204  1.00  0.00     0.199 C 
ATOM      4  C   UNL     1      26.587  59.529  32.549  1.00  0.00     0.180 C 
ATOM      5  O   UNL     1      26.342  59.396  30.125  1.00  0.00    -0.328 OA
ATOM      6  C   UNL     1      25.275  58.738  32.746  1.00  0.00     0.181 C 
ATOM      7  C   UNL     1      24.885  57.952  31.473  1.00  0.00     0.214 C 
BRANCH   3   8
ATOM      8  C   UNL     1      27.855  61.029  30.986  1.00  0.00     0.073 C 
ATOM      9  O   UNL     1      28.235  61.345  29.825  1.00  0.00    -0.547 OA
ATOM     10  O   UNL     1      28.657  61.347  32.076  1.00  0.00    -0.547 OA
ENDBRANCH   3   8
BRANCH   4  11
ATOM     11  O   UNL     1      27.709  58.681  32.658  1.00  0.00    -0.387 OA
ATOM     12  H   UNL     1      27.432  57.851  33.123  1.00  0.00     0.211 HD
ENDBRANCH   4  11
BRANCH   6  13
ATOM     13  O   UNL     1      24.248  59.635  33.086  1.00  0.00    -0.387 OA
ATOM     14  H   UNL     1      23.477  59.422  32.494  1.00  0.00     0.211 HD
ENDBRANCH   6  13
BRANCH   7  15
ATOM     15  O   UNL     1      25.679  56.800  31.357  1.00  0.00    -0.384 OA
ATOM     16  H   UNL     1      25.203  56.185  30.739  1.00  0.00     0.211 HD
ENDBRANCH   7  15
ENDBRANCH   1   2
BRANCH   1  17
ATOM     17  C   UNL     1      23.463  60.273  28.905  1.00  0.00     0.172 A 
ATOM     18  C   UNL     1      23.766  61.568  28.468  1.00  0.00     0.205 A 
ATOM     19  C   UNL     1      22.604  59.477  28.144  1.00  0.00     0.097 A 
ATOM     20  C   UNL     1      23.236  62.054  27.269  1.00  0.00     0.188 A 
ATOM     21  C   UNL     1      22.006  59.963  26.973  1.00  0.00     0.134 A 
ATOM     22  C   UNL     1      22.328  61.273  26.507  1.00  0.00     0.111 A 
ATOM     23  O   UNL     1      23.624  63.255  26.847  1.00  0.00    -0.452 OA
ATOM     24  C   UNL     1      21.831  61.855  25.315  1.00  0.00     0.197 A 
ATOM     25  C   UNL     1      23.200  63.806  25.716  1.00  0.00     0.138 A 
ATOM     26  C   UNL     1      22.259  63.127  24.931  1.00  0.00     0.100 A 
ATOM     27  O   UNL     1      21.008  61.262  24.571  1.00  0.00    -0.289 OA
BRANCH  18  28
ATOM     28  O   UNL     1      24.620  62.382  29.219  1.00  0.00    -0.490 OA
ATOM     29  C   UNL     1      24.156  63.135  30.334  1.00  0.00     0.278 C 
ENDBRANCH  18  28
BRANCH  21  30
ATOM     30  O   UNL     1      21.112  59.096  26.335  1.00  0.00    -0.507 OA
ATOM     31  H   UNL     1      21.188  58.095  26.277  1.00  0.00     0.293 HD
ENDBRANCH  21  30
BRANCH  25  32
ATOM     32  C   UNL     1      23.752  65.126  25.315  1.00  0.00     0.017 A 
ATOM     33  C   UNL     1      25.073  65.215  24.835  1.00  0.00     0.012 A 
ATOM     34  C   UNL     1      22.952  66.286  25.321  1.00  0.00     0.012 A 
ATOM     35  C   UNL     1      25.585  66.436  24.396  1.00  0.00     0.001 A 
ATOM     36  C   UNL     1      23.468  67.503  24.869  1.00  0.00     0.001 A 
ATOM     37  C   UNL     1      24.782  67.578  24.405  1.00  0.00     0.000 A 
ENDBRANCH  25  32
ENDBRANCH   1  17
TORSDOF 9
ENDMDL
MODEL 2
REMARK VINA RESULT:    -8.614      2.785      4.944
REMARK INTER + INTRA:         -13.519
REMARK INTER:                 -12.142
REMARK INTRA:                  -1.377
REMARK UNBOUND:                -1.380
REMARK SMILES COc1c(O[C@H]2O[C@H](C(=O)[O-])[C@H](O)[C@@H](O)[C@@H]2O)cc(O)c2c(=O)cc(-c3ccccc3)oc12
REMARK SMILES IDX 5 1 6 2 8 3 12 4 7 5 14 6 16 7 9 8 10 9 11 10 13 11 15 13
REMARK SMILES IDX 17 15 4 17 3 18 18 19 33 20 19 21 21 22 32 23 22 24 25 25
REMARK SMILES IDX 24 26 23 27 2 28 1 29 20 30 26 32 27 33 31 34 28 35 30 36
REMARK SMILES IDX 29 37
REMARK H PARENT 13 12 15 14 17 16 20 31
REMARK Flexibility Score: inf
ROOT
ATOM      1  O   UNL     1      24.536  60.232  28.262  1.00  0.00    -0.458 OA
ENDROOT
BRANCH   1   2
ATOM      2  C   UNL     1      25.610  59.411  28.730  1.00  0.00     0.339 C 
ATOM      3  C   UNL     1      24.720  59.330  30.898  1.00  0.00     0.199 C 
ATOM      4  C   UNL     1      24.441  57.810  30.846  1.00  0.00     0.180 C 
ATOM      5  O   UNL     1      25.852  59.659  30.107  1.00  0.00    -0.328 OA
ATOM      6  C   UNL     1      24.253  57.343  29.386  1.00  0.00     0.181 C 
ATOM      7  C   UNL     1      25.351  57.912  28.458  1.00  0.00     0.214 C 
BRANCH   3   8
ATOM      8  C   UNL     1      24.946  59.784  32.313  1.00  0.00     0.073 C 
ATOM      9  O   UNL     1      25.882  59.301  33.008  1.00  0.00    -0.547 OA
ATOM     10  O   UNL     1      24.097  60.729  32.875  1.00  0.00    -0.547 OA
ENDBRANCH   3   8
BRANCH   4  11
ATOM     11  O   UNL     1      25.453  57.065  31.488  1.00  0.00    -0.387 OA
ATOM     12  H   UNL     1      26.026  57.689  32.002  1.00  0.00     0.211 HD
ENDBRANCH   4  11
BRANCH   6  13
ATOM     13  O   UNL     1      22.987  57.754  28.936  1.00  0.00    -0.387 OA
ATOM     14  H   UNL     1      22.871  58.696  29.235  1.00  0.00     0.211 HD
ENDBRANCH   6  13
BRANCH   7  15
ATOM     15  O   UNL     1      26.548  57.200  28.635  1.00  0.00    -0.384 OA
ATOM     16  H   UNL     1      26.996  57.169  27.750  1.00  0.00     0.211 HD
ENDBRANCH   7  15
ENDBRANCH   1   2
BRANCH   1  17
ATOM     17  C   UNL     1      24.439  60.785  26.975  1.00  0.00     0.172 A 
ATOM     18  C   UNL     1      23.334  60.446  26.187  1.00  0.00     0.205 A 
ATOM     19  C   UNL     1      25.402  61.660  26.467  1.00  0.00     0.097 A 
ATOM     20  C   UNL     1      23.179  60.994  24.910  1.00  0.00     0.188 A 
ATOM     21  C   UNL     1      25.305  62.171  25.165  1.00  0.00     0.134 A 
ATOM     22  C   UNL     1      24.170  61.850  24.362  1.00  0.00     0.111 A 
ATOM     23  O   UNL     1      22.068  60.715  24.233  1.00  0.00    -0.452 OA
ATOM     24  C   UNL     1      23.933  62.344  23.055  1.00  0.00     0.197 A 
ATOM     25  C   UNL     1      21.808  61.194  23.022  1.00  0.00     0.138 A 
ATOM     26  C   UNL     1      22.759  62.003  22.385  1.00  0.00     0.100 A 
ATOM     27  O   UNL     1      24.752  63.095  22.464  1.00  0.00    -0.289 OA
BRANCH  18  28
ATOM     28  O   UNL     1      22.363  59.567  26.678  1.00  0.00    -0.490 OA
ATOM     29  C   UNL     1      21.149  60.032  27.257  1.00  0.00     0.278 C 
ENDBRANCH  18  28
BRANCH  21  30
ATOM     30  O   UNL     1      26.366  62.982  24.744  1.00  0.00    -0.507 OA
ATOM     31  H   UNL     1      27.317  62.693  24.596  1.00  0.00     0.293 HD
ENDBRANCH  21  30
BRANCH  25  32
ATOM     32  C   UNL     1      20.505  60.866  22.390  1.00  0.00     0.017 A 
ATOM     33  C   UNL     1      19.456  61.806  22.418  1.00  0.00     0.012 A 
ATOM     34  C   UNL     1      20.318  59.662  21.681  1.00  0.00     0.012 A 
ATOM     35  C   UNL     1      18.248  61.537  21.774  1.00  0.00     0.001 A 
ATOM     36  C   UNL     1      19.109  59.405  21.030  1.00  0.00     0.001 A 
ATOM     37  C   UNL     1      18.076  60.342  21.074  1.00  0.00     0.000 A 
ENDBRANCH  25  32
ENDBRANCH   1  17
TORSDOF 9
ENDMDL
MODEL 3
REMARK VINA RESULT:    -8.600      2.578      4.450
REMARK INTER + INTRA:         -13.499
REMARK INTER:                 -12.295
REMARK INTRA:                  -1.204
REMARK UNBOUND:                -1.380
REMARK SMILES COc1c(O[C@H]2O[C@H](C(=O)[O-])[C@H](O)[C@@H](O)[C@@H]2O)cc(O)c2c(=O)cc(-c3ccccc3)oc12
REMARK SMILES IDX 5 1 6 2 8 3 12 4 7 5 14 6 16 7 9 8 10 9 11 10 13 11 15 13
REMARK SMILES IDX 17 15 4 17 3 18 18 19 33 20 19 21 21 22 32 23 22 24 25 25
REMARK SMILES IDX 24 26 23 27 2 28 1 29 20 30 26 32 27 33 31 34 28 35 30 36
REMARK SMILES IDX 29 37
REMARK H PARENT 13 12 15 14 17 16 20 31
REMARK Flexibility Score: inf
ROOT
ATOM      1  O   UNL     1      26.179  61.586  29.605  1.00  0.00    -0.458 OA
ENDROOT
BRANCH   1   2
ATOM      2  C   UNL     1      26.451  61.425  31.001  1.00  0.00     0.339 C 
ATOM      3  C   UNL     1      25.959  59.133  30.921  1.00  0.00     0.199 C 
ATOM      4  C   UNL     1      27.405  58.697  31.251  1.00  0.00     0.180 C 
ATOM      5  O   UNL     1      25.657  60.376  31.536  1.00  0.00    -0.328 OA
ATOM      6  C   UNL     1      28.410  59.788  30.822  1.00  0.00     0.181 C 
ATOM      7  C   UNL     1      27.955  61.195  31.272  1.00  0.00     0.214 C 
BRANCH   3   8
ATOM      8  C   UNL     1      24.971  58.095  31.374  1.00  0.00     0.073 C 
ATOM      9  O   UNL     1      24.229  57.497  30.547  1.00  0.00    -0.547 OA
ATOM     10  O   UNL     1      24.852  57.807  32.729  1.00  0.00    -0.547 OA
ENDBRANCH   3   8
BRANCH   4  11
ATOM     11  O   UNL     1      27.562  58.375  32.615  1.00  0.00    -0.387 OA
ATOM     12  H   UNL     1      27.043  59.026  33.154  1.00  0.00     0.211 HD
ENDBRANCH   4  11
BRANCH   6  13
ATOM     13  O   UNL     1      28.548  59.756  29.423  1.00  0.00    -0.387 OA
ATOM     14  H   UNL     1      28.123  60.587  29.077  1.00  0.00     0.211 HD
ENDBRANCH   6  13
BRANCH   7  15
ATOM     15  O   UNL     1      28.204  61.365  32.643  1.00  0.00    -0.384 OA
ATOM     16  H   UNL     1      28.585  62.276  32.754  1.00  0.00     0.211 HD
ENDBRANCH   7  15
ENDBRANCH   1   2
BRANCH   1  17
ATOM     17  C   UNL     1      24.980  62.076  29.065  1.00  0.00     0.172 A 
ATOM     18  C   UNL     1      24.617  61.670  27.775  1.00  0.00     0.205 A 
ATOM     19  C   UNL     1      24.145  62.945  29.770  1.00  0.00     0.097 A 
ATOM     20  C   UNL     1      23.418  62.107  27.205  1.00  0.00     0.188 A 
ATOM     21  C   UNL     1      22.971  63.452  29.197  1.00  0.00     0.134 A 
ATOM     22  C   UNL     1      22.580  63.025  27.893  1.00  0.00     0.111 A 
ATOM     23  O   UNL     1      23.070  61.623  26.016  1.00  0.00    -0.452 OA
ATOM     24  C   UNL     1      21.394  63.423  27.229  1.00  0.00     0.197 A 
ATOM     25  C   UNL     1      21.946  61.955  25.391  1.00  0.00     0.138 A 
ATOM     26  C   UNL     1      21.088  62.897  25.973  1.00  0.00     0.100 A 
ATOM     27  O   UNL     1      20.586  64.246  27.735  1.00  0.00    -0.289 OA
BRANCH  18  28
ATOM     28  O   UNL     1      25.444  60.804  27.052  1.00  0.00    -0.490 OA
ATOM     29  C   UNL     1      26.517  61.282  26.249  1.00  0.00     0.278 C 
ENDBRANCH  18  28
BRANCH  21  30
ATOM     30  O   UNL     1      22.253  64.367  29.976  1.00  0.00    -0.507 OA
ATOM     31  H   UNL     1      22.151  65.352  29.799  1.00  0.00     0.293 HD
ENDBRANCH  21  30
BRANCH  25  32
ATOM     32  C   UNL     1      21.632  61.301  24.095  1.00  0.00     0.017 A 
ATOM     33  C   UNL     1      21.000  60.042  24.082  1.00  0.00     0.012 A 
ATOM     34  C   UNL     1      21.873  61.953  22.868  1.00  0.00     0.012 A 
ATOM     35  C   UNL     1      20.641  59.444  22.873  1.00  0.00     0.001 A 
ATOM     36  C   UNL     1      21.501  61.351  21.663  1.00  0.00     0.001 A 
ATOM     37  C   UNL     1      20.884  60.100  21.665  1.00  0.00     0.000 A 
ENDBRANCH  25  32
ENDBRANCH   1  17
TORSDOF 9
ENDMDL
MODEL 4
REMARK VINA RESULT:    -8.557      2.243      3.872
REMARK INTER + INTRA:         -13.438
REMARK INTER:                 -12.032
REMARK INTRA:                  -1.406
REMARK UNBOUND:                -1.380
REMARK SMILES COc1c(O[C@H]2O[C@H](C(=O)[O-])[C@H](O)[C@@H](O)[C@@H]2O)cc(O)c2c(=O)cc(-c3ccccc3)oc12
REMARK SMILES IDX 5 1 6 2 8 3 12 4 7 5 14 6 16 7 9 8 10 9 11 10 13 11 15 13
REMARK SMILES IDX 17 15 4 17 3 18 18 19 33 20 19 21 21 22 32 23 22 24 25 25
REMARK SMILES IDX 24 26 23 27 2 28 1 29 20 30 26 32 27 33 31 34 28 35 30 36
REMARK SMILES IDX 29 37
REMARK H PARENT 13 12 15 14 17 16 20 31
REMARK Flexibility Score: inf
ROOT
ATOM      1  O   UNL     1      25.132  61.062  30.646  1.00  0.00    -0.458 OA
ENDROOT
BRANCH   1   2
ATOM      2  C   UNL     1      24.495  59.945  31.276  1.00  0.00     0.339 C 
ATOM      3  C   UNL     1      26.073  58.443  30.407  1.00  0.00     0.199 C 
ATOM      4  C   UNL     1      26.647  58.070  31.794  1.00  0.00     0.180 C 
ATOM      5  O   UNL     1      24.695  58.769  30.506  1.00  0.00    -0.328 OA
ATOM      6  C   UNL     1      26.419  59.219  32.800  1.00  0.00     0.181 C 
ATOM      7  C   UNL     1      24.971  59.759  32.734  1.00  0.00     0.214 C 
BRANCH   3   8
ATOM      8  C   UNL     1      26.253  57.313  29.433  1.00  0.00     0.073 C 
ATOM      9  O   UNL     1      27.314  56.630  29.419  1.00  0.00    -0.547 OA
ATOM     10  O   UNL     1      25.249  57.032  28.514  1.00  0.00    -0.547 OA
ENDBRANCH   3   8
BRANCH   4  11
ATOM     11  O   UNL     1      26.111  56.860  32.280  1.00  0.00    -0.387 OA
ATOM     12  H   UNL     1      25.529  56.469  31.578  1.00  0.00     0.211 HD
ENDBRANCH   4  11
BRANCH   6  13
ATOM     13  O   UNL     1      27.327  60.256  32.524  1.00  0.00    -0.387 OA
ATOM     14  H   UNL     1      26.785  61.076  32.371  1.00  0.00     0.211 HD
ENDBRANCH   6  13
BRANCH   7  15
ATOM     15  O   UNL     1      24.099  58.877  33.392  1.00  0.00    -0.384 OA
ATOM     16  H   UNL     1      23.450  58.556  32.712  1.00  0.00     0.211 HD
ENDBRANCH   7  15
ENDBRANCH   1   2
BRANCH   1  17
ATOM     17  C   UNL     1      24.478  62.046  29.889  1.00  0.00     0.172 A 
ATOM     18  C   UNL     1      24.350  61.848  28.509  1.00  0.00     0.205 A 
ATOM     19  C   UNL     1      23.952  63.203  30.467  1.00  0.00     0.097 A 
ATOM     20  C   UNL     1      23.682  62.785  27.717  1.00  0.00     0.188 A 
ATOM     21  C   UNL     1      23.335  64.191  29.686  1.00  0.00     0.134 A 
ATOM     22  C   UNL     1      23.180  63.987  28.282  1.00  0.00     0.111 A 
ATOM     23  O   UNL     1      23.504  62.512  26.427  1.00  0.00    -0.452 OA
ATOM     24  C   UNL     1      22.530  64.884  27.399  1.00  0.00     0.197 A 
ATOM     25  C   UNL     1      22.868  63.321  25.587  1.00  0.00     0.138 A 
ATOM     26  C   UNL     1      22.390  64.554  26.051  1.00  0.00     0.100 A 
ATOM     27  O   UNL     1      22.063  65.987  27.786  1.00  0.00    -0.289 OA
BRANCH  18  28
ATOM     28  O   UNL     1      24.876  60.697  27.912  1.00  0.00    -0.490 OA
ATOM     29  C   UNL     1      26.204  60.650  27.406  1.00  0.00     0.278 C 
ENDBRANCH  18  28
BRANCH  21  30
ATOM     30  O   UNL     1      22.909  65.336  30.370  1.00  0.00    -0.507 OA
ATOM     31  H   UNL     1      22.101  65.895  30.155  1.00  0.00     0.293 HD
ENDBRANCH  21  30
BRANCH  25  32
ATOM     32  C   UNL     1      22.675  62.881  24.182  1.00  0.00     0.017 A 
ATOM     33  C   UNL     1      21.911  61.729  23.908  1.00  0.00     0.012 A 
ATOM     34  C   UNL     1      23.168  63.641  23.102  1.00  0.00     0.012 A 
ATOM     35  C   UNL     1      21.668  61.339  22.591  1.00  0.00     0.001 A 
ATOM     36  C   UNL     1      22.912  63.249  21.786  1.00  0.00     0.001 A 
ATOM     37  C   UNL     1      22.161  62.101  21.530  1.00  0.00     0.000 A 
ENDBRANCH  25  32
ENDBRANCH   1  17
TORSDOF 9
ENDMDL
MODEL 5
REMARK VINA RESULT:    -8.543      2.326      3.298
REMARK INTER + INTRA:         -13.418
REMARK INTER:                 -12.413
REMARK INTRA:                  -1.005
REMARK UNBOUND:                -1.380
REMARK SMILES COc1c(O[C@H]2O[C@H](C(=O)[O-])[C@H](O)[C@@H](O)[C@@H]2O)cc(O)c2c(=O)cc(-c3ccccc3)oc12
REMARK SMILES IDX 5 1 6 2 8 3 12 4 7 5 14 6 16 7 9 8 10 9 11 10 13 11 15 13
REMARK SMILES IDX 17 15 4 17 3 18 18 19 33 20 19 21 21 22 32 23 22 24 25 25
REMARK SMILES IDX 24 26 23 27 2 28 1 29 20 30 26 32 27 33 31 34 28 35 30 36
REMARK SMILES IDX 29 37
REMARK H PARENT 13 12 15 14 17 16 20 31
REMARK Flexibility Score: inf
ROOT
ATOM      1  O   UNL     1      25.822  61.065  30.405  1.00  0.00    -0.458 OA
ENDROOT
BRANCH   1   2
ATOM      2  C   UNL     1      24.945  60.074  30.952  1.00  0.00     0.339 C 
ATOM      3  C   UNL     1      26.407  58.334  30.370  1.00  0.00     0.199 C 
ATOM      4  C   UNL     1      26.705  57.946  31.837  1.00  0.00     0.180 C 
ATOM      5  O   UNL     1      25.090  58.850  30.247  1.00  0.00    -0.328 OA
ATOM      6  C   UNL     1      26.492  59.156  32.772  1.00  0.00     0.181 C 
ATOM      7  C   UNL     1      25.163  59.886  32.469  1.00  0.00     0.214 C 
BRANCH   3   8
ATOM      8  C   UNL     1      26.570  57.150  29.460  1.00  0.00     0.073 C 
ATOM      9  O   UNL     1      25.569  56.492  29.063  1.00  0.00    -0.547 OA
ATOM     10  O   UNL     1      27.844  56.754  29.070  1.00  0.00    -0.547 OA
ENDBRANCH   3   8
BRANCH   4  11
ATOM     11  O   UNL     1      25.935  56.842  32.258  1.00  0.00    -0.387 OA
ATOM     12  H   UNL     1      26.403  56.400  33.012  1.00  0.00     0.211 HD
ENDBRANCH   4  11
BRANCH   6  13
ATOM     13  O   UNL     1      27.570  60.046  32.619  1.00  0.00    -0.387 OA
ATOM     14  H   UNL     1      27.221  60.832  32.119  1.00  0.00     0.211 HD
ENDBRANCH   6  13
BRANCH   7  15
ATOM     15  O   UNL     1      24.085  59.161  33.001  1.00  0.00    -0.384 OA
ATOM     16  H   UNL     1      23.883  59.557  33.889  1.00  0.00     0.211 HD
ENDBRANCH   7  15
ENDBRANCH   1   2
BRANCH   1  17
ATOM     17  C   UNL     1      25.745  61.586  29.104  1.00  0.00     0.172 A 
ATOM     18  C   UNL     1      24.772  62.554  28.832  1.00  0.00     0.205 A 
ATOM     19  C   UNL     1      26.606  61.174  28.085  1.00  0.00     0.097 A 
ATOM     20  C   UNL     1      24.675  63.124  27.560  1.00  0.00     0.188 A 
ATOM     21  C   UNL     1      26.487  61.680  26.783  1.00  0.00     0.134 A 
ATOM     22  C   UNL     1      25.514  62.684  26.501  1.00  0.00     0.111 A 
ATOM     23  O   UNL     1      23.797  64.105  27.371  1.00  0.00    -0.452 OA
ATOM     24  C   UNL     1      25.332  63.309  25.243  1.00  0.00     0.197 A 
ATOM     25  C   UNL     1      23.633  64.730  26.211  1.00  0.00     0.138 A 
ATOM     26  C   UNL     1      24.382  64.321  25.099  1.00  0.00     0.100 A 
ATOM     27  O   UNL     1      26.007  62.987  24.231  1.00  0.00    -0.289 OA
BRANCH  18  28
ATOM     28  O   UNL     1      23.897  62.975  29.840  1.00  0.00    -0.490 OA
ATOM     29  C   UNL     1      22.563  62.491  29.930  1.00  0.00     0.278 C 
ENDBRANCH  18  28
BRANCH  21  30
ATOM     30  O   UNL     1      27.362  61.140  25.833  1.00  0.00    -0.507 OA
ATOM     31  H   UNL     1      27.204  60.320  25.272  1.00  0.00     0.293 HD
ENDBRANCH  21  30
BRANCH  25  32
ATOM     32  C   UNL     1      22.666  65.855  26.136  1.00  0.00     0.017 A 
ATOM     33  C   UNL     1      23.042  67.060  25.510  1.00  0.00     0.012 A 
ATOM     34  C   UNL     1      21.343  65.715  26.602  1.00  0.00     0.012 A 
ATOM     35  C   UNL     1      22.125  68.102  25.377  1.00  0.00     0.001 A 
ATOM     36  C   UNL     1      20.428  66.761  26.455  1.00  0.00     0.001 A 
ATOM     37  C   UNL     1      20.817  67.952  25.841  1.00  0.00     0.000 A 
ENDBRANCH  25  32
ENDBRANCH   1  17
TORSDOF 9
ENDMDL
MODEL 6
REMARK VINA RESULT:    -8.443      1.532      1.873
REMARK INTER + INTRA:         -13.278
REMARK INTER:                 -11.888
REMARK INTRA:                  -1.390
REMARK UNBOUND:                -1.380
REMARK SMILES COc1c(O[C@H]2O[C@H](C(=O)[O-])[C@H](O)[C@@H](O)[C@@H]2O)cc(O)c2c(=O)cc(-c3ccccc3)oc12
REMARK SMILES IDX 5 1 6 2 8 3 12 4 7 5 14 6 16 7 9 8 10 9 11 10 13 11 15 13
REMARK SMILES IDX 17 15 4 17 3 18 18 19 33 20 19 21 21 22 32 23 22 24 25 25
REMARK SMILES IDX 24 26 23 27 2 28 1 29 20 30 26 32 27 33 31 34 28 35 30 36
REMARK SMILES IDX 29 37
REMARK H PARENT 13 12 15 14 17 16 20 31
REMARK Flexibility Score: inf
ROOT
ATOM      1  O   UNL     1      24.373  59.042  29.410  1.00  0.00    -0.458 OA
ENDROOT
BRANCH   1   2
ATOM      2  C   UNL     1      25.570  58.455  28.889  1.00  0.00     0.339 C 
ATOM      3  C   UNL     1      26.914  59.634  30.408  1.00  0.00     0.199 C 
ATOM      4  C   UNL     1      27.384  58.362  31.150  1.00  0.00     0.180 C 
ATOM      5  O   UNL     1      26.661  59.351  29.040  1.00  0.00    -0.328 OA
ATOM      6  C   UNL     1      26.344  57.231  30.999  1.00  0.00     0.181 C 
ATOM      7  C   UNL     1      25.867  57.083  29.536  1.00  0.00     0.214 C 
BRANCH   3   8
ATOM      8  C   UNL     1      27.941  60.726  30.515  1.00  0.00     0.073 C 
ATOM      9  O   UNL     1      28.210  61.463  29.527  1.00  0.00    -0.547 OA
ATOM     10  O   UNL     1      28.625  60.910  31.710  1.00  0.00    -0.547 OA
ENDBRANCH   3   8
BRANCH   4  11
ATOM     11  O   UNL     1      28.657  57.937  30.717  1.00  0.00    -0.387 OA
ATOM     12  H   UNL     1      28.641  56.952  30.607  1.00  0.00     0.211 HD
ENDBRANCH   4  11
BRANCH   6  13
ATOM     13  O   UNL     1      25.246  57.506  31.833  1.00  0.00    -0.387 OA
ATOM     14  H   UNL     1      24.442  57.138  31.376  1.00  0.00     0.211 HD
ENDBRANCH   6  13
BRANCH   7  15
ATOM     15  O   UNL     1      26.844  56.420  28.776  1.00  0.00    -0.384 OA
ATOM     16  H   UNL     1      26.420  55.595  28.423  1.00  0.00     0.211 HD
ENDBRANCH   7  15
ENDBRANCH   1   2
BRANCH   1  17
ATOM     17  C   UNL     1      23.349  59.613  28.638  1.00  0.00     0.172 A 
ATOM     18  C   UNL     1      23.399  60.989  28.383  1.00  0.00     0.205 A 
ATOM     19  C   UNL     1      22.297  58.857  28.119  1.00  0.00     0.097 A 
ATOM     20  C   UNL     1      22.418  61.599  27.595  1.00  0.00     0.188 A 
ATOM     21  C   UNL     1      21.265  59.455  27.382  1.00  0.00     0.134 A 
ATOM     22  C   UNL     1      21.318  60.852  27.097  1.00  0.00     0.111 A 
ATOM     23  O   UNL     1      22.554  62.890  27.303  1.00  0.00    -0.452 OA
ATOM     24  C   UNL     1      20.367  61.559  26.322  1.00  0.00     0.197 A 
ATOM     25  C   UNL     1      21.694  63.566  26.550  1.00  0.00     0.138 A 
ATOM     26  C   UNL     1      20.551  62.918  26.063  1.00  0.00     0.100 A 
ATOM     27  O   UNL     1      19.344  61.003  25.844  1.00  0.00    -0.289 OA
BRANCH  18  28
ATOM     28  O   UNL     1      24.442  61.764  28.899  1.00  0.00    -0.490 OA
ATOM     29  C   UNL     1      24.375  62.355  30.191  1.00  0.00     0.278 C 
ENDBRANCH  18  28
BRANCH  21  30
ATOM     30  O   UNL     1      20.231  58.604  26.974  1.00  0.00    -0.507 OA
ATOM     31  H   UNL     1      20.099  58.223  26.052  1.00  0.00     0.293 HD
ENDBRANCH  21  30
BRANCH  25  32
ATOM     32  C   UNL     1      21.984  64.988  26.238  1.00  0.00     0.017 A 
ATOM     33  C   UNL     1      21.788  65.975  27.225  1.00  0.00     0.012 A 
ATOM     34  C   UNL     1      22.536  65.369  24.998  1.00  0.00     0.012 A 
ATOM     35  C   UNL     1      22.114  67.306  26.967  1.00  0.00     0.001 A 
ATOM     36  C   UNL     1      22.870  66.703  24.752  1.00  0.00     0.001 A 
ATOM     37  C   UNL     1      22.663  67.670  25.736  1.00  0.00     0.000 A 
ENDBRANCH  25  32
ENDBRANCH   1  17
TORSDOF 9
ENDMDL
MODEL 7
REMARK VINA RESULT:    -8.376      2.652      3.945
REMARK INTER + INTRA:         -13.183
REMARK INTER:                 -12.025
REMARK INTRA:                  -1.157
REMARK UNBOUND:                -1.380
REMARK SMILES COc1c(O[C@H]2O[C@H](C(=O)[O-])[C@H](O)[C@@H](O)[C@@H]2O)cc(O)c2c(=O)cc(-c3ccccc3)oc12
REMARK SMILES IDX 5 1 6 2 8 3 12 4 7 5 14 6 16 7 9 8 10 9 11 10 13 11 15 13
REMARK SMILES IDX 17 15 4 17 3 18 18 19 33 20 19 21 21 22 32 23 22 24 25 25
REMARK SMILES IDX 24 26 23 27 2 28 1 29 20 30 26 32 27 33 31 34 28 35 30 36
REMARK SMILES IDX 29 37
REMARK H PARENT 13 12 15 14 17 16 20 31
REMARK Flexibility Score: inf
ROOT
ATOM      1  O   UNL     1      25.412  59.173  28.164  1.00  0.00    -0.458 OA
ENDROOT
BRANCH   1   2
ATOM      2  C   UNL     1      26.772  58.835  28.454  1.00  0.00     0.339 C 
ATOM      3  C   UNL     1      26.641  59.776  30.598  1.00  0.00     0.199 C 
ATOM      4  C   UNL     1      26.830  58.424  31.324  1.00  0.00     0.180 C 
ATOM      5  O   UNL     1      27.329  59.779  29.357  1.00  0.00    -0.328 OA
ATOM      6  C   UNL     1      26.361  57.258  30.427  1.00  0.00     0.181 C 
ATOM      7  C   UNL     1      26.905  57.391  28.986  1.00  0.00     0.214 C 
BRANCH   3   8
ATOM      8  C   UNL     1      27.134  60.913  31.449  1.00  0.00     0.073 C 
ATOM      9  O   UNL     1      26.338  61.786  31.892  1.00  0.00    -0.547 OA
ATOM     10  O   UNL     1      28.490  61.022  31.729  1.00  0.00    -0.547 OA
ENDBRANCH   3   8
BRANCH   4  11
ATOM     11  O   UNL     1      28.161  58.233  31.747  1.00  0.00    -0.387 OA
ATOM     12  H   UNL     1      28.194  57.434  32.333  1.00  0.00     0.211 HD
ENDBRANCH   4  11
BRANCH   6  13
ATOM     13  O   UNL     1      24.956  57.234  30.406  1.00  0.00    -0.387 OA
ATOM     14  H   UNL     1      24.683  57.401  29.464  1.00  0.00     0.211 HD
ENDBRANCH   6  13
BRANCH   7  15
ATOM     15  O   UNL     1      28.256  57.010  28.945  1.00  0.00    -0.384 OA
ATOM     16  H   UNL     1      28.787  57.810  29.201  1.00  0.00     0.211 HD
ENDBRANCH   7  15
ENDBRANCH   1   2
BRANCH   1  17
ATOM     17  C   UNL     1      24.989  60.336  27.501  1.00  0.00     0.172 A 
ATOM     18  C   UNL     1      23.682  60.787  27.718  1.00  0.00     0.205 A 
ATOM     19  C   UNL     1      25.828  61.052  26.645  1.00  0.00     0.097 A 
ATOM     20  C   UNL     1      23.225  61.956  27.104  1.00  0.00     0.188 A 
ATOM     21  C   UNL     1      25.374  62.190  25.964  1.00  0.00     0.134 A 
ATOM     22  C   UNL     1      24.051  62.671  26.196  1.00  0.00     0.111 A 
ATOM     23  O   UNL     1      22.007  62.397  27.410  1.00  0.00    -0.452 OA
ATOM     24  C   UNL     1      23.495  63.835  25.611  1.00  0.00     0.197 A 
ATOM     25  C   UNL     1      21.479  63.504  26.901  1.00  0.00     0.138 A 
ATOM     26  C   UNL     1      22.205  64.240  25.955  1.00  0.00     0.100 A 
ATOM     27  O   UNL     1      24.130  64.536  24.780  1.00  0.00    -0.289 OA
BRANCH  18  28
ATOM     28  O   UNL     1      22.826  60.080  28.569  1.00  0.00    -0.490 OA
ATOM     29  C   UNL     1      22.055  58.974  28.114  1.00  0.00     0.278 C 
ENDBRANCH  18  28
BRANCH  21  30
ATOM     30  O   UNL     1      26.285  62.781  25.081  1.00  0.00    -0.507 OA
ATOM     31  H   UNL     1      26.074  63.458  24.368  1.00  0.00     0.293 HD
ENDBRANCH  21  30
BRANCH  25  32
ATOM     32  C   UNL     1      20.135  63.932  27.366  1.00  0.00     0.017 A 
ATOM     33  C   UNL     1      19.024  63.801  26.509  1.00  0.00     0.012 A 
ATOM     34  C   UNL     1      19.926  64.388  28.683  1.00  0.00     0.012 A 
ATOM     35  C   UNL     1      17.746  64.140  26.953  1.00  0.00     0.001 A 
ATOM     36  C   UNL     1      18.641  64.716  29.123  1.00  0.00     0.001 A 
ATOM     37  C   UNL     1      17.552  64.589  28.260  1.00  0.00     0.000 A 
ENDBRANCH  25  32
ENDBRANCH   1  17
TORSDOF 9
ENDMDL
MODEL 8
REMARK VINA RESULT:    -8.317      2.145      4.178
REMARK INTER + INTRA:         -13.100
REMARK INTER:                 -11.978
REMARK INTRA:                  -1.121
REMARK UNBOUND:                -1.380
REMARK SMILES COc1c(O[C@H]2O[C@H](C(=O)[O-])[C@H](O)[C@@H](O)[C@@H]2O)cc(O)c2c(=O)cc(-c3ccccc3)oc12
REMARK SMILES IDX 5 1 6 2 8 3 12 4 7 5 14 6 16 7 9 8 10 9 11 10 13 11 15 13
REMARK SMILES IDX 17 15 4 17 3 18 18 19 33 20 19 21 21 22 32 23 22 24 25 25
REMARK SMILES IDX 24 26 23 27 2 28 1 29 20 30 26 32 27 33 31 34 28 35 30 36
REMARK SMILES IDX 29 37
REMARK H PARENT 13 12 15 14 17 16 20 31
REMARK Flexibility Score: inf
ROOT
ATOM      1  O   UNL     1      24.533  59.861  29.489  1.00  0.00    -0.458 OA
ENDROOT
BRANCH   1   2
ATOM      2  C   UNL     1      25.422  58.778  29.785  1.00  0.00     0.339 C 
ATOM      3  C   UNL     1      26.819  60.161  31.065  1.00  0.00     0.199 C 
ATOM      4  C   UNL     1      26.519  59.424  32.391  1.00  0.00     0.180 C 
ATOM      5  O   UNL     1      26.743  59.266  29.966  1.00  0.00    -0.328 OA
ATOM      6  C   UNL     1      25.138  58.737  32.328  1.00  0.00     0.181 C 
ATOM      7  C   UNL     1      24.945  57.960  31.005  1.00  0.00     0.214 C 
BRANCH   3   8
ATOM      8  C   UNL     1      28.180  60.797  31.102  1.00  0.00     0.073 C 
ATOM      9  O   UNL     1      28.655  61.254  32.179  1.00  0.00    -0.547 OA
ATOM     10  O   UNL     1      28.918  60.909  29.930  1.00  0.00    -0.547 OA
ENDBRANCH   3   8
BRANCH   4  11
ATOM     11  O   UNL     1      27.530  58.497  32.720  1.00  0.00    -0.387 OA
ATOM     12  H   UNL     1      27.152  57.583  32.656  1.00  0.00     0.211 HD
ENDBRANCH   4  11
BRANCH   6  13
ATOM     13  O   UNL     1      24.136  59.714  32.458  1.00  0.00    -0.387 OA
ATOM     14  H   UNL     1      23.938  60.042  31.539  1.00  0.00     0.211 HD
ENDBRANCH   6  13
BRANCH   7  15
ATOM     15  O   UNL     1      25.655  56.749  31.051  1.00  0.00    -0.384 OA
ATOM     16  H   UNL     1      26.273  56.750  30.273  1.00  0.00     0.211 HD
ENDBRANCH   7  15
ENDBRANCH   1   2
BRANCH   1  17
ATOM     17  C   UNL     1      24.538  60.611  28.303  1.00  0.00     0.172 A 
ATOM     18  C   UNL     1      23.689  60.216  27.262  1.00  0.00     0.205 A 
ATOM     19  C   UNL     1      25.353  61.733  28.134  1.00  0.00     0.097 A 
ATOM     20  C   UNL     1      23.637  60.948  26.073  1.00  0.00     0.188 A 
ATOM     21  C   UNL     1      25.370  62.446  26.927  1.00  0.00     0.134 A 
ATOM     22  C   UNL     1      24.491  62.065  25.869  1.00  0.00     0.111 A 
ATOM     23  O   UNL     1      22.750  60.591  25.148  1.00  0.00    -0.452 OA
ATOM     24  C   UNL     1      24.377  62.735  24.627  1.00  0.00     0.197 A 
ATOM     25  C   UNL     1      22.601  61.225  23.991  1.00  0.00     0.138 A 
ATOM     26  C   UNL     1      23.442  62.303  23.686  1.00  0.00     0.100 A 
ATOM     27  O   UNL     1      25.096  63.725  24.331  1.00  0.00    -0.289 OA
BRANCH  18  28
ATOM     28  O   UNL     1      22.870  59.092  27.411  1.00  0.00    -0.490 OA
ATOM     29  C   UNL     1      21.493  59.203  27.754  1.00  0.00     0.278 C 
ENDBRANCH  18  28
BRANCH  21  30
ATOM     30  O   UNL     1      26.278  63.509  26.855  1.00  0.00    -0.507 OA
ATOM     31  H   UNL     1      26.850  63.858  27.604  1.00  0.00     0.293 HD
ENDBRANCH  21  30
BRANCH  25  32
ATOM     32  C   UNL     1      21.534  60.773  23.062  1.00  0.00     0.017 A 
ATOM     33  C   UNL     1      21.499  61.267  21.743  1.00  0.00     0.012 A 
ATOM     34  C   UNL     1      20.599  59.790  23.444  1.00  0.00     0.012 A 
ATOM     35  C   UNL     1      20.541  60.805  20.841  1.00  0.00     0.001 A 
ATOM     36  C   UNL     1      19.649  59.325  22.530  1.00  0.00     0.001 A 
ATOM     37  C   UNL     1      19.621  59.830  21.230  1.00  0.00     0.000 A 
ENDBRANCH  25  32
ENDBRANCH   1  17
TORSDOF 9
ENDMDL
MODEL 9
REMARK VINA RESULT:    -8.310      2.194      3.258
REMARK INTER + INTRA:         -13.090
REMARK INTER:                 -11.551
REMARK INTRA:                  -1.539
REMARK UNBOUND:                -1.380
REMARK SMILES COc1c(O[C@H]2O[C@H](C(=O)[O-])[C@H](O)[C@@H](O)[C@@H]2O)cc(O)c2c(=O)cc(-c3ccccc3)oc12
REMARK SMILES IDX 5 1 6 2 8 3 12 4 7 5 14 6 16 7 9 8 10 9 11 10 13 11 15 13
REMARK SMILES IDX 17 15 4 17 3 18 18 19 33 20 19 21 21 22 32 23 22 24 25 25
REMARK SMILES IDX 24 26 23 27 2 28 1 29 20 30 26 32 27 33 31 34 28 35 30 36
REMARK SMILES IDX 29 37
REMARK H PARENT 13 12 15 14 17 16 20 31
REMARK Flexibility Score: inf
ROOT
ATOM      1  O   UNL     1      24.829  60.573  28.892  1.00  0.00    -0.458 OA
ENDROOT
BRANCH   1   2
ATOM      2  C   UNL     1      25.054  60.114  30.229  1.00  0.00     0.339 C 
ATOM      3  C   UNL     1      26.513  58.429  29.498  1.00  0.00     0.199 C 
ATOM      4  C   UNL     1      27.749  59.044  30.194  1.00  0.00     0.180 C 
ATOM      5  O   UNL     1      25.330  58.721  30.228  1.00  0.00    -0.328 OA
ATOM      6  C   UNL     1      27.568  60.567  30.371  1.00  0.00     0.181 C 
ATOM      7  C   UNL     1      26.171  60.916  30.933  1.00  0.00     0.214 C 
BRANCH   3   8
ATOM      8  C   UNL     1      26.662  56.940  29.361  1.00  0.00     0.073 C 
ATOM      9  O   UNL     1      25.658  56.178  29.416  1.00  0.00    -0.547 OA
ATOM     10  O   UNL     1      27.928  56.390  29.197  1.00  0.00    -0.547 OA
ENDBRANCH   3   8
BRANCH   4  11
ATOM     11  O   UNL     1      28.026  58.421  31.428  1.00  0.00    -0.387 OA
ATOM     12  H   UNL     1      27.523  58.895  32.140  1.00  0.00     0.211 HD
ENDBRANCH   4  11
BRANCH   6  13
ATOM     13  O   UNL     1      27.753  61.197  29.128  1.00  0.00    -0.387 OA
ATOM     14  H   UNL     1      27.188  60.704  28.473  1.00  0.00     0.211 HD
ENDBRANCH   6  13
BRANCH   7  15
ATOM     15  O   UNL     1      26.127  60.650  32.311  1.00  0.00    -0.384 OA
ATOM     16  H   UNL     1      26.661  59.826  32.461  1.00  0.00     0.211 HD
ENDBRANCH   7  15
ENDBRANCH   1   2
BRANCH   1  17
ATOM     17  C   UNL     1      24.058  61.692  28.538  1.00  0.00     0.172 A 
ATOM     18  C   UNL     1      24.612  62.628  27.657  1.00  0.00     0.205 A 
ATOM     19  C   UNL     1      22.767  61.892  29.030  1.00  0.00     0.097 A 
ATOM     20  C   UNL     1      23.872  63.743  27.252  1.00  0.00     0.188 A 
ATOM     21  C   UNL     1      22.029  63.036  28.693  1.00  0.00     0.134 A 
ATOM     22  C   UNL     1      22.575  63.984  27.777  1.00  0.00     0.111 A 
ATOM     23  O   UNL     1      24.402  64.558  26.344  1.00  0.00    -0.452 OA
ATOM     24  C   UNL     1      21.909  65.148  27.320  1.00  0.00     0.197 A 
ATOM     25  C   UNL     1      23.783  65.634  25.874  1.00  0.00     0.138 A 
ATOM     26  C   UNL     1      22.521  65.977  26.380  1.00  0.00     0.100 A 
ATOM     27  O   UNL     1      20.764  65.470  27.731  1.00  0.00    -0.289 OA
BRANCH  18  28
ATOM     28  O   UNL     1      25.905  62.446  27.158  1.00  0.00    -0.490 OA
ATOM     29  C   UNL     1      26.164  61.658  26.002  1.00  0.00     0.278 C 
ENDBRANCH  18  28
BRANCH  21  30
ATOM     30  O   UNL     1      20.775  63.159  29.303  1.00  0.00    -0.507 OA
ATOM     31  H   UNL     1      20.417  63.971  29.776  1.00  0.00     0.293 HD
ENDBRANCH  21  30
BRANCH  25  32
ATOM     32  C   UNL     1      24.447  66.434  24.813  1.00  0.00     0.017 A 
ATOM     33  C   UNL     1      25.297  65.798  23.887  1.00  0.00     0.012 A 
ATOM     34  C   UNL     1      24.179  67.809  24.656  1.00  0.00     0.012 A 
ATOM     35  C   UNL     1      25.879  66.525  22.848  1.00  0.00     0.001 A 
ATOM     36  C   UNL     1      24.757  68.527  23.607  1.00  0.00     0.001 A 
ATOM     37  C   UNL     1      25.604  67.886  22.702  1.00  0.00     0.000 A 
ENDBRANCH  25  32
ENDBRANCH   1  17
TORSDOF 9
ENDMDL
