MODEL 1
REMARK VINA RESULT:    -4.972      0.000      0.000
REMARK INTER + INTRA:          -5.685
REMARK INTER:                  -5.263
REMARK INTRA:                  -0.422
REMARK UNBOUND:                -0.422
REMARK SMILES CC1=CC[C@@H]2[C@H]3[C@H](C(C)C)CC[C@]2(C)[C@@H]13
REMARK SMILES IDX 1 1 2 2 3 3 4 4 5 5 6 6 15 7 13 8 12 9 11 10 7 11 14 12 8 13
REMARK SMILES IDX 9 14 10 15
REMARK H PARENT
REMARK Flexibility Score: inf
ROOT
ATOM      1  C   UNL     1     136.679 137.654 136.352  1.00  0.00     0.039 C 
ATOM      2  C   UNL     1     135.301 138.148 136.024  1.00  0.00    -0.073 C 
ATOM      3  C   UNL     1     134.813 139.315 136.524  1.00  0.00    -0.027 C 
ATOM      4  C   UNL     1     133.390 139.739 136.147  1.00  0.00     0.031 C 
ATOM      5  C   UNL     1     132.720 138.658 135.238  1.00  0.00     0.003 C 
ATOM      6  C   UNL     1     132.992 137.277 135.882  1.00  0.00     0.004 C 
ATOM      7  C   UNL     1     134.360 137.315 135.153  1.00  0.00     0.024 C 
ATOM      8  C   UNL     1     133.665 138.209 134.098  1.00  0.00    -0.022 C 
ATOM      9  C   UNL     1     132.861 137.337 133.085  1.00  0.00     0.008 C 
ATOM     10  C   UNL     1     132.276 136.054 133.735  1.00  0.00     0.005 C 
ATOM     11  C   UNL     1     132.024 136.220 135.265  1.00  0.00    -0.005 C 
ATOM     12  C   UNL     1     134.501 139.283 133.362  1.00  0.00     0.012 C 
ENDROOT
BRANCH  11  13
ATOM     13  C   UNL     1     132.025 134.850 136.013  1.00  0.00    -0.014 C 
ATOM     14  C   UNL     1     132.734 133.722 135.245  1.00  0.00     0.007 C 
ATOM     15  C   UNL     1     132.628 134.983 137.421  1.00  0.00     0.007 C 
ENDBRANCH  11  13
TORSDOF 1
ENDMDL
MODEL 2
REMARK VINA RESULT:    -4.966      3.219      4.860
REMARK INTER + INTRA:          -5.678
REMARK INTER:                  -5.262
REMARK INTRA:                  -0.416
REMARK UNBOUND:                -0.422
REMARK SMILES CC1=CC[C@@H]2[C@H]3[C@H](C(C)C)CC[C@]2(C)[C@@H]13
REMARK SMILES IDX 1 1 2 2 3 3 4 4 5 5 6 6 15 7 13 8 12 9 11 10 7 11 14 12 8 13
REMARK SMILES IDX 9 14 10 15
REMARK H PARENT
REMARK Flexibility Score: inf
ROOT
ATOM      1  C   UNL     1     137.876 136.231 136.563  1.00  0.00     0.039 C 
ATOM      2  C   UNL     1     138.152 137.611 136.047  1.00  0.00    -0.073 C 
ATOM      3  C   UNL     1     139.303 138.275 136.334  1.00  0.00    -0.027 C 
ATOM      4  C   UNL     1     139.499 139.688 135.774  1.00  0.00     0.031 C 
ATOM      5  C   UNL     1     138.236 140.135 134.967  1.00  0.00     0.003 C 
ATOM      6  C   UNL     1     136.993 139.783 135.817  1.00  0.00     0.004 C 
ATOM      7  C   UNL     1     137.105 138.357 135.217  1.00  0.00     0.024 C 
ATOM      8  C   UNL     1     137.766 139.030 133.990  1.00  0.00    -0.022 C 
ATOM      9  C   UNL     1     136.681 139.621 133.038  1.00  0.00     0.008 C 
ATOM     10  C   UNL     1     135.429 140.128 133.805  1.00  0.00     0.005 C 
ATOM     11  C   UNL     1     135.755 140.558 135.268  1.00  0.00    -0.005 C 
ATOM     12  C   UNL     1     138.832 138.243 133.191  1.00  0.00     0.012 C 
ENDROOT
BRANCH  11  13
ATOM     13  C   UNL     1     134.502 140.488 136.195  1.00  0.00    -0.014 C 
ATOM     14  C   UNL     1     133.358 139.628 135.631  1.00  0.00     0.007 C 
ATOM     15  C   UNL     1     134.876 139.998 137.604  1.00  0.00     0.007 C 
ENDBRANCH  11  13
TORSDOF 1
ENDMDL
MODEL 3
REMARK VINA RESULT:    -4.964      4.592      7.264
REMARK INTER + INTRA:          -5.675
REMARK INTER:                  -5.262
REMARK INTRA:                  -0.413
REMARK UNBOUND:                -0.422
REMARK SMILES CC1=CC[C@@H]2[C@H]3[C@H](C(C)C)CC[C@]2(C)[C@@H]13
REMARK SMILES IDX 1 1 2 2 3 3 4 4 5 5 6 6 15 7 13 8 12 9 11 10 7 11 14 12 8 13
REMARK SMILES IDX 9 14 10 15
REMARK H PARENT
REMARK Flexibility Score: inf
ROOT
ATOM      1  C   UNL     1     136.184 134.656 136.463  1.00  0.00     0.039 C 
ATOM      2  C   UNL     1     137.570 134.385 135.958  1.00  0.00    -0.073 C 
ATOM      3  C   UNL     1     138.218 133.217 136.214  1.00  0.00    -0.027 C 
ATOM      4  C   UNL     1     139.637 133.027 135.669  1.00  0.00     0.031 C 
ATOM      5  C   UNL     1     140.109 134.313 134.914  1.00  0.00     0.003 C 
ATOM      6  C   UNL     1     139.756 135.529 135.804  1.00  0.00     0.004 C 
ATOM      7  C   UNL     1     138.339 135.452 135.178  1.00  0.00     0.024 C 
ATOM      8  C   UNL     1     139.024 134.829 133.938  1.00  0.00    -0.022 C 
ATOM      9  C   UNL     1     139.640 135.942 133.036  1.00  0.00     0.008 C 
ATOM     10  C   UNL     1     140.147 137.160 133.854  1.00  0.00     0.005 C 
ATOM     11  C   UNL     1     140.551 136.778 135.311  1.00  0.00    -0.005 C 
ATOM     12  C   UNL     1     138.239 133.800 133.090  1.00  0.00     0.012 C 
ENDROOT
BRANCH  11  13
ATOM     13  C   UNL     1     140.478 137.997 136.281  1.00  0.00    -0.014 C 
ATOM     14  C   UNL     1     139.655 139.178 135.736  1.00  0.00     0.007 C 
ATOM     15  C   UNL     1     139.944 137.582 137.662  1.00  0.00     0.007 C 
ENDBRANCH  11  13
TORSDOF 1
ENDMDL
MODEL 4
REMARK VINA RESULT:    -4.954      3.420      5.200
REMARK INTER + INTRA:          -5.666
REMARK INTER:                  -5.248
REMARK INTRA:                  -0.417
REMARK UNBOUND:                -0.422
REMARK SMILES CC1=CC[C@@H]2[C@H]3[C@H](C(C)C)CC[C@]2(C)[C@@H]13
REMARK SMILES IDX 1 1 2 2 3 3 4 4 5 5 6 6 15 7 13 8 12 9 11 10 7 11 14 12 8 13
REMARK SMILES IDX 9 14 10 15
REMARK H PARENT
REMARK Flexibility Score: inf
ROOT
ATOM      1  C   UNL     1     135.031 136.644 136.338  1.00  0.00     0.039 C 
ATOM      2  C   UNL     1     134.545 135.270 135.989  1.00  0.00    -0.073 C 
ATOM      3  C   UNL     1     133.366 134.778 136.456  1.00  0.00    -0.027 C 
ATOM      4  C   UNL     1     132.951 133.358 136.058  1.00  0.00     0.031 C 
ATOM      5  C   UNL     1     134.055 132.693 135.172  1.00  0.00     0.003 C 
ATOM      6  C   UNL     1     135.419 132.961 135.852  1.00  0.00     0.004 C 
ATOM      7  C   UNL     1     135.400 134.334 135.132  1.00  0.00     0.024 C 
ATOM      8  C   UNL     1     134.533 133.647 134.050  1.00  0.00    -0.022 C 
ATOM      9  C   UNL     1     135.430 132.850 133.053  1.00  0.00     0.008 C 
ATOM     10  C   UNL     1     136.696 132.260 133.732  1.00  0.00     0.005 C 
ATOM     11  C   UNL     1     136.492 131.997 135.256  1.00  0.00    -0.005 C 
ATOM     12  C   UNL     1     133.478 134.488 133.293  1.00  0.00     0.012 C 
ENDROOT
BRANCH  11  13
ATOM     13  C   UNL     1     137.842 131.992 136.038  1.00  0.00    -0.014 C 
ATOM     14  C   UNL     1     139.002 132.660 135.281  1.00  0.00     0.007 C 
ATOM     15  C   UNL     1     137.686 132.635 137.426  1.00  0.00     0.007 C 
ENDBRANCH  11  13
TORSDOF 1
ENDMDL
MODEL 5
REMARK VINA RESULT:    -4.876      3.640      6.058
REMARK INTER + INTRA:          -5.583
REMARK INTER:                  -5.317
REMARK INTRA:                  -0.266
REMARK UNBOUND:                -0.422
REMARK SMILES CC1=CC[C@@H]2[C@H]3[C@H](C(C)C)CC[C@]2(C)[C@@H]13
REMARK SMILES IDX 1 1 2 2 3 3 4 4 5 5 6 6 15 7 13 8 12 9 11 10 7 11 14 12 8 13
REMARK SMILES IDX 9 14 10 15
REMARK H PARENT
REMARK Flexibility Score: inf
ROOT
ATOM      1  C   UNL     1     138.167 134.895 136.405  1.00  0.00     0.039 C 
ATOM      2  C   UNL     1     138.517 136.230 136.991  1.00  0.00    -0.073 C 
ATOM      3  C   UNL     1     138.960 136.365 138.270  1.00  0.00    -0.027 C 
ATOM      4  C   UNL     1     139.285 137.767 138.793  1.00  0.00     0.031 C 
ATOM      5  C   UNL     1     138.982 138.842 137.698  1.00  0.00     0.003 C 
ATOM      6  C   UNL     1     137.591 138.520 137.103  1.00  0.00     0.004 C 
ATOM      7  C   UNL     1     138.327 137.513 136.180  1.00  0.00     0.024 C 
ATOM      8  C   UNL     1     139.564 138.433 136.323  1.00  0.00    -0.022 C 
ATOM      9  C   UNL     1     139.461 139.644 135.346  1.00  0.00     0.008 C 
ATOM     10  C   UNL     1     137.995 140.100 135.114  1.00  0.00     0.005 C 
ATOM     11  C   UNL     1     137.064 139.761 136.318  1.00  0.00    -0.005 C 
ATOM     12  C   UNL     1     140.974 137.799 136.273  1.00  0.00     0.012 C 
ENDROOT
BRANCH  11  13
ATOM     13  C   UNL     1     135.567 139.651 135.892  1.00  0.00    -0.014 C 
ATOM     14  C   UNL     1     134.707 140.852 136.321  1.00  0.00     0.007 C 
ATOM     15  C   UNL     1     135.433 139.428 134.376  1.00  0.00     0.007 C 
ENDBRANCH  11  13
TORSDOF 1
ENDMDL
MODEL 6
REMARK VINA RESULT:    -4.874      4.242      7.304
REMARK INTER + INTRA:          -5.581
REMARK INTER:                  -5.333
REMARK INTRA:                  -0.248
REMARK UNBOUND:                -0.422
REMARK SMILES CC1=CC[C@@H]2[C@H]3[C@H](C(C)C)CC[C@]2(C)[C@@H]13
REMARK SMILES IDX 1 1 2 2 3 3 4 4 5 5 6 6 15 7 13 8 12 9 11 10 7 11 14 12 8 13
REMARK SMILES IDX 9 14 10 15
REMARK H PARENT
REMARK Flexibility Score: inf
ROOT
ATOM      1  C   UNL     1     134.934 134.495 136.387  1.00  0.00     0.039 C 
ATOM      2  C   UNL     1     136.277 134.160 136.965  1.00  0.00    -0.073 C 
ATOM      3  C   UNL     1     136.432 133.769 138.258  1.00  0.00    -0.027 C 
ATOM      4  C   UNL     1     137.842 133.458 138.770  1.00  0.00     0.031 C 
ATOM      5  C   UNL     1     138.899 133.709 137.646  1.00  0.00     0.003 C 
ATOM      6  C   UNL     1     138.573 135.077 136.999  1.00  0.00     0.004 C 
ATOM      7  C   UNL     1     137.547 134.310 136.125  1.00  0.00     0.024 C 
ATOM      8  C   UNL     1     138.463 133.075 136.303  1.00  0.00    -0.022 C 
ATOM      9  C   UNL     1     139.658 133.130 135.302  1.00  0.00     0.008 C 
ATOM     10  C   UNL     1     140.117 134.583 135.002  1.00  0.00     0.005 C 
ATOM     11  C   UNL     1     139.804 135.564 136.173  1.00  0.00    -0.005 C 
ATOM     12  C   UNL     1     137.821 131.667 136.322  1.00  0.00     0.012 C 
ENDROOT
BRANCH  11  13
ATOM     13  C   UNL     1     139.694 137.043 135.688  1.00  0.00    -0.014 C 
ATOM     14  C   UNL     1     140.735 137.984 136.317  1.00  0.00     0.007 C 
ATOM     15  C   UNL     1     139.767 137.135 134.155  1.00  0.00     0.007 C 
ENDBRANCH  11  13
TORSDOF 1
ENDMDL
MODEL 7
REMARK VINA RESULT:    -4.873      2.749      4.658
REMARK INTER + INTRA:          -5.580
REMARK INTER:                  -5.316
REMARK INTRA:                  -0.264
REMARK UNBOUND:                -0.422
REMARK SMILES CC1=CC[C@@H]2[C@H]3[C@H](C(C)C)CC[C@]2(C)[C@@H]13
REMARK SMILES IDX 1 1 2 2 3 3 4 4 5 5 6 6 15 7 13 8 12 9 11 10 7 11 14 12 8 13
REMARK SMILES IDX 9 14 10 15
REMARK H PARENT
REMARK Flexibility Score: inf
ROOT
ATOM      1  C   UNL     1     134.432 137.786 136.408  1.00  0.00     0.039 C 
ATOM      2  C   UNL     1     134.100 136.452 137.007  1.00  0.00    -0.073 C 
ATOM      3  C   UNL     1     133.674 136.321 138.291  1.00  0.00    -0.027 C 
ATOM      4  C   UNL     1     133.368 134.919 138.827  1.00  0.00     0.031 C 
ATOM      5  C   UNL     1     133.667 133.840 137.736  1.00  0.00     0.003 C 
ATOM      6  C   UNL     1     135.048 134.171 137.121  1.00  0.00     0.004 C 
ATOM      7  C   UNL     1     134.292 135.166 136.202  1.00  0.00     0.024 C 
ATOM      8  C   UNL     1     133.065 134.236 136.365  1.00  0.00    -0.022 C 
ATOM      9  C   UNL     1     133.167 133.019 135.395  1.00  0.00     0.008 C 
ATOM     10  C   UNL     1     134.634 132.575 135.148  1.00  0.00     0.005 C 
ATOM     11  C   UNL     1     135.577 132.929 136.339  1.00  0.00    -0.005 C 
ATOM     12  C   UNL     1     131.649 134.857 136.328  1.00  0.00     0.012 C 
ENDROOT
BRANCH  11  13
ATOM     13  C   UNL     1     137.067 133.050 135.893  1.00  0.00    -0.014 C 
ATOM     14  C   UNL     1     137.949 131.875 136.347  1.00  0.00     0.007 C 
ATOM     15  C   UNL     1     137.183 133.232 134.371  1.00  0.00     0.007 C 
ENDBRANCH  11  13
TORSDOF 1
ENDMDL
MODEL 8
REMARK VINA RESULT:    -4.854      1.509      2.325
REMARK INTER + INTRA:          -5.559
REMARK INTER:                  -5.256
REMARK INTRA:                  -0.303
REMARK UNBOUND:                -0.422
REMARK SMILES CC1=CC[C@@H]2[C@H]3[C@H](C(C)C)CC[C@]2(C)[C@@H]13
REMARK SMILES IDX 1 1 2 2 3 3 4 4 5 5 6 6 15 7 13 8 12 9 11 10 7 11 14 12 8 13
REMARK SMILES IDX 9 14 10 15
REMARK H PARENT
REMARK Flexibility Score: inf
ROOT
ATOM      1  C   UNL     1     137.812 138.195 136.574  1.00  0.00     0.039 C 
ATOM      2  C   UNL     1     136.465 138.536 137.137  1.00  0.00    -0.073 C 
ATOM      3  C   UNL     1     136.309 139.028 138.395  1.00  0.00    -0.027 C 
ATOM      4  C   UNL     1     134.895 139.340 138.896  1.00  0.00     0.031 C 
ATOM      5  C   UNL     1     133.836 138.966 137.808  1.00  0.00     0.003 C 
ATOM      6  C   UNL     1     134.197 137.559 137.273  1.00  0.00     0.004 C 
ATOM      7  C   UNL     1     135.193 138.281 136.327  1.00  0.00     0.024 C 
ATOM      8  C   UNL     1     134.242 139.499 136.412  1.00  0.00    -0.022 C 
ATOM      9  C   UNL     1     133.041 139.327 135.433  1.00  0.00     0.008 C 
ATOM     10  C   UNL     1     132.622 137.842 135.259  1.00  0.00     0.005 C 
ATOM     11  C   UNL     1     132.974 136.970 136.503  1.00  0.00    -0.005 C 
ATOM     12  C   UNL     1     134.841 140.922 136.308  1.00  0.00     0.012 C 
ENDROOT
BRANCH  11  13
ATOM     13  C   UNL     1     133.125 135.460 136.140  1.00  0.00    -0.014 C 
ATOM     14  C   UNL     1     134.278 134.755 136.874  1.00  0.00     0.007 C 
ATOM     15  C   UNL     1     131.811 134.695 136.375  1.00  0.00     0.007 C 
ENDBRANCH  11  13
TORSDOF 1
ENDMDL
MODEL 9
REMARK VINA RESULT:    -4.677      4.319      6.391
REMARK INTER + INTRA:          -5.372
REMARK INTER:                  -4.988
REMARK INTRA:                  -0.384
REMARK UNBOUND:                -0.422
REMARK SMILES CC1=CC[C@@H]2[C@H]3[C@H](C(C)C)CC[C@]2(C)[C@@H]13
REMARK SMILES IDX 1 1 2 2 3 3 4 4 5 5 6 6 15 7 13 8 12 9 11 10 7 11 14 12 8 13
REMARK SMILES IDX 9 14 10 15
REMARK H PARENT
REMARK Flexibility Score: inf
ROOT
ATOM      1  C   UNL     1     134.881 135.726 134.528  1.00  0.00     0.039 C 
ATOM      2  C   UNL     1     135.361 134.307 134.571  1.00  0.00    -0.073 C 
ATOM      3  C   UNL     1     134.612 133.275 134.098  1.00  0.00    -0.027 C 
ATOM      4  C   UNL     1     135.174 131.853 134.192  1.00  0.00     0.031 C 
ATOM      5  C   UNL     1     136.569 131.862 134.898  1.00  0.00     0.003 C 
ATOM      6  C   UNL     1     136.446 132.751 136.158  1.00  0.00     0.004 C 
ATOM      7  C   UNL     1     136.703 133.956 135.215  1.00  0.00     0.024 C 
ATOM      8  C   UNL     1     137.490 132.965 134.322  1.00  0.00    -0.022 C 
ATOM      9  C   UNL     1     138.935 132.760 134.872  1.00  0.00     0.008 C 
ATOM     10  C   UNL     1     139.003 132.859 136.420  1.00  0.00     0.005 C 
ATOM     11  C   UNL     1     137.655 132.476 137.105  1.00  0.00    -0.005 C 
ATOM     12  C   UNL     1     137.507 133.193 132.792  1.00  0.00     0.012 C 
ENDROOT
BRANCH  11  13
ATOM     13  C   UNL     1     137.510 133.119 138.519  1.00  0.00    -0.014 C 
ATOM     14  C   UNL     1     138.590 134.166 138.840  1.00  0.00     0.007 C 
ATOM     15  C   UNL     1     136.114 133.733 138.713  1.00  0.00     0.007 C 
ENDBRANCH  11  13
TORSDOF 1
ENDMDL
