MODEL 1
REMARK VINA RESULT:    -6.226      0.000      0.000
REMARK INTER + INTRA:          -9.453
REMARK INTER:                  -8.410
REMARK INTRA:                  -1.042
REMARK UNBOUND:                -1.042
REMARK SMILES CC(=O)CCC=C(C)CCC=C(C)C
REMARK SMILES IDX 7 1 6 2 8 3 9 4 10 5 11 6 13 7 12 8 14 9 5 10 4 11 2 12 3 13
REMARK SMILES IDX 1 14
REMARK H PARENT
REMARK Flexibility Score: inf
ROOT
ATOM      1  C   UNL     1     -13.306 -16.500  31.656  1.00  0.00    -0.077 C 
ATOM      2  C   UNL     1     -13.487 -17.720  32.209  1.00  0.00    -0.028 C 
ATOM      3  C   UNL     1     -14.288 -15.408  31.996  1.00  0.00     0.039 C 
ENDROOT
BRANCH   1   4
ATOM      4  C   UNL     1     -12.169 -16.193  30.697  1.00  0.00     0.034 C 
BRANCH   4   5
ATOM      5  C   UNL     1     -12.674 -15.801  29.302  1.00  0.00     0.032 C 
BRANCH   5   6
ATOM      6  C   UNL     1     -11.828 -16.421  28.215  1.00  0.00    -0.028 C 
ATOM      7  C   UNL     1     -13.690 -16.463  26.538  1.00  0.00     0.039 C 
ATOM      8  C   UNL     1     -12.260 -16.698  26.965  1.00  0.00    -0.080 C 
ATOM      9  C   UNL     1     -11.273 -17.256  25.972  1.00  0.00     0.039 C 
ENDBRANCH   5   6
ENDBRANCH   4   5
ENDBRANCH   1   4
BRANCH   2  10
ATOM     10  C   UNL     1     -12.567 -18.897  31.976  1.00  0.00     0.035 C 
BRANCH  10  11
ATOM     11  C   UNL     1     -13.214 -19.970  31.092  1.00  0.00     0.079 C 
BRANCH  11  12
ATOM     12  C   UNL     1     -12.931 -19.738  29.630  1.00  0.00     0.130 C 
ATOM     13  O   UNL     1     -11.805 -19.421  29.275  1.00  0.00    -0.300 OA
ATOM     14  C   UNL     1     -14.016 -19.863  28.603  1.00  0.00     0.087 C 
ENDBRANCH  11  12
ENDBRANCH  10  11
ENDBRANCH   2  10
TORSDOF 6
ENDMDL
MODEL 2
REMARK VINA RESULT:    -5.780      1.679      4.088
REMARK INTER + INTRA:          -8.849
REMARK INTER:                  -7.610
REMARK INTRA:                  -1.240
REMARK UNBOUND:                -1.042
REMARK SMILES CC(=O)CCC=C(C)CCC=C(C)C
REMARK SMILES IDX 7 1 6 2 8 3 9 4 10 5 11 6 13 7 12 8 14 9 5 10 4 11 2 12 3 13
REMARK SMILES IDX 1 14
REMARK H PARENT
REMARK Flexibility Score: inf
ROOT
ATOM      1  C   UNL     1     -11.119 -16.290  31.759  1.00  0.00    -0.077 C 
ATOM      2  C   UNL     1     -10.423 -16.198  30.603  1.00  0.00    -0.028 C 
ATOM      3  C   UNL     1     -10.352 -16.470  33.043  1.00  0.00     0.039 C 
ENDROOT
BRANCH   1   4
ATOM      4  C   UNL     1     -12.637 -16.236  31.811  1.00  0.00     0.034 C 
BRANCH   4   5
ATOM      5  C   UNL     1     -13.260 -17.623  32.018  1.00  0.00     0.032 C 
BRANCH   5   6
ATOM      6  C   UNL     1     -13.384 -18.373  30.713  1.00  0.00    -0.028 C 
ATOM      7  C   UNL     1     -12.442 -20.503  31.638  1.00  0.00     0.039 C 
ATOM      8  C   UNL     1     -13.048 -19.670  30.533  1.00  0.00    -0.080 C 
ATOM      9  C   UNL     1     -13.294 -20.294  29.184  1.00  0.00     0.039 C 
ENDBRANCH   5   6
ENDBRANCH   4   5
ENDBRANCH   1   4
BRANCH   2  10
ATOM     10  C   UNL     1     -11.062 -15.992  29.248  1.00  0.00     0.035 C 
BRANCH  10  11
ATOM     11  C   UNL     1     -10.904 -17.219  28.342  1.00  0.00     0.079 C 
BRANCH  11  12
ATOM     12  C   UNL     1     -11.716 -17.090  27.079  1.00  0.00     0.130 C 
ATOM     13  O   UNL     1     -11.202 -17.347  26.000  1.00  0.00    -0.300 OA
ATOM     14  C   UNL     1     -13.141 -16.625  27.120  1.00  0.00     0.087 C 
ENDBRANCH  11  12
ENDBRANCH  10  11
ENDBRANCH   2  10
TORSDOF 6
ENDMDL
MODEL 3
REMARK VINA RESULT:    -5.696      1.412      2.198
REMARK INTER + INTRA:          -8.736
REMARK INTER:                  -7.534
REMARK INTRA:                  -1.202
REMARK UNBOUND:                -1.042
REMARK SMILES CC(=O)CCC=C(C)CCC=C(C)C
REMARK SMILES IDX 7 1 6 2 8 3 9 4 10 5 11 6 13 7 12 8 14 9 5 10 4 11 2 12 3 13
REMARK SMILES IDX 1 14
REMARK H PARENT
REMARK Flexibility Score: inf
ROOT
ATOM      1  C   UNL     1     -10.890 -16.342  31.552  1.00  0.00    -0.077 C 
ATOM      2  C   UNL     1     -12.119 -16.504  32.094  1.00  0.00    -0.028 C 
ATOM      3  C   UNL     1      -9.875 -15.530  32.314  1.00  0.00     0.039 C 
ENDROOT
BRANCH   1   4
ATOM      4  C   UNL     1     -10.501 -16.931  30.207  1.00  0.00     0.034 C 
BRANCH   4   5
ATOM      5  C   UNL     1     -10.549 -15.889  29.081  1.00  0.00     0.032 C 
BRANCH   5   6
ATOM      6  C   UNL     1     -11.900 -15.869  28.406  1.00  0.00    -0.028 C 
ATOM      7  C   UNL     1     -11.190 -17.378  26.535  1.00  0.00     0.039 C 
ATOM      8  C   UNL     1     -12.211 -16.552  27.282  1.00  0.00    -0.080 C 
ATOM      9  C   UNL     1     -13.626 -16.481  26.768  1.00  0.00     0.039 C 
ENDBRANCH   5   6
ENDBRANCH   4   5
ENDBRANCH   1   4
BRANCH   2  10
ATOM     10  C   UNL     1     -13.223 -17.314  31.452  1.00  0.00     0.035 C 
BRANCH  10  11
ATOM     11  C   UNL     1     -13.310 -18.732  32.028  1.00  0.00     0.079 C 
BRANCH  11  12
ATOM     12  C   UNL     1     -12.975 -19.777  30.995  1.00  0.00     0.130 C 
ATOM     13  O   UNL     1     -12.571 -20.874  31.352  1.00  0.00    -0.300 OA
ATOM     14  C   UNL     1     -13.102 -19.484  29.530  1.00  0.00     0.087 C 
ENDBRANCH  11  12
ENDBRANCH  10  11
ENDBRANCH   2  10
TORSDOF 6
ENDMDL
MODEL 4
REMARK VINA RESULT:    -5.695      1.435      1.772
REMARK INTER + INTRA:          -8.735
REMARK INTER:                  -7.911
REMARK INTRA:                  -0.824
REMARK UNBOUND:                -1.042
REMARK SMILES CC(=O)CCC=C(C)CCC=C(C)C
REMARK SMILES IDX 7 1 6 2 8 3 9 4 10 5 11 6 13 7 12 8 14 9 5 10 4 11 2 12 3 13
REMARK SMILES IDX 1 14
REMARK H PARENT
REMARK Flexibility Score: inf
ROOT
ATOM      1  C   UNL     1     -13.204 -16.098  31.694  1.00  0.00    -0.077 C 
ATOM      2  C   UNL     1     -12.128 -16.289  32.489  1.00  0.00    -0.028 C 
ATOM      3  C   UNL     1     -14.404 -15.392  32.272  1.00  0.00     0.039 C 
ENDROOT
BRANCH   1   4
ATOM      4  C   UNL     1     -13.258 -16.579  30.254  1.00  0.00     0.034 C 
BRANCH   4   5
ATOM      5  C   UNL     1     -12.597 -15.589  29.286  1.00  0.00     0.032 C 
BRANCH   5   6
ATOM      6  C   UNL     1     -11.754 -16.305  28.256  1.00  0.00    -0.028 C 
ATOM      7  C   UNL     1     -13.593 -16.413  26.558  1.00  0.00     0.039 C 
ATOM      8  C   UNL     1     -12.176 -16.655  27.022  1.00  0.00    -0.080 C 
ATOM      9  C   UNL     1     -11.191 -17.306  26.085  1.00  0.00     0.039 C 
ENDBRANCH   5   6
ENDBRANCH   4   5
ENDBRANCH   1   4
BRANCH   2  10
ATOM     10  C   UNL     1     -10.850 -16.958  32.033  1.00  0.00     0.035 C 
BRANCH  10  11
ATOM     11  C   UNL     1     -10.771 -18.421  32.486  1.00  0.00     0.079 C 
BRANCH  11  12
ATOM     12  C   UNL     1     -11.318 -19.361  31.443  1.00  0.00     0.130 C 
ATOM     13  O   UNL     1     -10.930 -19.274  30.287  1.00  0.00    -0.300 OA
ATOM     14  C   UNL     1     -12.354 -20.387  31.794  1.00  0.00     0.087 C 
ENDBRANCH  11  12
ENDBRANCH  10  11
ENDBRANCH   2  10
TORSDOF 6
ENDMDL
MODEL 5
REMARK VINA RESULT:    -5.690      1.959      3.660
REMARK INTER + INTRA:          -8.728
REMARK INTER:                  -7.553
REMARK INTRA:                  -1.175
REMARK UNBOUND:                -1.042
REMARK SMILES CC(=O)CCC=C(C)CCC=C(C)C
REMARK SMILES IDX 7 1 6 2 8 3 9 4 10 5 11 6 13 7 12 8 14 9 5 10 4 11 2 12 3 13
REMARK SMILES IDX 1 14
REMARK H PARENT
REMARK Flexibility Score: inf
ROOT
ATOM      1  C   UNL     1     -12.544 -18.619  29.938  1.00  0.00    -0.077 C 
ATOM      2  C   UNL     1     -13.221 -18.473  31.099  1.00  0.00    -0.028 C 
ATOM      3  C   UNL     1     -13.162 -19.460  28.851  1.00  0.00     0.039 C 
ENDROOT
BRANCH   1   4
ATOM      4  C   UNL     1     -11.186 -17.985  29.694  1.00  0.00     0.034 C 
BRANCH   4   5
ATOM      5  C   UNL     1     -11.177 -17.091  28.446  1.00  0.00     0.032 C 
BRANCH   5   6
ATOM      6  C   UNL     1     -12.074 -15.888  28.624  1.00  0.00    -0.028 C 
ATOM      7  C   UNL     1     -13.542 -16.468  26.677  1.00  0.00     0.039 C 
ATOM      8  C   UNL     1     -13.153 -15.610  27.858  1.00  0.00    -0.080 C 
ATOM      9  C   UNL     1     -13.987 -14.404  28.206  1.00  0.00     0.039 C 
ENDBRANCH   5   6
ENDBRANCH   4   5
ENDBRANCH   1   4
BRANCH   2  10
ATOM     10  C   UNL     1     -12.732 -17.638  32.261  1.00  0.00     0.035 C 
BRANCH  10  11
ATOM     11  C   UNL     1     -13.003 -16.143  32.054  1.00  0.00     0.079 C 
BRANCH  11  12
ATOM     12  C   UNL     1     -14.429 -15.782  32.381  1.00  0.00     0.130 C 
ATOM     13  O   UNL     1     -15.096 -16.525  33.084  1.00  0.00    -0.300 OA
ATOM     14  C   UNL     1     -15.054 -14.534  31.832  1.00  0.00     0.087 C 
ENDBRANCH  11  12
ENDBRANCH  10  11
ENDBRANCH   2  10
TORSDOF 6
ENDMDL
MODEL 6
REMARK VINA RESULT:    -5.625      2.387      4.184
REMARK INTER + INTRA:          -8.641
REMARK INTER:                  -7.505
REMARK INTRA:                  -1.136
REMARK UNBOUND:                -1.042
REMARK SMILES CC(=O)CCC=C(C)CCC=C(C)C
REMARK SMILES IDX 7 1 6 2 8 3 9 4 10 5 11 6 13 7 12 8 14 9 5 10 4 11 2 12 3 13
REMARK SMILES IDX 1 14
REMARK H PARENT
REMARK Flexibility Score: inf
ROOT
ATOM      1  C   UNL     1     -12.185 -18.895  31.878  1.00  0.00    -0.077 C 
ATOM      2  C   UNL     1     -13.226 -18.058  32.087  1.00  0.00    -0.028 C 
ATOM      3  C   UNL     1     -12.479 -20.351  31.625  1.00  0.00     0.039 C 
ENDROOT
BRANCH   1   4
ATOM      4  C   UNL     1     -10.739 -18.430  31.904  1.00  0.00     0.034 C 
BRANCH   4   5
ATOM      5  C   UNL     1     -10.085 -18.489  30.517  1.00  0.00     0.032 C 
BRANCH   5   6
ATOM      6  C   UNL     1     -10.986 -17.900  29.457  1.00  0.00    -0.028 C 
ATOM      7  C   UNL     1      -9.997 -15.604  29.635  1.00  0.00     0.039 C 
ATOM      8  C   UNL     1     -10.941 -16.618  29.031  1.00  0.00    -0.080 C 
ATOM      9  C   UNL     1     -11.864 -16.200  27.916  1.00  0.00     0.039 C 
ENDBRANCH   5   6
ENDBRANCH   4   5
ENDBRANCH   1   4
BRANCH   2  10
ATOM     10  C   UNL     1     -13.079 -16.572  32.328  1.00  0.00     0.035 C 
BRANCH  10  11
ATOM     11  C   UNL     1     -13.659 -15.740  31.178  1.00  0.00     0.079 C 
BRANCH  11  12
ATOM     12  C   UNL     1     -14.738 -14.802  31.654  1.00  0.00     0.130 C 
ATOM     13  O   UNL     1     -15.257 -14.025  30.866  1.00  0.00    -0.300 OA
ATOM     14  C   UNL     1     -15.170 -14.787  33.090  1.00  0.00     0.087 C 
ENDBRANCH  11  12
ENDBRANCH  10  11
ENDBRANCH   2  10
TORSDOF 6
ENDMDL
MODEL 7
REMARK VINA RESULT:    -5.440      2.232      4.470
REMARK INTER + INTRA:          -8.390
REMARK INTER:                  -7.132
REMARK INTRA:                  -1.257
REMARK UNBOUND:                -1.042
REMARK SMILES CC(=O)CCC=C(C)CCC=C(C)C
REMARK SMILES IDX 7 1 6 2 8 3 9 4 10 5 11 6 13 7 12 8 14 9 5 10 4 11 2 12 3 13
REMARK SMILES IDX 1 14
REMARK H PARENT
REMARK Flexibility Score: inf
ROOT
ATOM      1  C   UNL     1     -12.652 -15.857  29.045  1.00  0.00    -0.077 C 
ATOM      2  C   UNL     1     -13.441 -15.761  30.139  1.00  0.00    -0.028 C 
ATOM      3  C   UNL     1     -13.239 -15.490  27.706  1.00  0.00     0.039 C 
ENDROOT
BRANCH   1   4
ATOM      4  C   UNL     1     -11.211 -16.332  29.111  1.00  0.00     0.034 C 
BRANCH   4   5
ATOM      5  C   UNL     1     -11.071 -17.818  28.753  1.00  0.00     0.032 C 
BRANCH   5   6
ATOM      6  C   UNL     1     -11.395 -18.701  29.935  1.00  0.00    -0.028 C 
ATOM      7  C   UNL     1     -13.550 -19.527  28.959  1.00  0.00     0.039 C 
ATOM      8  C   UNL     1     -12.485 -19.493  30.031  1.00  0.00    -0.080 C 
ATOM      9  C   UNL     1     -12.632 -20.368  31.249  1.00  0.00     0.039 C 
ENDBRANCH   5   6
ENDBRANCH   4   5
ENDBRANCH   1   4
BRANCH   2  10
ATOM     10  C   UNL     1     -12.976 -16.072  31.544  1.00  0.00     0.035 C 
BRANCH  10  11
ATOM     11  C   UNL     1     -14.081 -16.718  32.389  1.00  0.00     0.079 C 
BRANCH  11  12
ATOM     12  C   UNL     1     -14.987 -15.685  33.010  1.00  0.00     0.130 C 
ATOM     13  O   UNL     1     -16.185 -15.907  33.100  1.00  0.00    -0.300 OA
ATOM     14  C   UNL     1     -14.444 -14.375  33.496  1.00  0.00     0.087 C 
ENDBRANCH  11  12
ENDBRANCH  10  11
ENDBRANCH   2  10
TORSDOF 6
ENDMDL
MODEL 8
REMARK VINA RESULT:    -5.410      1.674      4.343
REMARK INTER + INTRA:          -8.350
REMARK INTER:                  -7.219
REMARK INTRA:                  -1.130
REMARK UNBOUND:                -1.042
REMARK SMILES CC(=O)CCC=C(C)CCC=C(C)C
REMARK SMILES IDX 7 1 6 2 8 3 9 4 10 5 11 6 13 7 12 8 14 9 5 10 4 11 2 12 3 13
REMARK SMILES IDX 1 14
REMARK H PARENT
REMARK Flexibility Score: inf
ROOT
ATOM      1  C   UNL     1     -12.001 -18.648  31.058  1.00  0.00    -0.077 C 
ATOM      2  C   UNL     1     -11.718 -18.498  29.745  1.00  0.00    -0.028 C 
ATOM      3  C   UNL     1     -13.162 -19.530  31.443  1.00  0.00     0.039 C 
ENDROOT
BRANCH   1   4
ATOM      4  C   UNL     1     -11.211 -17.955  32.154  1.00  0.00     0.034 C 
BRANCH   4   5
ATOM      5  C   UNL     1     -11.440 -16.437  32.165  1.00  0.00     0.032 C 
BRANCH   5   6
ATOM      6  C   UNL     1     -12.789 -16.088  32.749  1.00  0.00    -0.028 C 
ATOM      7  C   UNL     1     -13.797 -15.493  30.533  1.00  0.00     0.039 C 
ATOM      8  C   UNL     1     -13.862 -15.691  32.029  1.00  0.00    -0.080 C 
ATOM      9  C   UNL     1     -15.160 -15.443  32.754  1.00  0.00     0.039 C 
ENDBRANCH   5   6
ENDBRANCH   4   5
ENDBRANCH   1   4
BRANCH   2  10
ATOM     10  C   UNL     1     -10.570 -17.665  29.219  1.00  0.00     0.035 C 
BRANCH  10  11
ATOM     11  C   UNL     1     -11.055 -16.470  28.390  1.00  0.00     0.079 C 
BRANCH  11  12
ATOM     12  C   UNL     1     -11.745 -16.910  27.125  1.00  0.00     0.130 C 
ATOM     13  O   UNL     1     -11.123 -17.541  26.283  1.00  0.00    -0.300 OA
ATOM     14  C   UNL     1     -13.181 -16.562  26.867  1.00  0.00     0.087 C 
ENDBRANCH  11  12
ENDBRANCH  10  11
ENDBRANCH   2  10
TORSDOF 6
ENDMDL
MODEL 9
REMARK VINA RESULT:    -5.379      1.546      2.297
REMARK INTER + INTRA:          -8.308
REMARK INTER:                  -7.079
REMARK INTRA:                  -1.229
REMARK UNBOUND:                -1.042
REMARK SMILES CC(=O)CCC=C(C)CCC=C(C)C
REMARK SMILES IDX 7 1 6 2 8 3 9 4 10 5 11 6 13 7 12 8 14 9 5 10 4 11 2 12 3 13
REMARK SMILES IDX 1 14
REMARK H PARENT
REMARK Flexibility Score: inf
ROOT
ATOM      1  C   UNL     1     -10.662 -17.391  32.084  1.00  0.00    -0.077 C 
ATOM      2  C   UNL     1     -11.415 -18.477  32.368  1.00  0.00    -0.028 C 
ATOM      3  C   UNL     1     -10.489 -16.343  33.153  1.00  0.00     0.039 C 
ENDROOT
BRANCH   1   4
ATOM      4  C   UNL     1     -10.000 -17.180  30.734  1.00  0.00     0.034 C 
BRANCH   4   5
ATOM      5  C   UNL     1     -10.254 -15.773  30.176  1.00  0.00     0.032 C 
BRANCH   5   6
ATOM      6  C   UNL     1     -11.132 -15.817  28.947  1.00  0.00    -0.028 C 
ATOM      7  C   UNL     1     -13.270 -15.836  30.253  1.00  0.00     0.039 C 
ATOM      8  C   UNL     1     -12.483 -15.818  28.964  1.00  0.00    -0.080 C 
ATOM      9  C   UNL     1     -13.217 -15.797  27.648  1.00  0.00     0.039 C 
ENDBRANCH   5   6
ENDBRANCH   4   5
ENDBRANCH   1   4
BRANCH   2  10
ATOM     10  C   UNL     1     -11.652 -19.616  31.401  1.00  0.00     0.035 C 
BRANCH  10  11
ATOM     11  C   UNL     1     -13.077 -19.608  30.835  1.00  0.00     0.079 C 
BRANCH  11  12
ATOM     12  C   UNL     1     -13.082 -19.623  29.328  1.00  0.00     0.130 C 
ATOM     13  O   UNL     1     -12.173 -19.084  28.715  1.00  0.00    -0.300 OA
ATOM     14  C   UNL     1     -14.201 -20.267  28.566  1.00  0.00     0.087 C 
ENDBRANCH  11  12
ENDBRANCH  10  11
ENDBRANCH   2  10
TORSDOF 6
ENDMDL
