MODEL 1
REMARK VINA RESULT:    -3.506      0.000      0.000
REMARK INTER + INTRA:          -3.608
REMARK INTER:                  -3.608
REMARK INTRA:                   0.000
REMARK UNBOUND:                 0.000
REMARK SMILES Nc1ncnc2nc[nH]c12
REMARK SMILES IDX 8 1 7 2 6 3 5 4 4 5 3 6 2 7 10 8 9 9 1 11
REMARK H PARENT 9 10 1 12 1 13
REMARK Flexibility Score: inf
ROOT
ATOM      1  C   UNL     1       8.504  11.125  22.246  1.00  0.00     0.199 A 
ATOM      2  N   UNL     1       9.540  11.099  23.127  1.00  0.00    -0.217 NA
ATOM      3  C   UNL     1       9.964   9.828  23.032  1.00  0.00     0.182 A 
ATOM      4  N   UNL     1      10.992   9.266  23.712  1.00  0.00    -0.215 NA
ATOM      5  C   UNL     1      11.275   7.948  23.479  1.00  0.00     0.226 A 
ATOM      6  N   UNL     1      10.534   7.224  22.582  1.00  0.00    -0.217 NA
ATOM      7  C   UNL     1       9.497   7.789  21.895  1.00  0.00     0.152 A 
ATOM      8  C   UNL     1       9.221   9.131  22.142  1.00  0.00     0.127 A 
ATOM      9  N   UNL     1       8.284   9.937  21.627  1.00  0.00    -0.340 N 
ATOM     10  H   UNL     1       7.550   9.715  20.918  1.00  0.00     0.168 HD
ENDROOT
BRANCH   7  11
ATOM     11  N   UNL     1       8.738   7.016  20.964  1.00  0.00    -0.382 N 
ATOM     12  H   UNL     1       7.780   6.686  21.217  1.00  0.00     0.158 HD
ATOM     13  H   UNL     1       9.118   6.770  20.024  1.00  0.00     0.158 HD
ENDBRANCH   7  11
TORSDOF 1
ENDMDL
MODEL 2
REMARK VINA RESULT:    -3.399      1.035      2.957
REMARK INTER + INTRA:          -3.499
REMARK INTER:                  -3.499
REMARK INTRA:                   0.000
REMARK UNBOUND:                 0.000
REMARK SMILES Nc1ncnc2nc[nH]c12
REMARK SMILES IDX 8 1 7 2 6 3 5 4 4 5 3 6 2 7 10 8 9 9 1 11
REMARK H PARENT 9 10 1 12 1 13
REMARK Flexibility Score: inf
ROOT
ATOM      1  C   UNL     1      12.458   7.499  23.169  1.00  0.00     0.199 A 
ATOM      2  N   UNL     1      12.287   8.775  23.612  1.00  0.00    -0.217 NA
ATOM      3  C   UNL     1      11.055   9.069  23.168  1.00  0.00     0.182 A 
ATOM      4  N   UNL     1      10.390  10.237  23.341  1.00  0.00    -0.215 NA
ATOM      5  C   UNL     1       9.134  10.348  22.812  1.00  0.00     0.226 A 
ATOM      6  N   UNL     1       8.571   9.303  22.125  1.00  0.00    -0.217 NA
ATOM      7  C   UNL     1       9.240   8.124  21.950  1.00  0.00     0.152 A 
ATOM      8  C   UNL     1      10.517   8.025  22.495  1.00  0.00     0.127 A 
ATOM      9  N   UNL     1      11.393   7.013  22.483  1.00  0.00    -0.340 N 
ATOM     10  H   UNL     1      11.293   6.068  22.050  1.00  0.00     0.168 HD
ENDROOT
BRANCH   7  11
ATOM     11  N   UNL     1       8.634   7.048  21.233  1.00  0.00    -0.382 N 
ATOM     12  H   UNL     1       8.850   6.908  20.221  1.00  0.00     0.158 HD
ATOM     13  H   UNL     1       7.973   6.388  21.697  1.00  0.00     0.158 HD
ENDBRANCH   7  11
TORSDOF 1
ENDMDL
MODEL 3
REMARK VINA RESULT:    -3.222      0.866      2.961
REMARK INTER + INTRA:          -3.317
REMARK INTER:                  -3.317
REMARK INTRA:                   0.000
REMARK UNBOUND:                 0.000
REMARK SMILES Nc1ncnc2nc[nH]c12
REMARK SMILES IDX 8 1 7 2 6 3 5 4 4 5 3 6 2 7 10 8 9 9 1 11
REMARK H PARENT 9 10 1 12 1 13
REMARK Flexibility Score: inf
ROOT
ATOM      1  C   UNL     1       9.446   6.832  21.802  1.00  0.00     0.199 A 
ATOM      2  N   UNL     1      10.388   7.147  22.733  1.00  0.00    -0.217 NA
ATOM      3  C   UNL     1      10.253   8.478  22.837  1.00  0.00     0.182 A 
ATOM      4  N   UNL     1      10.965   9.303  23.643  1.00  0.00    -0.215 NA
ATOM      5  C   UNL     1      10.680  10.640  23.611  1.00  0.00     0.226 A 
ATOM      6  N   UNL     1       9.700  11.125  22.782  1.00  0.00    -0.217 NA
ATOM      7  C   UNL     1       8.981  10.295  21.970  1.00  0.00     0.152 A 
ATOM      8  C   UNL     1       9.282   8.936  22.014  1.00  0.00     0.127 A 
ATOM      9  N   UNL     1       8.753   7.905  21.344  1.00  0.00    -0.340 N 
ATOM     10  H   UNL     1       7.988   7.912  20.633  1.00  0.00     0.168 HD
ENDROOT
BRANCH   7  11
ATOM     11  N   UNL     1       7.964  10.821  21.115  1.00  0.00    -0.382 N 
ATOM     12  H   UNL     1       8.013  10.660  20.085  1.00  0.00     0.158 HD
ATOM     13  H   UNL     1       7.163  11.368  21.497  1.00  0.00     0.158 HD
ENDBRANCH   7  11
TORSDOF 1
ENDMDL
MODEL 4
REMARK VINA RESULT:    -3.029      1.564      3.431
REMARK INTER + INTRA:          -3.117
REMARK INTER:                  -3.117
REMARK INTRA:                   0.000
REMARK UNBOUND:                 0.000
REMARK SMILES Nc1ncnc2nc[nH]c12
REMARK SMILES IDX 8 1 7 2 6 3 5 4 4 5 3 6 2 7 10 8 9 9 1 11
REMARK H PARENT 9 10 1 12 1 13
REMARK Flexibility Score: inf
ROOT
ATOM      1  C   UNL     1       9.246   6.788  22.413  1.00  0.00     0.199 A 
ATOM      2  N   UNL     1       8.212   7.634  22.670  1.00  0.00    -0.217 NA
ATOM      3  C   UNL     1       8.710   8.819  22.282  1.00  0.00     0.182 A 
ATOM      4  N   UNL     1       8.075  10.016  22.326  1.00  0.00    -0.215 NA
ATOM      5  C   UNL     1       8.750  11.120  21.882  1.00  0.00     0.226 A 
ATOM      6  N   UNL     1      10.033  11.010  21.409  1.00  0.00    -0.217 NA
ATOM      7  C   UNL     1      10.674   9.804  21.364  1.00  0.00     0.152 A 
ATOM      8  C   UNL     1       9.974   8.689  21.818  1.00  0.00     0.127 A 
ATOM      9  N   UNL     1      10.338   7.403  21.891  1.00  0.00    -0.340 N 
ATOM     10  H   UNL     1      11.245   6.964  21.617  1.00  0.00     0.168 HD
ENDROOT
BRANCH   7  11
ATOM     11  N   UNL     1      12.009   9.712  20.866  1.00  0.00    -0.382 N 
ATOM     12  H   UNL     1      12.342  10.382  20.138  1.00  0.00     0.158 HD
ATOM     13  H   UNL     1      12.671   8.986  21.215  1.00  0.00     0.158 HD
ENDBRANCH   7  11
TORSDOF 1
ENDMDL
MODEL 5
REMARK VINA RESULT:    -2.716      1.366      2.912
REMARK INTER + INTRA:          -2.795
REMARK INTER:                  -2.795
REMARK INTRA:                   0.000
REMARK UNBOUND:                 0.000
REMARK SMILES Nc1ncnc2nc[nH]c12
REMARK SMILES IDX 8 1 7 2 6 3 5 4 4 5 3 6 2 7 10 8 9 9 1 11
REMARK H PARENT 9 10 1 12 1 13
REMARK Flexibility Score: inf
ROOT
ATOM      1  C   UNL     1       8.805   7.400  21.888  1.00  0.00     0.199 A 
ATOM      2  N   UNL     1       8.572   8.670  22.316  1.00  0.00    -0.217 NA
ATOM      3  C   UNL     1       9.794   9.070  22.704  1.00  0.00     0.182 A 
ATOM      4  N   UNL     1      10.123  10.279  23.219  1.00  0.00    -0.215 NA
ATOM      5  C   UNL     1      11.429  10.501  23.557  1.00  0.00     0.226 A 
ATOM      6  N   UNL     1      12.373   9.522  23.378  1.00  0.00    -0.217 NA
ATOM      7  C   UNL     1      12.042   8.302  22.858  1.00  0.00     0.152 A 
ATOM      8  C   UNL     1      10.709   8.091  22.518  1.00  0.00     0.127 A 
ATOM      9  N   UNL     1      10.102   7.016  21.998  1.00  0.00    -0.340 N 
ATOM     10  H   UNL     1      10.518   6.095  21.736  1.00  0.00     0.168 HD
ENDROOT
BRANCH   7  11
ATOM     11  N   UNL     1      13.041   7.297  22.678  1.00  0.00    -0.382 N 
ATOM     12  H   UNL     1      13.750   7.396  21.918  1.00  0.00     0.158 HD
ATOM     13  H   UNL     1      13.084   6.457  23.295  1.00  0.00     0.158 HD
ENDBRANCH   7  11
TORSDOF 1
ENDMDL
MODEL 6
REMARK VINA RESULT:    -2.661      1.457      2.678
REMARK INTER + INTRA:          -2.739
REMARK INTER:                  -2.739
REMARK INTRA:                   0.000
REMARK UNBOUND:                 0.000
REMARK SMILES Nc1ncnc2nc[nH]c12
REMARK SMILES IDX 8 1 7 2 6 3 5 4 4 5 3 6 2 7 10 8 9 9 1 11
REMARK H PARENT 9 10 1 12 1 13
REMARK Flexibility Score: inf
ROOT
ATOM      1  C   UNL     1      12.403  10.339  22.324  1.00  0.00     0.199 A 
ATOM      2  N   UNL     1      12.441   9.058  22.783  1.00  0.00    -0.217 NA
ATOM      3  C   UNL     1      11.162   8.670  22.651  1.00  0.00     0.182 A 
ATOM      4  N   UNL     1      10.650   7.457  22.970  1.00  0.00    -0.215 NA
ATOM      5  C   UNL     1       9.314   7.247  22.763  1.00  0.00     0.226 A 
ATOM      6  N   UNL     1       8.523   8.242  22.247  1.00  0.00    -0.217 NA
ATOM      7  C   UNL     1       9.039   9.466  21.925  1.00  0.00     0.152 A 
ATOM      8  C   UNL     1      10.400   9.664  22.141  1.00  0.00     0.127 A 
ATOM      9  N   UNL     1      11.169  10.738  21.924  1.00  0.00    -0.340 N 
ATOM     10  H   UNL     1      10.896  11.670  21.539  1.00  0.00     0.168 HD
ENDROOT
BRANCH   7  11
ATOM     11  N   UNL     1       8.198  10.488  21.388  1.00  0.00    -0.382 N 
ATOM     12  H   UNL     1       7.556  10.272  20.593  1.00  0.00     0.158 HD
ATOM     13  H   UNL     1       8.205  11.456  21.774  1.00  0.00     0.158 HD
ENDBRANCH   7  11
TORSDOF 1
ENDMDL
MODEL 7
REMARK VINA RESULT:    -2.559      1.628      3.148
REMARK INTER + INTRA:          -2.634
REMARK INTER:                  -2.634
REMARK INTRA:                   0.000
REMARK UNBOUND:                 0.000
REMARK SMILES Nc1ncnc2nc[nH]c12
REMARK SMILES IDX 8 1 7 2 6 3 5 4 4 5 3 6 2 7 10 8 9 9 1 11
REMARK H PARENT 9 10 1 12 1 13
REMARK Flexibility Score: inf
ROOT
ATOM      1  C   UNL     1       8.608   7.483  22.092  1.00  0.00     0.199 A 
ATOM      2  N   UNL     1       9.699   6.673  22.016  1.00  0.00    -0.217 NA
ATOM      3  C   UNL     1      10.633   7.392  22.659  1.00  0.00     0.182 A 
ATOM      4  N   UNL     1      11.923   7.035  22.872  1.00  0.00    -0.215 NA
ATOM      5  C   UNL     1      12.729   7.905  23.553  1.00  0.00     0.226 A 
ATOM      6  N   UNL     1      12.237   9.104  24.004  1.00  0.00    -0.217 NA
ATOM      7  C   UNL     1      10.937   9.465  23.791  1.00  0.00     0.152 A 
ATOM      8  C   UNL     1      10.129   8.569  23.097  1.00  0.00     0.127 A 
ATOM      9  N   UNL     1       8.839   8.649  22.747  1.00  0.00    -0.340 N 
ATOM     10  H   UNL     1       8.160   9.422  22.929  1.00  0.00     0.168 HD
ENDROOT
BRANCH   7  11
ATOM     11  N   UNL     1      10.445  10.717  24.271  1.00  0.00    -0.382 N 
ATOM     12  H   UNL     1       9.918  10.761  25.171  1.00  0.00     0.158 HD
ATOM     13  H   UNL     1      10.602  11.602  23.741  1.00  0.00     0.158 HD
ENDBRANCH   7  11
TORSDOF 1
ENDMDL
MODEL 8
REMARK VINA RESULT:    -2.546      1.455      2.509
REMARK INTER + INTRA:          -2.620
REMARK INTER:                  -2.620
REMARK INTRA:                   0.000
REMARK UNBOUND:                 0.000
REMARK SMILES Nc1ncnc2nc[nH]c12
REMARK SMILES IDX 8 1 7 2 6 3 5 4 4 5 3 6 2 7 10 8 9 9 1 11
REMARK H PARENT 9 10 1 12 1 13
REMARK Flexibility Score: inf
ROOT
ATOM      1  C   UNL     1      11.364  11.102  21.695  1.00  0.00     0.199 A 
ATOM      2  N   UNL     1      10.004  11.066  21.684  1.00  0.00    -0.217 NA
ATOM      3  C   UNL     1       9.750   9.792  22.024  1.00  0.00     0.182 A 
ATOM      4  N   UNL     1       8.529   9.219  22.161  1.00  0.00    -0.215 NA
ATOM      5  C   UNL     1       8.472   7.900  22.517  1.00  0.00     0.226 A 
ATOM      6  N   UNL     1       9.623   7.184  22.727  1.00  0.00    -0.217 NA
ATOM      7  C   UNL     1      10.855   7.760  22.590  1.00  0.00     0.152 A 
ATOM      8  C   UNL     1      10.897   9.103  22.227  1.00  0.00     0.127 A 
ATOM      9  N   UNL     1      11.939   9.918  22.024  1.00  0.00    -0.340 N 
ATOM     10  H   UNL     1      12.959   9.704  22.096  1.00  0.00     0.168 HD
ENDROOT
BRANCH   7  11
ATOM     11  N   UNL     1      12.040   6.996  22.815  1.00  0.00    -0.382 N 
ATOM     12  H   UNL     1      11.970   5.986  23.073  1.00  0.00     0.158 HD
ATOM     13  H   UNL     1      12.987   7.423  22.726  1.00  0.00     0.158 HD
ENDBRANCH   7  11
TORSDOF 1
ENDMDL
MODEL 9
REMARK VINA RESULT:    -2.510     23.122     24.439
REMARK INTER + INTRA:          -2.583
REMARK INTER:                  -2.583
REMARK INTRA:                   0.000
REMARK UNBOUND:                 0.000
REMARK SMILES Nc1ncnc2nc[nH]c12
REMARK SMILES IDX 8 1 7 2 6 3 5 4 4 5 3 6 2 7 10 8 9 9 1 11
REMARK H PARENT 9 10 1 12 1 13
REMARK Flexibility Score: inf
ROOT
ATOM      1  C   UNL     1       8.775  -7.840   4.875  1.00  0.00     0.199 A 
ATOM      2  N   UNL     1       7.995  -8.954   4.928  1.00  0.00    -0.217 NA
ATOM      3  C   UNL     1       6.763  -8.435   5.047  1.00  0.00     0.182 A 
ATOM      4  N   UNL     1       5.600  -9.125   5.140  1.00  0.00    -0.215 NA
ATOM      5  C   UNL     1       4.437  -8.415   5.255  1.00  0.00     0.226 A 
ATOM      6  N   UNL     1       4.455  -7.044   5.276  1.00  0.00    -0.217 NA
ATOM      7  C   UNL     1       5.627  -6.347   5.181  1.00  0.00     0.152 A 
ATOM      8  C   UNL     1       6.802  -7.083   5.064  1.00  0.00     0.127 A 
ATOM      9  N   UNL     1       8.075  -6.680   4.956  1.00  0.00    -0.340 N 
ATOM     10  H   UNL     1       8.452  -5.707   4.938  1.00  0.00     0.168 HD
ENDROOT
BRANCH   7  11
ATOM     11  N   UNL     1       5.623  -4.919   5.204  1.00  0.00    -0.382 N 
ATOM     12  H   UNL     1       4.724  -4.401   5.324  1.00  0.00     0.158 HD
ATOM     13  H   UNL     1       6.504  -4.371   5.104  1.00  0.00     0.158 HD
ENDBRANCH   7  11
TORSDOF 1
ENDMDL
