MODEL 1
REMARK VINA RESULT:    -2.862      0.000      0.000
REMARK INTER + INTRA:          -3.907
REMARK INTER:                  -3.699
REMARK INTRA:                  -0.208
REMARK UNBOUND:                -0.208
REMARK SMILES CCCCCCC(=O)[O-]
REMARK SMILES IDX 5 1 6 2 7 3 8 4 9 5 4 6 3 7 2 8 1 9
REMARK H PARENT
REMARK Flexibility Score: inf
ROOT
ATOM      1  C   UNL     1      17.588  66.116  15.312  1.00  0.00     0.006 C 
ENDROOT
BRANCH   1   2
ATOM      2  C   UNL     1      18.773  65.706  16.190  1.00  0.00     0.053 C 
BRANCH   2   3
ATOM      3  C   UNL     1      19.964  65.377  15.346  1.00  0.00     0.041 C 
ATOM      4  O   UNL     1      19.808  64.882  14.199  1.00  0.00    -0.550 OA
ATOM      5  O   UNL     1      21.242  65.664  15.805  1.00  0.00    -0.550 OA
ENDBRANCH   2   3
ENDBRANCH   1   2
BRANCH   1   6
ATOM      6  C   UNL     1      16.265  65.994  16.078  1.00  0.00     0.000 C 
BRANCH   6   7
ATOM      7  C   UNL     1      16.444  65.173  17.360  1.00  0.00    -0.000 C 
BRANCH   7   8
ATOM      8  C   UNL     1      15.117  64.547  17.802  1.00  0.00    -0.003 C 
ATOM      9  C   UNL     1      13.973  64.976  16.888  1.00  0.00     0.004 C 
ENDBRANCH   7   8
ENDBRANCH   6   7
ENDBRANCH   1   6
TORSDOF 5
ENDMDL
MODEL 2
REMARK VINA RESULT:    -2.774     14.570     15.746
REMARK INTER + INTRA:          -3.793
REMARK INTER:                  -3.636
REMARK INTRA:                  -0.158
REMARK UNBOUND:                -0.208
REMARK SMILES CCCCCCC(=O)[O-]
REMARK SMILES IDX 5 1 6 2 7 3 8 4 9 5 4 6 3 7 2 8 1 9
REMARK H PARENT
REMARK Flexibility Score: inf
ROOT
ATOM      1  C   UNL     1      32.370  63.571  18.727  1.00  0.00     0.006 C 
ENDROOT
BRANCH   1   2
ATOM      2  C   UNL     1      33.101  62.282  19.111  1.00  0.00     0.053 C 
BRANCH   2   3
ATOM      3  C   UNL     1      32.693  61.835  20.480  1.00  0.00     0.041 C 
ATOM      4  O   UNL     1      32.646  62.661  21.428  1.00  0.00    -0.550 OA
ATOM      5  O   UNL     1      32.318  60.516  20.696  1.00  0.00    -0.550 OA
ENDBRANCH   2   3
ENDBRANCH   1   2
BRANCH   1   6
ATOM      6  C   UNL     1      32.727  64.004  17.300  1.00  0.00     0.000 C 
BRANCH   6   7
ATOM      7  C   UNL     1      32.806  62.795  16.361  1.00  0.00    -0.000 C 
BRANCH   7   8
ATOM      8  C   UNL     1      32.654  63.225  14.897  1.00  0.00    -0.003 C 
ATOM      9  C   UNL     1      31.184  63.347  14.508  1.00  0.00     0.004 C 
ENDBRANCH   7   8
ENDBRANCH   6   7
ENDBRANCH   1   6
TORSDOF 5
ENDMDL
MODEL 3
REMARK VINA RESULT:    -2.741      4.507      5.648
REMARK INTER + INTRA:          -3.750
REMARK INTER:                  -3.531
REMARK INTRA:                  -0.219
REMARK UNBOUND:                -0.208
REMARK SMILES CCCCCCC(=O)[O-]
REMARK SMILES IDX 5 1 6 2 7 3 8 4 9 5 4 6 3 7 2 8 1 9
REMARK H PARENT
REMARK Flexibility Score: inf
ROOT
ATOM      1  C   UNL     1      13.696  64.514  14.772  1.00  0.00     0.006 C 
ENDROOT
BRANCH   1   2
ATOM      2  C   UNL     1      12.875  63.282  14.384  1.00  0.00     0.053 C 
BRANCH   2   3
ATOM      3  C   UNL     1      13.025  62.990  12.923  1.00  0.00     0.041 C 
ATOM      4  O   UNL     1      12.990  61.802  12.509  1.00  0.00    -0.550 OA
ATOM      5  O   UNL     1      13.153  64.033  12.016  1.00  0.00    -0.550 OA
ENDBRANCH   2   3
ENDBRANCH   1   2
BRANCH   1   6
ATOM      6  C   UNL     1      12.935  65.390  15.774  1.00  0.00     0.000 C 
BRANCH   6   7
ATOM      7  C   UNL     1      13.841  65.816  16.934  1.00  0.00    -0.000 C 
BRANCH   7   8
ATOM      8  C   UNL     1      14.444  64.595  17.638  1.00  0.00    -0.003 C 
ATOM      9  C   UNL     1      15.960  64.723  17.761  1.00  0.00     0.004 C 
ENDBRANCH   7   8
ENDBRANCH   6   7
ENDBRANCH   1   6
TORSDOF 5
ENDMDL
MODEL 4
REMARK VINA RESULT:    -2.623     11.905     14.036
REMARK INTER + INTRA:          -3.598
REMARK INTER:                  -3.293
REMARK INTRA:                  -0.305
REMARK UNBOUND:                -0.208
REMARK SMILES CCCCCCC(=O)[O-]
REMARK SMILES IDX 5 1 6 2 7 3 8 4 9 5 4 6 3 7 2 8 1 9
REMARK H PARENT
REMARK Flexibility Score: inf
ROOT
ATOM      1  C   UNL     1      31.441  64.321  18.054  1.00  0.00     0.006 C 
ENDROOT
BRANCH   1   2
ATOM      2  C   UNL     1      30.760  65.630  17.648  1.00  0.00     0.053 C 
BRANCH   2   3
ATOM      3  C   UNL     1      29.377  65.366  17.140  1.00  0.00     0.041 C 
ATOM      4  O   UNL     1      29.117  65.499  15.915  1.00  0.00    -0.550 OA
ATOM      5  O   UNL     1      28.389  64.926  18.010  1.00  0.00    -0.550 OA
ENDBRANCH   2   3
ENDBRANCH   1   2
BRANCH   1   6
ATOM      6  C   UNL     1      32.810  64.178  17.377  1.00  0.00     0.000 C 
BRANCH   6   7
ATOM      7  C   UNL     1      32.859  62.931  16.488  1.00  0.00    -0.000 C 
BRANCH   7   8
ATOM      8  C   UNL     1      32.785  63.309  15.004  1.00  0.00    -0.003 C 
ATOM      9  C   UNL     1      31.353  63.224  14.484  1.00  0.00     0.004 C 
ENDBRANCH   7   8
ENDBRANCH   6   7
ENDBRANCH   1   6
TORSDOF 5
ENDMDL
MODEL 5
REMARK VINA RESULT:    -2.622      4.525      5.339
REMARK INTER + INTRA:          -3.597
REMARK INTER:                  -3.396
REMARK INTRA:                  -0.201
REMARK UNBOUND:                -0.208
REMARK SMILES CCCCCCC(=O)[O-]
REMARK SMILES IDX 5 1 6 2 7 3 8 4 9 5 4 6 3 7 2 8 1 9
REMARK H PARENT
REMARK Flexibility Score: inf
ROOT
ATOM      1  C   UNL     1      14.601  65.394  13.658  1.00  0.00     0.006 C 
ENDROOT
BRANCH   1   2
ATOM      2  C   UNL     1      13.262  64.708  13.374  1.00  0.00     0.053 C 
BRANCH   2   3
ATOM      3  C   UNL     1      13.429  63.638  12.341  1.00  0.00     0.041 C 
ATOM      4  O   UNL     1      13.338  62.425  12.665  1.00  0.00    -0.550 OA
ATOM      5  O   UNL     1      13.637  63.982  11.012  1.00  0.00    -0.550 OA
ENDBRANCH   2   3
ENDBRANCH   1   2
BRANCH   1   6
ATOM      6  C   UNL     1      14.828  65.554  15.166  1.00  0.00     0.000 C 
BRANCH   6   7
ATOM      7  C   UNL     1      13.983  64.554  15.961  1.00  0.00    -0.000 C 
BRANCH   7   8
ATOM      8  C   UNL     1      14.198  64.727  17.469  1.00  0.00    -0.003 C 
ATOM      9  C   UNL     1      15.661  64.515  17.845  1.00  0.00     0.004 C 
ENDBRANCH   7   8
ENDBRANCH   6   7
ENDBRANCH   1   6
TORSDOF 5
ENDMDL
MODEL 6
REMARK VINA RESULT:    -2.596     14.483     15.227
REMARK INTER + INTRA:          -3.564
REMARK INTER:                  -3.422
REMARK INTRA:                  -0.142
REMARK UNBOUND:                -0.208
REMARK SMILES CCCCCCC(=O)[O-]
REMARK SMILES IDX 5 1 6 2 7 3 8 4 9 5 4 6 3 7 2 8 1 9
REMARK H PARENT
REMARK Flexibility Score: inf
ROOT
ATOM      1  C   UNL     1      32.028  63.840  17.448  1.00  0.00     0.006 C 
ENDROOT
BRANCH   1   2
ATOM      2  C   UNL     1      32.722  62.944  16.420  1.00  0.00     0.053 C 
BRANCH   2   3
ATOM      3  C   UNL     1      32.205  63.225  15.044  1.00  0.00     0.041 C 
ATOM      4  O   UNL     1      32.997  63.268  14.067  1.00  0.00    -0.550 OA
ATOM      5  O   UNL     1      30.842  63.391  14.834  1.00  0.00    -0.550 OA
ENDBRANCH   2   3
ENDBRANCH   1   2
BRANCH   1   6
ATOM      6  C   UNL     1      32.796  63.854  18.775  1.00  0.00     0.000 C 
BRANCH   6   7
ATOM      7  C   UNL     1      32.101  62.977  19.823  1.00  0.00    -0.000 C 
BRANCH   7   8
ATOM      8  C   UNL     1      32.820  61.631  19.979  1.00  0.00    -0.003 C 
ATOM      9  C   UNL     1      32.242  60.829  21.140  1.00  0.00     0.004 C 
ENDBRANCH   7   8
ENDBRANCH   6   7
ENDBRANCH   1   6
TORSDOF 5
ENDMDL
MODEL 7
REMARK VINA RESULT:    -2.542     15.055     15.856
REMARK INTER + INTRA:          -3.494
REMARK INTER:                  -3.345
REMARK INTRA:                  -0.149
REMARK UNBOUND:                -0.208
REMARK SMILES CCCCCCC(=O)[O-]
REMARK SMILES IDX 5 1 6 2 7 3 8 4 9 5 4 6 3 7 2 8 1 9
REMARK H PARENT
REMARK Flexibility Score: inf
ROOT
ATOM      1  C   UNL     1      32.866  62.949  19.032  1.00  0.00     0.006 C 
ENDROOT
BRANCH   1   2
ATOM      2  C   UNL     1      32.374  62.817  20.475  1.00  0.00     0.053 C 
BRANCH   2   3
ATOM      3  C   UNL     1      32.682  61.454  21.012  1.00  0.00     0.041 C 
ATOM      4  O   UNL     1      32.791  61.273  22.253  1.00  0.00    -0.550 OA
ATOM      5  O   UNL     1      32.799  60.376  20.145  1.00  0.00    -0.550 OA
ENDBRANCH   2   3
ENDBRANCH   1   2
BRANCH   1   6
ATOM      6  C   UNL     1      32.571  64.347  18.475  1.00  0.00     0.000 C 
BRANCH   6   7
ATOM      7  C   UNL     1      31.945  64.264  17.078  1.00  0.00    -0.000 C 
BRANCH   7   8
ATOM      8  C   UNL     1      32.571  63.127  16.262  1.00  0.00    -0.003 C 
ATOM      9  C   UNL     1      32.012  63.097  14.842  1.00  0.00     0.004 C 
ENDBRANCH   7   8
ENDBRANCH   6   7
ENDBRANCH   1   6
TORSDOF 5
ENDMDL
MODEL 8
REMARK VINA RESULT:    -2.540      3.863      5.168
REMARK INTER + INTRA:          -3.490
REMARK INTER:                  -3.315
REMARK INTRA:                  -0.175
REMARK UNBOUND:                -0.208
REMARK SMILES CCCCCCC(=O)[O-]
REMARK SMILES IDX 5 1 6 2 7 3 8 4 9 5 4 6 3 7 2 8 1 9
REMARK H PARENT
REMARK Flexibility Score: inf
ROOT
ATOM      1  C   UNL     1      13.637  64.497  15.099  1.00  0.00     0.006 C 
ENDROOT
BRANCH   1   2
ATOM      2  C   UNL     1      13.993  64.500  16.588  1.00  0.00     0.053 C 
BRANCH   2   3
ATOM      3  C   UNL     1      15.346  65.102  16.802  1.00  0.00     0.041 C 
ATOM      4  O   UNL     1      16.090  64.674  17.723  1.00  0.00    -0.550 OA
ATOM      5  O   UNL     1      15.805  66.101  15.954  1.00  0.00    -0.550 OA
ENDBRANCH   2   3
ENDBRANCH   1   2
BRANCH   1   6
ATOM      6  C   UNL     1      13.035  63.151  14.679  1.00  0.00     0.000 C 
BRANCH   6   7
ATOM      7  C   UNL     1      13.111  62.963  13.159  1.00  0.00    -0.000 C 
BRANCH   7   8
ATOM      8  C   UNL     1      13.967  64.058  12.512  1.00  0.00    -0.003 C 
ATOM      9  C   UNL     1      13.525  64.325  11.076  1.00  0.00     0.004 C 
ENDBRANCH   7   8
ENDBRANCH   6   7
ENDBRANCH   1   6
TORSDOF 5
ENDMDL
