MODEL 1
REMARK VINA RESULT:    -4.420      0.000      0.000
REMARK INTER + INTRA:          -7.911
REMARK INTER:                  -6.746
REMARK INTRA:                  -1.165
REMARK UNBOUND:                -1.165
REMARK SMILES CCCCCCCCCCC(=O)[O-]
REMARK SMILES IDX 7 1 8 2 9 3 10 4 11 5 12 6 13 7 6 8 5 9 4 10 3 11 2 12 1 13
REMARK H PARENT
REMARK Flexibility Score: inf
ROOT
ATOM      1  C   UNL     1     119.266 178.016 124.405  1.00  0.00     0.000 C 
ENDROOT
BRANCH   1   2
ATOM      2  C   UNL     1     118.814 179.132 125.370  1.00  0.00     0.000 C 
BRANCH   2   3
ATOM      3  C   UNL     1     118.219 178.644 126.702  1.00  0.00     0.006 C 
BRANCH   3   4
ATOM      4  C   UNL     1     116.752 179.050 126.886  1.00  0.00     0.053 C 
BRANCH   4   5
ATOM      5  C   UNL     1     115.852 177.877 126.658  1.00  0.00     0.041 C 
ATOM      6  O   UNL     1     115.285 177.314 127.630  1.00  0.00    -0.550 OA
ATOM      7  O   UNL     1     115.600 177.436 125.365  1.00  0.00    -0.550 OA
ENDBRANCH   4   5
ENDBRANCH   3   4
ENDBRANCH   2   3
ENDBRANCH   1   2
BRANCH   1   8
ATOM      8  C   UNL     1     119.284 176.600 125.008  1.00  0.00     0.000 C 
BRANCH   8   9
ATOM      9  C   UNL     1     120.689 176.027 125.273  1.00  0.00    -0.000 C 
BRANCH   9  10
ATOM     10  C   UNL     1     121.833 176.993 124.894  1.00  0.00    -0.000 C 
BRANCH  10  11
ATOM     11  C   UNL     1     122.695 177.384 126.108  1.00  0.00    -0.000 C 
BRANCH  11  12
ATOM     12  C   UNL     1     122.114 178.575 126.886  1.00  0.00    -0.003 C 
ATOM     13  C   UNL     1     121.740 178.218 128.324  1.00  0.00     0.004 C 
ENDBRANCH  11  12
ENDBRANCH  10  11
ENDBRANCH   9  10
ENDBRANCH   8   9
ENDBRANCH   1   8
TORSDOF 9
ENDMDL
MODEL 2
REMARK VINA RESULT:    -4.354      1.581      2.639
REMARK INTER + INTRA:          -7.810
REMARK INTER:                  -6.711
REMARK INTRA:                  -1.099
REMARK UNBOUND:                -1.165
REMARK SMILES CCCCCCCCCCC(=O)[O-]
REMARK SMILES IDX 7 1 8 2 9 3 10 4 11 5 12 6 13 7 6 8 5 9 4 10 3 11 2 12 1 13
REMARK H PARENT
REMARK Flexibility Score: inf
ROOT
ATOM      1  C   UNL     1     120.141 177.891 125.367  1.00  0.00     0.000 C 
ENDROOT
BRANCH   1   2
ATOM      2  C   UNL     1     119.300 179.075 125.885  1.00  0.00     0.000 C 
BRANCH   2   3
ATOM      3  C   UNL     1     117.776 178.859 125.853  1.00  0.00     0.006 C 
BRANCH   3   4
ATOM      4  C   UNL     1     117.369 177.592 125.091  1.00  0.00     0.053 C 
BRANCH   4   5
ATOM      5  C   UNL     1     115.878 177.474 125.033  1.00  0.00     0.041 C 
ATOM      6  O   UNL     1     115.234 177.086 126.042  1.00  0.00    -0.550 OA
ATOM      7  O   UNL     1     115.197 177.841 123.880  1.00  0.00    -0.550 OA
ENDBRANCH   4   5
ENDBRANCH   3   4
ENDBRANCH   2   3
ENDBRANCH   1   2
BRANCH   1   8
ATOM      8  C   UNL     1     121.293 177.454 126.290  1.00  0.00     0.000 C 
BRANCH   8   9
ATOM      9  C   UNL     1     121.959 178.599 127.078  1.00  0.00    -0.000 C 
BRANCH   9  10
ATOM     10  C   UNL     1     121.770 178.490 128.607  1.00  0.00    -0.000 C 
BRANCH  10  11
ATOM     11  C   UNL     1     120.847 177.324 129.002  1.00  0.00    -0.000 C 
BRANCH  11  12
ATOM     12  C   UNL     1     119.457 177.800 129.453  1.00  0.00    -0.003 C 
ATOM     13  C   UNL     1     118.329 176.901 128.947  1.00  0.00     0.004 C 
ENDBRANCH  11  12
ENDBRANCH  10  11
ENDBRANCH   9  10
ENDBRANCH   8   9
ENDBRANCH   1   8
TORSDOF 9
ENDMDL
MODEL 3
REMARK VINA RESULT:    -4.353      1.848      3.386
REMARK INTER + INTRA:          -7.809
REMARK INTER:                  -6.945
REMARK INTRA:                  -0.864
REMARK UNBOUND:                -1.165
REMARK SMILES CCCCCCCCCCC(=O)[O-]
REMARK SMILES IDX 7 1 8 2 9 3 10 4 11 5 12 6 13 7 6 8 5 9 4 10 3 11 2 12 1 13
REMARK H PARENT
REMARK Flexibility Score: inf
ROOT
ATOM      1  C   UNL     1     118.372 177.428 127.746  1.00  0.00     0.000 C 
ENDROOT
BRANCH   1   2
ATOM      2  C   UNL     1     117.216 178.376 127.365  1.00  0.00     0.000 C 
BRANCH   2   3
ATOM      3  C   UNL     1     117.490 179.290 126.157  1.00  0.00     0.006 C 
BRANCH   3   4
ATOM      4  C   UNL     1     118.868 179.050 125.527  1.00  0.00     0.053 C 
BRANCH   4   5
ATOM      5  C   UNL     1     118.736 178.246 124.272  1.00  0.00     0.041 C 
ATOM      6  O   UNL     1     117.599 177.900 123.858  1.00  0.00    -0.550 OA
ATOM      7  O   UNL     1     119.866 177.923 123.532  1.00  0.00    -0.550 OA
ENDBRANCH   4   5
ENDBRANCH   3   4
ENDBRANCH   2   3
ENDBRANCH   1   2
BRANCH   1   8
ATOM      8  C   UNL     1     119.212 177.875 128.956  1.00  0.00     0.000 C 
BRANCH   8   9
ATOM      9  C   UNL     1     120.618 177.250 129.033  1.00  0.00    -0.000 C 
BRANCH   9  10
ATOM     10  C   UNL     1     121.762 178.275 128.865  1.00  0.00    -0.000 C 
BRANCH  10  11
ATOM     11  C   UNL     1     122.022 178.626 127.390  1.00  0.00    -0.000 C 
BRANCH  11  12
ATOM     12  C   UNL     1     122.005 177.389 126.477  1.00  0.00    -0.003 C 
ATOM     13  C   UNL     1     123.213 177.325 125.543  1.00  0.00     0.004 C 
ENDBRANCH  11  12
ENDBRANCH  10  11
ENDBRANCH   9  10
ENDBRANCH   8   9
ENDBRANCH   1   8
TORSDOF 9
ENDMDL
MODEL 4
REMARK VINA RESULT:    -4.324      3.024      4.377
REMARK INTER + INTRA:          -7.764
REMARK INTER:                  -6.451
REMARK INTRA:                  -1.314
REMARK UNBOUND:                -1.165
REMARK SMILES CCCCCCCCCCC(=O)[O-]
REMARK SMILES IDX 7 1 8 2 9 3 10 4 11 5 12 6 13 7 6 8 5 9 4 10 3 11 2 12 1 13
REMARK H PARENT
REMARK Flexibility Score: inf
ROOT
ATOM      1  C   UNL     1     117.180 174.973 129.065  1.00  0.00     0.000 C 
ENDROOT
BRANCH   1   2
ATOM      2  C   UNL     1     116.007 175.973 129.130  1.00  0.00     0.000 C 
BRANCH   2   3
ATOM      3  C   UNL     1     115.750 176.764 127.835  1.00  0.00     0.006 C 
BRANCH   3   4
ATOM      4  C   UNL     1     116.373 176.105 126.598  1.00  0.00     0.053 C 
BRANCH   4   5
ATOM      5  C   UNL     1     116.387 177.061 125.447  1.00  0.00     0.041 C 
ATOM      6  O   UNL     1     115.306 177.451 124.934  1.00  0.00    -0.550 OA
ATOM      7  O   UNL     1     117.594 177.561 124.975  1.00  0.00    -0.550 OA
ENDBRANCH   4   5
ENDBRANCH   3   4
ENDBRANCH   2   3
ENDBRANCH   1   2
BRANCH   1   8
ATOM      8  C   UNL     1     117.865 174.682 130.412  1.00  0.00     0.000 C 
BRANCH   8   9
ATOM      9  C   UNL     1     118.505 175.908 131.091  1.00  0.00    -0.000 C 
BRANCH   9  10
ATOM     10  C   UNL     1     119.668 176.526 130.283  1.00  0.00    -0.000 C 
BRANCH  10  11
ATOM     11  C   UNL     1     119.322 177.920 129.730  1.00  0.00    -0.000 C 
BRANCH  11  12
ATOM     12  C   UNL     1     119.277 177.951 128.195  1.00  0.00    -0.003 C 
ATOM     13  C   UNL     1     120.008 176.771 127.556  1.00  0.00     0.004 C 
ENDBRANCH  11  12
ENDBRANCH  10  11
ENDBRANCH   9  10
ENDBRANCH   8   9
ENDBRANCH   1   8
TORSDOF 9
ENDMDL
MODEL 5
REMARK VINA RESULT:    -4.291      1.418      3.138
REMARK INTER + INTRA:          -7.713
REMARK INTER:                  -6.357
REMARK INTRA:                  -1.356
REMARK UNBOUND:                -1.165
REMARK SMILES CCCCCCCCCCC(=O)[O-]
REMARK SMILES IDX 7 1 8 2 9 3 10 4 11 5 12 6 13 7 6 8 5 9 4 10 3 11 2 12 1 13
REMARK H PARENT
REMARK Flexibility Score: inf
ROOT
ATOM      1  C   UNL     1     119.768 177.872 129.073  1.00  0.00     0.000 C 
ENDROOT
BRANCH   1   2
ATOM      2  C   UNL     1     118.756 177.378 128.018  1.00  0.00     0.000 C 
BRANCH   2   3
ATOM      3  C   UNL     1     117.933 178.483 127.333  1.00  0.00     0.006 C 
BRANCH   3   4
ATOM      4  C   UNL     1     118.438 178.818 125.924  1.00  0.00     0.053 C 
BRANCH   4   5
ATOM      5  C   UNL     1     117.602 178.128 124.892  1.00  0.00     0.041 C 
ATOM      6  O   UNL     1     116.399 177.849 125.134  1.00  0.00    -0.550 OA
ATOM      7  O   UNL     1     118.138 177.840 123.644  1.00  0.00    -0.550 OA
ENDBRANCH   4   5
ENDBRANCH   3   4
ENDBRANCH   2   3
ENDBRANCH   1   2
BRANCH   1   8
ATOM      8  C   UNL     1     121.248 177.680 128.699  1.00  0.00     0.000 C 
BRANCH   8   9
ATOM      9  C   UNL     1     121.830 178.774 127.783  1.00  0.00    -0.000 C 
BRANCH   9  10
ATOM     10  C   UNL     1     122.425 178.227 126.466  1.00  0.00    -0.000 C 
BRANCH  10  11
ATOM     11  C   UNL     1     122.058 176.751 126.226  1.00  0.00    -0.000 C 
BRANCH  11  12
ATOM     12  C   UNL     1     121.148 176.561 125.003  1.00  0.00    -0.003 C 
ATOM     13  C   UNL     1     120.181 175.388 125.160  1.00  0.00     0.004 C 
ENDBRANCH  11  12
ENDBRANCH  10  11
ENDBRANCH   9  10
ENDBRANCH   8   9
ENDBRANCH   1   8
TORSDOF 9
ENDMDL
MODEL 6
REMARK VINA RESULT:    -4.256      1.514      2.791
REMARK INTER + INTRA:          -7.661
REMARK INTER:                  -6.977
REMARK INTRA:                  -0.684
REMARK UNBOUND:                -1.165
REMARK SMILES CCCCCCCCCCC(=O)[O-]
REMARK SMILES IDX 7 1 8 2 9 3 10 4 11 5 12 6 13 7 6 8 5 9 4 10 3 11 2 12 1 13
REMARK H PARENT
REMARK Flexibility Score: inf
ROOT
ATOM      1  C   UNL     1     119.024 177.913 128.900  1.00  0.00     0.000 C 
ENDROOT
BRANCH   1   2
ATOM      2  C   UNL     1     118.045 177.675 127.731  1.00  0.00     0.000 C 
BRANCH   2   3
ATOM      3  C   UNL     1     117.937 178.832 126.723  1.00  0.00     0.006 C 
BRANCH   3   4
ATOM      4  C   UNL     1     116.519 179.410 126.625  1.00  0.00     0.053 C 
BRANCH   4   5
ATOM      5  C   UNL     1     115.583 178.401 126.037  1.00  0.00     0.041 C 
ATOM      6  O   UNL     1     114.554 178.046 126.669  1.00  0.00    -0.550 OA
ATOM      7  O   UNL     1     115.822 177.889 124.768  1.00  0.00    -0.550 OA
ENDBRANCH   4   5
ENDBRANCH   3   4
ENDBRANCH   2   3
ENDBRANCH   1   2
BRANCH   1   8
ATOM      8  C   UNL     1     120.416 177.281 128.725  1.00  0.00     0.000 C 
BRANCH   8   9
ATOM      9  C   UNL     1     121.594 178.267 128.846  1.00  0.00    -0.000 C 
BRANCH   9  10
ATOM     10  C   UNL     1     122.076 178.825 127.489  1.00  0.00    -0.000 C 
BRANCH  10  11
ATOM     11  C   UNL     1     121.663 177.929 126.307  1.00  0.00    -0.000 C 
BRANCH  11  12
ATOM     12  C   UNL     1     122.868 177.269 125.618  1.00  0.00    -0.003 C 
ATOM     13  C   UNL     1     122.498 176.587 124.301  1.00  0.00     0.004 C 
ENDBRANCH  11  12
ENDBRANCH  10  11
ENDBRANCH   9  10
ENDBRANCH   8   9
ENDBRANCH   1   8
TORSDOF 9
ENDMDL
MODEL 7
REMARK VINA RESULT:    -4.220      1.929      3.652
REMARK INTER + INTRA:          -7.606
REMARK INTER:                  -6.353
REMARK INTRA:                  -1.253
REMARK UNBOUND:                -1.165
REMARK SMILES CCCCCCCCCCC(=O)[O-]
REMARK SMILES IDX 7 1 8 2 9 3 10 4 11 5 12 6 13 7 6 8 5 9 4 10 3 11 2 12 1 13
REMARK H PARENT
REMARK Flexibility Score: inf
ROOT
ATOM      1  C   UNL     1     117.182 176.275 128.391  1.00  0.00     0.000 C 
ENDROOT
BRANCH   1   2
ATOM      2  C   UNL     1     116.786 175.494 127.120  1.00  0.00     0.000 C 
BRANCH   2   3
ATOM      3  C   UNL     1     115.846 176.243 126.159  1.00  0.00     0.006 C 
BRANCH   3   4
ATOM      4  C   UNL     1     115.229 177.500 126.785  1.00  0.00     0.053 C 
BRANCH   4   5
ATOM      5  C   UNL     1     115.285 178.644 125.823  1.00  0.00     0.041 C 
ATOM      6  O   UNL     1     115.787 179.744 126.174  1.00  0.00    -0.550 OA
ATOM      7  O   UNL     1     114.829 178.480 124.521  1.00  0.00    -0.550 OA
ENDBRANCH   4   5
ENDBRANCH   3   4
ENDBRANCH   2   3
ENDBRANCH   1   2
BRANCH   1   8
ATOM      8  C   UNL     1     118.696 176.440 128.611  1.00  0.00     0.000 C 
BRANCH   8   9
ATOM      9  C   UNL     1     119.206 177.892 128.537  1.00  0.00    -0.000 C 
BRANCH   9  10
ATOM     10  C   UNL     1     119.995 178.206 127.246  1.00  0.00    -0.000 C 
BRANCH  10  11
ATOM     11  C   UNL     1     119.071 178.536 126.061  1.00  0.00    -0.000 C 
BRANCH  11  12
ATOM     12  C   UNL     1     119.153 177.489 124.939  1.00  0.00    -0.003 C 
ATOM     13  C   UNL     1     118.429 177.926 123.666  1.00  0.00     0.004 C 
ENDBRANCH  11  12
ENDBRANCH  10  11
ENDBRANCH   9  10
ENDBRANCH   8   9
ENDBRANCH   1   8
TORSDOF 9
ENDMDL
MODEL 8
REMARK VINA RESULT:    -4.210      1.419      3.124
REMARK INTER + INTRA:          -7.590
REMARK INTER:                  -6.338
REMARK INTRA:                  -1.253
REMARK UNBOUND:                -1.165
REMARK SMILES CCCCCCCCCCC(=O)[O-]
REMARK SMILES IDX 7 1 8 2 9 3 10 4 11 5 12 6 13 7 6 8 5 9 4 10 3 11 2 12 1 13
REMARK H PARENT
REMARK Flexibility Score: inf
ROOT
ATOM      1  C   UNL     1     120.443 177.259 128.717  1.00  0.00     0.000 C 
ENDROOT
BRANCH   1   2
ATOM      2  C   UNL     1     119.048 177.897 128.885  1.00  0.00     0.000 C 
BRANCH   2   3
ATOM      3  C   UNL     1     118.299 178.185 127.572  1.00  0.00     0.006 C 
BRANCH   3   4
ATOM      4  C   UNL     1     117.672 176.929 126.954  1.00  0.00     0.053 C 
BRANCH   4   5
ATOM      5  C   UNL     1     116.935 177.277 125.699  1.00  0.00     0.041 C 
ATOM      6  O   UNL     1     117.465 178.028 124.840  1.00  0.00    -0.550 OA
ATOM      7  O   UNL     1     115.682 176.729 125.455  1.00  0.00    -0.550 OA
ENDBRANCH   4   5
ENDBRANCH   3   4
ENDBRANCH   2   3
ENDBRANCH   1   2
BRANCH   1   8
ATOM      8  C   UNL     1     121.607 178.258 128.587  1.00  0.00     0.000 C 
BRANCH   8   9
ATOM      9  C   UNL     1     121.976 178.635 127.139  1.00  0.00    -0.000 C 
BRANCH   9  10
ATOM     10  C   UNL     1     122.086 177.420 126.192  1.00  0.00    -0.000 C 
BRANCH  10  11
ATOM     11  C   UNL     1     121.008 177.435 125.094  1.00  0.00    -0.000 C 
BRANCH  11  12
ATOM     12  C   UNL     1     120.471 176.030 124.776  1.00  0.00    -0.003 C 
ATOM     13  C   UNL     1     120.966 174.969 125.759  1.00  0.00     0.004 C 
ENDBRANCH  11  12
ENDBRANCH  10  11
ENDBRANCH   9  10
ENDBRANCH   8   9
ENDBRANCH   1   8
TORSDOF 9
ENDMDL
MODEL 9
REMARK VINA RESULT:    -4.195      1.639      3.272
REMARK INTER + INTRA:          -7.567
REMARK INTER:                  -6.294
REMARK INTRA:                  -1.273
REMARK UNBOUND:                -1.165
REMARK SMILES CCCCCCCCCCC(=O)[O-]
REMARK SMILES IDX 7 1 8 2 9 3 10 4 11 5 12 6 13 7 6 8 5 9 4 10 3 11 2 12 1 13
REMARK H PARENT
REMARK Flexibility Score: inf
ROOT
ATOM      1  C   UNL     1     121.432 177.940 128.365  1.00  0.00     0.000 C 
ENDROOT
BRANCH   1   2
ATOM      2  C   UNL     1     120.080 177.213 128.520  1.00  0.00     0.000 C 
BRANCH   2   3
ATOM      3  C   UNL     1     118.839 178.121 128.462  1.00  0.00     0.006 C 
BRANCH   3   4
ATOM      4  C   UNL     1     117.933 177.818 127.262  1.00  0.00     0.053 C 
BRANCH   4   5
ATOM      5  C   UNL     1     117.703 179.057 126.456  1.00  0.00     0.041 C 
ATOM      6  O   UNL     1     118.554 179.428 125.606  1.00  0.00    -0.550 OA
ATOM      7  O   UNL     1     116.524 179.775 126.607  1.00  0.00    -0.550 OA
ENDBRANCH   4   5
ENDBRANCH   3   4
ENDBRANCH   2   3
ENDBRANCH   1   2
BRANCH   1   8
ATOM      8  C   UNL     1     121.678 178.575 126.985  1.00  0.00     0.000 C 
BRANCH   8   9
ATOM      9  C   UNL     1     122.804 177.920 126.163  1.00  0.00    -0.000 C 
BRANCH   9  10
ATOM     10  C   UNL     1     122.364 176.642 125.415  1.00  0.00    -0.000 C 
BRANCH  10  11
ATOM     11  C   UNL     1     121.010 176.817 124.704  1.00  0.00    -0.000 C 
BRANCH  11  12
ATOM     12  C   UNL     1     120.008 175.709 125.063  1.00  0.00    -0.003 C 
ATOM     13  C   UNL     1     120.643 174.569 125.858  1.00  0.00     0.004 C 
ENDBRANCH  11  12
ENDBRANCH  10  11
ENDBRANCH   9  10
ENDBRANCH   8   9
ENDBRANCH   1   8
TORSDOF 9
ENDMDL
