MODEL 1
REMARK VINA RESULT:    -3.078      0.000      0.000
REMARK INTER + INTRA:          -4.933
REMARK INTER:                  -4.517
REMARK INTRA:                  -0.416
REMARK UNBOUND:                -0.416
REMARK SMILES O=C([O-])CCCCCCCC(=O)[O-]
REMARK SMILES IDX 7 1 6 2 5 3 4 4 2 5 1 6 3 7 8 8 9 9 10 10 11 11 12 12 13 13
REMARK H PARENT
REMARK Flexibility Score: inf
ROOT
ATOM      1  C   UNL     1       7.117 -21.537  17.403  1.00  0.00     0.000 C 
ENDROOT
BRANCH   1   2
ATOM      2  C   UNL     1       7.978 -22.521  16.596  1.00  0.00     0.000 C 
BRANCH   2   3
ATOM      3  C   UNL     1       8.926 -21.812  15.613  1.00  0.00     0.006 C 
BRANCH   3   4
ATOM      4  C   UNL     1       8.365 -21.785  14.185  1.00  0.00     0.053 C 
BRANCH   4   5
ATOM      5  C   UNL     1       8.656 -20.488  13.495  1.00  0.00     0.041 C 
ATOM      6  O   UNL     1       8.514 -20.388  12.247  1.00  0.00    -0.550 OA
ATOM      7  O   UNL     1       9.113 -19.398  14.225  1.00  0.00    -0.550 OA
ENDBRANCH   4   5
ENDBRANCH   3   4
ENDBRANCH   2   3
ENDBRANCH   1   2
BRANCH   1   8
ATOM      8  C   UNL     1       5.647 -21.974  17.496  1.00  0.00     0.000 C 
BRANCH   8   9
ATOM      9  C   UNL     1       5.215 -22.717  16.222  1.00  0.00     0.006 C 
BRANCH   9  10
ATOM     10  C   UNL     1       3.698 -22.941  16.165  1.00  0.00     0.053 C 
BRANCH  10  11
ATOM     11  C   UNL     1       3.187 -22.929  14.758  1.00  0.00     0.041 C 
ATOM     12  O   UNL     1       1.949 -22.996  14.532  1.00  0.00    -0.550 OA
ATOM     13  O   UNL     1       4.074 -22.811  13.694  1.00  0.00    -0.550 OA
ENDBRANCH  10  11
ENDBRANCH   9  10
ENDBRANCH   8   9
ENDBRANCH   1   8
TORSDOF 8
ENDMDL
MODEL 2
REMARK VINA RESULT:    -2.623     11.970     14.887
REMARK INTER + INTRA:          -4.266
REMARK INTER:                  -3.812
REMARK INTRA:                  -0.454
REMARK UNBOUND:                -0.416
REMARK SMILES O=C([O-])CCCCCCCC(=O)[O-]
REMARK SMILES IDX 7 1 6 2 5 3 4 4 2 5 1 6 3 7 8 8 9 9 10 10 11 11 12 12 13 13
REMARK H PARENT
REMARK Flexibility Score: inf
ROOT
ATOM      1  C   UNL     1      -8.899 -21.604  19.202  1.00  0.00     0.000 C 
ENDROOT
BRANCH   1   2
ATOM      2  C   UNL     1      -8.341 -22.954  18.727  1.00  0.00     0.000 C 
BRANCH   2   3
ATOM      3  C   UNL     1      -6.866 -22.868  18.297  1.00  0.00     0.006 C 
BRANCH   3   4
ATOM      4  C   UNL     1      -6.713 -22.736  16.776  1.00  0.00     0.053 C 
BRANCH   4   5
ATOM      5  C   UNL     1      -5.454 -22.018  16.401  1.00  0.00     0.041 C 
ATOM      6  O   UNL     1      -5.487 -21.071  15.571  1.00  0.00    -0.550 OA
ATOM      7  O   UNL     1      -4.238 -22.413  16.945  1.00  0.00    -0.550 OA
ENDBRANCH   4   5
ENDBRANCH   3   4
ENDBRANCH   2   3
ENDBRANCH   1   2
BRANCH   1   8
ATOM      8  C   UNL     1     -10.397 -21.441  18.896  1.00  0.00     0.000 C 
BRANCH   8   9
ATOM      9  C   UNL     1     -10.607 -20.659  17.590  1.00  0.00     0.006 C 
BRANCH   9  10
ATOM     10  C   UNL     1     -10.521 -21.562  16.352  1.00  0.00     0.053 C 
BRANCH  10  11
ATOM     11  C   UNL     1     -10.095 -20.798  15.136  1.00  0.00     0.041 C 
ATOM     12  O   UNL     1     -10.952 -20.205  14.428  1.00  0.00    -0.550 OA
ATOM     13  O   UNL     1      -8.749 -20.714  14.802  1.00  0.00    -0.550 OA
ENDBRANCH  10  11
ENDBRANCH   9  10
ENDBRANCH   8   9
ENDBRANCH   1   8
TORSDOF 8
ENDMDL
MODEL 3
REMARK VINA RESULT:    -2.580     15.685     17.217
REMARK INTER + INTRA:          -4.203
REMARK INTER:                  -3.693
REMARK INTRA:                  -0.511
REMARK UNBOUND:                -0.416
REMARK SMILES O=C([O-])CCCCCCCC(=O)[O-]
REMARK SMILES IDX 7 1 6 2 5 3 4 4 2 5 1 6 3 7 8 8 9 9 10 10 11 11 12 12 13 13
REMARK H PARENT
REMARK Flexibility Score: inf
ROOT
ATOM      1  C   UNL     1      -8.778 -21.642  18.973  1.00  0.00     0.000 C 
ENDROOT
BRANCH   1   2
ATOM      2  C   UNL     1      -8.801 -22.682  20.104  1.00  0.00     0.000 C 
BRANCH   2   3
ATOM      3  C   UNL     1     -10.151 -22.729  20.840  1.00  0.00     0.006 C 
BRANCH   3   4
ATOM      4  C   UNL     1      -9.980 -22.721  22.364  1.00  0.00     0.053 C 
BRANCH   4   5
ATOM      5  C   UNL     1      -9.257 -21.498  22.838  1.00  0.00     0.041 C 
ATOM      6  O   UNL     1      -8.174 -21.608  23.472  1.00  0.00    -0.550 OA
ATOM      7  O   UNL     1      -9.794 -20.238  22.607  1.00  0.00    -0.550 OA
ENDBRANCH   4   5
ENDBRANCH   3   4
ENDBRANCH   2   3
ENDBRANCH   1   2
BRANCH   1   8
ATOM      8  C   UNL     1     -10.103 -20.873  18.849  1.00  0.00     0.000 C 
BRANCH   8   9
ATOM      9  C   UNL     1     -10.829 -21.239  17.546  1.00  0.00     0.006 C 
BRANCH   9  10
ATOM     10  C   UNL     1     -10.848 -20.077  16.544  1.00  0.00     0.053 C 
BRANCH  10  11
ATOM     11  C   UNL     1     -10.222 -20.457  15.238  1.00  0.00     0.041 C 
ATOM     12  O   UNL     1     -10.884 -20.374  14.170  1.00  0.00    -0.550 OA
ATOM     13  O   UNL     1      -8.896 -20.872  15.195  1.00  0.00    -0.550 OA
ENDBRANCH  10  11
ENDBRANCH   9  10
ENDBRANCH   8   9
ENDBRANCH   1   8
TORSDOF 8
ENDMDL
MODEL 4
REMARK VINA RESULT:    -2.577     12.545     15.596
REMARK INTER + INTRA:          -4.199
REMARK INTER:                  -3.915
REMARK INTRA:                  -0.284
REMARK UNBOUND:                -0.416
REMARK SMILES O=C([O-])CCCCCCCC(=O)[O-]
REMARK SMILES IDX 7 1 6 2 5 3 4 4 2 5 1 6 3 7 8 8 9 9 10 10 11 11 12 12 13 13
REMARK H PARENT
REMARK Flexibility Score: inf
ROOT
ATOM      1  C   UNL     1      -9.420 -21.303  18.947  1.00  0.00     0.000 C 
ENDROOT
BRANCH   1   2
ATOM      2  C   UNL     1      -8.827 -22.241  17.883  1.00  0.00     0.000 C 
BRANCH   2   3
ATOM      3  C   UNL     1      -7.306 -22.422  18.034  1.00  0.00     0.006 C 
BRANCH   3   4
ATOM      4  C   UNL     1      -6.646 -22.885  16.729  1.00  0.00     0.053 C 
BRANCH   4   5
ATOM      5  C   UNL     1      -5.405 -22.104  16.423  1.00  0.00     0.041 C 
ATOM      6  O   UNL     1      -4.315 -22.402  16.980  1.00  0.00    -0.550 OA
ATOM      7  O   UNL     1      -5.458 -21.027  15.548  1.00  0.00    -0.550 OA
ENDBRANCH   4   5
ENDBRANCH   3   4
ENDBRANCH   2   3
ENDBRANCH   1   2
BRANCH   1   8
ATOM      8  C   UNL     1     -10.098 -22.065  20.096  1.00  0.00     0.000 C 
BRANCH   8   9
ATOM      9  C   UNL     1     -10.832 -21.097  21.037  1.00  0.00     0.006 C 
BRANCH   9  10
ATOM     10  C   UNL     1      -9.884 -20.443  22.051  1.00  0.00     0.053 C 
BRANCH  10  11
ATOM     11  C   UNL     1      -9.391 -21.427  23.066  1.00  0.00     0.041 C 
ATOM     12  O   UNL     1      -8.154 -21.585  23.247  1.00  0.00    -0.550 OA
ATOM     13  O   UNL     1     -10.296 -22.148  23.836  1.00  0.00    -0.550 OA
ENDBRANCH  10  11
ENDBRANCH   9  10
ENDBRANCH   8   9
ENDBRANCH   1   8
TORSDOF 8
ENDMDL
MODEL 5
REMARK VINA RESULT:    -2.544     12.474     16.177
REMARK INTER + INTRA:          -4.149
REMARK INTER:                  -3.760
REMARK INTRA:                  -0.389
REMARK UNBOUND:                -0.416
REMARK SMILES O=C([O-])CCCCCCCC(=O)[O-]
REMARK SMILES IDX 7 1 6 2 5 3 4 4 2 5 1 6 3 7 8 8 9 9 10 10 11 11 12 12 13 13
REMARK H PARENT
REMARK Flexibility Score: inf
ROOT
ATOM      1  C   UNL     1      -9.662 -21.255  18.619  1.00  0.00     0.000 C 
ENDROOT
BRANCH   1   2
ATOM      2  C   UNL     1     -10.876 -21.967  19.236  1.00  0.00     0.000 C 
BRANCH   2   3
ATOM      3  C   UNL     1     -10.673 -22.305  20.723  1.00  0.00     0.006 C 
BRANCH   3   4
ATOM      4  C   UNL     1      -9.294 -21.867  21.233  1.00  0.00     0.053 C 
BRANCH   4   5
ATOM      5  C   UNL     1      -9.344 -21.416  22.660  1.00  0.00     0.041 C 
ATOM      6  O   UNL     1     -10.133 -20.496  23.006  1.00  0.00    -0.550 OA
ATOM      7  O   UNL     1      -8.500 -21.988  23.602  1.00  0.00    -0.550 OA
ENDBRANCH   4   5
ENDBRANCH   3   4
ENDBRANCH   2   3
ENDBRANCH   1   2
BRANCH   1   8
ATOM      8  C   UNL     1      -8.974 -22.093  17.529  1.00  0.00     0.000 C 
BRANCH   8   9
ATOM      9  C   UNL     1      -7.507 -22.367  17.894  1.00  0.00     0.006 C 
BRANCH   9  10
ATOM     10  C   UNL     1      -6.708 -22.925  16.709  1.00  0.00     0.053 C 
BRANCH  10  11
ATOM     11  C   UNL     1      -5.464 -22.131  16.455  1.00  0.00     0.041 C 
ATOM     12  O   UNL     1      -5.491 -21.141  15.677  1.00  0.00    -0.550 OA
ATOM     13  O   UNL     1      -4.280 -22.464  17.102  1.00  0.00    -0.550 OA
ENDBRANCH  10  11
ENDBRANCH   9  10
ENDBRANCH   8   9
ENDBRANCH   1   8
TORSDOF 8
ENDMDL
MODEL 6
REMARK VINA RESULT:    -2.511     15.007     16.786
REMARK INTER + INTRA:          -4.102
REMARK INTER:                  -3.695
REMARK INTRA:                  -0.407
REMARK UNBOUND:                -0.416
REMARK SMILES O=C([O-])CCCCCCCC(=O)[O-]
REMARK SMILES IDX 7 1 6 2 5 3 4 4 2 5 1 6 3 7 8 8 9 9 10 10 11 11 12 12 13 13
REMARK H PARENT
REMARK Flexibility Score: inf
ROOT
ATOM      1  C   UNL     1      -8.647 -21.978  18.795  1.00  0.00     0.000 C 
ENDROOT
BRANCH   1   2
ATOM      2  C   UNL     1      -9.360 -22.866  17.763  1.00  0.00     0.000 C 
BRANCH   2   3
ATOM      3  C   UNL     1     -10.622 -22.205  17.184  1.00  0.00     0.006 C 
BRANCH   3   4
ATOM      4  C   UNL     1     -10.375 -20.749  16.767  1.00  0.00     0.053 C 
BRANCH   4   5
ATOM      5  C   UNL     1     -10.092 -20.629  15.301  1.00  0.00     0.041 C 
ATOM      6  O   UNL     1     -11.036 -20.451  14.486  1.00  0.00    -0.550 OA
ATOM      7  O   UNL     1      -8.790 -20.745  14.831  1.00  0.00    -0.550 OA
ENDBRANCH   4   5
ENDBRANCH   3   4
ENDBRANCH   2   3
ENDBRANCH   1   2
BRANCH   1   8
ATOM      8  C   UNL     1      -7.644 -22.760  19.658  1.00  0.00     0.000 C 
BRANCH   8   9
ATOM      9  C   UNL     1      -8.181 -22.950  21.085  1.00  0.00     0.006 C 
BRANCH   9  10
ATOM     10  C   UNL     1      -9.481 -22.170  21.325  1.00  0.00     0.053 C 
BRANCH  10  11
ATOM     11  C   UNL     1      -9.459 -21.442  22.634  1.00  0.00     0.041 C 
ATOM     12  O   UNL     1      -9.307 -20.192  22.661  1.00  0.00    -0.550 OA
ATOM     13  O   UNL     1      -9.641 -22.138  23.823  1.00  0.00    -0.550 OA
ENDBRANCH  10  11
ENDBRANCH   9  10
ENDBRANCH   8   9
ENDBRANCH   1   8
TORSDOF 8
ENDMDL
MODEL 7
REMARK VINA RESULT:    -2.507     12.389     15.668
REMARK INTER + INTRA:          -4.095
REMARK INTER:                  -3.704
REMARK INTRA:                  -0.391
REMARK UNBOUND:                -0.416
REMARK SMILES O=C([O-])CCCCCCCC(=O)[O-]
REMARK SMILES IDX 7 1 6 2 5 3 4 4 2 5 1 6 3 7 8 8 9 9 10 10 11 11 12 12 13 13
REMARK H PARENT
REMARK Flexibility Score: inf
ROOT
ATOM      1  C   UNL     1      -9.691 -20.065  14.911  1.00  0.00     0.000 C 
ENDROOT
BRANCH   1   2
ATOM      2  C   UNL     1      -8.539 -21.007  14.526  1.00  0.00     0.000 C 
BRANCH   2   3
ATOM      3  C   UNL     1      -7.793 -21.562  15.751  1.00  0.00     0.006 C 
BRANCH   3   4
ATOM      4  C   UNL     1      -6.276 -21.355  15.648  1.00  0.00     0.053 C 
BRANCH   4   5
ATOM      5  C   UNL     1      -5.531 -22.175  16.656  1.00  0.00     0.041 C 
ATOM      6  O   UNL     1      -6.150 -22.734  17.600  1.00  0.00    -0.550 OA
ATOM      7  O   UNL     1      -4.150 -22.299  16.570  1.00  0.00    -0.550 OA
ENDBRANCH   4   5
ENDBRANCH   3   4
ENDBRANCH   2   3
ENDBRANCH   1   2
BRANCH   1   8
ATOM      8  C   UNL     1     -10.771 -20.763  15.751  1.00  0.00     0.000 C 
BRANCH   8   9
ATOM      9  C   UNL     1     -11.051 -19.979  17.043  1.00  0.00     0.006 C 
BRANCH   9  10
ATOM     10  C   UNL     1     -10.575 -20.730  18.293  1.00  0.00     0.053 C 
BRANCH  10  11
ATOM     11  C   UNL     1     -10.766 -19.917  19.536  1.00  0.00     0.041 C 
ATOM     12  O   UNL     1     -10.951 -18.674  19.459  1.00  0.00    -0.550 OA
ATOM     13  O   UNL     1     -10.773 -20.537  20.781  1.00  0.00    -0.550 OA
ENDBRANCH  10  11
ENDBRANCH   9  10
ENDBRANCH   8   9
ENDBRANCH   1   8
TORSDOF 8
ENDMDL
MODEL 8
REMARK VINA RESULT:    -2.467     16.620     17.474
REMARK INTER + INTRA:          -4.037
REMARK INTER:                  -3.606
REMARK INTRA:                  -0.430
REMARK UNBOUND:                -0.416
REMARK SMILES O=C([O-])CCCCCCCC(=O)[O-]
REMARK SMILES IDX 7 1 6 2 5 3 4 4 2 5 1 6 3 7 8 8 9 9 10 10 11 11 12 12 13 13
REMARK H PARENT
REMARK Flexibility Score: inf
ROOT
ATOM      1  C   UNL     1      -9.892 -20.877  19.444  1.00  0.00     0.000 C 
ENDROOT
BRANCH   1   2
ATOM      2  C   UNL     1     -10.790 -22.070  19.078  1.00  0.00     0.000 C 
BRANCH   2   3
ATOM      3  C   UNL     1     -10.898 -22.286  17.559  1.00  0.00     0.006 C 
BRANCH   3   4
ATOM      4  C   UNL     1      -9.913 -21.408  16.777  1.00  0.00     0.053 C 
BRANCH   4   5
ATOM      5  C   UNL     1     -10.616 -20.350  15.983  1.00  0.00     0.041 C 
ATOM      6  O   UNL     1     -11.125 -19.355  16.565  1.00  0.00    -0.550 OA
ATOM      7  O   UNL     1     -10.737 -20.478  14.606  1.00  0.00    -0.550 OA
ENDBRANCH   4   5
ENDBRANCH   3   4
ENDBRANCH   2   3
ENDBRANCH   1   2
BRANCH   1   8
ATOM      8  C   UNL     1     -10.419 -20.088  20.653  1.00  0.00     0.000 C 
BRANCH   8   9
ATOM      9  C   UNL     1     -10.510 -20.988  21.896  1.00  0.00     0.006 C 
BRANCH   9  10
ATOM     10  C   UNL     1      -9.261 -20.884  22.781  1.00  0.00     0.053 C 
BRANCH  10  11
ATOM     11  C   UNL     1      -8.589 -22.212  22.951  1.00  0.00     0.041 C 
ATOM     12  O   UNL     1      -8.085 -22.800  21.957  1.00  0.00    -0.550 OA
ATOM     13  O   UNL     1      -8.488 -22.786  24.213  1.00  0.00    -0.550 OA
ENDBRANCH  10  11
ENDBRANCH   9  10
ENDBRANCH   8   9
ENDBRANCH   1   8
TORSDOF 8
ENDMDL
MODEL 9
REMARK VINA RESULT:    -2.355     13.802     16.474
REMARK INTER + INTRA:          -3.872
REMARK INTER:                  -3.331
REMARK INTRA:                  -0.541
REMARK UNBOUND:                -0.416
REMARK SMILES O=C([O-])CCCCCCCC(=O)[O-]
REMARK SMILES IDX 7 1 6 2 5 3 4 4 2 5 1 6 3 7 8 8 9 9 10 10 11 11 12 12 13 13
REMARK H PARENT
REMARK Flexibility Score: inf
ROOT
ATOM      1  C   UNL     1      -9.838 -20.331  19.857  1.00  0.00     0.000 C 
ENDROOT
BRANCH   1   2
ATOM      2  C   UNL     1     -10.487 -21.392  18.956  1.00  0.00     0.000 C 
BRANCH   2   3
ATOM      3  C   UNL     1      -9.551 -22.578  18.667  1.00  0.00     0.006 C 
BRANCH   3   4
ATOM      4  C   UNL     1      -8.661 -22.328  17.443  1.00  0.00     0.053 C 
BRANCH   4   5
ATOM      5  C   UNL     1      -7.205 -22.438  17.779  1.00  0.00     0.041 C 
ATOM      6  O   UNL     1      -6.846 -22.879  18.903  1.00  0.00    -0.550 OA
ATOM      7  O   UNL     1      -6.246 -22.025  16.864  1.00  0.00    -0.550 OA
ENDBRANCH   4   5
ENDBRANCH   3   4
ENDBRANCH   2   3
ENDBRANCH   1   2
BRANCH   1   8
ATOM      8  C   UNL     1     -10.689 -20.002  21.094  1.00  0.00     0.000 C 
BRANCH   8   9
ATOM      9  C   UNL     1     -10.629 -21.144  22.120  1.00  0.00     0.006 C 
BRANCH   9  10
ATOM     10  C   UNL     1      -9.404 -21.038  23.036  1.00  0.00     0.053 C 
BRANCH  10  11
ATOM     11  C   UNL     1      -8.592 -22.297  23.027  1.00  0.00     0.041 C 
ATOM     12  O   UNL     1      -8.049 -22.694  21.962  1.00  0.00    -0.550 OA
ATOM     13  O   UNL     1      -8.406 -23.016  24.202  1.00  0.00    -0.550 OA
ENDBRANCH  10  11
ENDBRANCH   9  10
ENDBRANCH   8   9
ENDBRANCH   1   8
TORSDOF 8
ENDMDL
