MODEL 1
REMARK VINA RESULT:     6.121      0.000      0.000
REMARK INTER + INTRA:          14.443
REMARK INTER:                  13.993
REMARK INTRA:                   0.450
REMARK UNBOUND:                 0.450
REMARK SMILES CCCCCCCCCCCCCCCCCCCCCCCC(=O)[O-]
REMARK SMILES IDX 13 1 14 2 15 3 16 4 17 5 18 6 19 7 20 8 21 9 22 10 23 11
REMARK SMILES IDX 24 12 25 13 26 14 12 15 11 16 10 17 9 18 8 19 7 20 6 21 5 22
REMARK SMILES IDX 4 23 3 24 2 25 1 26
REMARK H PARENT
REMARK Flexibility Score: inf
ROOT
ATOM      1  C   UNL     1      44.213 -25.811   2.093  1.00  0.00     0.000 C 
ENDROOT
BRANCH   1   2
ATOM      2  C   UNL     1      45.482 -25.260   1.429  1.00  0.00     0.000 C 
BRANCH   2   3
ATOM      3  C   UNL     1      45.301 -23.788   1.027  1.00  0.00     0.000 C 
BRANCH   3   4
ATOM      4  C   UNL     1      45.642 -23.526  -0.452  1.00  0.00     0.000 C 
BRANCH   4   5
ATOM      5  C   UNL     1      45.819 -24.791  -1.316  1.00  0.00     0.000 C 
BRANCH   5   6
ATOM      6  C   UNL     1      45.593 -24.583  -2.824  1.00  0.00     0.000 C 
BRANCH   6   7
ATOM      7  C   UNL     1      44.949 -25.805  -3.500  1.00  0.00     0.000 C 
BRANCH   7   8
ATOM      8  C   UNL     1      45.783 -26.339  -4.677  1.00  0.00     0.000 C 
BRANCH   8   9
ATOM      9  C   UNL     1      45.930 -25.310  -5.810  1.00  0.00     0.000 C 
BRANCH   9  10
ATOM     10  C   UNL     1      45.868 -23.859  -5.303  1.00  0.00     0.006 C 
BRANCH  10  11
ATOM     11  C   UNL     1      44.798 -23.026  -6.020  1.00  0.00     0.053 C 
BRANCH  11  12
ATOM     12  C   UNL     1      45.376 -22.360  -7.229  1.00  0.00     0.041 C 
ATOM     13  O   UNL     1      45.823 -21.186  -7.152  1.00  0.00    -0.550 OA
ATOM     14  O   UNL     1      45.387 -23.023  -8.450  1.00  0.00    -0.550 OA
ENDBRANCH  11  12
ENDBRANCH  10  11
ENDBRANCH   9  10
ENDBRANCH   8   9
ENDBRANCH   7   8
ENDBRANCH   6   7
ENDBRANCH   5   6
ENDBRANCH   4   5
ENDBRANCH   3   4
ENDBRANCH   2   3
ENDBRANCH   1   2
BRANCH   1  15
ATOM     15  C   UNL     1      44.493 -26.520   3.431  1.00  0.00     0.000 C 
BRANCH  15  16
ATOM     16  C   UNL     1      45.017 -27.962   3.310  1.00  0.00     0.000 C 
BRANCH  16  17
ATOM     17  C   UNL     1      44.602 -28.850   4.495  1.00  0.00     0.000 C 
BRANCH  17  18
ATOM     18  C   UNL     1      45.805 -29.346   5.316  1.00  0.00    -0.000 C 
BRANCH  18  19
ATOM     19  C   UNL     1      46.089 -28.558   6.609  1.00  0.00    -0.000 C 
BRANCH  19  20
ATOM     20  C   UNL     1      45.840 -27.040   6.483  1.00  0.00    -0.000 C 
BRANCH  20  21
ATOM     21  C   UNL     1      45.820 -26.335   7.852  1.00  0.00    -0.000 C 
BRANCH  21  22
ATOM     22  C   UNL     1      46.094 -27.297   9.018  1.00  0.00    -0.000 C 
BRANCH  22  23
ATOM     23  C   UNL     1      44.857 -28.119   9.411  1.00  0.00    -0.000 C 
BRANCH  23  24
ATOM     24  C   UNL     1      45.268 -29.469  10.016  1.00  0.00    -0.000 C 
BRANCH  24  25
ATOM     25  C   UNL     1      44.138 -30.510   9.964  1.00  0.00    -0.003 C 
ATOM     26  C   UNL     1      44.655 -31.948   9.947  1.00  0.00     0.004 C 
ENDBRANCH  24  25
ENDBRANCH  23  24
ENDBRANCH  22  23
ENDBRANCH  21  22
ENDBRANCH  20  21
ENDBRANCH  19  20
ENDBRANCH  18  19
ENDBRANCH  17  18
ENDBRANCH  16  17
ENDBRANCH  15  16
ENDBRANCH   1  15
TORSDOF 22
ENDMDL
MODEL 2
REMARK VINA RESULT:     6.298      5.887     13.341
REMARK INTER + INTRA:          14.847
REMARK INTER:                  13.744
REMARK INTRA:                   1.104
REMARK UNBOUND:                 0.450
REMARK SMILES CCCCCCCCCCCCCCCCCCCCCCCC(=O)[O-]
REMARK SMILES IDX 13 1 14 2 15 3 16 4 17 5 18 6 19 7 20 8 21 9 22 10 23 11
REMARK SMILES IDX 24 12 25 13 26 14 12 15 11 16 10 17 9 18 8 19 7 20 6 21 5 22
REMARK SMILES IDX 4 23 3 24 2 25 1 26
REMARK H PARENT
REMARK Flexibility Score: inf
ROOT
ATOM      1  C   UNL     1      44.673 -26.050   2.247  1.00  0.00     0.000 C 
ENDROOT
BRANCH   1   2
ATOM      2  C   UNL     1      45.336 -26.033   3.632  1.00  0.00     0.000 C 
BRANCH   2   3
ATOM      3  C   UNL     1      45.717 -27.453   4.080  1.00  0.00     0.000 C 
BRANCH   3   4
ATOM      4  C   UNL     1      44.964 -28.547   3.301  1.00  0.00     0.000 C 
BRANCH   4   5
ATOM      5  C   UNL     1      45.001 -29.949   3.944  1.00  0.00     0.000 C 
BRANCH   5   6
ATOM      6  C   UNL     1      46.085 -30.140   5.021  1.00  0.00     0.000 C 
BRANCH   6   7
ATOM      7  C   UNL     1      45.934 -31.467   5.784  1.00  0.00     0.000 C 
BRANCH   7   8
ATOM      8  C   UNL     1      45.793 -31.265   7.302  1.00  0.00     0.000 C 
BRANCH   8   9
ATOM      9  C   UNL     1      45.316 -29.849   7.666  1.00  0.00     0.000 C 
BRANCH   9  10
ATOM     10  C   UNL     1      46.062 -29.269   8.880  1.00  0.00     0.006 C 
BRANCH  10  11
ATOM     11  C   UNL     1      45.301 -29.473  10.197  1.00  0.00     0.053 C 
BRANCH  11  12
ATOM     12  C   UNL     1      44.843 -30.892  10.321  1.00  0.00     0.041 C 
ATOM     13  O   UNL     1      43.630 -31.149  10.535  1.00  0.00    -0.550 OA
ATOM     14  O   UNL     1      45.764 -31.930  10.240  1.00  0.00    -0.550 OA
ENDBRANCH  11  12
ENDBRANCH  10  11
ENDBRANCH   9  10
ENDBRANCH   8   9
ENDBRANCH   7   8
ENDBRANCH   6   7
ENDBRANCH   5   6
ENDBRANCH   4   5
ENDBRANCH   3   4
ENDBRANCH   2   3
ENDBRANCH   1   2
BRANCH   1  15
ATOM     15  C   UNL     1      45.690 -26.099   1.093  1.00  0.00     0.000 C 
BRANCH  15  16
ATOM     16  C   UNL     1      45.078 -26.124  -0.319  1.00  0.00     0.000 C 
BRANCH  16  17
ATOM     17  C   UNL     1      46.120 -25.888  -1.425  1.00  0.00     0.000 C 
BRANCH  17  18
ATOM     18  C   UNL     1      45.627 -24.914  -2.509  1.00  0.00    -0.000 C 
BRANCH  18  19
ATOM     19  C   UNL     1      44.409 -25.396  -3.321  1.00  0.00    -0.000 C 
BRANCH  19  20
ATOM     20  C   UNL     1      44.103 -24.531  -4.562  1.00  0.00    -0.000 C 
BRANCH  20  21
ATOM     21  C   UNL     1      45.120 -24.753  -5.695  1.00  0.00    -0.000 C 
BRANCH  21  22
ATOM     22  C   UNL     1      45.257 -23.532  -6.618  1.00  0.00    -0.000 C 
BRANCH  22  23
ATOM     23  C   UNL     1      45.488 -23.921  -8.086  1.00  0.00    -0.000 C 
BRANCH  23  24
ATOM     24  C   UNL     1      46.086 -25.331  -8.189  1.00  0.00    -0.000 C 
BRANCH  24  25
ATOM     25  C   UNL     1      45.267 -26.381  -7.421  1.00  0.00    -0.003 C 
ATOM     26  C   UNL     1      45.793 -27.803  -7.615  1.00  0.00     0.004 C 
ENDBRANCH  24  25
ENDBRANCH  23  24
ENDBRANCH  22  23
ENDBRANCH  21  22
ENDBRANCH  20  21
ENDBRANCH  19  20
ENDBRANCH  18  19
ENDBRANCH  17  18
ENDBRANCH  16  17
ENDBRANCH  15  16
ENDBRANCH   1  15
TORSDOF 22
ENDMDL
MODEL 3
REMARK VINA RESULT:     6.822      5.773     13.580
REMARK INTER + INTRA:          16.045
REMARK INTER:                  17.065
REMARK INTRA:                  -1.019
REMARK UNBOUND:                 0.450
REMARK SMILES CCCCCCCCCCCCCCCCCCCCCCCC(=O)[O-]
REMARK SMILES IDX 13 1 14 2 15 3 16 4 17 5 18 6 19 7 20 8 21 9 22 10 23 11
REMARK SMILES IDX 24 12 25 13 26 14 12 15 11 16 10 17 9 18 8 19 7 20 6 21 5 22
REMARK SMILES IDX 4 23 3 24 2 25 1 26
REMARK H PARENT
REMARK Flexibility Score: inf
ROOT
ATOM      1  C   UNL     1      44.693 -26.043   2.256  1.00  0.00     0.000 C 
ENDROOT
BRANCH   1   2
ATOM      2  C   UNL     1      45.359 -26.015   3.639  1.00  0.00     0.000 C 
BRANCH   2   3
ATOM      3  C   UNL     1      45.646 -27.438   4.144  1.00  0.00     0.000 C 
BRANCH   3   4
ATOM      4  C   UNL     1      44.707 -28.491   3.526  1.00  0.00     0.000 C 
BRANCH   4   5
ATOM      5  C   UNL     1      44.763 -29.884   4.188  1.00  0.00     0.000 C 
BRANCH   5   6
ATOM      6  C   UNL     1      45.958 -30.104   5.133  1.00  0.00     0.000 C 
BRANCH   6   7
ATOM      7  C   UNL     1      46.054 -31.555   5.637  1.00  0.00     0.000 C 
BRANCH   7   8
ATOM      8  C   UNL     1      46.125 -31.645   7.170  1.00  0.00     0.000 C 
BRANCH   8   9
ATOM      9  C   UNL     1      45.142 -30.688   7.864  1.00  0.00     0.000 C 
BRANCH   9  10
ATOM     10  C   UNL     1      45.842 -29.731   8.844  1.00  0.00     0.006 C 
BRANCH  10  11
ATOM     11  C   UNL     1      44.915 -28.617   9.349  1.00  0.00     0.053 C 
BRANCH  11  12
ATOM     12  C   UNL     1      44.090 -29.104  10.499  1.00  0.00     0.041 C 
ATOM     13  O   UNL     1      44.201 -30.292  10.899  1.00  0.00    -0.550 OA
ATOM     14  O   UNL     1      43.169 -28.255  11.102  1.00  0.00    -0.550 OA
ENDBRANCH  11  12
ENDBRANCH  10  11
ENDBRANCH   9  10
ENDBRANCH   8   9
ENDBRANCH   7   8
ENDBRANCH   6   7
ENDBRANCH   5   6
ENDBRANCH   4   5
ENDBRANCH   3   4
ENDBRANCH   2   3
ENDBRANCH   1   2
BRANCH   1  15
ATOM     15  C   UNL     1      45.700 -26.222   1.106  1.00  0.00     0.000 C 
BRANCH  15  16
ATOM     16  C   UNL     1      45.076 -26.481  -0.277  1.00  0.00     0.000 C 
BRANCH  16  17
ATOM     17  C   UNL     1      46.125 -26.577  -1.397  1.00  0.00     0.000 C 
BRANCH  17  18
ATOM     18  C   UNL     1      45.949 -25.490  -2.472  1.00  0.00    -0.000 C 
BRANCH  18  19
ATOM     19  C   UNL     1      44.537 -25.392  -3.081  1.00  0.00    -0.000 C 
BRANCH  19  20
ATOM     20  C   UNL     1      44.499 -24.711  -4.466  1.00  0.00    -0.000 C 
BRANCH  20  21
ATOM     21  C   UNL     1      45.615 -25.218  -5.397  1.00  0.00    -0.000 C 
BRANCH  21  22
ATOM     22  C   UNL     1      46.124 -24.132  -6.359  1.00  0.00    -0.000 C 
BRANCH  22  23
ATOM     23  C   UNL     1      45.906 -24.500  -7.834  1.00  0.00    -0.000 C 
BRANCH  23  24
ATOM     24  C   UNL     1      45.443 -23.277  -8.640  1.00  0.00    -0.000 C 
BRANCH  24  25
ATOM     25  C   UNL     1      46.011 -21.957  -8.092  1.00  0.00    -0.003 C 
ATOM     26  C   UNL     1      45.646 -20.750  -8.956  1.00  0.00     0.004 C 
ENDBRANCH  24  25
ENDBRANCH  23  24
ENDBRANCH  22  23
ENDBRANCH  21  22
ENDBRANCH  20  21
ENDBRANCH  19  20
ENDBRANCH  18  19
ENDBRANCH  17  18
ENDBRANCH  16  17
ENDBRANCH  15  16
ENDBRANCH   1  15
TORSDOF 22
ENDMDL
