MODEL 1
REMARK VINA RESULT:    33.734      0.000      0.000
REMARK INTER + INTRA:          62.087
REMARK INTER:                  58.385
REMARK INTRA:                   3.702
REMARK UNBOUND:                 3.702
REMARK SMILES OC[C@@H]1O[C@@H](O[C@H]2[C@@H](O)[C@@H](O)[C@H](O[C@H]3[C@@H](O)[C@H](O)[C@@H](O)O[C@H]3CO)O[C@H]2CO)[C@@H](O)[C@H](O)[C@@H]1O
REMARK SMILES IDX 7 1 26 2 25 3 12 4 10 5 8 6 6 7 5 8 3 9 33 10 4 11 31 12
REMARK SMILES IDX 29 13 2 14 1 15 34 17 32 19 30 21 27 23 28 24 9 26 11 28
REMARK SMILES IDX 13 30 14 31 22 32 15 33 21 34 17 35 19 36 23 37 24 38 16 40
REMARK SMILES IDX 18 42 20 44
REMARK H PARENT 1 16 34 18 32 20 30 22 28 25 9 27 11 29 24 39 16 41 18 43
REMARK H PARENT 20 45
REMARK Flexibility Score: inf
ROOT
ATOM      1  C   UNL     1      22.773  39.227  22.001  1.00  0.00     0.184 C 
ATOM      2  C   UNL     1      22.747  37.807  21.273  1.00  0.00     0.178 C 
ATOM      3  O   UNL     1      23.953  37.035  21.454  1.00  0.00    -0.341 OA
ATOM      4  C   UNL     1      25.132  37.701  20.998  1.00  0.00     0.282 C 
ATOM      5  C   UNL     1      25.348  38.941  21.839  1.00  0.00     0.202 C 
ATOM      6  C   UNL     1      24.122  39.925  21.599  1.00  0.00     0.180 C 
ENDROOT
BRANCH   1   7
ATOM      7  O   UNL     1      22.708  39.120  23.440  1.00  0.00    -0.341 OA
BRANCH   7   8
ATOM      8  C   UNL     1      21.900  38.081  24.003  1.00  0.00     0.282 C 
ATOM      9  C   UNL     1      22.281  38.880  26.336  1.00  0.00     0.178 C 
ATOM     10  C   UNL     1      23.846  38.602  26.004  1.00  0.00     0.177 C 
ATOM     11  O   UNL     1      21.337  38.600  25.309  1.00  0.00    -0.341 OA
ATOM     12  C   UNL     1      24.233  37.375  25.016  1.00  0.00     0.179 C 
ATOM     13  C   UNL     1      22.736  36.808  24.344  1.00  0.00     0.202 C 
BRANCH   9  14
ATOM     14  C   UNL     1      21.679  38.672  27.890  1.00  0.00     0.191 C 
BRANCH  14  15
ATOM     15  O   UNL     1      22.194  39.719  28.647  1.00  0.00    -0.394 OA
ATOM     16  H   UNL     1      21.479  40.367  28.860  1.00  0.00     0.210 HD
ENDBRANCH  14  15
ENDBRANCH   9  14
BRANCH  10  17
ATOM     17  O   UNL     1      24.863  39.337  26.876  1.00  0.00    -0.387 OA
ATOM     18  H   UNL     1      25.835  39.453  26.538  1.00  0.00     0.211 HD
ENDBRANCH  10  17
BRANCH  12  19
ATOM     19  O   UNL     1      25.063  36.252  25.413  1.00  0.00    -0.387 OA
ATOM     20  H   UNL     1      25.369  35.816  24.551  1.00  0.00     0.211 HD
ENDBRANCH  12  19
BRANCH  13  21
ATOM     21  O   UNL     1      22.371  35.496  23.575  1.00  0.00    -0.385 OA
ATOM     22  H   UNL     1      23.076  34.830  23.921  1.00  0.00     0.211 HD
ENDBRANCH  13  21
ENDBRANCH   7   8
ENDBRANCH   1   7
BRANCH   2  23
ATOM     23  C   UNL     1      21.530  36.833  21.155  1.00  0.00     0.191 C 
BRANCH  23  24
ATOM     24  O   UNL     1      21.821  35.466  20.971  1.00  0.00    -0.394 OA
ATOM     25  H   UNL     1      22.189  35.089  21.811  1.00  0.00     0.210 HD
ENDBRANCH  23  24
ENDBRANCH   2  23
BRANCH   6  26
ATOM     26  O   UNL     1      24.339  41.161  22.287  1.00  0.00    -0.387 OA
ATOM     27  H   UNL     1      25.204  41.106  22.783  1.00  0.00     0.211 HD
ENDBRANCH   6  26
BRANCH   5  28
ATOM     28  O   UNL     1      25.412  38.592  23.187  1.00  0.00    -0.385 OA
ATOM     29  H   UNL     1      25.933  39.310  23.673  1.00  0.00     0.211 HD
ENDBRANCH   5  28
BRANCH   4  30
ATOM     30  O   UNL     1      25.016  38.175  19.675  1.00  0.00    -0.341 OA
BRANCH  30  31
ATOM     31  C   UNL     1      26.140  37.946  18.879  1.00  0.00     0.184 C 
ATOM     32  C   UNL     1      26.058  36.482  18.333  1.00  0.00     0.178 C 
ATOM     33  C   UNL     1      27.405  38.191  19.741  1.00  0.00     0.180 C 
ATOM     34  O   UNL     1      27.286  35.943  17.875  1.00  0.00    -0.342 OA
ATOM     35  C   UNL     1      28.659  37.590  19.073  1.00  0.00     0.201 C 
ATOM     36  C   UNL     1      28.394  36.102  18.767  1.00  0.00     0.279 C 
BRANCH  32  37
ATOM     37  C   UNL     1      25.250  35.484  19.182  1.00  0.00     0.191 C 
BRANCH  37  38
ATOM     38  O   UNL     1      23.851  35.529  18.924  1.00  0.00    -0.394 OA
ATOM     39  H   UNL     1      23.382  35.788  19.728  1.00  0.00     0.210 HD
ENDBRANCH  37  38
ENDBRANCH  32  37
BRANCH  33  40
ATOM     40  O   UNL     1      27.233  37.643  21.035  1.00  0.00    -0.387 OA
ATOM     41  H   UNL     1      26.515  38.104  21.533  1.00  0.00     0.211 HD
ENDBRANCH  33  40
BRANCH  35  42
ATOM     42  O   UNL     1      28.872  38.268  17.876  1.00  0.00    -0.385 OA
ATOM     43  H   UNL     1      29.141  39.210  18.096  1.00  0.00     0.211 HD
ENDBRANCH  35  42
BRANCH  36  44
ATOM     44  O   UNL     1      28.246  35.370  19.963  1.00  0.00    -0.366 OA
ATOM     45  H   UNL     1      29.123  34.936  20.165  1.00  0.00     0.213 HD
ENDBRANCH  36  44
ENDBRANCH  30  31
ENDBRANCH   4  30
TORSDOF 18
ENDMDL
MODEL 2
REMARK VINA RESULT:    33.779      1.228      2.401
REMARK INTER + INTRA:          62.165
REMARK INTER:                  59.008
REMARK INTRA:                   3.157
REMARK UNBOUND:                 3.702
REMARK SMILES OC[C@@H]1O[C@@H](O[C@H]2[C@@H](O)[C@@H](O)[C@H](O[C@H]3[C@@H](O)[C@H](O)[C@@H](O)O[C@H]3CO)O[C@H]2CO)[C@@H](O)[C@H](O)[C@@H]1O
REMARK SMILES IDX 7 1 26 2 25 3 12 4 10 5 8 6 6 7 5 8 3 9 33 10 4 11 31 12
REMARK SMILES IDX 29 13 2 14 1 15 34 17 32 19 30 21 27 23 28 24 9 26 11 28
REMARK SMILES IDX 13 30 14 31 22 32 15 33 21 34 17 35 19 36 23 37 24 38 16 40
REMARK SMILES IDX 18 42 20 44
REMARK H PARENT 1 16 34 18 32 20 30 22 28 25 9 27 11 29 24 39 16 41 18 43
REMARK H PARENT 20 45
REMARK Flexibility Score: inf
ROOT
ATOM      1  C   UNL     1      23.240  38.113  23.539  1.00  0.00     0.184 C 
ATOM      2  C   UNL     1      24.263  39.106  22.821  1.00  0.00     0.178 C 
ATOM      3  O   UNL     1      23.862  39.492  21.489  1.00  0.00    -0.341 OA
ATOM      4  C   UNL     1      23.683  38.387  20.602  1.00  0.00     0.282 C 
ATOM      5  C   UNL     1      22.537  37.536  21.108  1.00  0.00     0.202 C 
ATOM      6  C   UNL     1      22.943  36.948  22.528  1.00  0.00     0.180 C 
ENDROOT
BRANCH   1   7
ATOM      7  O   UNL     1      21.997  38.753  23.900  1.00  0.00    -0.341 OA
BRANCH   7   8
ATOM      8  C   UNL     1      21.199  38.147  24.922  1.00  0.00     0.282 C 
ATOM      9  C   UNL     1      22.348  39.409  26.742  1.00  0.00     0.178 C 
ATOM     10  C   UNL     1      23.683  38.658  26.199  1.00  0.00     0.177 C 
ATOM     11  O   UNL     1      21.123  39.121  26.079  1.00  0.00    -0.341 OA
ATOM     12  C   UNL     1      23.549  37.156  25.602  1.00  0.00     0.179 C 
ATOM     13  C   UNL     1      21.847  36.838  25.474  1.00  0.00     0.202 C 
BRANCH   9  14
ATOM     14  C   UNL     1      22.172  39.785  28.369  1.00  0.00     0.191 C 
BRANCH  14  15
ATOM     15  O   UNL     1      22.741  38.729  29.073  1.00  0.00    -0.394 OA
ATOM     16  H   UNL     1      22.512  38.798  30.032  1.00  0.00     0.210 HD
ENDBRANCH  14  15
ENDBRANCH   9  14
BRANCH  10  17
ATOM     17  O   UNL     1      25.018  39.309  26.558  1.00  0.00    -0.387 OA
ATOM     18  H   UNL     1      25.509  39.886  25.853  1.00  0.00     0.211 HD
ENDBRANCH  10  17
BRANCH  12  19
ATOM     19  O   UNL     1      24.235  36.004  26.158  1.00  0.00    -0.387 OA
ATOM     20  H   UNL     1      24.431  36.238  27.124  1.00  0.00     0.211 HD
ENDBRANCH  12  19
BRANCH  13  21
ATOM     21  O   UNL     1      21.048  35.511  25.261  1.00  0.00    -0.385 OA
ATOM     22  H   UNL     1      20.758  35.581  24.275  1.00  0.00     0.211 HD
ENDBRANCH  13  21
ENDBRANCH   7   8
ENDBRANCH   1   7
BRANCH   2  23
ATOM     23  C   UNL     1      25.049  40.285  23.480  1.00  0.00     0.191 C 
BRANCH  23  24
ATOM     24  O   UNL     1      24.286  41.305  24.081  1.00  0.00    -0.394 OA
ATOM     25  H   UNL     1      23.325  41.167  23.875  1.00  0.00     0.210 HD
ENDBRANCH  23  24
ENDBRANCH   2  23
BRANCH   6  26
ATOM     26  O   UNL     1      21.935  36.045  22.996  1.00  0.00    -0.387 OA
ATOM     27  H   UNL     1      22.363  35.168  23.206  1.00  0.00     0.211 HD
ENDBRANCH   6  26
BRANCH   5  28
ATOM     28  O   UNL     1      21.390  38.319  21.236  1.00  0.00    -0.385 OA
ATOM     29  H   UNL     1      21.122  38.325  22.212  1.00  0.00     0.211 HD
ENDBRANCH   5  28
BRANCH   4  30
ATOM     30  O   UNL     1      24.794  37.519  20.577  1.00  0.00    -0.341 OA
BRANCH  30  31
ATOM     31  C   UNL     1      25.648  37.705  19.487  1.00  0.00     0.184 C 
ATOM     32  C   UNL     1      25.775  36.340  18.732  1.00  0.00     0.178 C 
ATOM     33  C   UNL     1      27.009  38.223  20.018  1.00  0.00     0.180 C 
ATOM     34  O   UNL     1      26.903  36.229  17.881  1.00  0.00    -0.342 OA
ATOM     35  C   UNL     1      28.113  38.080  18.949  1.00  0.00     0.201 C 
ATOM     36  C   UNL     1      28.151  36.617  18.466  1.00  0.00     0.279 C 
BRANCH  32  37
ATOM     37  C   UNL     1      25.537  35.073  19.573  1.00  0.00     0.191 C 
BRANCH  37  38
ATOM     38  O   UNL     1      24.179  34.903  19.963  1.00  0.00    -0.394 OA
ATOM     39  H   UNL     1      24.039  35.303  20.832  1.00  0.00     0.210 HD
ENDBRANCH  37  38
ENDBRANCH  32  37
BRANCH  33  40
ATOM     40  O   UNL     1      27.376  37.526  21.194  1.00  0.00    -0.387 OA
ATOM     41  H   UNL     1      28.036  36.817  21.005  1.00  0.00     0.211 HD
ENDBRANCH  33  40
BRANCH  35  42
ATOM     42  O   UNL     1      27.780  38.903  17.878  1.00  0.00    -0.385 OA
ATOM     43  H   UNL     1      27.075  39.548  18.189  1.00  0.00     0.211 HD
ENDBRANCH  35  42
BRANCH  36  44
ATOM     44  O   UNL     1      28.557  35.761  19.510  1.00  0.00    -0.366 OA
ATOM     45  H   UNL     1      27.854  35.060  19.621  1.00  0.00     0.213 HD
ENDBRANCH  36  44
ENDBRANCH  30  31
ENDBRANCH   4  30
TORSDOF 18
ENDMDL
