MODEL 1
REMARK VINA RESULT:    -4.553      0.000      0.000
REMARK INTER + INTRA:         -10.211
REMARK INTER:                  -8.545
REMARK INTRA:                  -1.666
REMARK UNBOUND:                -1.666
REMARK SMILES O=C([O-])CCCCCCCCCCCCCCC(=O)[O-]
REMARK SMILES IDX 10 1 9 2 8 3 7 4 6 5 5 6 4 7 2 8 1 9 3 10 11 11 12 12 13 13
REMARK SMILES IDX 14 14 15 15 16 16 17 17 18 18 19 19 20 20
REMARK H PARENT
REMARK Flexibility Score: inf
ROOT
ATOM      1  C   UNL     1      -8.092  -2.889 -13.115  1.00  0.00     0.000 C 
ENDROOT
BRANCH   1   2
ATOM      2  C   UNL     1      -7.372  -2.888 -14.476  1.00  0.00     0.000 C 
BRANCH   2   3
ATOM      3  C   UNL     1      -6.388  -4.056 -14.636  1.00  0.00     0.000 C 
BRANCH   3   4
ATOM      4  C   UNL     1      -4.937  -3.569 -14.517  1.00  0.00     0.000 C 
BRANCH   4   5
ATOM      5  C   UNL     1      -4.651  -2.319 -15.367  1.00  0.00     0.000 C 
BRANCH   5   6
ATOM      6  C   UNL     1      -3.793  -2.563 -16.625  1.00  0.00     0.006 C 
BRANCH   6   7
ATOM      7  C   UNL     1      -3.518  -1.294 -17.453  1.00  0.00     0.053 C 
BRANCH   7   8
ATOM      8  C   UNL     1      -2.152  -1.292 -18.071  1.00  0.00     0.041 C 
ATOM      9  O   UNL     1      -1.983  -1.735 -19.237  1.00  0.00    -0.550 OA
ATOM     10  O   UNL     1      -1.059  -0.840 -17.343  1.00  0.00    -0.550 OA
ENDBRANCH   7   8
ENDBRANCH   6   7
ENDBRANCH   5   6
ENDBRANCH   4   5
ENDBRANCH   3   4
ENDBRANCH   2   3
ENDBRANCH   1   2
BRANCH   1  11
ATOM     11  C   UNL     1      -7.862  -1.635 -12.251  1.00  0.00     0.000 C 
BRANCH  11  12
ATOM     12  C   UNL     1      -7.035  -1.921 -10.987  1.00  0.00     0.000 C 
BRANCH  12  13
ATOM     13  C   UNL     1      -5.534  -2.098 -11.282  1.00  0.00     0.000 C 
BRANCH  13  14
ATOM     14  C   UNL     1      -4.817  -0.840 -11.813  1.00  0.00     0.000 C 
BRANCH  14  15
ATOM     15  C   UNL     1      -4.440   0.202 -10.741  1.00  0.00     0.000 C 
BRANCH  15  16
ATOM     16  C   UNL     1      -5.047   1.604 -10.953  1.00  0.00     0.006 C 
BRANCH  16  17
ATOM     17  C   UNL     1      -6.522   1.725 -10.538  1.00  0.00     0.053 C 
BRANCH  17  18
ATOM     18  C   UNL     1      -6.712   1.498  -9.071  1.00  0.00     0.041 C 
ATOM     19  O   UNL     1      -7.562   0.663  -8.663  1.00  0.00    -0.550 OA
ATOM     20  O   UNL     1      -5.928   2.185  -8.153  1.00  0.00    -0.550 OA
ENDBRANCH  17  18
ENDBRANCH  16  17
ENDBRANCH  15  16
ENDBRANCH  14  15
ENDBRANCH  13  14
ENDBRANCH  12  13
ENDBRANCH  11  12
ENDBRANCH   1  11
TORSDOF 15
ENDMDL
MODEL 2
REMARK VINA RESULT:    -4.511      3.650      7.604
REMARK INTER + INTRA:         -10.133
REMARK INTER:                  -8.853
REMARK INTRA:                  -1.280
REMARK UNBOUND:                -1.666
REMARK SMILES O=C([O-])CCCCCCCCCCCCCCC(=O)[O-]
REMARK SMILES IDX 10 1 9 2 8 3 7 4 6 5 5 6 4 7 2 8 1 9 3 10 11 11 12 12 13 13
REMARK SMILES IDX 14 14 15 15 16 16 17 17 18 18 19 19 20 20
REMARK H PARENT
REMARK Flexibility Score: inf
ROOT
ATOM      1  C   UNL     1      -4.080  -2.185 -13.302  1.00  0.00     0.000 C 
ENDROOT
BRANCH   1   2
ATOM      2  C   UNL     1      -4.549  -1.304 -12.131  1.00  0.00     0.000 C 
BRANCH   2   3
ATOM      3  C   UNL     1      -5.044  -2.118 -10.926  1.00  0.00     0.000 C 
BRANCH   3   4
ATOM      4  C   UNL     1      -6.571  -2.022 -10.791  1.00  0.00     0.000 C 
BRANCH   4   5
ATOM      5  C   UNL     1      -7.072  -0.574 -10.655  1.00  0.00     0.000 C 
BRANCH   5   6
ATOM      6  C   UNL     1      -6.989   0.018  -9.234  1.00  0.00     0.006 C 
BRANCH   6   7
ATOM      7  C   UNL     1      -7.059   1.555  -9.189  1.00  0.00     0.053 C 
BRANCH   7   8
ATOM      8  C   UNL     1      -6.200   2.203 -10.235  1.00  0.00     0.041 C 
ATOM      9  O   UNL     1      -6.726   2.840 -11.184  1.00  0.00    -0.550 OA
ATOM     10  O   UNL     1      -4.818   2.066 -10.183  1.00  0.00    -0.550 OA
ENDBRANCH   7   8
ENDBRANCH   6   7
ENDBRANCH   5   6
ENDBRANCH   4   5
ENDBRANCH   3   4
ENDBRANCH   2   3
ENDBRANCH   1   2
BRANCH   1  11
ATOM     11  C   UNL     1      -4.891  -2.034 -14.603  1.00  0.00     0.000 C 
BRANCH  11  12
ATOM     12  C   UNL     1      -5.556  -3.346 -15.050  1.00  0.00     0.000 C 
BRANCH  12  13
ATOM     13  C   UNL     1      -6.652  -3.823 -14.079  1.00  0.00     0.000 C 
BRANCH  13  14
ATOM     14  C   UNL     1      -7.952  -2.995 -14.100  1.00  0.00     0.000 C 
BRANCH  14  15
ATOM     15  C   UNL     1      -9.227  -3.785 -14.458  1.00  0.00     0.000 C 
BRANCH  15  16
ATOM     16  C   UNL     1      -9.590  -3.793 -15.956  1.00  0.00     0.006 C 
BRANCH  16  17
ATOM     17  C   UNL     1     -10.730  -4.754 -16.327  1.00  0.00     0.053 C 
BRANCH  17  18
ATOM     18  C   UNL     1     -11.928  -4.570 -15.447  1.00  0.00     0.041 C 
ATOM     19  O   UNL     1     -12.825  -3.744 -15.762  1.00  0.00    -0.550 OA
ATOM     20  O   UNL     1     -12.069  -5.333 -14.295  1.00  0.00    -0.550 OA
ENDBRANCH  17  18
ENDBRANCH  16  17
ENDBRANCH  15  16
ENDBRANCH  14  15
ENDBRANCH  13  14
ENDBRANCH  12  13
ENDBRANCH  11  12
ENDBRANCH   1  11
TORSDOF 15
ENDMDL
MODEL 3
REMARK VINA RESULT:    -4.501      4.399      5.449
REMARK INTER + INTRA:         -10.113
REMARK INTER:                  -8.867
REMARK INTRA:                  -1.246
REMARK UNBOUND:                -1.666
REMARK SMILES O=C([O-])CCCCCCCCCCCCCCC(=O)[O-]
REMARK SMILES IDX 10 1 9 2 8 3 7 4 6 5 5 6 4 7 2 8 1 9 3 10 11 11 12 12 13 13
REMARK SMILES IDX 14 14 15 15 16 16 17 17 18 18 19 19 20 20
REMARK H PARENT
REMARK Flexibility Score: inf
ROOT
ATOM      1  C   UNL     1      -7.265  -1.564 -11.477  1.00  0.00     0.000 C 
ENDROOT
BRANCH   1   2
ATOM      2  C   UNL     1      -8.384  -1.952 -12.460  1.00  0.00     0.000 C 
BRANCH   2   3
ATOM      3  C   UNL     1      -7.851  -2.531 -13.779  1.00  0.00     0.000 C 
BRANCH   3   4
ATOM      4  C   UNL     1      -8.466  -3.910 -14.059  1.00  0.00     0.000 C 
BRANCH   4   5
ATOM      5  C   UNL     1      -8.561  -4.232 -15.560  1.00  0.00     0.000 C 
BRANCH   5   6
ATOM      6  C   UNL     1      -9.825  -3.702 -16.266  1.00  0.00     0.006 C 
BRANCH   6   7
ATOM      7  C   UNL     1     -10.949  -4.746 -16.408  1.00  0.00     0.053 C 
BRANCH   7   8
ATOM      8  C   UNL     1     -12.027  -4.576 -15.379  1.00  0.00     0.041 C 
ATOM      9  O   UNL     1     -11.929  -5.141 -14.258  1.00  0.00    -0.550 OA
ATOM     10  O   UNL     1     -13.159  -3.827 -15.674  1.00  0.00    -0.550 OA
ENDBRANCH   7   8
ENDBRANCH   6   7
ENDBRANCH   5   6
ENDBRANCH   4   5
ENDBRANCH   3   4
ENDBRANCH   2   3
ENDBRANCH   1   2
BRANCH   1  11
ATOM     11  C   UNL     1      -6.298  -2.703 -11.103  1.00  0.00     0.000 C 
BRANCH  11  12
ATOM     12  C   UNL     1      -4.847  -2.224 -10.928  1.00  0.00     0.000 C 
BRANCH  12  13
ATOM     13  C   UNL     1      -4.436  -1.165 -11.968  1.00  0.00     0.000 C 
BRANCH  13  14
ATOM     14  C   UNL     1      -3.211  -0.311 -11.586  1.00  0.00     0.000 C 
BRANCH  14  15
ATOM     15  C   UNL     1      -3.535   1.096 -11.044  1.00  0.00     0.000 C 
BRANCH  15  16
ATOM     16  C   UNL     1      -5.030   1.367 -10.786  1.00  0.00     0.006 C 
BRANCH  16  17
ATOM     17  C   UNL     1      -5.430   1.353  -9.303  1.00  0.00     0.053 C 
BRANCH  17  18
ATOM     18  C   UNL     1      -6.884   1.656  -9.111  1.00  0.00     0.041 C 
ATOM     19  O   UNL     1      -7.343   2.787  -9.423  1.00  0.00    -0.550 OA
ATOM     20  O   UNL     1      -7.740   0.679  -8.618  1.00  0.00    -0.550 OA
ENDBRANCH  17  18
ENDBRANCH  16  17
ENDBRANCH  15  16
ENDBRANCH  14  15
ENDBRANCH  13  14
ENDBRANCH  12  13
ENDBRANCH  11  12
ENDBRANCH   1  11
TORSDOF 15
ENDMDL
MODEL 4
REMARK VINA RESULT:    -4.467      4.270      8.278
REMARK INTER + INTRA:         -10.049
REMARK INTER:                  -8.882
REMARK INTRA:                  -1.167
REMARK UNBOUND:                -1.666
REMARK SMILES O=C([O-])CCCCCCCCCCCCCCC(=O)[O-]
REMARK SMILES IDX 10 1 9 2 8 3 7 4 6 5 5 6 4 7 2 8 1 9 3 10 11 11 12 12 13 13
REMARK SMILES IDX 14 14 15 15 16 16 17 17 18 18 19 19 20 20
REMARK H PARENT
REMARK Flexibility Score: inf
ROOT
ATOM      1  C   UNL     1      -7.792  -2.683 -13.841  1.00  0.00     0.000 C 
ENDROOT
BRANCH   1   2
ATOM      2  C   UNL     1      -8.781  -3.591 -14.595  1.00  0.00     0.000 C 
BRANCH   2   3
ATOM      3  C   UNL     1      -8.085  -4.585 -15.537  1.00  0.00     0.000 C 
BRANCH   3   4
ATOM      4  C   UNL     1      -8.615  -6.009 -15.316  1.00  0.00     0.000 C 
BRANCH   4   5
ATOM      5  C   UNL     1      -9.553  -6.119 -14.101  1.00  0.00     0.000 C 
BRANCH   5   6
ATOM      6  C   UNL     1     -11.026  -6.429 -14.436  1.00  0.00     0.006 C 
BRANCH   6   7
ATOM      7  C   UNL     1     -12.012  -5.329 -14.000  1.00  0.00     0.053 C 
BRANCH   7   8
ATOM      8  C   UNL     1     -12.524  -4.522 -15.156  1.00  0.00     0.041 C 
ATOM      9  O   UNL     1     -11.825  -4.387 -16.195  1.00  0.00    -0.550 OA
ATOM     10  O   UNL     1     -13.755  -3.885 -15.070  1.00  0.00    -0.550 OA
ENDBRANCH   7   8
ENDBRANCH   6   7
ENDBRANCH   5   6
ENDBRANCH   4   5
ENDBRANCH   3   4
ENDBRANCH   2   3
ENDBRANCH   1   2
BRANCH   1  11
ATOM     11  C   UNL     1      -6.455  -3.346 -13.458  1.00  0.00     0.000 C 
BRANCH  11  12
ATOM     12  C   UNL     1      -5.412  -2.339 -12.946  1.00  0.00     0.000 C 
BRANCH  12  13
ATOM     13  C   UNL     1      -4.287  -2.073 -13.963  1.00  0.00     0.000 C 
BRANCH  13  14
ATOM     14  C   UNL     1      -4.457  -2.771 -15.327  1.00  0.00     0.000 C 
BRANCH  14  15
ATOM     15  C   UNL     1      -3.996  -1.950 -16.547  1.00  0.00     0.000 C 
BRANCH  15  16
ATOM     16  C   UNL     1      -2.628  -2.358 -17.129  1.00  0.00     0.006 C 
BRANCH  16  17
ATOM     17  C   UNL     1      -2.023  -1.336 -18.104  1.00  0.00     0.053 C 
BRANCH  17  18
ATOM     18  C   UNL     1      -1.921  -1.880 -19.495  1.00  0.00     0.041 C 
ATOM     19  O   UNL     1      -2.943  -1.941 -20.229  1.00  0.00    -0.550 OA
ATOM     20  O   UNL     1      -0.690  -2.289 -19.994  1.00  0.00    -0.550 OA
ENDBRANCH  17  18
ENDBRANCH  16  17
ENDBRANCH  15  16
ENDBRANCH  14  15
ENDBRANCH  13  14
ENDBRANCH  12  13
ENDBRANCH  11  12
ENDBRANCH   1  11
TORSDOF 15
ENDMDL
MODEL 5
REMARK VINA RESULT:    -4.458      4.150      7.821
REMARK INTER + INTRA:         -10.032
REMARK INTER:                  -8.969
REMARK INTRA:                  -1.064
REMARK UNBOUND:                -1.666
REMARK SMILES O=C([O-])CCCCCCCCCCCCCCC(=O)[O-]
REMARK SMILES IDX 10 1 9 2 8 3 7 4 6 5 5 6 4 7 2 8 1 9 3 10 11 11 12 12 13 13
REMARK SMILES IDX 14 14 15 15 16 16 17 17 18 18 19 19 20 20
REMARK H PARENT
REMARK Flexibility Score: inf
ROOT
ATOM      1  C   UNL     1      -7.986  -2.022 -11.976  1.00  0.00     0.000 C 
ENDROOT
BRANCH   1   2
ATOM      2  C   UNL     1      -7.003  -1.319 -11.022  1.00  0.00     0.000 C 
BRANCH   2   3
ATOM      3  C   UNL     1      -5.556  -1.810 -11.181  1.00  0.00     0.000 C 
BRANCH   3   4
ATOM      4  C   UNL     1      -4.669  -0.712 -11.784  1.00  0.00     0.000 C 
BRANCH   4   5
ATOM      5  C   UNL     1      -4.136   0.275 -10.730  1.00  0.00     0.000 C 
BRANCH   5   6
ATOM      6  C   UNL     1      -4.447   1.760 -11.005  1.00  0.00     0.006 C 
BRANCH   6   7
ATOM      7  C   UNL     1      -5.911   2.154 -10.736  1.00  0.00     0.053 C 
BRANCH   7   8
ATOM      8  C   UNL     1      -6.302   1.975  -9.299  1.00  0.00     0.041 C 
ATOM      9  O   UNL     1      -5.518   2.329  -8.379  1.00  0.00    -0.550 OA
ATOM     10  O   UNL     1      -7.514   1.379  -8.976  1.00  0.00    -0.550 OA
ENDBRANCH   7   8
ENDBRANCH   6   7
ENDBRANCH   5   6
ENDBRANCH   4   5
ENDBRANCH   3   4
ENDBRANCH   2   3
ENDBRANCH   1   2
BRANCH   1  11
ATOM     11  C   UNL     1      -7.391  -3.187 -12.789  1.00  0.00     0.000 C 
BRANCH  11  12
ATOM     12  C   UNL     1      -7.134  -2.822 -14.260  1.00  0.00     0.000 C 
BRANCH  12  13
ATOM     13  C   UNL     1      -6.717  -4.034 -15.113  1.00  0.00     0.000 C 
BRANCH  13  14
ATOM     14  C   UNL     1      -7.881  -4.835 -15.730  1.00  0.00     0.000 C 
BRANCH  14  15
ATOM     15  C   UNL     1      -9.227  -4.086 -15.800  1.00  0.00     0.000 C 
BRANCH  15  16
ATOM     16  C   UNL     1     -10.401  -4.787 -15.087  1.00  0.00     0.006 C 
BRANCH  16  17
ATOM     17  C   UNL     1     -11.709  -4.811 -15.894  1.00  0.00     0.053 C 
BRANCH  17  18
ATOM     18  C   UNL     1     -12.840  -4.175 -15.147  1.00  0.00     0.041 C 
ATOM     19  O   UNL     1     -13.681  -3.463 -15.757  1.00  0.00    -0.550 OA
ATOM     20  O   UNL     1     -12.985  -4.395 -13.784  1.00  0.00    -0.550 OA
ENDBRANCH  17  18
ENDBRANCH  16  17
ENDBRANCH  15  16
ENDBRANCH  14  15
ENDBRANCH  13  14
ENDBRANCH  12  13
ENDBRANCH  11  12
ENDBRANCH   1  11
TORSDOF 15
ENDMDL
MODEL 6
REMARK VINA RESULT:    -4.438      4.362      5.537
REMARK INTER + INTRA:          -9.996
REMARK INTER:                  -8.560
REMARK INTRA:                  -1.436
REMARK UNBOUND:                -1.666
REMARK SMILES O=C([O-])CCCCCCCCCCCCCCC(=O)[O-]
REMARK SMILES IDX 10 1 9 2 8 3 7 4 6 5 5 6 4 7 2 8 1 9 3 10 11 11 12 12 13 13
REMARK SMILES IDX 14 14 15 15 16 16 17 17 18 18 19 19 20 20
REMARK H PARENT
REMARK Flexibility Score: inf
ROOT
ATOM      1  C   UNL     1      -5.867  -1.571 -11.114  1.00  0.00     0.000 C 
ENDROOT
BRANCH   1   2
ATOM      2  C   UNL     1      -6.862  -2.634 -11.615  1.00  0.00     0.000 C 
BRANCH   2   3
ATOM      3  C   UNL     1      -8.051  -2.031 -12.379  1.00  0.00     0.000 C 
BRANCH   3   4
ATOM      4  C   UNL     1      -8.044  -2.485 -13.846  1.00  0.00     0.000 C 
BRANCH   4   5
ATOM      5  C   UNL     1      -8.427  -3.965 -14.019  1.00  0.00     0.000 C 
BRANCH   5   6
ATOM      6  C   UNL     1      -8.829  -4.377 -15.449  1.00  0.00     0.006 C 
BRANCH   6   7
ATOM      7  C   UNL     1     -10.143  -3.740 -15.938  1.00  0.00     0.053 C 
BRANCH   7   8
ATOM      8  C   UNL     1     -11.343  -4.589 -15.641  1.00  0.00     0.041 C 
ATOM      9  O   UNL     1     -11.209  -5.820 -15.415  1.00  0.00    -0.550 OA
ATOM     10  O   UNL     1     -12.613  -4.028 -15.653  1.00  0.00    -0.550 OA
ENDBRANCH   7   8
ENDBRANCH   6   7
ENDBRANCH   5   6
ENDBRANCH   4   5
ENDBRANCH   3   4
ENDBRANCH   2   3
ENDBRANCH   1   2
BRANCH   1  11
ATOM     11  C   UNL     1      -5.880  -1.326  -9.594  1.00  0.00     0.000 C 
BRANCH  11  12
ATOM     12  C   UNL     1      -6.648  -0.054  -9.198  1.00  0.00     0.000 C 
BRANCH  12  13
ATOM     13  C   UNL     1      -6.858   0.910 -10.380  1.00  0.00     0.000 C 
BRANCH  13  14
ATOM     14  C   UNL     1      -5.933   2.143 -10.393  1.00  0.00     0.000 C 
BRANCH  14  15
ATOM     15  C   UNL     1      -4.654   1.995 -11.241  1.00  0.00     0.000 C 
BRANCH  15  16
ATOM     16  C   UNL     1      -3.435   1.425 -10.488  1.00  0.00     0.006 C 
BRANCH  16  17
ATOM     17  C   UNL     1      -3.217   2.025  -9.090  1.00  0.00     0.053 C 
BRANCH  17  18
ATOM     18  C   UNL     1      -3.334   0.992  -8.012  1.00  0.00     0.041 C 
ATOM     19  O   UNL     1      -4.099   1.184  -7.030  1.00  0.00    -0.550 OA
ATOM     20  O   UNL     1      -2.622  -0.197  -8.108  1.00  0.00    -0.550 OA
ENDBRANCH  17  18
ENDBRANCH  16  17
ENDBRANCH  15  16
ENDBRANCH  14  15
ENDBRANCH  13  14
ENDBRANCH  12  13
ENDBRANCH  11  12
ENDBRANCH   1  11
TORSDOF 15
ENDMDL
MODEL 7
REMARK VINA RESULT:    -4.396      3.742      5.232
REMARK INTER + INTRA:          -9.916
REMARK INTER:                  -8.238
REMARK INTRA:                  -1.678
REMARK UNBOUND:                -1.666
REMARK SMILES O=C([O-])CCCCCCCCCCCCCCC(=O)[O-]
REMARK SMILES IDX 10 1 9 2 8 3 7 4 6 5 5 6 4 7 2 8 1 9 3 10 11 11 12 12 13 13
REMARK SMILES IDX 14 14 15 15 16 16 17 17 18 18 19 19 20 20
REMARK H PARENT
REMARK Flexibility Score: inf
ROOT
ATOM      1  C   UNL     1      -5.090  -1.916 -11.963  1.00  0.00     0.000 C 
ENDROOT
BRANCH   1   2
ATOM      2  C   UNL     1      -6.376  -2.744 -11.781  1.00  0.00     0.000 C 
BRANCH   2   3
ATOM      3  C   UNL     1      -7.655  -1.923 -12.000  1.00  0.00     0.000 C 
BRANCH   3   4
ATOM      4  C   UNL     1      -8.478  -2.493 -13.164  1.00  0.00     0.000 C 
BRANCH   4   5
ATOM      5  C   UNL     1      -7.608  -3.157 -14.246  1.00  0.00     0.000 C 
BRANCH   5   6
ATOM      6  C   UNL     1      -8.288  -4.303 -15.022  1.00  0.00     0.006 C 
BRANCH   6   7
ATOM      7  C   UNL     1      -9.784  -4.478 -14.700  1.00  0.00     0.053 C 
BRANCH   7   8
ATOM      8  C   UNL     1     -10.673  -4.002 -15.809  1.00  0.00     0.041 C 
ATOM      9  O   UNL     1     -11.872  -4.379 -15.868  1.00  0.00    -0.550 OA
ATOM     10  O   UNL     1     -10.164  -3.174 -16.802  1.00  0.00    -0.550 OA
ENDBRANCH   7   8
ENDBRANCH   6   7
ENDBRANCH   5   6
ENDBRANCH   4   5
ENDBRANCH   3   4
ENDBRANCH   2   3
ENDBRANCH   1   2
BRANCH   1  11
ATOM     11  C   UNL     1      -4.231  -1.753 -10.696  1.00  0.00     0.000 C 
BRANCH  11  12
ATOM     12  C   UNL     1      -5.045  -1.885  -9.398  1.00  0.00     0.000 C 
BRANCH  12  13
ATOM     13  C   UNL     1      -5.164  -0.556  -8.629  1.00  0.00     0.000 C 
BRANCH  13  14
ATOM     14  C   UNL     1      -6.516   0.170  -8.778  1.00  0.00     0.000 C 
BRANCH  14  15
ATOM     15  C   UNL     1      -6.710   0.929 -10.107  1.00  0.00     0.000 C 
BRANCH  15  16
ATOM     16  C   UNL     1      -5.788   2.149 -10.301  1.00  0.00     0.006 C 
BRANCH  16  17
ATOM     17  C   UNL     1      -4.599   1.900 -11.243  1.00  0.00     0.053 C 
BRANCH  17  18
ATOM     18  C   UNL     1      -3.285   2.102 -10.554  1.00  0.00     0.041 C 
ATOM     19  O   UNL     1      -2.210   2.039 -11.208  1.00  0.00    -0.550 OA
ATOM     20  O   UNL     1      -3.249   2.391  -9.196  1.00  0.00    -0.550 OA
ENDBRANCH  17  18
ENDBRANCH  16  17
ENDBRANCH  15  16
ENDBRANCH  14  15
ENDBRANCH  13  14
ENDBRANCH  12  13
ENDBRANCH  11  12
ENDBRANCH   1  11
TORSDOF 15
ENDMDL
MODEL 8
REMARK VINA RESULT:    -4.371      3.794      5.407
REMARK INTER + INTRA:          -9.869
REMARK INTER:                  -8.680
REMARK INTRA:                  -1.189
REMARK UNBOUND:                -1.666
REMARK SMILES O=C([O-])CCCCCCCCCCCCCCC(=O)[O-]
REMARK SMILES IDX 10 1 9 2 8 3 7 4 6 5 5 6 4 7 2 8 1 9 3 10 11 11 12 12 13 13
REMARK SMILES IDX 14 14 15 15 16 16 17 17 18 18 19 19 20 20
REMARK H PARENT
REMARK Flexibility Score: inf
ROOT
ATOM      1  C   UNL     1      -4.350  -2.055 -14.789  1.00  0.00     0.000 C 
ENDROOT
BRANCH   1   2
ATOM      2  C   UNL     1      -5.177  -3.228 -15.347  1.00  0.00     0.000 C 
BRANCH   2   3
ATOM      3  C   UNL     1      -6.201  -3.774 -14.340  1.00  0.00     0.000 C 
BRANCH   3   4
ATOM      4  C   UNL     1      -7.376  -2.801 -14.173  1.00  0.00     0.000 C 
BRANCH   4   5
ATOM      5  C   UNL     1      -8.747  -3.499 -14.231  1.00  0.00     0.000 C 
BRANCH   5   6
ATOM      6  C   UNL     1      -9.110  -4.120 -15.594  1.00  0.00     0.006 C 
BRANCH   6   7
ATOM      7  C   UNL     1     -10.452  -3.631 -16.169  1.00  0.00     0.053 C 
BRANCH   7   8
ATOM      8  C   UNL     1     -11.613  -4.463 -15.711  1.00  0.00     0.041 C 
ATOM      9  O   UNL     1     -11.440  -5.664 -15.374  1.00  0.00    -0.550 OA
ATOM     10  O   UNL     1     -12.893  -3.924 -15.697  1.00  0.00    -0.550 OA
ENDBRANCH   7   8
ENDBRANCH   6   7
ENDBRANCH   5   6
ENDBRANCH   4   5
ENDBRANCH   3   4
ENDBRANCH   2   3
ENDBRANCH   1   2
BRANCH   1  11
ATOM     11  C   UNL     1      -3.205  -2.454 -13.840  1.00  0.00     0.000 C 
BRANCH  11  12
ATOM     12  C   UNL     1      -3.205  -1.649 -12.530  1.00  0.00     0.000 C 
BRANCH  12  13
ATOM     13  C   UNL     1      -4.611  -1.174 -12.120  1.00  0.00     0.000 C 
BRANCH  13  14
ATOM     14  C   UNL     1      -5.299  -2.023 -11.032  1.00  0.00     0.000 C 
BRANCH  14  15
ATOM     15  C   UNL     1      -5.786  -1.238  -9.797  1.00  0.00     0.000 C 
BRANCH  15  16
ATOM     16  C   UNL     1      -6.973  -0.288 -10.054  1.00  0.00     0.006 C 
BRANCH  16  17
ATOM     17  C   UNL     1      -7.294   0.655  -8.884  1.00  0.00     0.053 C 
BRANCH  17  18
ATOM     18  C   UNL     1      -6.525   1.937  -8.971  1.00  0.00     0.041 C 
ATOM     19  O   UNL     1      -6.971   2.899  -9.652  1.00  0.00    -0.550 OA
ATOM     20  O   UNL     1      -5.333   2.083  -8.274  1.00  0.00    -0.550 OA
ENDBRANCH  17  18
ENDBRANCH  16  17
ENDBRANCH  15  16
ENDBRANCH  14  15
ENDBRANCH  13  14
ENDBRANCH  12  13
ENDBRANCH  11  12
ENDBRANCH   1  11
TORSDOF 15
ENDMDL
MODEL 9
REMARK VINA RESULT:    -4.357      3.985      5.644
REMARK INTER + INTRA:          -9.844
REMARK INTER:                  -8.408
REMARK INTRA:                  -1.437
REMARK UNBOUND:                -1.666
REMARK SMILES O=C([O-])CCCCCCCCCCCCCCC(=O)[O-]
REMARK SMILES IDX 10 1 9 2 8 3 7 4 6 5 5 6 4 7 2 8 1 9 3 10 11 11 12 12 13 13
REMARK SMILES IDX 14 14 15 15 16 16 17 17 18 18 19 19 20 20
REMARK H PARENT
REMARK Flexibility Score: inf
ROOT
ATOM      1  C   UNL     1      -8.382  -2.958 -13.386  1.00  0.00     0.000 C 
ENDROOT
BRANCH   1   2
ATOM      2  C   UNL     1      -7.644  -3.445 -14.646  1.00  0.00     0.000 C 
BRANCH   2   3
ATOM      3  C   UNL     1      -8.083  -4.847 -15.096  1.00  0.00     0.000 C 
BRANCH   3   4
ATOM      4  C   UNL     1      -8.192  -5.798 -13.895  1.00  0.00     0.000 C 
BRANCH   4   5
ATOM      5  C   UNL     1      -9.535  -6.546 -13.842  1.00  0.00     0.000 C 
BRANCH   5   6
ATOM      6  C   UNL     1     -10.548  -6.155 -14.935  1.00  0.00     0.006 C 
BRANCH   6   7
ATOM      7  C   UNL     1     -11.769  -5.376 -14.410  1.00  0.00     0.053 C 
BRANCH   7   8
ATOM      8  C   UNL     1     -12.159  -4.241 -15.308  1.00  0.00     0.041 C 
ATOM      9  O   UNL     1     -13.362  -3.879 -15.387  1.00  0.00    -0.550 OA
ATOM     10  O   UNL     1     -11.200  -3.609 -16.090  1.00  0.00    -0.550 OA
ENDBRANCH   7   8
ENDBRANCH   6   7
ENDBRANCH   5   6
ENDBRANCH   4   5
ENDBRANCH   3   4
ENDBRANCH   2   3
ENDBRANCH   1   2
BRANCH   1  11
ATOM     11  C   UNL     1      -7.475  -2.457 -12.247  1.00  0.00     0.000 C 
BRANCH  11  12
ATOM     12  C   UNL     1      -7.086  -3.568 -11.258  1.00  0.00     0.000 C 
BRANCH  12  13
ATOM     13  C   UNL     1      -5.945  -3.154 -10.311  1.00  0.00     0.000 C 
BRANCH  13  14
ATOM     14  C   UNL     1      -5.250  -1.824 -10.663  1.00  0.00     0.000 C 
BRANCH  14  15
ATOM     15  C   UNL     1      -4.982  -0.887  -9.469  1.00  0.00     0.000 C 
BRANCH  15  16
ATOM     16  C   UNL     1      -6.238  -0.236  -8.856  1.00  0.00     0.006 C 
BRANCH  16  17
ATOM     17  C   UNL     1      -7.051   0.620  -9.839  1.00  0.00     0.053 C 
BRANCH  17  18
ATOM     18  C   UNL     1      -6.495   2.004  -9.971  1.00  0.00     0.041 C 
ATOM     19  O   UNL     1      -5.862   2.527  -9.016  1.00  0.00    -0.550 OA
ATOM     20  O   UNL     1      -6.646   2.704 -11.161  1.00  0.00    -0.550 OA
ENDBRANCH  17  18
ENDBRANCH  16  17
ENDBRANCH  15  16
ENDBRANCH  14  15
ENDBRANCH  13  14
ENDBRANCH  12  13
ENDBRANCH  11  12
ENDBRANCH   1  11
TORSDOF 15
ENDMDL
