MODEL 1
REMARK VINA RESULT:    -9.206      0.000      0.000
REMARK INTER + INTRA:         -11.054
REMARK INTER:                 -10.821
REMARK INTRA:                  -0.233
REMARK UNBOUND:                -0.233
REMARK SMILES O=c1c(O)c(-c2ccc(O)cc2)oc2cc(O)cc(O)c12
REMARK SMILES IDX 5 1 3 2 2 3 1 4 21 5 19 6 18 7 16 8 15 9 14 10 13 11 6 12
REMARK SMILES IDX 7 13 8 14 9 15 12 16 11 17 10 18 4 20 20 22 17 24
REMARK H PARENT 10 19 4 21 20 23 17 25
REMARK Flexibility Score: inf
ROOT
ATOM      1  C   UNL     1      -0.410  44.830   0.340  1.00  0.00     0.180 A 
ATOM      2  C   UNL     1      -1.171  45.140  -0.801  1.00  0.00     0.208 A 
ATOM      3  C   UNL     1      -0.554  45.097  -2.062  1.00  0.00     0.238 A 
ATOM      4  O   UNL     1      -1.226  45.428  -3.074  1.00  0.00    -0.285 OA
ATOM      5  C   UNL     1       0.808  44.730  -2.168  1.00  0.00     0.111 A 
ATOM      6  C   UNL     1       1.523  44.614  -3.399  1.00  0.00     0.134 A 
ATOM      7  C   UNL     1       2.902  44.372  -3.376  1.00  0.00     0.093 A 
ATOM      8  C   UNL     1       3.579  44.175  -2.169  1.00  0.00     0.123 A 
ATOM      9  C   UNL     1       2.879  44.227  -0.967  1.00  0.00     0.094 A 
ATOM     10  C   UNL     1       1.510  44.503  -0.955  1.00  0.00     0.146 A 
ATOM     11  O   UNL     1       0.883  44.554   0.214  1.00  0.00    -0.452 OA
ENDROOT
BRANCH   1  12
ATOM     12  C   UNL     1      -0.995  44.829   1.700  1.00  0.00     0.021 A 
ATOM     13  C   UNL     1      -0.776  45.893   2.594  1.00  0.00     0.016 A 
ATOM     14  C   UNL     1      -1.361  45.881   3.865  1.00  0.00     0.047 A 
ATOM     15  C   UNL     1      -2.181  44.814   4.252  1.00  0.00     0.115 A 
ATOM     16  C   UNL     1      -1.837  43.773   2.090  1.00  0.00     0.016 A 
ATOM     17  C   UNL     1      -2.418  43.763   3.361  1.00  0.00     0.047 A 
BRANCH  15  18
ATOM     18  O   UNL     1      -2.766  44.790   5.515  1.00  0.00    -0.508 OA
ATOM     19  H   UNL     1      -3.685  45.185   5.681  1.00  0.00     0.293 HD
ENDBRANCH  15  18
ENDBRANCH   1  12
BRANCH   2  20
ATOM     20  O   UNL     1      -2.509  45.522  -0.672  1.00  0.00    -0.502 OA
ATOM     21  H   UNL     1      -2.884  46.350  -1.120  1.00  0.00     0.293 HD
ENDBRANCH   2  20
BRANCH   6  22
ATOM     22  O   UNL     1       0.926  44.702  -4.660  1.00  0.00    -0.507 OA
ATOM     23  H   UNL     1       0.458  45.521  -5.018  1.00  0.00     0.293 HD
ENDBRANCH   6  22
BRANCH   8  24
ATOM     24  O   UNL     1       4.948  43.919  -2.158  1.00  0.00    -0.508 OA
ATOM     25  H   UNL     1       5.627  44.663  -2.049  1.00  0.00     0.293 HD
ENDBRANCH   8  24
TORSDOF 5
ENDMDL
MODEL 2
REMARK VINA RESULT:    -8.806      1.605      2.661
REMARK INTER + INTRA:         -10.584
REMARK INTER:                 -10.580
REMARK INTRA:                  -0.004
REMARK UNBOUND:                -0.233
REMARK SMILES O=c1c(O)c(-c2ccc(O)cc2)oc2cc(O)cc(O)c12
REMARK SMILES IDX 5 1 3 2 2 3 1 4 21 5 19 6 18 7 16 8 15 9 14 10 13 11 6 12
REMARK SMILES IDX 7 13 8 14 9 15 12 16 11 17 10 18 4 20 20 22 17 24
REMARK H PARENT 10 19 4 21 20 23 17 25
REMARK Flexibility Score: inf
ROOT
ATOM      1  C   UNL     1      -1.458  45.165   2.505  1.00  0.00     0.180 A 
ATOM      2  C   UNL     1      -2.350  45.298   1.426  1.00  0.00     0.208 A 
ATOM      3  C   UNL     1      -1.863  45.144   0.118  1.00  0.00     0.238 A 
ATOM      4  O   UNL     1      -2.654  45.317  -0.846  1.00  0.00    -0.285 OA
ATOM      5  C   UNL     1      -0.496  44.843  -0.094  1.00  0.00     0.111 A 
ATOM      6  C   UNL     1       0.097  44.626  -1.375  1.00  0.00     0.134 A 
ATOM      7  C   UNL     1       1.484  44.465  -1.475  1.00  0.00     0.093 A 
ATOM      8  C   UNL     1       2.292  44.447  -0.334  1.00  0.00     0.123 A 
ATOM      9  C   UNL     1       1.714  44.599   0.924  1.00  0.00     0.094 A 
ATOM     10  C   UNL     1       0.338  44.798   1.053  1.00  0.00     0.146 A 
ATOM     11  O   UNL     1      -0.169  44.949   2.271  1.00  0.00    -0.452 OA
ENDROOT
BRANCH   1  12
ATOM     12  C   UNL     1      -1.902  45.289   3.912  1.00  0.00     0.021 A 
ATOM     13  C   UNL     1      -3.001  44.560   4.402  1.00  0.00     0.016 A 
ATOM     14  C   UNL     1      -3.385  44.675   5.742  1.00  0.00     0.047 A 
ATOM     15  C   UNL     1      -2.669  45.509   6.611  1.00  0.00     0.115 A 
ATOM     16  C   UNL     1      -1.177  46.107   4.796  1.00  0.00     0.016 A 
ATOM     17  C   UNL     1      -1.565  46.221   6.135  1.00  0.00     0.047 A 
BRANCH  15  18
ATOM     18  O   UNL     1      -3.044  45.633   7.946  1.00  0.00    -0.508 OA
ATOM     19  H   UNL     1      -2.779  46.441   8.498  1.00  0.00     0.293 HD
ENDBRANCH  15  18
ENDBRANCH   1  12
BRANCH   2  20
ATOM     20  O   UNL     1      -3.691  45.617   1.657  1.00  0.00    -0.502 OA
ATOM     21  H   UNL     1      -3.976  46.302   2.347  1.00  0.00     0.293 HD
ENDBRANCH   2  20
BRANCH   6  22
ATOM     22  O   UNL     1      -0.630  44.534  -2.566  1.00  0.00    -0.507 OA
ATOM     23  H   UNL     1      -0.949  45.324  -3.107  1.00  0.00     0.293 HD
ENDBRANCH   6  22
BRANCH   8  24
ATOM     24  O   UNL     1       3.669  44.270  -0.443  1.00  0.00    -0.508 OA
ATOM     25  H   UNL     1       4.102  43.368  -0.285  1.00  0.00     0.293 HD
ENDBRANCH   8  24
TORSDOF 5
ENDMDL
MODEL 3
REMARK VINA RESULT:    -8.516      2.157      7.342
REMARK INTER + INTRA:         -10.243
REMARK INTER:                 -10.210
REMARK INTRA:                  -0.033
REMARK UNBOUND:                -0.233
REMARK SMILES O=c1c(O)c(-c2ccc(O)cc2)oc2cc(O)cc(O)c12
REMARK SMILES IDX 5 1 3 2 2 3 1 4 21 5 19 6 18 7 16 8 15 9 14 10 13 11 6 12
REMARK SMILES IDX 7 13 8 14 9 15 12 16 11 17 10 18 4 20 20 22 17 24
REMARK H PARENT 10 19 4 21 20 23 17 25
REMARK Flexibility Score: inf
ROOT
ATOM      1  C   UNL     1      -1.162  45.210   2.418  1.00  0.00     0.180 A 
ATOM      2  C   UNL     1      -2.410  44.706   2.825  1.00  0.00     0.208 A 
ATOM      3  C   UNL     1      -2.835  44.931   4.145  1.00  0.00     0.238 A 
ATOM      4  O   UNL     1      -3.928  44.431   4.520  1.00  0.00    -0.285 OA
ATOM      5  C   UNL     1      -2.018  45.669   5.033  1.00  0.00     0.111 A 
ATOM      6  C   UNL     1      -2.368  45.991   6.379  1.00  0.00     0.134 A 
ATOM      7  C   UNL     1      -1.426  46.613   7.208  1.00  0.00     0.093 A 
ATOM      8  C   UNL     1      -0.170  46.984   6.719  1.00  0.00     0.123 A 
ATOM      9  C   UNL     1       0.158  46.728   5.391  1.00  0.00     0.094 A 
ATOM     10  C   UNL     1      -0.746  46.076   4.550  1.00  0.00     0.146 A 
ATOM     11  O   UNL     1      -0.389  45.842   3.293  1.00  0.00    -0.452 OA
ENDROOT
BRANCH   1  12
ATOM     12  C   UNL     1      -0.657  45.036   1.037  1.00  0.00     0.021 A 
ATOM     13  C   UNL     1      -1.422  45.420  -0.080  1.00  0.00     0.016 A 
ATOM     14  C   UNL     1      -0.912  45.268  -1.373  1.00  0.00     0.047 A 
ATOM     15  C   UNL     1       0.372  44.745  -1.567  1.00  0.00     0.115 A 
ATOM     16  C   UNL     1       0.640  44.531   0.833  1.00  0.00     0.016 A 
ATOM     17  C   UNL     1       1.145  44.379  -0.461  1.00  0.00     0.047 A 
BRANCH  15  18
ATOM     18  O   UNL     1       0.889  44.587  -2.850  1.00  0.00    -0.508 OA
ATOM     19  H   UNL     1       0.299  44.317  -3.629  1.00  0.00     0.293 HD
ENDBRANCH  15  18
ENDBRANCH   1  12
BRANCH   2  20
ATOM     20  O   UNL     1      -3.191  43.961   1.939  1.00  0.00    -0.502 OA
ATOM     21  H   UNL     1      -3.443  42.996   2.115  1.00  0.00     0.293 HD
ENDBRANCH   2  20
BRANCH   6  22
ATOM     22  O   UNL     1      -3.626  45.746   6.938  1.00  0.00    -0.507 OA
ATOM     23  H   UNL     1      -4.096  46.360   7.586  1.00  0.00     0.293 HD
ENDBRANCH   6  22
BRANCH   8  24
ATOM     24  O   UNL     1       0.754  47.617   7.547  1.00  0.00    -0.508 OA
ATOM     25  H   UNL     1       0.704  47.539   8.556  1.00  0.00     0.293 HD
ENDBRANCH   8  24
TORSDOF 5
ENDMDL
MODEL 4
REMARK VINA RESULT:    -8.403      1.654      6.715
REMARK INTER + INTRA:         -10.110
REMARK INTER:                 -10.153
REMARK INTRA:                   0.043
REMARK UNBOUND:                -0.233
REMARK SMILES O=c1c(O)c(-c2ccc(O)cc2)oc2cc(O)cc(O)c12
REMARK SMILES IDX 5 1 3 2 2 3 1 4 21 5 19 6 18 7 16 8 15 9 14 10 13 11 6 12
REMARK SMILES IDX 7 13 8 14 9 15 12 16 11 17 10 18 4 20 20 22 17 24
REMARK H PARENT 10 19 4 21 20 23 17 25
REMARK Flexibility Score: inf
ROOT
ATOM      1  C   UNL     1      -0.662  45.016   0.730  1.00  0.00     0.180 A 
ATOM      2  C   UNL     1      -1.944  44.531   1.048  1.00  0.00     0.208 A 
ATOM      3  C   UNL     1      -2.428  44.696   2.356  1.00  0.00     0.238 A 
ATOM      4  O   UNL     1      -3.552  44.213   2.649  1.00  0.00    -0.285 OA
ATOM      5  C   UNL     1      -1.634  45.358   3.323  1.00  0.00     0.111 A 
ATOM      6  C   UNL     1      -2.041  45.616   4.667  1.00  0.00     0.134 A 
ATOM      7  C   UNL     1      -1.124  46.161   5.573  1.00  0.00     0.093 A 
ATOM      8  C   UNL     1       0.165  46.517   5.168  1.00  0.00     0.123 A 
ATOM      9  C   UNL     1       0.552  46.324   3.845  1.00  0.00     0.094 A 
ATOM     10  C   UNL     1      -0.328  45.749   2.926  1.00  0.00     0.146 A 
ATOM     11  O   UNL     1       0.085  45.572   1.676  1.00  0.00    -0.452 OA
ENDROOT
BRANCH   1  12
ATOM     12  C   UNL     1      -0.094  44.901  -0.632  1.00  0.00     0.021 A 
ATOM     13  C   UNL     1      -0.840  45.253  -1.772  1.00  0.00     0.016 A 
ATOM     14  C   UNL     1      -0.272  45.160  -3.046  1.00  0.00     0.047 A 
ATOM     15  C   UNL     1       1.051  44.728  -3.198  1.00  0.00     0.115 A 
ATOM     16  C   UNL     1       1.240  44.488  -0.792  1.00  0.00     0.016 A 
ATOM     17  C   UNL     1       1.804  44.395  -2.068  1.00  0.00     0.047 A 
BRANCH  15  18
ATOM     18  O   UNL     1       1.626  44.629  -4.462  1.00  0.00    -0.508 OA
ATOM     19  H   UNL     1       1.057  44.576  -5.300  1.00  0.00     0.293 HD
ENDBRANCH  15  18
ENDBRANCH   1  12
BRANCH   2  20
ATOM     20  O   UNL     1      -2.702  43.861   0.084  1.00  0.00    -0.502 OA
ATOM     21  H   UNL     1      -2.799  44.203  -0.865  1.00  0.00     0.293 HD
ENDBRANCH   2  20
BRANCH   6  22
ATOM     22  O   UNL     1      -3.332  45.382   5.149  1.00  0.00    -0.507 OA
ATOM     23  H   UNL     1      -4.176  45.746   4.732  1.00  0.00     0.293 HD
ENDBRANCH   6  22
BRANCH   8  24
ATOM     24  O   UNL     1       1.066  47.073   6.074  1.00  0.00    -0.508 OA
ATOM     25  H   UNL     1       2.033  47.244   5.824  1.00  0.00     0.293 HD
ENDBRANCH   8  24
TORSDOF 5
ENDMDL
MODEL 5
REMARK VINA RESULT:    -7.780      1.731      6.755
REMARK INTER + INTRA:          -9.378
REMARK INTER:                  -9.519
REMARK INTRA:                   0.141
REMARK UNBOUND:                -0.233
REMARK SMILES O=c1c(O)c(-c2ccc(O)cc2)oc2cc(O)cc(O)c12
REMARK SMILES IDX 5 1 3 2 2 3 1 4 21 5 19 6 18 7 16 8 15 9 14 10 13 11 6 12
REMARK SMILES IDX 7 13 8 14 9 15 12 16 11 17 10 18 4 20 20 22 17 24
REMARK H PARENT 10 19 4 21 20 23 17 25
REMARK Flexibility Score: inf
ROOT
ATOM      1  C   UNL     1       1.927  44.485  -2.264  1.00  0.00     0.180 A 
ATOM      2  C   UNL     1       0.723  44.452  -2.989  1.00  0.00     0.208 A 
ATOM      3  C   UNL     1      -0.487  44.665  -2.307  1.00  0.00     0.238 A 
ATOM      4  O   UNL     1      -1.565  44.580  -2.951  1.00  0.00    -0.285 OA
ATOM      5  C   UNL     1      -0.476  44.925  -0.916  1.00  0.00     0.111 A 
ATOM      6  C   UNL     1      -1.638  45.195  -0.133  1.00  0.00     0.134 A 
ATOM      7  C   UNL     1      -1.523  45.308   1.258  1.00  0.00     0.093 A 
ATOM      8  C   UNL     1      -0.277  45.226   1.887  1.00  0.00     0.123 A 
ATOM      9  C   UNL     1       0.870  45.022   1.124  1.00  0.00     0.094 A 
ATOM     10  C   UNL     1       0.782  44.869  -0.261  1.00  0.00     0.146 A 
ATOM     11  O   UNL     1       1.900  44.665  -0.949  1.00  0.00    -0.452 OA
ENDROOT
BRANCH   1  12
ATOM     12  C   UNL     1       3.243  44.295  -2.916  1.00  0.00     0.021 A 
ATOM     13  C   UNL     1       3.528  44.858  -4.173  1.00  0.00     0.016 A 
ATOM     14  C   UNL     1       4.787  44.685  -4.757  1.00  0.00     0.047 A 
ATOM     15  C   UNL     1       5.780  43.959  -4.088  1.00  0.00     0.115 A 
ATOM     16  C   UNL     1       4.252  43.585  -2.242  1.00  0.00     0.016 A 
ATOM     17  C   UNL     1       5.509  43.413  -2.830  1.00  0.00     0.047 A 
BRANCH  15  18
ATOM     18  O   UNL     1       7.036  43.779  -4.660  1.00  0.00    -0.508 OA
ATOM     19  H   UNL     1       7.226  43.005  -5.288  1.00  0.00     0.293 HD
ENDBRANCH  15  18
ENDBRANCH   1  12
BRANCH   2  20
ATOM     20  O   UNL     1       0.733  44.171  -4.358  1.00  0.00    -0.502 OA
ATOM     21  H   UNL     1       1.117  43.313  -4.734  1.00  0.00     0.293 HD
ENDBRANCH   2  20
BRANCH   6  22
ATOM     22  O   UNL     1      -2.915  45.386  -0.671  1.00  0.00    -0.507 OA
ATOM     23  H   UNL     1      -3.546  44.643  -0.931  1.00  0.00     0.293 HD
ENDBRANCH   6  22
BRANCH   8  24
ATOM     24  O   UNL     1      -0.170  45.356   3.269  1.00  0.00    -0.508 OA
ATOM     25  H   UNL     1       0.713  45.576   3.715  1.00  0.00     0.293 HD
ENDBRANCH   8  24
TORSDOF 5
ENDMDL
MODEL 6
REMARK VINA RESULT:    -7.612      4.544      8.066
REMARK INTER + INTRA:          -9.181
REMARK INTER:                  -9.240
REMARK INTRA:                   0.059
REMARK UNBOUND:                -0.233
REMARK SMILES O=c1c(O)c(-c2ccc(O)cc2)oc2cc(O)cc(O)c12
REMARK SMILES IDX 5 1 3 2 2 3 1 4 21 5 19 6 18 7 16 8 15 9 14 10 13 11 6 12
REMARK SMILES IDX 7 13 8 14 9 15 12 16 11 17 10 18 4 20 20 22 17 24
REMARK H PARENT 10 19 4 21 20 23 17 25
REMARK Flexibility Score: inf
ROOT
ATOM      1  C   UNL     1      -0.913  46.414   7.697  1.00  0.00     0.180 A 
ATOM      2  C   UNL     1      -2.266  46.038   7.637  1.00  0.00     0.208 A 
ATOM      3  C   UNL     1      -2.815  45.671   6.398  1.00  0.00     0.238 A 
ATOM      4  O   UNL     1      -4.040  45.388   6.340  1.00  0.00    -0.285 OA
ATOM      5  C   UNL     1      -2.002  45.669   5.240  1.00  0.00     0.111 A 
ATOM      6  C   UNL     1      -2.443  45.276   3.940  1.00  0.00     0.134 A 
ATOM      7  C   UNL     1      -1.589  45.438   2.842  1.00  0.00     0.093 A 
ATOM      8  C   UNL     1      -0.287  45.917   3.007  1.00  0.00     0.123 A 
ATOM      9  C   UNL     1       0.172  46.246   4.280  1.00  0.00     0.094 A 
ATOM     10  C   UNL     1      -0.668  46.130   5.389  1.00  0.00     0.146 A 
ATOM     11  O   UNL     1      -0.193  46.465   6.583  1.00  0.00    -0.452 OA
ENDROOT
BRANCH   1  12
ATOM     12  C   UNL     1      -0.257  46.789   8.971  1.00  0.00     0.021 A 
ATOM     13  C   UNL     1      -0.421  46.019  10.137  1.00  0.00     0.016 A 
ATOM     14  C   UNL     1       0.230  46.381  11.321  1.00  0.00     0.047 A 
ATOM     15  C   UNL     1       1.062  47.506  11.352  1.00  0.00     0.115 A 
ATOM     16  C   UNL     1       0.597  47.906   9.006  1.00  0.00     0.016 A 
ATOM     17  C   UNL     1       1.244  48.265  10.192  1.00  0.00     0.047 A 
BRANCH  15  18
ATOM     18  O   UNL     1       1.713  47.877  12.526  1.00  0.00    -0.508 OA
ATOM     19  H   UNL     1       1.207  48.279  13.307  1.00  0.00     0.293 HD
ENDBRANCH  15  18
ENDBRANCH   1  12
BRANCH   2  20
ATOM     20  O   UNL     1      -3.057  46.069   8.789  1.00  0.00    -0.502 OA
ATOM     21  H   UNL     1      -2.725  45.735   9.686  1.00  0.00     0.293 HD
ENDBRANCH   2  20
BRANCH   6  22
ATOM     22  O   UNL     1      -3.691  44.701   3.680  1.00  0.00    -0.507 OA
ATOM     23  H   UNL     1      -4.269  44.918   2.882  1.00  0.00     0.293 HD
ENDBRANCH   6  22
BRANCH   8  24
ATOM     24  O   UNL     1       0.561  46.060   1.911  1.00  0.00    -0.508 OA
ATOM     25  H   UNL     1       0.803  45.273   1.321  1.00  0.00     0.293 HD
ENDBRANCH   8  24
TORSDOF 5
ENDMDL
MODEL 7
REMARK VINA RESULT:    -7.435      8.962     11.181
REMARK INTER + INTRA:          -8.972
REMARK INTER:                  -8.744
REMARK INTRA:                  -0.229
REMARK UNBOUND:                -0.233
REMARK SMILES O=c1c(O)c(-c2ccc(O)cc2)oc2cc(O)cc(O)c12
REMARK SMILES IDX 5 1 3 2 2 3 1 4 21 5 19 6 18 7 16 8 15 9 14 10 13 11 6 12
REMARK SMILES IDX 7 13 8 14 9 15 12 16 11 17 10 18 4 20 20 22 17 24
REMARK H PARENT 10 19 4 21 20 23 17 25
REMARK Flexibility Score: inf
ROOT
ATOM      1  C   UNL     1       8.868  46.993  -1.819  1.00  0.00     0.180 A 
ATOM      2  C   UNL     1       8.346  48.244  -1.447  1.00  0.00     0.208 A 
ATOM      3  C   UNL     1       8.649  48.756  -0.174  1.00  0.00     0.238 A 
ATOM      4  O   UNL     1       8.135  49.851   0.174  1.00  0.00    -0.285 OA
ATOM      5  C   UNL     1       9.483  48.021   0.701  1.00  0.00     0.111 A 
ATOM      6  C   UNL     1       9.888  48.463   1.997  1.00  0.00     0.134 A 
ATOM      7  C   UNL     1      10.607  47.596   2.829  1.00  0.00     0.093 A 
ATOM      8  C   UNL     1      10.991  46.327   2.387  1.00  0.00     0.123 A 
ATOM      9  C   UNL     1      10.652  45.910   1.103  1.00  0.00     0.094 A 
ATOM     10  C   UNL     1       9.904  46.738   0.263  1.00  0.00     0.146 A 
ATOM     11  O   UNL     1       9.592  46.297  -0.951  1.00  0.00    -0.452 OA
ENDROOT
BRANCH   1  12
ATOM     12  C   UNL     1       8.614  46.398  -3.151  1.00  0.00     0.021 A 
ATOM     13  C   UNL     1       7.368  45.831  -3.476  1.00  0.00     0.016 A 
ATOM     14  C   UNL     1       7.144  45.299  -4.749  1.00  0.00     0.047 A 
ATOM     15  C   UNL     1       8.155  45.338  -5.717  1.00  0.00     0.115 A 
ATOM     16  C   UNL     1       9.616  46.452  -4.135  1.00  0.00     0.016 A 
ATOM     17  C   UNL     1       9.388  45.917  -5.407  1.00  0.00     0.047 A 
BRANCH  15  18
ATOM     18  O   UNL     1       7.944  44.808  -6.988  1.00  0.00    -0.508 OA
ATOM     19  H   UNL     1       8.510  44.048  -7.345  1.00  0.00     0.293 HD
ENDBRANCH  15  18
ENDBRANCH   1  12
BRANCH   2  20
ATOM     20  O   UNL     1       7.507  48.943  -2.318  1.00  0.00    -0.502 OA
ATOM     21  H   UNL     1       6.791  49.580  -1.989  1.00  0.00     0.293 HD
ENDBRANCH   2  20
BRANCH   6  22
ATOM     22  O   UNL     1       9.635  49.743   2.499  1.00  0.00    -0.507 OA
ATOM     23  H   UNL     1       8.716  50.130   2.650  1.00  0.00     0.293 HD
ENDBRANCH   6  22
BRANCH   8  24
ATOM     24  O   UNL     1      11.719  45.477   3.216  1.00  0.00    -0.508 OA
ATOM     25  H   UNL     1      12.539  45.798   3.717  1.00  0.00     0.293 HD
ENDBRANCH   8  24
TORSDOF 5
ENDMDL
MODEL 8
REMARK VINA RESULT:    -7.434      6.183     10.824
REMARK INTER + INTRA:          -8.971
REMARK INTER:                  -8.730
REMARK INTRA:                  -0.240
REMARK UNBOUND:                -0.233
REMARK SMILES O=c1c(O)c(-c2ccc(O)cc2)oc2cc(O)cc(O)c12
REMARK SMILES IDX 5 1 3 2 2 3 1 4 21 5 19 6 18 7 16 8 15 9 14 10 13 11 6 12
REMARK SMILES IDX 7 13 8 14 9 15 12 16 11 17 10 18 4 20 20 22 17 24
REMARK H PARENT 10 19 4 21 20 23 17 25
REMARK Flexibility Score: inf
ROOT
ATOM      1  C   UNL     1      -0.146  46.925   8.122  1.00  0.00     0.180 A 
ATOM      2  C   UNL     1       0.109  48.275   8.422  1.00  0.00     0.208 A 
ATOM      3  C   UNL     1       0.742  48.594   9.635  1.00  0.00     0.238 A 
ATOM      4  O   UNL     1       0.920  49.806   9.923  1.00  0.00    -0.285 OA
ATOM      5  C   UNL     1       1.127  47.560  10.522  1.00  0.00     0.111 A 
ATOM      6  C   UNL     1       1.811  47.766  11.758  1.00  0.00     0.134 A 
ATOM      7  C   UNL     1       2.025  46.682  12.618  1.00  0.00     0.093 A 
ATOM      8  C   UNL     1       1.638  45.389  12.256  1.00  0.00     0.123 A 
ATOM      9  C   UNL     1       1.024  45.169  11.027  1.00  0.00     0.094 A 
ATOM     10  C   UNL     1       0.764  46.236  10.164  1.00  0.00     0.146 A 
ATOM     11  O   UNL     1       0.166  45.983   9.005  1.00  0.00    -0.452 OA
ENDROOT
BRANCH   1  12
ATOM     12  C   UNL     1      -0.788  46.509   6.854  1.00  0.00     0.021 A 
ATOM     13  C   UNL     1      -0.087  46.536   5.634  1.00  0.00     0.016 A 
ATOM     14  C   UNL     1      -0.707  46.113   4.454  1.00  0.00     0.047 A 
ATOM     15  C   UNL     1      -2.027  45.647   4.479  1.00  0.00     0.115 A 
ATOM     16  C   UNL     1      -2.105  46.020   6.873  1.00  0.00     0.016 A 
ATOM     17  C   UNL     1      -2.722  45.600   5.691  1.00  0.00     0.047 A 
BRANCH  15  18
ATOM     18  O   UNL     1      -2.655  45.227   3.309  1.00  0.00    -0.508 OA
ATOM     19  H   UNL     1      -3.652  45.347   3.170  1.00  0.00     0.293 HD
ENDBRANCH  15  18
ENDBRANCH   1  12
BRANCH   2  20
ATOM     20  O   UNL     1      -0.299  49.280   7.542  1.00  0.00    -0.502 OA
ATOM     21  H   UNL     1       0.172  50.175   7.483  1.00  0.00     0.293 HD
ENDBRANCH   2  20
BRANCH   6  22
ATOM     22  O   UNL     1       2.320  49.001  12.172  1.00  0.00    -0.507 OA
ATOM     23  H   UNL     1       3.041  49.516  11.690  1.00  0.00     0.293 HD
ENDBRANCH   6  22
BRANCH   8  24
ATOM     24  O   UNL     1       1.870  44.314  13.111  1.00  0.00    -0.508 OA
ATOM     25  H   UNL     1       2.595  43.631  12.923  1.00  0.00     0.293 HD
ENDBRANCH   8  24
TORSDOF 5
ENDMDL
MODEL 9
REMARK VINA RESULT:    -7.400      1.605      3.357
REMARK INTER + INTRA:          -8.931
REMARK INTER:                  -9.054
REMARK INTRA:                   0.123
REMARK UNBOUND:                -0.233
REMARK SMILES O=c1c(O)c(-c2ccc(O)cc2)oc2cc(O)cc(O)c12
REMARK SMILES IDX 5 1 3 2 2 3 1 4 21 5 19 6 18 7 16 8 15 9 14 10 13 11 6 12
REMARK SMILES IDX 7 13 8 14 9 15 12 16 11 17 10 18 4 20 20 22 17 24
REMARK H PARENT 10 19 4 21 20 23 17 25
REMARK Flexibility Score: inf
ROOT
ATOM      1  C   UNL     1       0.020  45.246   1.853  1.00  0.00     0.180 A 
ATOM      2  C   UNL     1       1.384  44.965   1.659  1.00  0.00     0.208 A 
ATOM      3  C   UNL     1       1.851  44.732   0.355  1.00  0.00     0.238 A 
ATOM      4  O   UNL     1       3.062  44.428   0.193  1.00  0.00    -0.285 OA
ATOM      5  C   UNL     1       0.955  44.798  -0.737  1.00  0.00     0.111 A 
ATOM      6  C   UNL     1       1.328  44.619  -2.104  1.00  0.00     0.134 A 
ATOM      7  C   UNL     1       0.335  44.577  -3.091  1.00  0.00     0.093 A 
ATOM      8  C   UNL     1      -1.011  44.772  -2.768  1.00  0.00     0.123 A 
ATOM      9  C   UNL     1      -1.377  45.007  -1.445  1.00  0.00     0.094 A 
ATOM     10  C   UNL     1      -0.414  45.019  -0.434  1.00  0.00     0.146 A 
ATOM     11  O   UNL     1      -0.809  45.236   0.815  1.00  0.00    -0.452 OA
ENDROOT
BRANCH   1  12
ATOM     12  C   UNL     1      -0.543  45.527   3.193  1.00  0.00     0.021 A 
ATOM     13  C   UNL     1       0.141  46.332   4.123  1.00  0.00     0.016 A 
ATOM     14  C   UNL     1      -0.423  46.603   5.373  1.00  0.00     0.047 A 
ATOM     15  C   UNL     1      -1.681  46.087   5.706  1.00  0.00     0.115 A 
ATOM     16  C   UNL     1      -1.814  45.030   3.528  1.00  0.00     0.016 A 
ATOM     17  C   UNL     1      -2.374  45.302   4.780  1.00  0.00     0.047 A 
BRANCH  15  18
ATOM     18  O   UNL     1      -2.251  46.349   6.949  1.00  0.00    -0.508 OA
ATOM     19  H   UNL     1      -2.309  47.292   7.317  1.00  0.00     0.293 HD
ENDBRANCH  15  18
ENDBRANCH   1  12
BRANCH   2  20
ATOM     20  O   UNL     1       2.248  44.883   2.754  1.00  0.00    -0.502 OA
ATOM     21  H   UNL     1       2.046  44.308   3.564  1.00  0.00     0.293 HD
ENDBRANCH   2  20
BRANCH   6  22
ATOM     22  O   UNL     1       2.650  44.506  -2.544  1.00  0.00    -0.507 OA
ATOM     23  H   UNL     1       3.040  43.689  -2.988  1.00  0.00     0.293 HD
ENDBRANCH   6  22
BRANCH   8  24
ATOM     24  O   UNL     1      -1.990  44.743  -3.758  1.00  0.00    -0.508 OA
ATOM     25  H   UNL     1      -2.441  45.590  -4.084  1.00  0.00     0.293 HD
ENDBRANCH   8  24
TORSDOF 5
ENDMDL
