MODEL 1
REMARK VINA RESULT:    -3.874      0.000      0.000
REMARK INTER + INTRA:          -6.736
REMARK INTER:                  -6.139
REMARK INTRA:                  -0.597
REMARK UNBOUND:                -0.597
REMARK SMILES CCCCCCCCCCCC(=O)[O-]
REMARK SMILES IDX 7 1 8 2 9 3 10 4 11 5 12 6 13 7 14 8 6 9 5 10 4 11 3 12 2 13
REMARK SMILES IDX 1 14
REMARK H PARENT
REMARK Flexibility Score: inf
ROOT
ATOM      1  C   UNL     1      57.987   4.085  95.657  1.00  0.00     0.000 C 
ENDROOT
BRANCH   1   2
ATOM      2  C   UNL     1      58.541   5.473  96.015  1.00  0.00     0.000 C 
BRANCH   2   3
ATOM      3  C   UNL     1      59.892   5.402  96.745  1.00  0.00     0.000 C 
BRANCH   3   4
ATOM      4  C   UNL     1      60.861   6.466  96.210  1.00  0.00     0.006 C 
BRANCH   4   5
ATOM      5  C   UNL     1      60.279   7.882  96.302  1.00  0.00     0.053 C 
BRANCH   5   6
ATOM      6  C   UNL     1      60.667   8.721  95.123  1.00  0.00     0.041 C 
ATOM      7  O   UNL     1      60.796   8.195  93.987  1.00  0.00    -0.550 OA
ATOM      8  O   UNL     1      60.854  10.089  95.273  1.00  0.00    -0.550 OA
ENDBRANCH   5   6
ENDBRANCH   4   5
ENDBRANCH   3   4
ENDBRANCH   2   3
ENDBRANCH   1   2
BRANCH   1   9
ATOM      9  C   UNL     1      58.081   3.090  96.823  1.00  0.00     0.000 C 
BRANCH   9  10
ATOM     10  C   UNL     1      58.725   1.771  96.369  1.00  0.00    -0.000 C 
BRANCH  10  11
ATOM     11  C   UNL     1      60.098   1.518  97.021  1.00  0.00    -0.000 C 
BRANCH  11  12
ATOM     12  C   UNL     1      60.684   0.115  96.778  1.00  0.00    -0.000 C 
BRANCH  12  13
ATOM     13  C   UNL     1      59.942  -0.661  95.679  1.00  0.00    -0.003 C 
ATOM     14  C   UNL     1      60.871  -0.977  94.510  1.00  0.00     0.004 C 
ENDBRANCH  12  13
ENDBRANCH  11  12
ENDBRANCH  10  11
ENDBRANCH   9  10
ENDBRANCH   1   9
TORSDOF 10
ENDMDL
MODEL 2
REMARK VINA RESULT:    -3.833      5.130      7.016
REMARK INTER + INTRA:          -6.671
REMARK INTER:                  -5.251
REMARK INTRA:                  -1.419
REMARK UNBOUND:                -0.597
REMARK SMILES CCCCCCCCCCCC(=O)[O-]
REMARK SMILES IDX 7 1 8 2 9 3 10 4 11 5 12 6 13 7 14 8 6 9 5 10 4 11 3 12 2 13
REMARK SMILES IDX 1 14
REMARK H PARENT
REMARK Flexibility Score: inf
ROOT
ATOM      1  C   UNL     1      60.475  -0.368  96.586  1.00  0.00     0.000 C 
ENDROOT
BRANCH   1   2
ATOM      2  C   UNL     1      61.067  -0.847  95.252  1.00  0.00     0.000 C 
BRANCH   2   3
ATOM      3  C   UNL     1      60.050  -1.620  94.396  1.00  0.00     0.000 C 
BRANCH   3   4
ATOM      4  C   UNL     1      60.312  -1.399  92.899  1.00  0.00     0.006 C 
BRANCH   4   5
ATOM      5  C   UNL     1      59.622  -0.136  92.368  1.00  0.00     0.053 C 
BRANCH   5   6
ATOM      6  C   UNL     1      58.841  -0.411  91.120  1.00  0.00     0.041 C 
ATOM      7  O   UNL     1      58.401   0.543  90.426  1.00  0.00    -0.550 OA
ATOM      8  O   UNL     1      58.629  -1.719  90.704  1.00  0.00    -0.550 OA
ENDBRANCH   5   6
ENDBRANCH   4   5
ENDBRANCH   3   4
ENDBRANCH   2   3
ENDBRANCH   1   2
BRANCH   1   9
ATOM      9  C   UNL     1      60.335   1.160  96.658  1.00  0.00     0.000 C 
BRANCH   9  10
ATOM     10  C   UNL     1      58.857   1.573  96.731  1.00  0.00    -0.000 C 
BRANCH  10  11
ATOM     11  C   UNL     1      58.157   1.542  95.360  1.00  0.00    -0.000 C 
BRANCH  11  12
ATOM     12  C   UNL     1      57.130   0.409  95.180  1.00  0.00    -0.000 C 
BRANCH  12  13
ATOM     13  C   UNL     1      56.684  -0.212  96.512  1.00  0.00    -0.003 C 
ATOM     14  C   UNL     1      56.991  -1.706  96.550  1.00  0.00     0.004 C 
ENDBRANCH  12  13
ENDBRANCH  11  12
ENDBRANCH  10  11
ENDBRANCH   9  10
ENDBRANCH   1   9
TORSDOF 10
ENDMDL
MODEL 3
REMARK VINA RESULT:    -3.795      4.018      7.195
REMARK INTER + INTRA:          -6.610
REMARK INTER:                  -6.038
REMARK INTRA:                  -0.572
REMARK UNBOUND:                -0.597
REMARK SMILES CCCCCCCCCCCC(=O)[O-]
REMARK SMILES IDX 7 1 8 2 9 3 10 4 11 5 12 6 13 7 14 8 6 9 5 10 4 11 3 12 2 13
REMARK SMILES IDX 1 14
REMARK H PARENT
REMARK Flexibility Score: inf
ROOT
ATOM      1  C   UNL     1      58.868   1.590  96.270  1.00  0.00     0.000 C 
ENDROOT
BRANCH   1   2
ATOM      2  C   UNL     1      60.221   1.356  96.959  1.00  0.00     0.000 C 
BRANCH   2   3
ATOM      3  C   UNL     1      60.739  -0.079  96.776  1.00  0.00     0.000 C 
BRANCH   3   4
ATOM      4  C   UNL     1      60.088  -0.746  95.555  1.00  0.00     0.006 C 
BRANCH   4   5
ATOM      5  C   UNL     1      61.097  -1.009  94.429  1.00  0.00     0.053 C 
BRANCH   5   6
ATOM      6  C   UNL     1      60.445  -1.626  93.230  1.00  0.00     0.041 C 
ATOM      7  O   UNL     1      60.263  -2.870  93.180  1.00  0.00    -0.550 OA
ATOM      8  O   UNL     1      60.010  -0.824  92.183  1.00  0.00    -0.550 OA
ENDBRANCH   5   6
ENDBRANCH   4   5
ENDBRANCH   3   4
ENDBRANCH   2   3
ENDBRANCH   1   2
BRANCH   1   9
ATOM      9  C   UNL     1      57.908   2.438  97.119  1.00  0.00     0.000 C 
BRANCH   9  10
ATOM     10  C   UNL     1      58.272   3.928  97.036  1.00  0.00    -0.000 C 
BRANCH  10  11
ATOM     11  C   UNL     1      58.006   4.534  95.645  1.00  0.00    -0.000 C 
BRANCH  11  12
ATOM     12  C   UNL     1      58.752   5.849  95.356  1.00  0.00    -0.000 C 
BRANCH  12  13
ATOM     13  C   UNL     1      59.689   6.269  96.498  1.00  0.00    -0.003 C 
ATOM     14  C   UNL     1      61.116   6.463  95.993  1.00  0.00     0.004 C 
ENDBRANCH  12  13
ENDBRANCH  11  12
ENDBRANCH  10  11
ENDBRANCH   9  10
ENDBRANCH   1   9
TORSDOF 10
ENDMDL
MODEL 4
REMARK VINA RESULT:    -3.776      5.010      6.960
REMARK INTER + INTRA:          -6.581
REMARK INTER:                  -5.496
REMARK INTRA:                  -1.085
REMARK UNBOUND:                -0.597
REMARK SMILES CCCCCCCCCCCC(=O)[O-]
REMARK SMILES IDX 7 1 8 2 9 3 10 4 11 5 12 6 13 7 14 8 6 9 5 10 4 11 3 12 2 13
REMARK SMILES IDX 1 14
REMARK H PARENT
REMARK Flexibility Score: inf
ROOT
ATOM      1  C   UNL     1      59.758   1.595  97.011  1.00  0.00     0.000 C 
ENDROOT
BRANCH   1   2
ATOM      2  C   UNL     1      60.654   0.374  96.754  1.00  0.00     0.000 C 
BRANCH   2   3
ATOM      3  C   UNL     1      60.033  -0.617  95.757  1.00  0.00     0.000 C 
BRANCH   3   4
ATOM      4  C   UNL     1      61.037  -0.990  94.656  1.00  0.00     0.006 C 
BRANCH   4   5
ATOM      5  C   UNL     1      60.496  -2.078  93.720  1.00  0.00     0.053 C 
BRANCH   5   6
ATOM      6  C   UNL     1      59.845  -1.493  92.504  1.00  0.00     0.041 C 
ATOM      7  O   UNL     1      59.979  -0.269  92.242  1.00  0.00    -0.550 OA
ATOM      8  O   UNL     1      59.120  -2.305  91.642  1.00  0.00    -0.550 OA
ENDBRANCH   5   6
ENDBRANCH   4   5
ENDBRANCH   3   4
ENDBRANCH   2   3
ENDBRANCH   1   2
BRANCH   1   9
ATOM      9  C   UNL     1      58.563   1.669  96.048  1.00  0.00     0.000 C 
BRANCH   9  10
ATOM     10  C   UNL     1      57.249   1.864  96.819  1.00  0.00    -0.000 C 
BRANCH  10  11
ATOM     11  C   UNL     1      56.361   0.606  96.821  1.00  0.00    -0.000 C 
BRANCH  11  12
ATOM     12  C   UNL     1      56.229  -0.099  95.459  1.00  0.00    -0.000 C 
BRANCH  12  13
ATOM     13  C   UNL     1      56.652  -1.575  95.506  1.00  0.00    -0.003 C 
ATOM     14  C   UNL     1      56.719  -2.081  96.944  1.00  0.00     0.004 C 
ENDBRANCH  12  13
ENDBRANCH  11  12
ENDBRANCH  10  11
ENDBRANCH   9  10
ENDBRANCH   1   9
TORSDOF 10
ENDMDL
MODEL 5
REMARK VINA RESULT:    -3.763      4.170      7.454
REMARK INTER + INTRA:          -6.560
REMARK INTER:                  -6.064
REMARK INTRA:                  -0.496
REMARK UNBOUND:                -0.597
REMARK SMILES CCCCCCCCCCCC(=O)[O-]
REMARK SMILES IDX 7 1 8 2 9 3 10 4 11 5 12 6 13 7 14 8 6 9 5 10 4 11 3 12 2 13
REMARK SMILES IDX 1 14
REMARK H PARENT
REMARK Flexibility Score: inf
ROOT
ATOM      1  C   UNL     1      58.315   3.157  96.178  1.00  0.00     0.000 C 
ENDROOT
BRANCH   1   2
ATOM      2  C   UNL     1      58.549   1.658  96.422  1.00  0.00     0.000 C 
BRANCH   2   3
ATOM      3  C   UNL     1      60.012   1.334  96.763  1.00  0.00     0.000 C 
BRANCH   3   4
ATOM      4  C   UNL     1      60.269  -0.179  96.696  1.00  0.00     0.006 C 
BRANCH   4   5
ATOM      5  C   UNL     1      61.035  -0.582  95.430  1.00  0.00     0.053 C 
BRANCH   5   6
ATOM      6  C   UNL     1      60.145  -1.256  94.432  1.00  0.00     0.041 C 
ATOM      7  O   UNL     1      58.942  -1.495  94.717  1.00  0.00    -0.550 OA
ATOM      8  O   UNL     1      60.634  -1.591  93.176  1.00  0.00    -0.550 OA
ENDBRANCH   5   6
ENDBRANCH   4   5
ENDBRANCH   3   4
ENDBRANCH   2   3
ENDBRANCH   1   2
BRANCH   1   9
ATOM      9  C   UNL     1      59.158   4.048  97.103  1.00  0.00     0.000 C 
BRANCH   9  10
ATOM     10  C   UNL     1      59.257   5.477  96.547  1.00  0.00    -0.000 C 
BRANCH  10  11
ATOM     11  C   UNL     1      60.710   5.922  96.294  1.00  0.00    -0.000 C 
BRANCH  11  12
ATOM     12  C   UNL     1      60.863   7.339  95.710  1.00  0.00    -0.000 C 
BRANCH  12  13
ATOM     13  C   UNL     1      60.992   8.421  96.792  1.00  0.00    -0.003 C 
ATOM     14  C   UNL     1      59.836   9.414  96.715  1.00  0.00     0.004 C 
ENDBRANCH  12  13
ENDBRANCH  11  12
ENDBRANCH  10  11
ENDBRANCH   9  10
ENDBRANCH   1   9
TORSDOF 10
ENDMDL
MODEL 6
REMARK VINA RESULT:    -3.755      3.857      7.098
REMARK INTER + INTRA:          -6.548
REMARK INTER:                  -5.736
REMARK INTRA:                  -0.812
REMARK UNBOUND:                -0.597
REMARK SMILES CCCCCCCCCCCC(=O)[O-]
REMARK SMILES IDX 7 1 8 2 9 3 10 4 11 5 12 6 13 7 14 8 6 9 5 10 4 11 3 12 2 13
REMARK SMILES IDX 1 14
REMARK H PARENT
REMARK Flexibility Score: inf
ROOT
ATOM      1  C   UNL     1      60.544   0.461  96.842  1.00  0.00     0.000 C 
ENDROOT
BRANCH   1   2
ATOM      2  C   UNL     1      60.018  -0.559  95.820  1.00  0.00     0.000 C 
BRANCH   2   3
ATOM      3  C   UNL     1      61.100  -1.019  94.831  1.00  0.00     0.000 C 
BRANCH   3   4
ATOM      4  C   UNL     1      60.501  -1.272  93.440  1.00  0.00     0.006 C 
BRANCH   4   5
ATOM      5  C   UNL     1      59.422  -0.244  93.076  1.00  0.00     0.053 C 
BRANCH   5   6
ATOM      6  C   UNL     1      58.910  -0.444  91.683  1.00  0.00     0.041 C 
ATOM      7  O   UNL     1      58.925   0.510  90.861  1.00  0.00    -0.550 OA
ATOM      8  O   UNL     1      58.448  -1.691  91.282  1.00  0.00    -0.550 OA
ENDBRANCH   5   6
ENDBRANCH   4   5
ENDBRANCH   3   4
ENDBRANCH   2   3
ENDBRANCH   1   2
BRANCH   1   9
ATOM      9  C   UNL     1      59.631   1.689  96.979  1.00  0.00     0.000 C 
BRANCH   9  10
ATOM     10  C   UNL     1      58.293   1.461  96.260  1.00  0.00    -0.000 C 
BRANCH  10  11
ATOM     11  C   UNL     1      57.714   2.750  95.645  1.00  0.00    -0.000 C 
BRANCH  11  12
ATOM     12  C   UNL     1      57.941   4.025  96.476  1.00  0.00    -0.000 C 
BRANCH  12  13
ATOM     13  C   UNL     1      58.633   5.142  95.681  1.00  0.00    -0.003 C 
ATOM     14  C   UNL     1      59.765   5.770  96.489  1.00  0.00     0.004 C 
ENDBRANCH  12  13
ENDBRANCH  11  12
ENDBRANCH  10  11
ENDBRANCH   9  10
ENDBRANCH   1   9
TORSDOF 10
ENDMDL
MODEL 7
REMARK VINA RESULT:    -3.711      1.727      2.655
REMARK INTER + INTRA:          -6.478
REMARK INTER:                  -5.556
REMARK INTRA:                  -0.922
REMARK UNBOUND:                -0.597
REMARK SMILES CCCCCCCCCCCC(=O)[O-]
REMARK SMILES IDX 7 1 8 2 9 3 10 4 11 5 12 6 13 7 14 8 6 9 5 10 4 11 3 12 2 13
REMARK SMILES IDX 1 14
REMARK H PARENT
REMARK Flexibility Score: inf
ROOT
ATOM      1  C   UNL     1      57.674   1.342  95.164  1.00  0.00     0.000 C 
ENDROOT
BRANCH   1   2
ATOM      2  C   UNL     1      57.790   2.824  95.551  1.00  0.00     0.000 C 
BRANCH   2   3
ATOM      3  C   UNL     1      58.205   3.023  97.017  1.00  0.00     0.000 C 
BRANCH   3   4
ATOM      4  C   UNL     1      59.402   3.979  97.125  1.00  0.00     0.006 C 
BRANCH   4   5
ATOM      5  C   UNL     1      58.972   5.451  97.125  1.00  0.00     0.053 C 
BRANCH   5   6
ATOM      6  C   UNL     1      59.705   6.245  96.087  1.00  0.00     0.041 C 
ATOM      7  O   UNL     1      59.424   6.104  94.868  1.00  0.00    -0.550 OA
ATOM      8  O   UNL     1      60.675   7.163  96.467  1.00  0.00    -0.550 OA
ENDBRANCH   5   6
ENDBRANCH   4   5
ENDBRANCH   3   4
ENDBRANCH   2   3
ENDBRANCH   1   2
BRANCH   1   9
ATOM      9  C   UNL     1      57.809   0.401  96.370  1.00  0.00     0.000 C 
BRANCH   9  10
ATOM     10  C   UNL     1      58.841  -0.703  96.093  1.00  0.00    -0.000 C 
BRANCH  10  11
ATOM     11  C   UNL     1      60.259  -0.151  95.850  1.00  0.00    -0.000 C 
BRANCH  11  12
ATOM     12  C   UNL     1      61.125  -0.985  94.888  1.00  0.00    -0.000 C 
BRANCH  12  13
ATOM     13  C   UNL     1      60.310  -1.633  93.760  1.00  0.00    -0.003 C 
ATOM     14  C   UNL     1      60.019  -0.631  92.647  1.00  0.00     0.004 C 
ENDBRANCH  12  13
ENDBRANCH  11  12
ENDBRANCH  10  11
ENDBRANCH   9  10
ENDBRANCH   1   9
TORSDOF 10
ENDMDL
MODEL 8
REMARK VINA RESULT:    -3.663      6.227      7.717
REMARK INTER + INTRA:          -6.402
REMARK INTER:                  -5.209
REMARK INTRA:                  -1.193
REMARK UNBOUND:                -0.597
REMARK SMILES CCCCCCCCCCCC(=O)[O-]
REMARK SMILES IDX 7 1 8 2 9 3 10 4 11 5 12 6 13 7 14 8 6 9 5 10 4 11 3 12 2 13
REMARK SMILES IDX 1 14
REMARK H PARENT
REMARK Flexibility Score: inf
ROOT
ATOM      1  C   UNL     1      58.274   1.380  96.060  1.00  0.00     0.000 C 
ENDROOT
BRANCH   1   2
ATOM      2  C   UNL     1      56.924   1.665  96.735  1.00  0.00     0.000 C 
BRANCH   2   3
ATOM      3  C   UNL     1      56.067   0.401  96.904  1.00  0.00     0.000 C 
BRANCH   3   4
ATOM      4  C   UNL     1      56.492  -0.689  95.909  1.00  0.00     0.006 C 
BRANCH   4   5
ATOM      5  C   UNL     1      56.693  -2.050  96.587  1.00  0.00     0.053 C 
BRANCH   5   6
ATOM      6  C   UNL     1      55.758  -3.086  96.044  1.00  0.00     0.041 C 
ATOM      7  O   UNL     1      54.521  -2.999  96.263  1.00  0.00    -0.550 OA
ATOM      8  O   UNL     1      56.247  -4.129  95.268  1.00  0.00    -0.550 OA
ENDBRANCH   5   6
ENDBRANCH   4   5
ENDBRANCH   3   4
ENDBRANCH   2   3
ENDBRANCH   1   2
BRANCH   1   9
ATOM      9  C   UNL     1      59.472   1.709  96.965  1.00  0.00     0.000 C 
BRANCH   9  10
ATOM     10  C   UNL     1      60.611   0.699  96.755  1.00  0.00    -0.000 C 
BRANCH  10  11
ATOM     11  C   UNL     1      60.156  -0.576  96.020  1.00  0.00    -0.000 C 
BRANCH  11  12
ATOM     12  C   UNL     1      61.043  -0.993  94.833  1.00  0.00    -0.000 C 
BRANCH  12  13
ATOM     13  C   UNL     1      60.276  -1.045  93.504  1.00  0.00    -0.003 C 
ATOM     14  C   UNL     1      59.087  -1.997  93.593  1.00  0.00     0.004 C 
ENDBRANCH  12  13
ENDBRANCH  11  12
ENDBRANCH  10  11
ENDBRANCH   9  10
ENDBRANCH   1   9
TORSDOF 10
ENDMDL
MODEL 9
REMARK VINA RESULT:    -3.641      3.701      6.868
REMARK INTER + INTRA:          -6.366
REMARK INTER:                  -5.494
REMARK INTRA:                  -0.872
REMARK UNBOUND:                -0.597
REMARK SMILES CCCCCCCCCCCC(=O)[O-]
REMARK SMILES IDX 7 1 8 2 9 3 10 4 11 5 12 6 13 7 14 8 6 9 5 10 4 11 3 12 2 13
REMARK SMILES IDX 1 14
REMARK H PARENT
REMARK Flexibility Score: inf
ROOT
ATOM      1  C   UNL     1      57.758   4.841  95.108  1.00  0.00     0.000 C 
ENDROOT
BRANCH   1   2
ATOM      2  C   UNL     1      57.248   3.635  95.912  1.00  0.00     0.000 C 
BRANCH   2   3
ATOM      3  C   UNL     1      58.123   2.385  95.726  1.00  0.00     0.000 C 
BRANCH   3   4
ATOM      4  C   UNL     1      58.789   1.980  97.049  1.00  0.00     0.006 C 
BRANCH   4   5
ATOM      5  C   UNL     1      60.125   1.259  96.830  1.00  0.00     0.053 C 
BRANCH   5   6
ATOM      6  C   UNL     1      59.959   0.015  96.012  1.00  0.00     0.041 C 
ATOM      7  O   UNL     1      60.727  -0.209  95.040  1.00  0.00    -0.550 OA
ATOM      8  O   UNL     1      58.978  -0.910  96.342  1.00  0.00    -0.550 OA
ENDBRANCH   5   6
ENDBRANCH   4   5
ENDBRANCH   3   4
ENDBRANCH   2   3
ENDBRANCH   1   2
BRANCH   1   9
ATOM      9  C   UNL     1      57.773   6.139  95.930  1.00  0.00     0.000 C 
BRANCH   9  10
ATOM     10  C   UNL     1      58.885   6.105  96.989  1.00  0.00    -0.000 C 
BRANCH  10  11
ATOM     11  C   UNL     1      60.287   5.911  96.382  1.00  0.00    -0.000 C 
BRANCH  11  12
ATOM     12  C   UNL     1      60.928   7.186  95.806  1.00  0.00    -0.000 C 
BRANCH  12  13
ATOM     13  C   UNL     1      60.813   8.393  96.749  1.00  0.00    -0.003 C 
ATOM     14  C   UNL     1      60.007   9.517  96.106  1.00  0.00     0.004 C 
ENDBRANCH  12  13
ENDBRANCH  11  12
ENDBRANCH  10  11
ENDBRANCH   9  10
ENDBRANCH   1   9
TORSDOF 10
ENDMDL
