MODEL 1
REMARK VINA RESULT:    -8.605      0.000      0.000
REMARK INTER + INTRA:         -10.782
REMARK INTER:                 -10.617
REMARK INTRA:                  -0.165
REMARK UNBOUND:                -0.165
REMARK SMILES O=c1c(O)c(-c2cc(O)c(O)c(O)c2)oc2cc(O)cc(O)c12
REMARK SMILES IDX 5 1 3 2 2 3 1 4 23 5 21 6 20 7 18 8 17 9 16 10 15 11 6 12
REMARK SMILES IDX 7 13 8 14 14 15 10 16 12 17 9 18 11 20 13 22 4 24 22 26
REMARK SMILES IDX 19 28
REMARK H PARENT 9 19 11 21 13 23 4 25 22 27 19 29
REMARK Flexibility Score: inf
ROOT
ATOM      1  C   UNL     1      15.905  22.802  13.801  1.00  0.00     0.180 A 
ATOM      2  C   UNL     1      17.042  23.621  13.909  1.00  0.00     0.208 A 
ATOM      3  C   UNL     1      17.868  23.792  12.787  1.00  0.00     0.238 A 
ATOM      4  O   UNL     1      18.914  24.483  12.906  1.00  0.00    -0.285 OA
ATOM      5  C   UNL     1      17.539  23.155  11.566  1.00  0.00     0.111 A 
ATOM      6  C   UNL     1      18.282  23.290  10.355  1.00  0.00     0.134 A 
ATOM      7  C   UNL     1      17.940  22.511   9.244  1.00  0.00     0.093 A 
ATOM      8  C   UNL     1      16.843  21.651   9.278  1.00  0.00     0.123 A 
ATOM      9  C   UNL     1      16.072  21.555  10.438  1.00  0.00     0.094 A 
ATOM     10  C   UNL     1      16.411  22.294  11.575  1.00  0.00     0.146 A 
ATOM     11  O   UNL     1      15.659  22.166  12.661  1.00  0.00    -0.452 OA
ENDROOT
BRANCH   1  12
ATOM     12  C   UNL     1      14.973  22.594  14.932  1.00  0.00     0.029 A 
ATOM     13  C   UNL     1      15.397  21.985  16.126  1.00  0.00     0.062 A 
ATOM     14  C   UNL     1      14.506  21.818  17.196  1.00  0.00     0.162 A 
ATOM     15  C   UNL     1      13.654  23.065  14.837  1.00  0.00     0.062 A 
ATOM     16  C   UNL     1      13.181  22.272  17.081  1.00  0.00     0.200 A 
ATOM     17  C   UNL     1      12.759  22.899  15.902  1.00  0.00     0.162 A 
BRANCH  14  18
ATOM     18  O   UNL     1      14.934  21.206  18.373  1.00  0.00    -0.504 OA
ATOM     19  H   UNL     1      15.025  20.200  18.446  1.00  0.00     0.293 HD
ENDBRANCH  14  18
BRANCH  16  20
ATOM     20  O   UNL     1      12.276  22.114  18.130  1.00  0.00    -0.502 OA
ATOM     21  H   UNL     1      11.856  21.218  18.349  1.00  0.00     0.293 HD
ENDBRANCH  16  20
BRANCH  17  22
ATOM     22  O   UNL     1      11.446  23.355  15.796  1.00  0.00    -0.504 OA
ATOM     23  H   UNL     1      10.814  23.340  16.587  1.00  0.00     0.293 HD
ENDBRANCH  17  22
ENDBRANCH   1  12
BRANCH   2  24
ATOM     24  O   UNL     1      17.359  24.224  15.130  1.00  0.00    -0.502 OA
ATOM     25  H   UNL     1      16.669  24.379  15.856  1.00  0.00     0.293 HD
ENDBRANCH   2  24
BRANCH   6  26
ATOM     26  O   UNL     1      19.341  24.187  10.186  1.00  0.00    -0.507 OA
ATOM     27  H   UNL     1      19.260  25.191  10.254  1.00  0.00     0.293 HD
ENDBRANCH   6  26
BRANCH   8  28
ATOM     28  O   UNL     1      16.521  20.901   8.148  1.00  0.00    -0.508 OA
ATOM     29  H   UNL     1      15.601  20.494   8.026  1.00  0.00     0.293 HD
ENDBRANCH   8  28
TORSDOF 7
ENDMDL
MODEL 2
REMARK VINA RESULT:    -8.530      2.069      3.895
REMARK INTER + INTRA:         -10.689
REMARK INTER:                 -10.553
REMARK INTRA:                  -0.136
REMARK UNBOUND:                -0.165
REMARK SMILES O=c1c(O)c(-c2cc(O)c(O)c(O)c2)oc2cc(O)cc(O)c12
REMARK SMILES IDX 5 1 3 2 2 3 1 4 23 5 21 6 20 7 18 8 17 9 16 10 15 11 6 12
REMARK SMILES IDX 7 13 8 14 14 15 10 16 12 17 9 18 11 20 13 22 4 24 22 26
REMARK SMILES IDX 19 28
REMARK H PARENT 9 19 11 21 13 23 4 25 22 27 19 29
REMARK Flexibility Score: inf
ROOT
ATOM      1  C   UNL     1      14.951  24.264  13.020  1.00  0.00     0.180 A 
ATOM      2  C   UNL     1      14.727  23.438  11.904  1.00  0.00     0.208 A 
ATOM      3  C   UNL     1      15.754  23.275  10.961  1.00  0.00     0.238 A 
ATOM      4  O   UNL     1      15.529  22.579   9.937  1.00  0.00    -0.285 OA
ATOM      5  C   UNL     1      16.997  23.926  11.152  1.00  0.00     0.111 A 
ATOM      6  C   UNL     1      18.120  23.800  10.281  1.00  0.00     0.134 A 
ATOM      7  C   UNL     1      19.254  24.592  10.497  1.00  0.00     0.093 A 
ATOM      8  C   UNL     1      19.331  25.456  11.588  1.00  0.00     0.123 A 
ATOM      9  C   UNL     1      18.262  25.544  12.481  1.00  0.00     0.094 A 
ATOM     10  C   UNL     1      17.103  24.792  12.271  1.00  0.00     0.146 A 
ATOM     11  O   UNL     1      16.104  24.912  13.137  1.00  0.00    -0.452 OA
ENDROOT
BRANCH   1  12
ATOM     12  C   UNL     1      13.927  24.464  14.069  1.00  0.00     0.029 A 
ATOM     13  C   UNL     1      12.667  25.011  13.767  1.00  0.00     0.062 A 
ATOM     14  C   UNL     1      11.700  25.172  14.770  1.00  0.00     0.162 A 
ATOM     15  C   UNL     1      14.193  24.049  15.383  1.00  0.00     0.062 A 
ATOM     16  C   UNL     1      11.986  24.773  16.087  1.00  0.00     0.200 A 
ATOM     17  C   UNL     1      13.231  24.209  16.391  1.00  0.00     0.162 A 
BRANCH  14  18
ATOM     18  O   UNL     1      10.457  25.721  14.461  1.00  0.00    -0.504 OA
ATOM     19  H   UNL     1       9.969  25.483  13.606  1.00  0.00     0.293 HD
ENDBRANCH  14  18
BRANCH  16  20
ATOM     20  O   UNL     1      11.042  24.927  17.103  1.00  0.00    -0.502 OA
ATOM     21  H   UNL     1      10.627  24.135  17.577  1.00  0.00     0.293 HD
ENDBRANCH  16  20
BRANCH  17  22
ATOM     22  O   UNL     1      13.507  23.808  17.697  1.00  0.00    -0.504 OA
ATOM     23  H   UNL     1      13.258  24.385  18.492  1.00  0.00     0.293 HD
ENDBRANCH  17  22
ENDBRANCH   1  12
BRANCH   2  24
ATOM     24  O   UNL     1      13.486  22.823  11.724  1.00  0.00    -0.502 OA
ATOM     25  H   UNL     1      13.355  22.033  11.101  1.00  0.00     0.293 HD
ENDBRANCH   2  24
BRANCH   6  26
ATOM     26  O   UNL     1      18.182  22.899   9.213  1.00  0.00    -0.507 OA
ATOM     27  H   UNL     1      18.923  22.229   9.068  1.00  0.00     0.293 HD
ENDBRANCH   6  26
BRANCH   8  28
ATOM     28  O   UNL     1      20.482  26.218  11.782  1.00  0.00    -0.508 OA
ATOM     29  H   UNL     1      21.317  25.822  12.199  1.00  0.00     0.293 HD
ENDBRANCH   8  28
TORSDOF 7
ENDMDL
MODEL 3
REMARK VINA RESULT:    -8.523      0.075      1.750
REMARK INTER + INTRA:         -10.682
REMARK INTER:                 -10.508
REMARK INTRA:                  -0.173
REMARK UNBOUND:                -0.165
REMARK SMILES O=c1c(O)c(-c2cc(O)c(O)c(O)c2)oc2cc(O)cc(O)c12
REMARK SMILES IDX 5 1 3 2 2 3 1 4 23 5 21 6 20 7 18 8 17 9 16 10 15 11 6 12
REMARK SMILES IDX 7 13 8 14 14 15 10 16 12 17 9 18 11 20 13 22 4 24 22 26
REMARK SMILES IDX 19 28
REMARK H PARENT 9 19 11 21 13 23 4 25 22 27 19 29
REMARK Flexibility Score: inf
ROOT
ATOM      1  C   UNL     1      15.891  22.849  13.807  1.00  0.00     0.180 A 
ATOM      2  C   UNL     1      17.035  23.660  13.912  1.00  0.00     0.208 A 
ATOM      3  C   UNL     1      17.858  23.827  12.788  1.00  0.00     0.238 A 
ATOM      4  O   UNL     1      18.909  24.509  12.904  1.00  0.00    -0.285 OA
ATOM      5  C   UNL     1      17.521  23.193  11.567  1.00  0.00     0.111 A 
ATOM      6  C   UNL     1      18.261  23.325  10.354  1.00  0.00     0.134 A 
ATOM      7  C   UNL     1      17.909  22.550   9.243  1.00  0.00     0.093 A 
ATOM      8  C   UNL     1      16.806  21.698   9.280  1.00  0.00     0.123 A 
ATOM      9  C   UNL     1      16.038  21.606  10.442  1.00  0.00     0.094 A 
ATOM     10  C   UNL     1      16.387  22.340  11.578  1.00  0.00     0.146 A 
ATOM     11  O   UNL     1      15.638  22.216  12.667  1.00  0.00    -0.452 OA
ENDROOT
BRANCH   1  12
ATOM     12  C   UNL     1      14.962  22.646  14.941  1.00  0.00     0.029 A 
ATOM     13  C   UNL     1      13.620  23.058  14.869  1.00  0.00     0.062 A 
ATOM     14  C   UNL     1      12.748  22.835  15.944  1.00  0.00     0.162 A 
ATOM     15  C   UNL     1      15.410  21.978  16.091  1.00  0.00     0.062 A 
ATOM     16  C   UNL     1      13.214  22.186  17.101  1.00  0.00     0.200 A 
ATOM     17  C   UNL     1      14.544  21.755  17.170  1.00  0.00     0.162 A 
BRANCH  14  18
ATOM     18  O   UNL     1      11.420  23.253  15.866  1.00  0.00    -0.504 OA
ATOM     19  H   UNL     1      10.952  23.372  14.976  1.00  0.00     0.293 HD
ENDBRANCH  14  18
BRANCH  16  20
ATOM     20  O   UNL     1      12.366  21.958  18.185  1.00  0.00    -0.502 OA
ATOM     21  H   UNL     1      12.469  22.453  19.063  1.00  0.00     0.293 HD
ENDBRANCH  16  20
BRANCH  17  22
ATOM     22  O   UNL     1      14.999  21.104  18.315  1.00  0.00    -0.504 OA
ATOM     23  H   UNL     1      15.781  21.460  18.852  1.00  0.00     0.293 HD
ENDBRANCH  17  22
ENDBRANCH   1  12
BRANCH   2  24
ATOM     24  O   UNL     1      17.361  24.258  15.133  1.00  0.00    -0.502 OA
ATOM     25  H   UNL     1      17.192  25.240  15.320  1.00  0.00     0.293 HD
ENDBRANCH   2  24
BRANCH   6  26
ATOM     26  O   UNL     1      19.325  24.215  10.182  1.00  0.00    -0.507 OA
ATOM     27  H   UNL     1      20.193  24.180  10.696  1.00  0.00     0.293 HD
ENDBRANCH   6  26
BRANCH   8  28
ATOM     28  O   UNL     1      16.475  20.952   8.149  1.00  0.00    -0.508 OA
ATOM     29  H   UNL     1      16.236  21.398   7.271  1.00  0.00     0.293 HD
ENDBRANCH   8  28
TORSDOF 7
ENDMDL
MODEL 4
REMARK VINA RESULT:    -8.457      2.070      3.488
REMARK INTER + INTRA:         -10.600
REMARK INTER:                 -10.468
REMARK INTRA:                  -0.132
REMARK UNBOUND:                -0.165
REMARK SMILES O=c1c(O)c(-c2cc(O)c(O)c(O)c2)oc2cc(O)cc(O)c12
REMARK SMILES IDX 5 1 3 2 2 3 1 4 23 5 21 6 20 7 18 8 17 9 16 10 15 11 6 12
REMARK SMILES IDX 7 13 8 14 14 15 10 16 12 17 9 18 11 20 13 22 4 24 22 26
REMARK SMILES IDX 19 28
REMARK H PARENT 9 19 11 21 13 23 4 25 22 27 19 29
REMARK Flexibility Score: inf
ROOT
ATOM      1  C   UNL     1      14.946  24.207  13.057  1.00  0.00     0.180 A 
ATOM      2  C   UNL     1      14.712  23.402  11.929  1.00  0.00     0.208 A 
ATOM      3  C   UNL     1      15.735  23.242  10.981  1.00  0.00     0.238 A 
ATOM      4  O   UNL     1      15.500  22.565   9.946  1.00  0.00    -0.285 OA
ATOM      5  C   UNL     1      16.985  23.877  11.181  1.00  0.00     0.111 A 
ATOM      6  C   UNL     1      18.106  23.752  10.306  1.00  0.00     0.134 A 
ATOM      7  C   UNL     1      19.249  24.528  10.533  1.00  0.00     0.093 A 
ATOM      8  C   UNL     1      19.337  25.373  11.638  1.00  0.00     0.123 A 
ATOM      9  C   UNL     1      18.270  25.458  12.533  1.00  0.00     0.094 A 
ATOM     10  C   UNL     1      17.102  24.723  12.313  1.00  0.00     0.146 A 
ATOM     11  O   UNL     1      16.106  24.840  13.183  1.00  0.00    -0.452 OA
ENDROOT
BRANCH   1  12
ATOM     12  C   UNL     1      13.925  24.402  14.111  1.00  0.00     0.029 A 
ATOM     13  C   UNL     1      14.176  24.044  15.447  1.00  0.00     0.062 A 
ATOM     14  C   UNL     1      13.206  24.259  16.437  1.00  0.00     0.162 A 
ATOM     15  C   UNL     1      12.702  25.009  13.785  1.00  0.00     0.062 A 
ATOM     16  C   UNL     1      11.976  24.846  16.095  1.00  0.00     0.200 A 
ATOM     17  C   UNL     1      11.728  25.224  14.769  1.00  0.00     0.162 A 
BRANCH  14  18
ATOM     18  O   UNL     1      13.462  23.895  17.758  1.00  0.00    -0.504 OA
ATOM     19  H   UNL     1      12.780  24.045  18.492  1.00  0.00     0.293 HD
ENDBRANCH  14  18
BRANCH  16  20
ATOM     20  O   UNL     1      10.994  25.066  17.061  1.00  0.00    -0.502 OA
ATOM     21  H   UNL     1      10.732  24.356  17.734  1.00  0.00     0.293 HD
ENDBRANCH  16  20
BRANCH  17  22
ATOM     22  O   UNL     1      10.510  25.814  14.437  1.00  0.00    -0.504 OA
ATOM     23  H   UNL     1       9.709  25.258  14.160  1.00  0.00     0.293 HD
ENDBRANCH  17  22
ENDBRANCH   1  12
BRANCH   2  24
ATOM     24  O   UNL     1      13.463  22.803  11.741  1.00  0.00    -0.502 OA
ATOM     25  H   UNL     1      13.213  22.322  10.884  1.00  0.00     0.293 HD
ENDBRANCH   2  24
BRANCH   6  26
ATOM     26  O   UNL     1      18.156  22.868   9.224  1.00  0.00    -0.507 OA
ATOM     27  H   UNL     1      19.001  22.454   8.858  1.00  0.00     0.293 HD
ENDBRANCH   6  26
BRANCH   8  28
ATOM     28  O   UNL     1      20.496  26.119  11.842  1.00  0.00    -0.508 OA
ATOM     29  H   UNL     1      21.356  25.688  12.161  1.00  0.00     0.293 HD
ENDBRANCH   8  28
TORSDOF 7
ENDMDL
MODEL 5
REMARK VINA RESULT:    -8.044      1.725      7.054
REMARK INTER + INTRA:         -10.091
REMARK INTER:                  -9.735
REMARK INTRA:                  -0.356
REMARK UNBOUND:                -0.165
REMARK SMILES O=c1c(O)c(-c2cc(O)c(O)c(O)c2)oc2cc(O)cc(O)c12
REMARK SMILES IDX 5 1 3 2 2 3 1 4 23 5 21 6 20 7 18 8 17 9 16 10 15 11 6 12
REMARK SMILES IDX 7 13 8 14 14 15 10 16 12 17 9 18 11 20 13 22 4 24 22 26
REMARK SMILES IDX 19 28
REMARK H PARENT 9 19 11 21 13 23 4 25 22 27 19 29
REMARK Flexibility Score: inf
ROOT
ATOM      1  C   UNL     1      15.539  23.719  13.886  1.00  0.00     0.180 A 
ATOM      2  C   UNL     1      15.649  22.962  15.065  1.00  0.00     0.208 A 
ATOM      3  C   UNL     1      14.543  22.876  15.926  1.00  0.00     0.238 A 
ATOM      4  O   UNL     1      14.666  22.242  17.006  1.00  0.00    -0.285 OA
ATOM      5  C   UNL     1      13.336  23.536  15.590  1.00  0.00     0.111 A 
ATOM      6  C   UNL     1      12.141  23.484  16.368  1.00  0.00     0.134 A 
ATOM      7  C   UNL     1      11.047  24.280  16.008  1.00  0.00     0.093 A 
ATOM      8  C   UNL     1      11.082  25.075  14.864  1.00  0.00     0.123 A 
ATOM      9  C   UNL     1      12.224  25.088  14.062  1.00  0.00     0.094 A 
ATOM     10  C   UNL     1      13.344  24.331  14.415  1.00  0.00     0.146 A 
ATOM     11  O   UNL     1      14.414  24.379  13.632  1.00  0.00    -0.452 OA
ENDROOT
BRANCH   1  12
ATOM     12  C   UNL     1      16.652  23.836  12.917  1.00  0.00     0.029 A 
ATOM     13  C   UNL     1      17.639  24.828  13.054  1.00  0.00     0.062 A 
ATOM     14  C   UNL     1      18.700  24.908  12.140  1.00  0.00     0.162 A 
ATOM     15  C   UNL     1      16.760  22.904  11.873  1.00  0.00     0.062 A 
ATOM     16  C   UNL     1      18.786  23.983  11.084  1.00  0.00     0.200 A 
ATOM     17  C   UNL     1      17.817  22.980  10.956  1.00  0.00     0.162 A 
BRANCH  14  18
ATOM     18  O   UNL     1      19.670  25.899  12.280  1.00  0.00    -0.504 OA
ATOM     19  H   UNL     1      20.620  25.677  12.551  1.00  0.00     0.293 HD
ENDBRANCH  14  18
BRANCH  16  20
ATOM     20  O   UNL     1      19.828  24.046  10.161  1.00  0.00    -0.502 OA
ATOM     21  H   UNL     1      19.706  23.779   9.191  1.00  0.00     0.293 HD
ENDBRANCH  16  20
BRANCH  17  22
ATOM     22  O   UNL     1      17.911  22.061   9.912  1.00  0.00    -0.504 OA
ATOM     23  H   UNL     1      18.250  22.331   8.997  1.00  0.00     0.293 HD
ENDBRANCH  17  22
ENDBRANCH   1  12
BRANCH   2  24
ATOM     24  O   UNL     1      16.857  22.337  15.387  1.00  0.00    -0.502 OA
ATOM     25  H   UNL     1      16.949  21.329  15.446  1.00  0.00     0.293 HD
ENDBRANCH   2  24
BRANCH   6  26
ATOM     26  O   UNL     1      11.969  22.653  17.480  1.00  0.00    -0.507 OA
ATOM     27  H   UNL     1      11.643  21.699  17.440  1.00  0.00     0.293 HD
ENDBRANCH   6  26
BRANCH   8  28
ATOM     28  O   UNL     1       9.969  25.844  14.526  1.00  0.00    -0.508 OA
ATOM     29  H   UNL     1       9.026  25.498  14.656  1.00  0.00     0.293 HD
ENDBRANCH   8  28
TORSDOF 7
ENDMDL
MODEL 6
REMARK VINA RESULT:    -7.986      1.717      7.074
REMARK INTER + INTRA:         -10.018
REMARK INTER:                  -9.662
REMARK INTRA:                  -0.357
REMARK UNBOUND:                -0.165
REMARK SMILES O=c1c(O)c(-c2cc(O)c(O)c(O)c2)oc2cc(O)cc(O)c12
REMARK SMILES IDX 5 1 3 2 2 3 1 4 23 5 21 6 20 7 18 8 17 9 16 10 15 11 6 12
REMARK SMILES IDX 7 13 8 14 14 15 10 16 12 17 9 18 11 20 13 22 4 24 22 26
REMARK SMILES IDX 19 28
REMARK H PARENT 9 19 11 21 13 23 4 25 22 27 19 29
REMARK Flexibility Score: inf
ROOT
ATOM      1  C   UNL     1      15.559  23.625  13.876  1.00  0.00     0.180 A 
ATOM      2  C   UNL     1      15.638  22.899  15.077  1.00  0.00     0.208 A 
ATOM      3  C   UNL     1      14.523  22.867  15.928  1.00  0.00     0.238 A 
ATOM      4  O   UNL     1      14.618  22.260  17.027  1.00  0.00    -0.285 OA
ATOM      5  C   UNL     1      13.336  23.548  15.562  1.00  0.00     0.111 A 
ATOM      6  C   UNL     1      12.133  23.549  16.329  1.00  0.00     0.134 A 
ATOM      7  C   UNL     1      11.065  24.364  15.936  1.00  0.00     0.093 A 
ATOM      8  C   UNL     1      11.131  25.125  14.770  1.00  0.00     0.123 A 
ATOM      9  C   UNL     1      12.281  25.085  13.979  1.00  0.00     0.094 A 
ATOM     10  C   UNL     1      13.377  24.309  14.365  1.00  0.00     0.146 A 
ATOM     11  O   UNL     1      14.455  24.307  13.592  1.00  0.00    -0.452 OA
ENDROOT
BRANCH   1  12
ATOM     12  C   UNL     1      16.684  23.685  12.916  1.00  0.00     0.029 A 
ATOM     13  C   UNL     1      16.767  22.796  11.830  1.00  0.00     0.062 A 
ATOM     14  C   UNL     1      17.827  22.884  10.916  1.00  0.00     0.162 A 
ATOM     15  C   UNL     1      17.660  24.685  13.055  1.00  0.00     0.062 A 
ATOM     16  C   UNL     1      18.812  23.874  11.079  1.00  0.00     0.200 A 
ATOM     17  C   UNL     1      18.723  24.775  12.148  1.00  0.00     0.162 A 
BRANCH  14  18
ATOM     18  O   UNL     1      17.904  21.994   9.847  1.00  0.00    -0.504 OA
ATOM     19  H   UNL     1      17.427  21.100   9.864  1.00  0.00     0.293 HD
ENDBRANCH  14  18
BRANCH  16  20
ATOM     20  O   UNL     1      19.878  23.978  10.187  1.00  0.00    -0.502 OA
ATOM     21  H   UNL     1      20.558  23.235  10.070  1.00  0.00     0.293 HD
ENDBRANCH  16  20
BRANCH  17  22
ATOM     22  O   UNL     1      19.697  25.761  12.300  1.00  0.00    -0.504 OA
ATOM     23  H   UNL     1      19.557  26.554  12.914  1.00  0.00     0.293 HD
ENDBRANCH  17  22
ENDBRANCH   1  12
BRANCH   2  24
ATOM     24  O   UNL     1      16.826  22.252  15.429  1.00  0.00    -0.502 OA
ATOM     25  H   UNL     1      16.986  21.873  16.356  1.00  0.00     0.293 HD
ENDBRANCH   2  24
BRANCH   6  26
ATOM     26  O   UNL     1      11.929  22.756  17.462  1.00  0.00    -0.507 OA
ATOM     27  H   UNL     1      12.278  22.969  18.384  1.00  0.00     0.293 HD
ENDBRANCH   6  26
BRANCH   8  28
ATOM     28  O   UNL     1      10.042  25.912  14.400  1.00  0.00    -0.508 OA
ATOM     29  H   UNL     1       9.096  25.671  14.671  1.00  0.00     0.293 HD
ENDBRANCH   8  28
TORSDOF 7
ENDMDL
MODEL 7
REMARK VINA RESULT:    -7.892      1.436      7.260
REMARK INTER + INTRA:          -9.902
REMARK INTER:                  -9.545
REMARK INTRA:                  -0.357
REMARK UNBOUND:                -0.165
REMARK SMILES O=c1c(O)c(-c2cc(O)c(O)c(O)c2)oc2cc(O)cc(O)c12
REMARK SMILES IDX 5 1 3 2 2 3 1 4 23 5 21 6 20 7 18 8 17 9 16 10 15 11 6 12
REMARK SMILES IDX 7 13 8 14 14 15 10 16 12 17 9 18 11 20 13 22 4 24 22 26
REMARK SMILES IDX 19 28
REMARK H PARENT 9 19 11 21 13 23 4 25 22 27 19 29
REMARK Flexibility Score: inf
ROOT
ATOM      1  C   UNL     1      15.059  23.345  13.393  1.00  0.00     0.180 A 
ATOM      2  C   UNL     1      13.862  24.081  13.437  1.00  0.00     0.208 A 
ATOM      3  C   UNL     1      13.126  24.115  14.632  1.00  0.00     0.238 A 
ATOM      4  O   UNL     1      12.028  24.730  14.648  1.00  0.00    -0.285 OA
ATOM      5  C   UNL     1      13.604  23.427  15.773  1.00  0.00     0.111 A 
ATOM      6  C   UNL     1      12.961  23.427  17.047  1.00  0.00     0.134 A 
ATOM      7  C   UNL     1      13.452  22.605  18.069  1.00  0.00     0.093 A 
ATOM      8  C   UNL     1      14.600  21.836  17.884  1.00  0.00     0.123 A 
ATOM      9  C   UNL     1      15.272  21.874  16.661  1.00  0.00     0.094 A 
ATOM     10  C   UNL     1      14.784  22.656  15.611  1.00  0.00     0.146 A 
ATOM     11  O   UNL     1      15.446  22.657  14.461  1.00  0.00    -0.452 OA
ENDROOT
BRANCH   1  12
ATOM     12  C   UNL     1      15.901  23.282  12.177  1.00  0.00     0.029 A 
ATOM     13  C   UNL     1      15.708  22.286  11.205  1.00  0.00     0.062 A 
ATOM     14  C   UNL     1      16.500  22.257  10.048  1.00  0.00     0.162 A 
ATOM     15  C   UNL     1      16.876  24.269  11.960  1.00  0.00     0.062 A 
ATOM     16  C   UNL     1      17.489  23.236   9.851  1.00  0.00     0.200 A 
ATOM     17  C   UNL     1      17.672  24.244  10.807  1.00  0.00     0.162 A 
BRANCH  14  18
ATOM     18  O   UNL     1      16.306  21.261   9.092  1.00  0.00    -0.504 OA
ATOM     19  H   UNL     1      17.056  20.953   8.485  1.00  0.00     0.293 HD
ENDBRANCH  14  18
BRANCH  16  20
ATOM     20  O   UNL     1      18.292  23.225   8.711  1.00  0.00    -0.502 OA
ATOM     21  H   UNL     1      17.965  23.574   7.818  1.00  0.00     0.293 HD
ENDBRANCH  16  20
BRANCH  17  22
ATOM     22  O   UNL     1      18.647  25.218  10.604  1.00  0.00    -0.504 OA
ATOM     23  H   UNL     1      18.404  26.163  10.330  1.00  0.00     0.293 HD
ENDBRANCH  17  22
ENDBRANCH   1  12
BRANCH   2  24
ATOM     24  O   UNL     1      13.398  24.735  12.292  1.00  0.00    -0.502 OA
ATOM     25  H   UNL     1      13.307  25.743  12.240  1.00  0.00     0.293 HD
ENDBRANCH   2  24
BRANCH   6  26
ATOM     26  O   UNL     1      11.861  24.228  17.366  1.00  0.00    -0.507 OA
ATOM     27  H   UNL     1      11.024  24.306  16.806  1.00  0.00     0.293 HD
ENDBRANCH   6  26
BRANCH   8  28
ATOM     28  O   UNL     1      15.071  21.041  18.928  1.00  0.00    -0.508 OA
ATOM     29  H   UNL     1      15.175  20.038  18.826  1.00  0.00     0.293 HD
ENDBRANCH   8  28
TORSDOF 7
ENDMDL
MODEL 8
REMARK VINA RESULT:    -7.852      1.473      7.241
REMARK INTER + INTRA:          -9.853
REMARK INTER:                  -9.497
REMARK INTRA:                  -0.356
REMARK UNBOUND:                -0.165
REMARK SMILES O=c1c(O)c(-c2cc(O)c(O)c(O)c2)oc2cc(O)cc(O)c12
REMARK SMILES IDX 5 1 3 2 2 3 1 4 23 5 21 6 20 7 18 8 17 9 16 10 15 11 6 12
REMARK SMILES IDX 7 13 8 14 14 15 10 16 12 17 9 18 11 20 13 22 4 24 22 26
REMARK SMILES IDX 19 28
REMARK H PARENT 9 19 11 21 13 23 4 25 22 27 19 29
REMARK Flexibility Score: inf
ROOT
ATOM      1  C   UNL     1      14.872  23.326  13.504  1.00  0.00     0.180 A 
ATOM      2  C   UNL     1      13.655  24.027  13.562  1.00  0.00     0.208 A 
ATOM      3  C   UNL     1      12.934  24.041  14.767  1.00  0.00     0.238 A 
ATOM      4  O   UNL     1      11.819  24.625  14.797  1.00  0.00    -0.285 OA
ATOM      5  C   UNL     1      13.446  23.368  15.902  1.00  0.00     0.111 A 
ATOM      6  C   UNL     1      12.819  23.350  17.184  1.00  0.00     0.134 A 
ATOM      7  C   UNL     1      13.347  22.543  18.199  1.00  0.00     0.093 A 
ATOM      8  C   UNL     1      14.514  21.807  18.000  1.00  0.00     0.123 A 
ATOM      9  C   UNL     1      15.169  21.864  16.769  1.00  0.00     0.094 A 
ATOM     10  C   UNL     1      14.646  22.631  15.725  1.00  0.00     0.146 A 
ATOM     11  O   UNL     1      15.293  22.650  14.567  1.00  0.00    -0.452 OA
ENDROOT
BRANCH   1  12
ATOM     12  C   UNL     1      15.700  23.287  12.277  1.00  0.00     0.029 A 
ATOM     13  C   UNL     1      16.757  24.193  12.080  1.00  0.00     0.062 A 
ATOM     14  C   UNL     1      17.546  24.125  10.923  1.00  0.00     0.162 A 
ATOM     15  C   UNL     1      15.466  22.291  11.317  1.00  0.00     0.062 A 
ATOM     16  C   UNL     1      17.289  23.138   9.956  1.00  0.00     0.200 A 
ATOM     17  C   UNL     1      16.250  22.220  10.158  1.00  0.00     0.162 A 
BRANCH  14  18
ATOM     18  O   UNL     1      18.587  25.032  10.732  1.00  0.00    -0.504 OA
ATOM     19  H   UNL     1      18.412  26.017  10.573  1.00  0.00     0.293 HD
ENDBRANCH  14  18
BRANCH  16  20
ATOM     20  O   UNL     1      18.057  23.054   8.795  1.00  0.00    -0.502 OA
ATOM     21  H   UNL     1      18.582  23.843   8.438  1.00  0.00     0.293 HD
ENDBRANCH  16  20
BRANCH  17  22
ATOM     22  O   UNL     1      16.004  21.237   9.200  1.00  0.00    -0.504 OA
ATOM     23  H   UNL     1      15.380  21.402   8.419  1.00  0.00     0.293 HD
ENDBRANCH  17  22
ENDBRANCH   1  12
BRANCH   2  24
ATOM     24  O   UNL     1      13.158  24.667  12.423  1.00  0.00    -0.502 OA
ATOM     25  H   UNL     1      13.231  24.263  11.496  1.00  0.00     0.293 HD
ENDBRANCH   2  24
BRANCH   6  26
ATOM     26  O   UNL     1      11.700  24.119  17.517  1.00  0.00    -0.507 OA
ATOM     27  H   UNL     1      10.802  24.055  17.061  1.00  0.00     0.293 HD
ENDBRANCH   6  26
BRANCH   8  28
ATOM     28  O   UNL     1      15.020  21.027  19.038  1.00  0.00    -0.508 OA
ATOM     29  H   UNL     1      14.599  21.031  19.960  1.00  0.00     0.293 HD
ENDBRANCH   8  28
TORSDOF 7
ENDMDL
MODEL 9
REMARK VINA RESULT:    -7.638      2.746      7.994
REMARK INTER + INTRA:          -9.589
REMARK INTER:                  -9.234
REMARK INTRA:                  -0.355
REMARK UNBOUND:                -0.165
REMARK SMILES O=c1c(O)c(-c2cc(O)c(O)c(O)c2)oc2cc(O)cc(O)c12
REMARK SMILES IDX 5 1 3 2 2 3 1 4 23 5 21 6 20 7 18 8 17 9 16 10 15 11 6 12
REMARK SMILES IDX 7 13 8 14 14 15 10 16 12 17 9 18 11 20 13 22 4 24 22 26
REMARK SMILES IDX 19 28
REMARK H PARENT 9 19 11 21 13 23 4 25 22 27 19 29
REMARK Flexibility Score: inf
ROOT
ATOM      1  C   UNL     1      13.286  23.789  15.365  1.00  0.00     0.180 A 
ATOM      2  C   UNL     1      12.650  22.638  15.861  1.00  0.00     0.208 A 
ATOM      3  C   UNL     1      11.611  22.783  16.794  1.00  0.00     0.238 A 
ATOM      4  O   UNL     1      11.082  21.747  17.276  1.00  0.00    -0.285 OA
ATOM      5  C   UNL     1      11.211  24.076  17.209  1.00  0.00     0.111 A 
ATOM      6  C   UNL     1      10.144  24.342  18.119  1.00  0.00     0.134 A 
ATOM      7  C   UNL     1       9.921  25.652  18.558  1.00  0.00     0.093 A 
ATOM      8  C   UNL     1      10.682  26.714  18.071  1.00  0.00     0.123 A 
ATOM      9  C   UNL     1      11.689  26.474  17.135  1.00  0.00     0.094 A 
ATOM     10  C   UNL     1      11.959  25.172  16.705  1.00  0.00     0.146 A 
ATOM     11  O   UNL     1      12.932  24.985  15.822  1.00  0.00    -0.452 OA
ENDROOT
BRANCH   1  12
ATOM     12  C   UNL     1      14.371  23.718  14.360  1.00  0.00     0.029 A 
ATOM     13  C   UNL     1      15.713  23.554  14.744  1.00  0.00     0.062 A 
ATOM     14  C   UNL     1      16.725  23.465  13.777  1.00  0.00     0.162 A 
ATOM     15  C   UNL     1      14.052  23.757  12.994  1.00  0.00     0.062 A 
ATOM     16  C   UNL     1      16.397  23.529  12.412  1.00  0.00     0.200 A 
ATOM     17  C   UNL     1      15.059  23.671  12.023  1.00  0.00     0.162 A 
BRANCH  14  18
ATOM     18  O   UNL     1      18.054  23.309  14.168  1.00  0.00    -0.504 OA
ATOM     19  H   UNL     1      18.771  23.024  13.512  1.00  0.00     0.293 HD
ENDBRANCH  14  18
BRANCH  16  20
ATOM     20  O   UNL     1      17.386  23.447  11.433  1.00  0.00    -0.502 OA
ATOM     21  H   UNL     1      18.341  23.188  11.651  1.00  0.00     0.293 HD
ENDBRANCH  16  20
BRANCH  17  22
ATOM     22  O   UNL     1      14.737  23.725  10.668  1.00  0.00    -0.504 OA
ATOM     23  H   UNL     1      13.779  23.829  10.355  1.00  0.00     0.293 HD
ENDBRANCH  17  22
ENDBRANCH   1  12
BRANCH   2  24
ATOM     24  O   UNL     1      13.075  21.370  15.455  1.00  0.00    -0.502 OA
ATOM     25  H   UNL     1      12.437  20.675  15.083  1.00  0.00     0.293 HD
ENDBRANCH   2  24
BRANCH   6  26
ATOM     26  O   UNL     1       9.266  23.365  18.597  1.00  0.00    -0.507 OA
ATOM     27  H   UNL     1       9.539  22.440  18.893  1.00  0.00     0.293 HD
ENDBRANCH   6  26
BRANCH   8  28
ATOM     28  O   UNL     1      10.423  28.008  18.518  1.00  0.00    -0.508 OA
ATOM     29  H   UNL     1      10.541  28.267  19.491  1.00  0.00     0.293 HD
ENDBRANCH   8  28
TORSDOF 7
ENDMDL
