MODEL 1
REMARK VINA RESULT:    -5.562      0.000      0.000
REMARK INTER + INTRA:          -5.926
REMARK INTER:                  -5.887
REMARK INTRA:                  -0.039
REMARK UNBOUND:                -0.039
REMARK SMILES COc1ccc2ccc(=O)oc2c1
REMARK SMILES IDX 3 1 13 2 12 3 6 4 5 5 4 6 7 7 8 8 9 9 10 10 11 11 2 12 1 13
REMARK H PARENT
REMARK Flexibility Score: inf
ROOT
ATOM      1  C   UNL     1       5.171 -14.277   6.831  1.00  0.00     0.122 A 
ATOM      2  C   UNL     1       6.026 -15.184   7.489  1.00  0.00     0.094 A 
ATOM      3  C   UNL     1       7.305 -15.441   6.984  1.00  0.00     0.142 A 
ATOM      4  C   UNL     1       7.741 -14.789   5.810  1.00  0.00     0.018 A 
ATOM      5  C   UNL     1       6.892 -13.888   5.155  1.00  0.00     0.016 A 
ATOM      6  C   UNL     1       5.614 -13.637   5.667  1.00  0.00     0.047 A 
ATOM      7  C   UNL     1       9.025 -15.067   5.329  1.00  0.00     0.019 A 
ATOM      8  C   UNL     1       9.831 -15.972   6.018  1.00  0.00     0.094 A 
ATOM      9  C   UNL     1       9.333 -16.580   7.175  1.00  0.00     0.336 A 
ATOM     10  O   UNL     1      10.046 -17.400   7.811  1.00  0.00    -0.246 OA
ATOM     11  O   UNL     1       8.108 -16.298   7.611  1.00  0.00    -0.423 OA
ENDROOT
BRANCH   1  12
ATOM     12  O   UNL     1       3.881 -13.987   7.299  1.00  0.00    -0.497 OA
ATOM     13  C   UNL     1       3.352 -14.447   8.538  1.00  0.00     0.278 C 
ENDBRANCH   1  12
TORSDOF 1
ENDMDL
MODEL 2
REMARK VINA RESULT:    -5.516      1.405      4.692
REMARK INTER + INTRA:          -5.878
REMARK INTER:                  -5.841
REMARK INTRA:                  -0.037
REMARK UNBOUND:                -0.039
REMARK SMILES COc1ccc2ccc(=O)oc2c1
REMARK SMILES IDX 3 1 13 2 12 3 6 4 5 5 4 6 7 7 8 8 9 9 10 10 11 11 2 12 1 13
REMARK H PARENT
REMARK Flexibility Score: inf
ROOT
ATOM      1  C   UNL     1       8.917 -15.931   6.444  1.00  0.00     0.122 A 
ATOM      2  C   UNL     1       8.013 -16.018   7.521  1.00  0.00     0.094 A 
ATOM      3  C   UNL     1       6.759 -15.403   7.442  1.00  0.00     0.142 A 
ATOM      4  C   UNL     1       6.399 -14.691   6.278  1.00  0.00     0.018 A 
ATOM      5  C   UNL     1       7.296 -14.603   5.206  1.00  0.00     0.016 A 
ATOM      6  C   UNL     1       8.548 -15.221   5.294  1.00  0.00     0.047 A 
ATOM      7  C   UNL     1       5.138 -14.086   6.229  1.00  0.00     0.019 A 
ATOM      8  C   UNL     1       4.281 -14.204   7.321  1.00  0.00     0.094 A 
ATOM      9  C   UNL     1       4.705 -14.925   8.442  1.00  0.00     0.336 A 
ATOM     10  O   UNL     1       3.946 -15.042   9.439  1.00  0.00    -0.246 OA
ATOM     11  O   UNL     1       5.910 -15.490   8.463  1.00  0.00    -0.423 OA
ENDROOT
BRANCH   1  12
ATOM     12  O   UNL     1      10.185 -16.531   6.476  1.00  0.00    -0.497 OA
ATOM     13  C   UNL     1      11.358 -15.964   5.901  1.00  0.00     0.278 C 
ENDBRANCH   1  12
TORSDOF 1
ENDMDL
MODEL 3
REMARK VINA RESULT:    -5.515      1.063      4.811
REMARK INTER + INTRA:          -5.877
REMARK INTER:                  -5.838
REMARK INTRA:                  -0.039
REMARK UNBOUND:                -0.039
REMARK SMILES COc1ccc2ccc(=O)oc2c1
REMARK SMILES IDX 3 1 13 2 12 3 6 4 5 5 4 6 7 7 8 8 9 9 10 10 11 11 2 12 1 13
REMARK H PARENT
REMARK Flexibility Score: inf
ROOT
ATOM      1  C   UNL     1       9.692 -16.428   6.806  1.00  0.00     0.122 A 
ATOM      2  C   UNL     1       8.432 -16.287   7.421  1.00  0.00     0.094 A 
ATOM      3  C   UNL     1       7.478 -15.416   6.884  1.00  0.00     0.142 A 
ATOM      4  C   UNL     1       7.779 -14.676   5.721  1.00  0.00     0.018 A 
ATOM      5  C   UNL     1       9.031 -14.814   5.109  1.00  0.00     0.016 A 
ATOM      6  C   UNL     1       9.980 -15.687   5.652  1.00  0.00     0.047 A 
ATOM      7  C   UNL     1       6.804 -13.813   5.208  1.00  0.00     0.019 A 
ATOM      8  C   UNL     1       5.574 -13.712   5.853  1.00  0.00     0.094 A 
ATOM      9  C   UNL     1       5.345 -14.477   7.002  1.00  0.00     0.336 A 
ATOM     10  O   UNL     1       4.240 -14.398   7.600  1.00  0.00    -0.246 OA
ATOM     11  O   UNL     1       6.290 -15.289   7.470  1.00  0.00    -0.423 OA
ENDROOT
BRANCH   1  12
ATOM     12  O   UNL     1      10.682 -17.288   7.307  1.00  0.00    -0.497 OA
ATOM     13  C   UNL     1      12.074 -17.155   7.039  1.00  0.00     0.278 C 
ENDBRANCH   1  12
TORSDOF 1
ENDMDL
MODEL 4
REMARK VINA RESULT:    -5.465      1.587      4.483
REMARK INTER + INTRA:          -5.823
REMARK INTER:                  -5.784
REMARK INTRA:                  -0.039
REMARK UNBOUND:                -0.039
REMARK SMILES COc1ccc2ccc(=O)oc2c1
REMARK SMILES IDX 3 1 13 2 12 3 6 4 5 5 4 6 7 7 8 8 9 9 10 10 11 11 2 12 1 13
REMARK H PARENT
REMARK Flexibility Score: inf
ROOT
ATOM      1  C   UNL     1       8.162 -14.864   5.771  1.00  0.00     0.122 A 
ATOM      2  C   UNL     1       7.674 -15.454   6.954  1.00  0.00     0.094 A 
ATOM      3  C   UNL     1       6.375 -15.180   7.396  1.00  0.00     0.142 A 
ATOM      4  C   UNL     1       5.550 -14.309   6.652  1.00  0.00     0.018 A 
ATOM      5  C   UNL     1       6.034 -13.722   5.476  1.00  0.00     0.016 A 
ATOM      6  C   UNL     1       7.334 -14.001   5.042  1.00  0.00     0.047 A 
ATOM      7  C   UNL     1       4.256 -14.054   7.119  1.00  0.00     0.019 A 
ATOM      8  C   UNL     1       3.822 -14.664   8.295  1.00  0.00     0.094 A 
ATOM      9  C   UNL     1       4.694 -15.517   8.980  1.00  0.00     0.336 A 
ATOM     10  O   UNL     1       4.321 -16.076  10.044  1.00  0.00    -0.246 OA
ATOM     11  O   UNL     1       5.920 -15.741   8.514  1.00  0.00    -0.423 OA
ENDROOT
BRANCH   1  12
ATOM     12  O   UNL     1       9.457 -15.108   5.289  1.00  0.00    -0.497 OA
ATOM     13  C   UNL     1      10.481 -15.765   6.029  1.00  0.00     0.278 C 
ENDBRANCH   1  12
TORSDOF 1
ENDMDL
MODEL 5
REMARK VINA RESULT:    -5.291      1.801      2.815
REMARK INTER + INTRA:          -5.639
REMARK INTER:                  -5.601
REMARK INTRA:                  -0.038
REMARK UNBOUND:                -0.039
REMARK SMILES COc1ccc2ccc(=O)oc2c1
REMARK SMILES IDX 3 1 13 2 12 3 6 4 5 5 4 6 7 7 8 8 9 9 10 10 11 11 2 12 1 13
REMARK H PARENT
REMARK Flexibility Score: inf
ROOT
ATOM      1  C   UNL     1       4.608 -15.529   9.009  1.00  0.00     0.122 A 
ATOM      2  C   UNL     1       5.898 -15.833   8.530  1.00  0.00     0.094 A 
ATOM      3  C   UNL     1       6.371 -15.244   7.353  1.00  0.00     0.142 A 
ATOM      4  C   UNL     1       5.552 -14.341   6.641  1.00  0.00     0.018 A 
ATOM      5  C   UNL     1       4.269 -14.038   7.116  1.00  0.00     0.016 A 
ATOM      6  C   UNL     1       3.804 -14.631   8.294  1.00  0.00     0.047 A 
ATOM      7  C   UNL     1       6.052 -13.768   5.467  1.00  0.00     0.019 A 
ATOM      8  C   UNL     1       7.335 -14.102   5.037  1.00  0.00     0.094 A 
ATOM      9  C   UNL     1       8.091 -15.005   5.794  1.00  0.00     0.336 A 
ATOM     10  O   UNL     1       9.251 -15.319   5.421  1.00  0.00    -0.246 OA
ATOM     11  O   UNL     1       7.590 -15.535   6.906  1.00  0.00    -0.423 OA
ENDROOT
BRANCH   1  12
ATOM     12  O   UNL     1       4.090 -16.094  10.184  1.00  0.00    -0.497 OA
ATOM     13  C   UNL     1       4.881 -16.517  11.290  1.00  0.00     0.278 C 
ENDBRANCH   1  12
TORSDOF 1
ENDMDL
MODEL 6
REMARK VINA RESULT:    -4.840      1.670      2.695
REMARK INTER + INTRA:          -5.162
REMARK INTER:                  -5.122
REMARK INTRA:                  -0.040
REMARK UNBOUND:                -0.039
REMARK SMILES COc1ccc2ccc(=O)oc2c1
REMARK SMILES IDX 3 1 13 2 12 3 6 4 5 5 4 6 7 7 8 8 9 9 10 10 11 11 2 12 1 13
REMARK H PARENT
REMARK Flexibility Score: inf
ROOT
ATOM      1  C   UNL     1       6.591 -15.066   6.736  1.00  0.00     0.122 A 
ATOM      2  C   UNL     1       7.819 -14.983   6.050  1.00  0.00     0.094 A 
ATOM      3  C   UNL     1       8.919 -15.732   6.480  1.00  0.00     0.142 A 
ATOM      4  C   UNL     1       8.799 -16.575   7.606  1.00  0.00     0.018 A 
ATOM      5  C   UNL     1       7.578 -16.659   8.288  1.00  0.00     0.016 A 
ATOM      6  C   UNL     1       6.483 -15.906   7.852  1.00  0.00     0.047 A 
ATOM      7  C   UNL     1       9.917 -17.312   8.011  1.00  0.00     0.019 A 
ATOM      8  C   UNL     1      11.108 -17.194   7.298  1.00  0.00     0.094 A 
ATOM      9  C   UNL     1      11.155 -16.339   6.191  1.00  0.00     0.336 A 
ATOM     10  O   UNL     1      12.222 -16.218   5.535  1.00  0.00    -0.246 OA
ATOM     11  O   UNL     1      10.077 -15.649   5.827  1.00  0.00    -0.423 OA
ENDROOT
BRANCH   1  12
ATOM     12  O   UNL     1       5.460 -14.334   6.343  1.00  0.00    -0.497 OA
ATOM     13  C   UNL     1       4.294 -14.164   7.143  1.00  0.00     0.278 C 
ENDBRANCH   1  12
TORSDOF 1
ENDMDL
MODEL 7
REMARK VINA RESULT:    -4.753      1.927      4.396
REMARK INTER + INTRA:          -5.070
REMARK INTER:                  -5.031
REMARK INTRA:                  -0.039
REMARK UNBOUND:                -0.039
REMARK SMILES COc1ccc2ccc(=O)oc2c1
REMARK SMILES IDX 3 1 13 2 12 3 6 4 5 5 4 6 7 7 8 8 9 9 10 10 11 11 2 12 1 13
REMARK H PARENT
REMARK Flexibility Score: inf
ROOT
ATOM      1  C   UNL     1       8.940 -17.248   8.908  1.00  0.00     0.122 A 
ATOM      2  C   UNL     1       7.817 -16.457   8.595  1.00  0.00     0.094 A 
ATOM      3  C   UNL     1       7.759 -15.763   7.381  1.00  0.00     0.142 A 
ATOM      4  C   UNL     1       8.829 -15.856   6.467  1.00  0.00     0.018 A 
ATOM      5  C   UNL     1       9.947 -16.642   6.777  1.00  0.00     0.016 A 
ATOM      6  C   UNL     1       9.998 -17.332   7.993  1.00  0.00     0.047 A 
ATOM      7  C   UNL     1       8.742 -15.151   5.262  1.00  0.00     0.019 A 
ATOM      8  C   UNL     1       7.608 -14.384   5.000  1.00  0.00     0.094 A 
ATOM      9  C   UNL     1       6.585 -14.338   5.953  1.00  0.00     0.336 A 
ATOM     10  O   UNL     1       5.553 -13.650   5.736  1.00  0.00    -0.246 OA
ATOM     11  O   UNL     1       6.694 -15.018   7.092  1.00  0.00    -0.423 OA
ENDROOT
BRANCH   1  12
ATOM     12  O   UNL     1       9.045 -17.961  10.112  1.00  0.00    -0.497 OA
ATOM     13  C   UNL     1       7.989 -18.107  11.055  1.00  0.00     0.278 C 
ENDBRANCH   1  12
TORSDOF 1
ENDMDL
MODEL 8
REMARK VINA RESULT:    -4.747      2.323      4.287
REMARK INTER + INTRA:          -5.063
REMARK INTER:                  -5.024
REMARK INTRA:                  -0.039
REMARK UNBOUND:                -0.039
REMARK SMILES COc1ccc2ccc(=O)oc2c1
REMARK SMILES IDX 3 1 13 2 12 3 6 4 5 5 4 6 7 7 8 8 9 9 10 10 11 11 2 12 1 13
REMARK H PARENT
REMARK Flexibility Score: inf
ROOT
ATOM      1  C   UNL     1       6.281 -14.043   6.269  1.00  0.00     0.122 A 
ATOM      2  C   UNL     1       6.900 -14.549   7.429  1.00  0.00     0.094 A 
ATOM      3  C   UNL     1       6.126 -14.985   8.509  1.00  0.00     0.142 A 
ATOM      4  C   UNL     1       4.718 -14.917   8.437  1.00  0.00     0.018 A 
ATOM      5  C   UNL     1       4.101 -14.415   7.284  1.00  0.00     0.016 A 
ATOM      6  C   UNL     1       4.882 -13.981   6.208  1.00  0.00     0.047 A 
ATOM      7  C   UNL     1       3.971 -15.361   9.534  1.00  0.00     0.019 A 
ATOM      8  C   UNL     1       4.632 -15.853  10.657  1.00  0.00     0.094 A 
ATOM      9  C   UNL     1       6.031 -15.891  10.658  1.00  0.00     0.336 A 
ATOM     10  O   UNL     1       6.647 -16.331  11.664  1.00  0.00    -0.246 OA
ATOM     11  O   UNL     1       6.718 -15.462   9.602  1.00  0.00    -0.423 OA
ENDROOT
BRANCH   1  12
ATOM     12  O   UNL     1       7.014 -13.594   5.160  1.00  0.00    -0.497 OA
ATOM     13  C   UNL     1       8.433 -13.646   5.060  1.00  0.00     0.278 C 
ENDBRANCH   1  12
TORSDOF 1
ENDMDL
MODEL 9
REMARK VINA RESULT:    -4.719      2.896      6.337
REMARK INTER + INTRA:          -5.034
REMARK INTER:                  -4.996
REMARK INTRA:                  -0.038
REMARK UNBOUND:                -0.039
REMARK SMILES COc1ccc2ccc(=O)oc2c1
REMARK SMILES IDX 3 1 13 2 12 3 6 4 5 5 4 6 7 7 8 8 9 9 10 10 11 11 2 12 1 13
REMARK H PARENT
REMARK Flexibility Score: inf
ROOT
ATOM      1  C   UNL     1       4.604 -15.190   6.802  1.00  0.00     0.122 A 
ATOM      2  C   UNL     1       3.739 -16.302   6.818  1.00  0.00     0.094 A 
ATOM      3  C   UNL     1       2.593 -16.292   7.621  1.00  0.00     0.142 A 
ATOM      4  C   UNL     1       2.304 -15.163   8.418  1.00  0.00     0.018 A 
ATOM      5  C   UNL     1       3.163 -14.058   8.402  1.00  0.00     0.016 A 
ATOM      6  C   UNL     1       4.307 -14.075   7.597  1.00  0.00     0.047 A 
ATOM      7  C   UNL     1       1.151 -15.184   9.210  1.00  0.00     0.019 A 
ATOM      8  C   UNL     1       0.328 -16.308   9.190  1.00  0.00     0.094 A 
ATOM      9  C   UNL     1       0.677 -17.391   8.375  1.00  0.00     0.336 A 
ATOM     10  O   UNL     1      -0.053 -18.415   8.344  1.00  0.00    -0.246 OA
ATOM     11  O   UNL     1       1.780 -17.345   7.632  1.00  0.00    -0.423 OA
ENDROOT
BRANCH   1  12
ATOM     12  O   UNL     1       5.765 -15.152   6.013  1.00  0.00    -0.497 OA
ATOM     13  C   UNL     1       6.357 -13.960   5.509  1.00  0.00     0.278 C 
ENDBRANCH   1  12
TORSDOF 1
ENDMDL
