MODEL 1
REMARK VINA RESULT:    -1.489      0.000      0.000
REMARK INTER + INTRA:          -1.489
REMARK INTER:                  -1.489
REMARK INTRA:                   0.000
REMARK UNBOUND:                 0.000
REMARK SMILES CC1=CC[C@@]2(C)CCCC(C)(C)[C@]23C[C@H]13
REMARK SMILES IDX 1 1 2 2 3 3 4 4 5 5 7 6 8 7 9 8 10 9 13 10 15 11 14 12 11 13
REMARK SMILES IDX 12 14 6 15
REMARK H PARENT
REMARK Flexibility Score: inf
ROOT
ATOM      1  C   UNL     1       2.431   8.607  13.531  1.00  0.00     0.039 C 
ATOM      2  C   UNL     1       3.753   8.302  12.880  1.00  0.00    -0.074 C 
ATOM      3  C   UNL     1       4.369   9.270  12.189  1.00  0.00    -0.027 C 
ATOM      4  C   UNL     1       5.597   9.009  11.383  1.00  0.00     0.034 C 
ATOM      5  C   UNL     1       6.591   7.995  12.032  1.00  0.00    -0.022 C 
ATOM      6  C   UNL     1       7.416   8.745  13.110  1.00  0.00     0.008 C 
ATOM      7  C   UNL     1       8.348   7.830  13.917  1.00  0.00     0.001 C 
ATOM      8  C   UNL     1       7.577   6.705  14.617  1.00  0.00     0.007 C 
ATOM      9  C   UNL     1       6.724   5.818  13.668  1.00  0.00    -0.029 C 
ATOM     10  C   UNL     1       5.868   6.761  12.713  1.00  0.00    -0.012 C 
ATOM     11  C   UNL     1       4.387   6.950  13.117  1.00  0.00     0.022 C 
ATOM     12  C   UNL     1       4.742   6.128  11.878  1.00  0.00     0.017 C 
ATOM     13  C   UNL     1       5.878   4.891  14.591  1.00  0.00     0.012 C 
ATOM     14  C   UNL     1       7.634   4.879  12.835  1.00  0.00     0.012 C 
ATOM     15  C   UNL     1       7.520   7.533  10.875  1.00  0.00     0.012 C 
ENDROOT
TORSDOF 0
ENDMDL
MODEL 2
REMARK VINA RESULT:    -0.328      1.097      4.495
REMARK INTER + INTRA:          -0.328
REMARK INTER:                  -0.328
REMARK INTRA:                   0.000
REMARK UNBOUND:                 0.000
REMARK SMILES CC1=CC[C@@]2(C)CCCC(C)(C)[C@]23C[C@H]13
REMARK SMILES IDX 1 1 2 2 3 3 4 4 5 5 7 6 8 7 9 8 10 9 13 10 15 11 14 12 11 13
REMARK SMILES IDX 12 14 6 15
REMARK H PARENT
REMARK Flexibility Score: inf
ROOT
ATOM      1  C   UNL     1       8.887   8.253  13.882  1.00  0.00     0.039 C 
ATOM      2  C   UNL     1       7.609   7.715  13.299  1.00  0.00    -0.074 C 
ATOM      3  C   UNL     1       7.229   6.471  13.619  1.00  0.00    -0.027 C 
ATOM      4  C   UNL     1       6.066   5.804  12.964  1.00  0.00     0.034 C 
ATOM      5  C   UNL     1       4.863   6.753  12.667  1.00  0.00    -0.022 C 
ATOM      6  C   UNL     1       4.058   6.943  13.979  1.00  0.00     0.008 C 
ATOM      7  C   UNL     1       2.914   7.959  13.857  1.00  0.00     0.001 C 
ATOM      8  C   UNL     1       3.420   9.337  13.414  1.00  0.00     0.007 C 
ATOM      9  C   UNL     1       4.217   9.336  12.080  1.00  0.00    -0.029 C 
ATOM     10  C   UNL     1       5.306   8.176  12.132  1.00  0.00    -0.012 C 
ATOM     11  C   UNL     1       6.748   8.630  12.459  1.00  0.00     0.022 C 
ATOM     12  C   UNL     1       6.399   8.150  11.051  1.00  0.00     0.017 C 
ATOM     13  C   UNL     1       4.805  10.770  11.929  1.00  0.00     0.012 C 
ATOM     14  C   UNL     1       3.262   9.134  10.875  1.00  0.00     0.012 C 
ATOM     15  C   UNL     1       3.998   6.002  11.616  1.00  0.00     0.012 C 
ENDROOT
TORSDOF 0
ENDMDL
MODEL 3
REMARK VINA RESULT:     0.198      3.214      6.502
REMARK INTER + INTRA:           0.198
REMARK INTER:                   0.198
REMARK INTRA:                   0.000
REMARK UNBOUND:                 0.000
REMARK SMILES CC1=CC[C@@]2(C)CCCC(C)(C)[C@]23C[C@H]13
REMARK SMILES IDX 1 1 2 2 3 3 4 4 5 5 7 6 8 7 9 8 10 9 13 10 15 11 14 12 11 13
REMARK SMILES IDX 12 14 6 15
REMARK H PARENT
REMARK Flexibility Score: inf
ROOT
ATOM      1  C   UNL     1       4.518   8.026  11.295  1.00  0.00     0.039 C 
ATOM      2  C   UNL     1       4.149   9.344  11.917  1.00  0.00    -0.074 C 
ATOM      3  C   UNL     1       5.090  10.291  12.026  1.00  0.00    -0.027 C 
ATOM      4  C   UNL     1       4.853  11.562  12.771  1.00  0.00     0.034 C 
ATOM      5  C   UNL     1       3.415  12.146  12.609  1.00  0.00    -0.022 C 
ATOM      6  C   UNL     1       3.343  12.890  11.249  1.00  0.00     0.008 C 
ATOM      7  C   UNL     1       1.939  13.407  10.906  1.00  0.00     0.001 C 
ATOM      8  C   UNL     1       0.905  12.275  10.875  1.00  0.00     0.007 C 
ATOM      9  C   UNL     1       0.813  11.447  12.187  1.00  0.00    -0.029 C 
ATOM     10  C   UNL     1       2.283  11.039  12.642  1.00  0.00    -0.012 C 
ATOM     11  C   UNL     1       2.708   9.591  12.302  1.00  0.00     0.022 C 
ATOM     12  C   UNL     1       2.439   9.987  13.753  1.00  0.00     0.017 C 
ATOM     13  C   UNL     1      -0.125  10.244  11.872  1.00  0.00     0.012 C 
ATOM     14  C   UNL     1       0.105  12.264  13.298  1.00  0.00     0.012 C 
ATOM     15  C   UNL     1       3.248  13.157  13.778  1.00  0.00     0.012 C 
ENDROOT
TORSDOF 0
ENDMDL
MODEL 4
REMARK VINA RESULT:     0.905      4.505      6.487
REMARK INTER + INTRA:           0.905
REMARK INTER:                   0.905
REMARK INTRA:                   0.000
REMARK UNBOUND:                 0.000
REMARK SMILES CC1=CC[C@@]2(C)CCCC(C)(C)[C@]23C[C@H]13
REMARK SMILES IDX 1 1 2 2 3 3 4 4 5 5 7 6 8 7 9 8 10 9 13 10 15 11 14 12 11 13
REMARK SMILES IDX 12 14 6 15
REMARK H PARENT
REMARK Flexibility Score: inf
ROOT
ATOM      1  C   UNL     1       3.251  13.056  16.552  1.00  0.00     0.039 C 
ATOM      2  C   UNL     1       2.940  13.176  15.084  1.00  0.00    -0.074 C 
ATOM      3  C   UNL     1       3.387  14.248  14.417  1.00  0.00    -0.027 C 
ATOM      4  C   UNL     1       2.991  14.523  13.005  1.00  0.00     0.034 C 
ATOM      5  C   UNL     1       2.871  13.251  12.109  1.00  0.00    -0.022 C 
ATOM      6  C   UNL     1       4.297  12.835  11.663  1.00  0.00     0.008 C 
ATOM      7  C   UNL     1       4.334  11.518  10.875  1.00  0.00     0.001 C 
ATOM      8  C   UNL     1       3.737  10.356  11.678  1.00  0.00     0.007 C 
ATOM      9  C   UNL     1       2.281  10.591  12.169  1.00  0.00    -0.029 C 
ATOM     10  C   UNL     1       2.192  12.027  12.849  1.00  0.00    -0.012 C 
ATOM     11  C   UNL     1       2.226  12.036  14.395  1.00  0.00     0.022 C 
ATOM     12  C   UNL     1       0.932  12.377  13.658  1.00  0.00     0.017 C 
ATOM     13  C   UNL     1       1.952   9.402  13.121  1.00  0.00     0.012 C 
ATOM     14  C   UNL     1       1.283  10.483  10.987  1.00  0.00     0.012 C 
ATOM     15  C   UNL     1       2.036  13.696  10.875  1.00  0.00     0.012 C 
ENDROOT
TORSDOF 0
ENDMDL
MODEL 5
REMARK VINA RESULT:     1.083      4.773      7.571
REMARK INTER + INTRA:           1.083
REMARK INTER:                   1.083
REMARK INTRA:                   0.000
REMARK UNBOUND:                 0.000
REMARK SMILES CC1=CC[C@@]2(C)CCCC(C)(C)[C@]23C[C@H]13
REMARK SMILES IDX 1 1 2 2 3 3 4 4 5 5 7 6 8 7 9 8 10 9 13 10 15 11 14 12 11 13
REMARK SMILES IDX 12 14 6 15
REMARK H PARENT
REMARK Flexibility Score: inf
ROOT
ATOM      1  C   UNL     1       4.101  16.010  12.829  1.00  0.00     0.039 C 
ATOM      2  C   UNL     1       3.788  14.538  12.796  1.00  0.00    -0.074 C 
ATOM      3  C   UNL     1       4.423  13.726  13.651  1.00  0.00    -0.027 C 
ATOM      4  C   UNL     1       4.292  12.241  13.579  1.00  0.00     0.034 C 
ATOM      5  C   UNL     1       2.863  11.738  13.203  1.00  0.00    -0.022 C 
ATOM      6  C   UNL     1       1.980  11.787  14.477  1.00  0.00     0.008 C 
ATOM      7  C   UNL     1       0.508  11.436  14.218  1.00  0.00     0.001 C 
ATOM      8  C   UNL     1      -0.125  12.362  13.173  1.00  0.00     0.007 C 
ATOM      9  C   UNL     1       0.616  12.399  11.808  1.00  0.00    -0.029 C 
ATOM     10  C   UNL     1       2.172  12.604  12.072  1.00  0.00    -0.012 C 
ATOM     11  C   UNL     1       2.697  14.046  11.873  1.00  0.00     0.022 C 
ATOM     12  C   UNL     1       3.077  12.951  10.877  1.00  0.00     0.017 C 
ATOM     13  C   UNL     1      -0.057  13.537  10.984  1.00  0.00     0.012 C 
ATOM     14  C   UNL     1       0.365  11.090  11.016  1.00  0.00     0.012 C 
ATOM     15  C   UNL     1       3.054  10.265  12.745  1.00  0.00     0.012 C 
ENDROOT
TORSDOF 0
ENDMDL
MODEL 6
REMARK VINA RESULT:     1.419      5.437      7.752
REMARK INTER + INTRA:           1.419
REMARK INTER:                   1.419
REMARK INTRA:                   0.000
REMARK UNBOUND:                 0.000
REMARK SMILES CC1=CC[C@@]2(C)CCCC(C)(C)[C@]23C[C@H]13
REMARK SMILES IDX 1 1 2 2 3 3 4 4 5 5 7 6 8 7 9 8 10 9 13 10 15 11 14 12 11 13
REMARK SMILES IDX 12 14 6 15
REMARK H PARENT
REMARK Flexibility Score: inf
ROOT
ATOM      1  C   UNL     1       2.181  13.141  16.760  1.00  0.00     0.039 C 
ATOM      2  C   UNL     1       2.498  12.736  15.346  1.00  0.00    -0.074 C 
ATOM      3  C   UNL     1       1.975  11.598  14.870  1.00  0.00    -0.027 C 
ATOM      4  C   UNL     1       2.364  11.044  13.540  1.00  0.00     0.034 C 
ATOM      5  C   UNL     1       2.592  12.121  12.434  1.00  0.00    -0.022 C 
ATOM      6  C   UNL     1       1.208  12.555  11.886  1.00  0.00     0.008 C 
ATOM      7  C   UNL     1       1.282  13.708  10.875  1.00  0.00     0.001 C 
ATOM      8  C   UNL     1       1.959  14.947  11.471  1.00  0.00     0.007 C 
ATOM      9  C   UNL     1       3.387  14.697  12.032  1.00  0.00    -0.029 C 
ATOM     10  C   UNL     1       3.356  13.404  12.960  1.00  0.00    -0.012 C 
ATOM     11  C   UNL     1       3.306  13.677  14.481  1.00  0.00     0.022 C 
ATOM     12  C   UNL     1       4.577  13.113  13.849  1.00  0.00     0.017 C 
ATOM     13  C   UNL     1       3.797  16.010  12.764  1.00  0.00     0.012 C 
ATOM     14  C   UNL     1       4.403  14.515  10.875  1.00  0.00     0.012 C 
ATOM     15  C   UNL     1       3.403  11.400  11.321  1.00  0.00     0.012 C 
ENDROOT
TORSDOF 0
ENDMDL
MODEL 7
REMARK VINA RESULT:     1.429      4.030      6.899
REMARK INTER + INTRA:           1.429
REMARK INTER:                   1.429
REMARK INTRA:                   0.000
REMARK UNBOUND:                 0.000
REMARK SMILES CC1=CC[C@@]2(C)CCCC(C)(C)[C@]23C[C@H]13
REMARK SMILES IDX 1 1 2 2 3 3 4 4 5 5 7 6 8 7 9 8 10 9 13 10 15 11 14 12 11 13
REMARK SMILES IDX 12 14 6 15
REMARK H PARENT
REMARK Flexibility Score: inf
ROOT
ATOM      1  C   UNL     1       4.525  15.264  10.875  1.00  0.00     0.039 C 
ATOM      2  C   UNL     1       3.537  14.369  11.572  1.00  0.00    -0.074 C 
ATOM      3  C   UNL     1       2.258  14.759  11.648  1.00  0.00    -0.027 C 
ATOM      4  C   UNL     1       1.249  14.012  12.456  1.00  0.00     0.034 C 
ATOM      5  C   UNL     1       1.414  12.461  12.420  1.00  0.00    -0.022 C 
ATOM      6  C   UNL     1       0.794  11.936  11.098  1.00  0.00     0.008 C 
ATOM      7  C   UNL     1       1.002  10.432  10.877  1.00  0.00     0.001 C 
ATOM      8  C   UNL     1       2.488  10.055  10.878  1.00  0.00     0.007 C 
ATOM      9  C   UNL     1       3.260  10.471  12.162  1.00  0.00    -0.029 C 
ATOM     10  C   UNL     1       2.924  11.991  12.494  1.00  0.00    -0.012 C 
ATOM     11  C   UNL     1       4.000  13.019  12.069  1.00  0.00     0.022 C 
ATOM     12  C   UNL     1       3.777  12.714  13.550  1.00  0.00     0.017 C 
ATOM     13  C   UNL     1       4.763  10.188  11.870  1.00  0.00     0.012 C 
ATOM     14  C   UNL     1       2.873   9.554  13.351  1.00  0.00     0.012 C 
ATOM     15  C   UNL     1       0.601  11.934  13.636  1.00  0.00     0.012 C 
ENDROOT
TORSDOF 0
ENDMDL
