MODEL 1
REMARK VINA RESULT:    -2.300      0.000      0.000
REMARK INTER + INTRA:          -2.091
REMARK INTER:                  -2.569
REMARK INTRA:                   0.478
REMARK UNBOUND:                 0.478
REMARK SMILES CC(=O)c1ccc(O)cc1O
REMARK SMILES IDX 4 1 10 2 9 3 7 4 6 5 5 6 2 7 1 8 3 9 11 10 8 12
REMARK H PARENT 11 11 8 13
REMARK Flexibility Score: inf
ROOT
ATOM      1  C   UNL     1      19.041  23.250  45.979  1.00  0.00     0.059 A 
ATOM      2  C   UNL     1      19.914  23.462  44.880  1.00  0.00     0.130 A 
ATOM      3  C   UNL     1      21.223  22.969  44.928  1.00  0.00     0.093 A 
ATOM      4  C   UNL     1      21.673  22.243  46.034  1.00  0.00     0.119 A 
ATOM      5  C   UNL     1      20.807  22.007  47.107  1.00  0.00     0.047 A 
ATOM      6  C   UNL     1      19.504  22.506  47.080  1.00  0.00     0.019 A 
ENDROOT
BRANCH   1   7
ATOM      7  C   UNL     1      17.675  23.822  46.017  1.00  0.00     0.163 C 
ATOM      8  C   UNL     1      16.925  24.117  44.754  1.00  0.00     0.093 C 
ATOM      9  O   UNL     1      17.092  23.991  47.121  1.00  0.00    -0.294 OA
ENDBRANCH   1   7
BRANCH   2  10
ATOM     10  O   UNL     1      19.508  24.124  43.719  1.00  0.00    -0.507 OA
ATOM     11  H   UNL     1      19.574  25.126  43.598  1.00  0.00     0.293 HD
ENDBRANCH   2  10
BRANCH   4  12
ATOM     12  O   UNL     1      22.978  21.758  46.054  1.00  0.00    -0.508 OA
ATOM     13  H   UNL     1      23.173  20.763  46.061  1.00  0.00     0.293 HD
ENDBRANCH   4  12
TORSDOF 3
ENDMDL
MODEL 2
REMARK VINA RESULT:    -1.771      1.305      2.115
REMARK INTER + INTRA:          -1.500
REMARK INTER:                  -1.217
REMARK INTRA:                  -0.283
REMARK UNBOUND:                 0.478
REMARK SMILES CC(=O)c1ccc(O)cc1O
REMARK SMILES IDX 4 1 10 2 9 3 7 4 6 5 5 6 2 7 1 8 3 9 11 10 8 12
REMARK H PARENT 11 11 8 13
REMARK Flexibility Score: inf
ROOT
ATOM      1  C   UNL     1      19.528  23.322  45.215  1.00  0.00     0.059 A 
ATOM      2  C   UNL     1      19.867  22.374  46.215  1.00  0.00     0.130 A 
ATOM      3  C   UNL     1      21.190  21.931  46.331  1.00  0.00     0.093 A 
ATOM      4  C   UNL     1      22.189  22.434  45.493  1.00  0.00     0.119 A 
ATOM      5  C   UNL     1      21.864  23.390  44.525  1.00  0.00     0.047 A 
ATOM      6  C   UNL     1      20.547  23.830  44.387  1.00  0.00     0.019 A 
ENDROOT
BRANCH   1   7
ATOM      7  C   UNL     1      18.131  23.762  44.993  1.00  0.00     0.163 C 
ATOM      8  C   UNL     1      17.643  24.125  43.624  1.00  0.00     0.093 C 
ATOM      9  O   UNL     1      17.309  23.757  45.948  1.00  0.00    -0.294 OA
ENDBRANCH   1   7
BRANCH   2  10
ATOM     10  O   UNL     1      18.931  21.878  47.125  1.00  0.00    -0.507 OA
ATOM     11  H   UNL     1      19.151  21.662  48.088  1.00  0.00     0.293 HD
ENDBRANCH   2  10
BRANCH   4  12
ATOM     12  O   UNL     1      23.498  21.982  45.634  1.00  0.00    -0.508 OA
ATOM     13  H   UNL     1      23.764  21.353  46.383  1.00  0.00     0.293 HD
ENDBRANCH   4  12
TORSDOF 3
ENDMDL
MODEL 3
REMARK VINA RESULT:    -1.217      1.091      4.060
REMARK INTER + INTRA:          -0.882
REMARK INTER:                  -0.979
REMARK INTRA:                   0.098
REMARK UNBOUND:                 0.478
REMARK SMILES CC(=O)c1ccc(O)cc1O
REMARK SMILES IDX 4 1 10 2 9 3 7 4 6 5 5 6 2 7 1 8 3 9 11 10 8 12
REMARK H PARENT 11 11 8 13
REMARK Flexibility Score: inf
ROOT
ATOM      1  C   UNL     1      20.792  22.502  45.973  1.00  0.00     0.059 A 
ATOM      2  C   UNL     1      20.323  23.360  44.946  1.00  0.00     0.130 A 
ATOM      3  C   UNL     1      19.023  23.876  45.012  1.00  0.00     0.093 A 
ATOM      4  C   UNL     1      18.192  23.580  46.095  1.00  0.00     0.119 A 
ATOM      5  C   UNL     1      18.661  22.757  47.125  1.00  0.00     0.047 A 
ATOM      6  C   UNL     1      19.949  22.223  47.064  1.00  0.00     0.019 A 
ENDROOT
BRANCH   1   7
ATOM      7  C   UNL     1      22.127  21.861  45.911  1.00  0.00     0.163 C 
ATOM      8  C   UNL     1      23.372  22.681  45.755  1.00  0.00     0.093 C 
ATOM      9  O   UNL     1      22.237  20.616  46.072  1.00  0.00    -0.294 OA
ENDBRANCH   1   7
BRANCH   2  10
ATOM     10  O   UNL     1      21.124  23.747  43.869  1.00  0.00    -0.507 OA
ATOM     11  H   UNL     1      21.014  24.625  43.380  1.00  0.00     0.293 HD
ENDBRANCH   2  10
BRANCH   4  12
ATOM     12  O   UNL     1      16.905  24.112  46.141  1.00  0.00    -0.508 OA
ATOM     13  H   UNL     1      16.567  24.611  46.956  1.00  0.00     0.293 HD
ENDBRANCH   4  12
TORSDOF 3
ENDMDL
MODEL 4
REMARK VINA RESULT:    -0.491      1.465      4.609
REMARK INTER + INTRA:          -0.071
REMARK INTER:                   0.239
REMARK INTRA:                  -0.310
REMARK UNBOUND:                 0.478
REMARK SMILES CC(=O)c1ccc(O)cc1O
REMARK SMILES IDX 4 1 10 2 9 3 7 4 6 5 5 6 2 7 1 8 3 9 11 10 8 12
REMARK H PARENT 11 11 8 13
REMARK Flexibility Score: inf
ROOT
ATOM      1  C   UNL     1      21.236  22.549  45.496  1.00  0.00     0.059 A 
ATOM      2  C   UNL     1      20.185  22.003  46.277  1.00  0.00     0.130 A 
ATOM      3  C   UNL     1      18.898  22.547  46.185  1.00  0.00     0.093 A 
ATOM      4  C   UNL     1      18.629  23.602  45.311  1.00  0.00     0.119 A 
ATOM      5  C   UNL     1      19.656  24.125  44.518  1.00  0.00     0.047 A 
ATOM      6  C   UNL     1      20.948  23.603  44.610  1.00  0.00     0.019 A 
ENDROOT
BRANCH   1   7
ATOM      7  C   UNL     1      22.632  22.068  45.616  1.00  0.00     0.163 C 
ATOM      8  C   UNL     1      23.766  23.028  45.814  1.00  0.00     0.093 C 
ATOM      9  O   UNL     1      22.874  20.832  45.634  1.00  0.00    -0.294 OA
ENDBRANCH   1   7
BRANCH   2  10
ATOM     10  O   UNL     1      20.371  20.908  47.123  1.00  0.00    -0.507 OA
ATOM     11  H   UNL     1      19.699  20.159  47.221  1.00  0.00     0.293 HD
ENDBRANCH   2  10
BRANCH   4  12
ATOM     12  O   UNL     1      17.338  24.121  45.234  1.00  0.00    -0.508 OA
ATOM     13  H   UNL     1      16.531  23.518  45.126  1.00  0.00     0.293 HD
ENDBRANCH   4  12
TORSDOF 3
ENDMDL
