MODEL 1
REMARK VINA RESULT:    -5.020      0.000      0.000
REMARK INTER + INTRA:          -5.020
REMARK INTER:                  -5.020
REMARK INTRA:                   0.000
REMARK UNBOUND:                 0.000
REMARK SMILES CC1=CC[C@]2(C)CCCC(C)(C)[C@]23C[C@H]13
REMARK SMILES IDX 1 1 2 2 3 3 4 4 5 5 7 6 8 7 9 8 10 9 13 10 15 11 14 12 11 13
REMARK SMILES IDX 12 14 6 15
REMARK H PARENT
REMARK Flexibility Score: inf
ROOT
ATOM      1  C   UNL     1      14.111   3.374  18.894  1.00  0.00     0.039 C 
ATOM      2  C   UNL     1      13.310   4.426  18.181  1.00  0.00    -0.074 C 
ATOM      3  C   UNL     1      11.967   4.303  18.121  1.00  0.00    -0.027 C 
ATOM      4  C   UNL     1      11.104   5.317  17.412  1.00  0.00     0.034 C 
ATOM      5  C   UNL     1      11.693   6.751  17.553  1.00  0.00    -0.022 C 
ATOM      6  C   UNL     1      10.876   7.719  16.665  1.00  0.00     0.008 C 
ATOM      7  C   UNL     1      11.463   9.141  16.611  1.00  0.00     0.001 C 
ATOM      8  C   UNL     1      12.926   9.154  16.142  1.00  0.00     0.007 C 
ATOM      9  C   UNL     1      13.884   8.237  16.956  1.00  0.00    -0.029 C 
ATOM     10  C   UNL     1      13.203   6.807  17.087  1.00  0.00    -0.012 C 
ATOM     11  C   UNL     1      14.039   5.603  17.548  1.00  0.00     0.022 C 
ATOM     12  C   UNL     1      13.707   5.752  16.064  1.00  0.00     0.017 C 
ATOM     13  C   UNL     1      15.246   8.243  16.203  1.00  0.00     0.012 C 
ATOM     14  C   UNL     1      14.167   8.843  18.354  1.00  0.00     0.012 C 
ATOM     15  C   UNL     1      11.542   7.141  19.057  1.00  0.00     0.012 C 
ENDROOT
TORSDOF 0
ENDMDL
MODEL 2
REMARK VINA RESULT:    -4.894      1.344      4.376
REMARK INTER + INTRA:          -4.894
REMARK INTER:                  -4.894
REMARK INTRA:                   0.000
REMARK UNBOUND:                 0.000
REMARK SMILES CC1=CC[C@]2(C)CCCC(C)(C)[C@]23C[C@H]13
REMARK SMILES IDX 1 1 2 2 3 3 4 4 5 5 7 6 8 7 9 8 10 9 13 10 15 11 14 12 11 13
REMARK SMILES IDX 12 14 6 15
REMARK H PARENT
REMARK Flexibility Score: inf
ROOT
ATOM      1  C   UNL     1      10.876   8.412  18.794  1.00  0.00     0.039 C 
ATOM      2  C   UNL     1      11.620   7.351  18.034  1.00  0.00    -0.074 C 
ATOM      3  C   UNL     1      11.811   7.503  16.706  1.00  0.00    -0.027 C 
ATOM      4  C   UNL     1      12.540   6.471  15.882  1.00  0.00     0.034 C 
ATOM      5  C   UNL     1      13.679   5.798  16.705  1.00  0.00    -0.022 C 
ATOM      6  C   UNL     1      14.273   4.632  15.880  1.00  0.00     0.008 C 
ATOM      7  C   UNL     1      15.309   3.801  16.658  1.00  0.00     0.001 C 
ATOM      8  C   UNL     1      14.744   3.240  17.972  1.00  0.00     0.007 C 
ATOM      9  C   UNL     1      14.124   4.303  18.924  1.00  0.00    -0.029 C 
ATOM     10  C   UNL     1      13.141   5.214  18.072  1.00  0.00    -0.012 C 
ATOM     11  C   UNL     1      12.139   6.134  18.787  1.00  0.00     0.022 C 
ATOM     12  C   UNL     1      11.640   4.826  18.177  1.00  0.00     0.017 C 
ATOM     13  C   UNL     1      13.443   3.514  20.081  1.00  0.00     0.012 C 
ATOM     14  C   UNL     1      15.233   5.158  19.588  1.00  0.00     0.012 C 
ATOM     15  C   UNL     1      14.760   6.900  16.938  1.00  0.00     0.012 C 
ENDROOT
TORSDOF 0
ENDMDL
MODEL 3
REMARK VINA RESULT:    -4.856      1.372      2.718
REMARK INTER + INTRA:          -4.856
REMARK INTER:                  -4.856
REMARK INTRA:                   0.000
REMARK UNBOUND:                 0.000
REMARK SMILES CC1=CC[C@]2(C)CCCC(C)(C)[C@]23C[C@H]13
REMARK SMILES IDX 1 1 2 2 3 3 4 4 5 5 7 6 8 7 9 8 10 9 13 10 15 11 14 12 11 13
REMARK SMILES IDX 12 14 6 15
REMARK H PARENT
REMARK Flexibility Score: inf
ROOT
ATOM      1  C   UNL     1      15.022   2.891  18.119  1.00  0.00     0.039 C 
ATOM      2  C   UNL     1      14.049   3.903  18.654  1.00  0.00    -0.074 C 
ATOM      3  C   UNL     1      13.987   4.117  19.987  1.00  0.00    -0.027 C 
ATOM      4  C   UNL     1      13.026   5.110  20.591  1.00  0.00     0.034 C 
ATOM      5  C   UNL     1      12.821   6.335  19.652  1.00  0.00    -0.022 C 
ATOM      6  C   UNL     1      11.699   7.229  20.231  1.00  0.00     0.008 C 
ATOM      7  C   UNL     1      11.309   8.395  19.305  1.00  0.00     0.001 C 
ATOM      8  C   UNL     1      10.889   7.917  17.906  1.00  0.00     0.007 C 
ATOM      9  C   UNL     1      11.930   7.016  17.181  1.00  0.00    -0.029 C 
ATOM     10  C   UNL     1      12.395   5.886  18.196  1.00  0.00    -0.012 C 
ATOM     11  C   UNL     1      13.162   4.661  17.677  1.00  0.00     0.022 C 
ATOM     12  C   UNL     1      11.680   4.518  18.018  1.00  0.00     0.017 C 
ATOM     13  C   UNL     1      11.234   6.488  15.892  1.00  0.00     0.012 C 
ATOM     14  C   UNL     1      13.140   7.856  16.699  1.00  0.00     0.012 C 
ATOM     15  C   UNL     1      14.176   7.109  19.640  1.00  0.00     0.012 C 
ENDROOT
TORSDOF 0
ENDMDL
MODEL 4
REMARK VINA RESULT:    -4.776      1.198      4.124
REMARK INTER + INTRA:          -4.776
REMARK INTER:                  -4.776
REMARK INTRA:                   0.000
REMARK UNBOUND:                 0.000
REMARK SMILES CC1=CC[C@]2(C)CCCC(C)(C)[C@]23C[C@H]13
REMARK SMILES IDX 1 1 2 2 3 3 4 4 5 5 7 6 8 7 9 8 10 9 13 10 15 11 14 12 11 13
REMARK SMILES IDX 12 14 6 15
REMARK H PARENT
REMARK Flexibility Score: inf
ROOT
ATOM      1  C   UNL     1      11.258   8.803  16.678  1.00  0.00     0.039 C 
ATOM      2  C   UNL     1      11.893   7.753  17.546  1.00  0.00    -0.074 C 
ATOM      3  C   UNL     1      11.221   7.297  18.625  1.00  0.00    -0.027 C 
ATOM      4  C   UNL     1      11.804   6.252  19.544  1.00  0.00     0.034 C 
ATOM      5  C   UNL     1      12.679   5.235  18.753  1.00  0.00    -0.022 C 
ATOM      6  C   UNL     1      13.393   4.299  19.757  1.00  0.00     0.008 C 
ATOM      7  C   UNL     1      14.402   3.346  19.091  1.00  0.00     0.001 C 
ATOM      8  C   UNL     1      15.464   4.095  18.272  1.00  0.00     0.007 C 
ATOM      9  C   UNL     1      14.897   5.069  17.199  1.00  0.00    -0.029 C 
ATOM     10  C   UNL     1      13.782   5.967  17.888  1.00  0.00    -0.012 C 
ATOM     11  C   UNL     1      13.275   7.232  17.180  1.00  0.00     0.022 C 
ATOM     12  C   UNL     1      14.266   7.375  18.334  1.00  0.00     0.017 C 
ATOM     13  C   UNL     1      16.114   5.860  16.635  1.00  0.00     0.012 C 
ATOM     14  C   UNL     1      14.308   4.282  16.001  1.00  0.00     0.012 C 
ATOM     15  C   UNL     1      11.697   4.417  17.857  1.00  0.00     0.012 C 
ENDROOT
TORSDOF 0
ENDMDL
MODEL 5
REMARK VINA RESULT:    -4.592      1.444      2.753
REMARK INTER + INTRA:          -4.592
REMARK INTER:                  -4.592
REMARK INTRA:                   0.000
REMARK UNBOUND:                 0.000
REMARK SMILES CC1=CC[C@]2(C)CCCC(C)(C)[C@]23C[C@H]13
REMARK SMILES IDX 1 1 2 2 3 3 4 4 5 5 7 6 8 7 9 8 10 9 13 10 15 11 14 12 11 13
REMARK SMILES IDX 12 14 6 15
REMARK H PARENT
REMARK Flexibility Score: inf
ROOT
ATOM      1  C   UNL     1      17.562   5.026  17.611  1.00  0.00     0.039 C 
ATOM      2  C   UNL     1      16.071   4.839  17.585  1.00  0.00    -0.074 C 
ATOM      3  C   UNL     1      15.541   3.708  18.097  1.00  0.00    -0.027 C 
ATOM      4  C   UNL     1      14.054   3.451  18.093  1.00  0.00     0.034 C 
ATOM      5  C   UNL     1      13.256   4.775  18.283  1.00  0.00    -0.022 C 
ATOM      6  C   UNL     1      11.748   4.484  18.093  1.00  0.00     0.008 C 
ATOM      7  C   UNL     1      10.875   5.752  18.112  1.00  0.00     0.001 C 
ATOM      8  C   UNL     1      11.317   6.784  17.063  1.00  0.00     0.007 C 
ATOM      9  C   UNL     1      12.816   7.195  17.139  1.00  0.00    -0.029 C 
ATOM     10  C   UNL     1      13.687   5.870  17.226  1.00  0.00    -0.012 C 
ATOM     11  C   UNL     1      15.202   5.934  16.983  1.00  0.00     0.022 C 
ATOM     12  C   UNL     1      14.295   5.402  15.875  1.00  0.00     0.017 C 
ATOM     13  C   UNL     1      13.094   8.077  15.886  1.00  0.00     0.012 C 
ATOM     14  C   UNL     1      13.073   8.106  18.366  1.00  0.00     0.012 C 
ATOM     15  C   UNL     1      13.534   5.248  19.744  1.00  0.00     0.012 C 
ENDROOT
TORSDOF 0
ENDMDL
MODEL 6
REMARK VINA RESULT:    -4.533      1.465      3.884
REMARK INTER + INTRA:          -4.533
REMARK INTER:                  -4.533
REMARK INTRA:                   0.000
REMARK UNBOUND:                 0.000
REMARK SMILES CC1=CC[C@]2(C)CCCC(C)(C)[C@]23C[C@H]13
REMARK SMILES IDX 1 1 2 2 3 3 4 4 5 5 7 6 8 7 9 8 10 9 13 10 15 11 14 12 11 13
REMARK SMILES IDX 12 14 6 15
REMARK H PARENT
REMARK Flexibility Score: inf
ROOT
ATOM      1  C   UNL     1      17.294   7.308  18.361  1.00  0.00     0.039 C 
ATOM      2  C   UNL     1      15.890   7.368  17.829  1.00  0.00    -0.074 C 
ATOM      3  C   UNL     1      15.681   7.821  16.574  1.00  0.00    -0.027 C 
ATOM      4  C   UNL     1      14.297   7.917  15.981  1.00  0.00     0.034 C 
ATOM      5  C   UNL     1      13.385   6.765  16.496  1.00  0.00    -0.022 C 
ATOM      6  C   UNL     1      11.939   7.011  16.003  1.00  0.00     0.008 C 
ATOM      7  C   UNL     1      10.920   6.010  16.578  1.00  0.00     0.001 C 
ATOM      8  C   UNL     1      10.923   5.988  18.115  1.00  0.00     0.007 C 
ATOM      9  C   UNL     1      12.314   5.730  18.763  1.00  0.00    -0.029 C 
ATOM     10  C   UNL     1      13.366   6.701  18.076  1.00  0.00    -0.012 C 
ATOM     11  C   UNL     1      14.744   6.914  18.721  1.00  0.00     0.022 C 
ATOM     12  C   UNL     1      13.676   7.995  18.878  1.00  0.00     0.017 C 
ATOM     13  C   UNL     1      12.132   5.945  20.295  1.00  0.00     0.012 C 
ATOM     14  C   UNL     1      12.734   4.249  18.588  1.00  0.00     0.012 C 
ATOM     15  C   UNL     1      13.950   5.449  15.875  1.00  0.00     0.012 C 
ENDROOT
TORSDOF 0
ENDMDL
MODEL 7
REMARK VINA RESULT:    -4.413      1.580      3.195
REMARK INTER + INTRA:          -4.413
REMARK INTER:                  -4.413
REMARK INTRA:                   0.000
REMARK UNBOUND:                 0.000
REMARK SMILES CC1=CC[C@]2(C)CCCC(C)(C)[C@]23C[C@H]13
REMARK SMILES IDX 1 1 2 2 3 3 4 4 5 5 7 6 8 7 9 8 10 9 13 10 15 11 14 12 11 13
REMARK SMILES IDX 12 14 6 15
REMARK H PARENT
REMARK Flexibility Score: inf
ROOT
ATOM      1  C   UNL     1      17.272   5.809  18.746  1.00  0.00     0.039 C 
ATOM      2  C   UNL     1      16.010   6.013  17.956  1.00  0.00    -0.074 C 
ATOM      3  C   UNL     1      15.891   5.430  16.743  1.00  0.00    -0.027 C 
ATOM      4  C   UNL     1      14.656   5.602  15.894  1.00  0.00     0.034 C 
ATOM      5  C   UNL     1      13.377   5.703  16.777  1.00  0.00    -0.022 C 
ATOM      6  C   UNL     1      12.170   6.055  15.875  1.00  0.00     0.008 C 
ATOM      7  C   UNL     1      10.877   6.326  16.665  1.00  0.00     0.001 C 
ATOM      8  C   UNL     1      11.052   7.434  17.714  1.00  0.00     0.007 C 
ATOM      9  C   UNL     1      12.223   7.211  18.714  1.00  0.00    -0.029 C 
ATOM     10  C   UNL     1      13.519   6.829  17.878  1.00  0.00    -0.012 C 
ATOM     11  C   UNL     1      14.900   6.869  18.549  1.00  0.00     0.022 C 
ATOM     12  C   UNL     1      14.494   8.009  17.616  1.00  0.00     0.017 C 
ATOM     13  C   UNL     1      12.347   8.521  19.546  1.00  0.00     0.012 C 
ATOM     14  C   UNL     1      11.872   6.094  19.729  1.00  0.00     0.012 C 
ATOM     15  C   UNL     1      13.177   4.294  17.419  1.00  0.00     0.012 C 
ENDROOT
TORSDOF 0
ENDMDL
MODEL 8
REMARK VINA RESULT:    -4.409      1.649      2.503
REMARK INTER + INTRA:          -4.409
REMARK INTER:                  -4.409
REMARK INTRA:                   0.000
REMARK UNBOUND:                 0.000
REMARK SMILES CC1=CC[C@]2(C)CCCC(C)(C)[C@]23C[C@H]13
REMARK SMILES IDX 1 1 2 2 3 3 4 4 5 5 7 6 8 7 9 8 10 9 13 10 15 11 14 12 11 13
REMARK SMILES IDX 12 14 6 15
REMARK H PARENT
REMARK Flexibility Score: inf
ROOT
ATOM      1  C   UNL     1      15.206   4.989  21.456  1.00  0.00     0.039 C 
ATOM      2  C   UNL     1      14.047   5.353  20.571  1.00  0.00    -0.074 C 
ATOM      3  C   UNL     1      12.923   5.851  21.130  1.00  0.00    -0.027 C 
ATOM      4  C   UNL     1      11.719   6.226  20.301  1.00  0.00     0.034 C 
ATOM      5  C   UNL     1      12.147   6.787  18.913  1.00  0.00    -0.022 C 
ATOM      6  C   UNL     1      10.885   6.987  18.041  1.00  0.00     0.008 C 
ATOM      7  C   UNL     1      11.203   7.399  16.593  1.00  0.00     0.001 C 
ATOM      8  C   UNL     1      12.136   6.401  15.890  1.00  0.00     0.007 C 
ATOM      9  C   UNL     1      13.468   6.110  16.642  1.00  0.00    -0.029 C 
ATOM     10  C   UNL     1      13.118   5.792  18.158  1.00  0.00    -0.012 C 
ATOM     11  C   UNL     1      14.177   5.151  19.068  1.00  0.00     0.022 C 
ATOM     12  C   UNL     1      13.053   4.280  18.508  1.00  0.00     0.017 C 
ATOM     13  C   UNL     1      14.160   4.944  15.875  1.00  0.00     0.012 C 
ATOM     14  C   UNL     1      14.431   7.319  16.539  1.00  0.00     0.012 C 
ATOM     15  C   UNL     1      12.835   8.161  19.189  1.00  0.00     0.012 C 
ENDROOT
TORSDOF 0
ENDMDL
MODEL 9
REMARK VINA RESULT:    -4.374      1.503      3.542
REMARK INTER + INTRA:          -4.374
REMARK INTER:                  -4.374
REMARK INTRA:                   0.000
REMARK UNBOUND:                 0.000
REMARK SMILES CC1=CC[C@]2(C)CCCC(C)(C)[C@]23C[C@H]13
REMARK SMILES IDX 1 1 2 2 3 3 4 4 5 5 7 6 8 7 9 8 10 9 13 10 15 11 14 12 11 13
REMARK SMILES IDX 12 14 6 15
REMARK H PARENT
REMARK Flexibility Score: inf
ROOT
ATOM      1  C   UNL     1      11.651   7.718  21.234  1.00  0.00     0.039 C 
ATOM      2  C   UNL     1      12.419   6.752  20.377  1.00  0.00    -0.074 C 
ATOM      3  C   UNL     1      12.480   5.453  20.742  1.00  0.00    -0.027 C 
ATOM      4  C   UNL     1      13.243   4.432  19.933  1.00  0.00     0.034 C 
ATOM      5  C   UNL     1      13.169   4.754  18.412  1.00  0.00    -0.022 C 
ATOM      6  C   UNL     1      14.108   3.789  17.649  1.00  0.00     0.008 C 
ATOM      7  C   UNL     1      14.228   4.114  16.148  1.00  0.00     0.001 C 
ATOM      8  C   UNL     1      14.689   5.558  15.896  1.00  0.00     0.007 C 
ATOM      9  C   UNL     1      13.825   6.652  16.587  1.00  0.00    -0.029 C 
ATOM     10  C   UNL     1      13.629   6.236  18.108  1.00  0.00    -0.012 C 
ATOM     11  C   UNL     1      13.105   7.267  19.120  1.00  0.00     0.022 C 
ATOM     12  C   UNL     1      14.596   6.935  19.103  1.00  0.00     0.017 C 
ATOM     13  C   UNL     1      14.570   8.002  16.372  1.00  0.00     0.012 C 
ATOM     14  C   UNL     1      12.457   6.802  15.875  1.00  0.00     0.012 C 
ATOM     15  C   UNL     1      11.687   4.514  17.985  1.00  0.00     0.012 C 
ENDROOT
TORSDOF 0
ENDMDL
