MODEL 1
REMARK VINA RESULT:    -2.883      0.000      0.000
REMARK INTER + INTRA:          -7.233
REMARK INTER:                  -5.411
REMARK INTRA:                  -1.822
REMARK UNBOUND:                -1.822
REMARK SMILES O=C([O-])CCCCCCCCCCCCCCC(=O)[O-]
REMARK SMILES IDX 10 1 9 2 8 3 7 4 6 5 5 6 4 7 2 8 1 9 3 10 11 11 12 12 13 13
REMARK SMILES IDX 14 14 15 15 16 16 17 17 18 18 19 19 20 20
REMARK H PARENT
REMARK Flexibility Score: inf
ROOT
ATOM      1  C   UNL     1      15.612  14.696   7.248  1.00  0.00     0.000 C 
ENDROOT
BRANCH   1   2
ATOM      2  C   UNL     1      16.514  13.602   7.845  1.00  0.00     0.000 C 
BRANCH   2   3
ATOM      3  C   UNL     1      16.023  13.020   9.185  1.00  0.00     0.000 C 
BRANCH   3   4
ATOM      4  C   UNL     1      14.490  13.072   9.360  1.00  0.00     0.000 C 
BRANCH   4   5
ATOM      5  C   UNL     1      13.990  12.067  10.413  1.00  0.00     0.000 C 
BRANCH   5   6
ATOM      6  C   UNL     1      13.689  12.727  11.766  1.00  0.00     0.006 C 
BRANCH   6   7
ATOM      7  C   UNL     1      14.356  11.999  12.941  1.00  0.00     0.053 C 
BRANCH   7   8
ATOM      8  C   UNL     1      15.832  11.897  12.720  1.00  0.00     0.041 C 
ATOM      9  O   UNL     1      16.547  12.933  12.732  1.00  0.00    -0.550 OA
ATOM     10  O   UNL     1      16.425  10.653  12.549  1.00  0.00    -0.550 OA
ENDBRANCH   7   8
ENDBRANCH   6   7
ENDBRANCH   5   6
ENDBRANCH   4   5
ENDBRANCH   3   4
ENDBRANCH   2   3
ENDBRANCH   1   2
BRANCH   1  11
ATOM     11  C   UNL     1      16.249  16.093   7.312  1.00  0.00     0.000 C 
BRANCH  11  12
ATOM     12  C   UNL     1      15.757  16.864   8.541  1.00  0.00     0.000 C 
BRANCH  12  13
ATOM     13  C   UNL     1      16.813  16.848   9.657  1.00  0.00     0.000 C 
BRANCH  13  14
ATOM     14  C   UNL     1      16.345  16.090  10.910  1.00  0.00     0.000 C 
BRANCH  14  15
ATOM     15  C   UNL     1      16.826  16.686  12.247  1.00  0.00     0.000 C 
BRANCH  15  16
ATOM     16  C   UNL     1      16.575  18.204  12.377  1.00  0.00     0.006 C 
BRANCH  16  17
ATOM     17  C   UNL     1      15.164  18.519  12.890  1.00  0.00     0.053 C 
BRANCH  17  18
ATOM     18  C   UNL     1      14.389  19.277  11.859  1.00  0.00     0.041 C 
ATOM     19  O   UNL     1      14.957  19.682  10.811  1.00  0.00    -0.550 OA
ATOM     20  O   UNL     1      13.051  19.579  12.077  1.00  0.00    -0.550 OA
ENDBRANCH  17  18
ENDBRANCH  16  17
ENDBRANCH  15  16
ENDBRANCH  14  15
ENDBRANCH  13  14
ENDBRANCH  12  13
ENDBRANCH  11  12
ENDBRANCH   1  11
TORSDOF 15
ENDMDL
MODEL 2
REMARK VINA RESULT:    -2.695      1.334      6.825
REMARK INTER + INTRA:          -6.880
REMARK INTER:                  -5.967
REMARK INTRA:                  -0.913
REMARK UNBOUND:                -1.822
REMARK SMILES O=C([O-])CCCCCCCCCCCCCCC(=O)[O-]
REMARK SMILES IDX 10 1 9 2 8 3 7 4 6 5 5 6 4 7 2 8 1 9 3 10 11 11 12 12 13 13
REMARK SMILES IDX 14 14 15 15 16 16 17 17 18 18 19 19 20 20
REMARK H PARENT
REMARK Flexibility Score: inf
ROOT
ATOM      1  C   UNL     1      15.603  15.971   8.228  1.00  0.00     0.000 C 
ENDROOT
BRANCH   1   2
ATOM      2  C   UNL     1      16.004  17.430   8.503  1.00  0.00     0.000 C 
BRANCH   2   3
ATOM      3  C   UNL     1      16.938  17.627   9.713  1.00  0.00     0.000 C 
BRANCH   3   4
ATOM      4  C   UNL     1      16.245  17.405  11.075  1.00  0.00     0.000 C 
BRANCH   4   5
ATOM      5  C   UNL     1      16.257  18.673  11.947  1.00  0.00     0.000 C 
BRANCH   5   6
ATOM      6  C   UNL     1      14.936  18.887  12.700  1.00  0.00     0.006 C 
BRANCH   6   7
ATOM      7  C   UNL     1      13.888  19.624  11.857  1.00  0.00     0.053 C 
BRANCH   7   8
ATOM      8  C   UNL     1      13.834  21.070  12.238  1.00  0.00     0.041 C 
ATOM      9  O   UNL     1      14.617  21.524  13.113  1.00  0.00    -0.550 OA
ATOM     10  O   UNL     1      12.951  21.926  11.593  1.00  0.00    -0.550 OA
ENDBRANCH   7   8
ENDBRANCH   6   7
ENDBRANCH   5   6
ENDBRANCH   4   5
ENDBRANCH   3   4
ENDBRANCH   2   3
ENDBRANCH   1   2
BRANCH   1  11
ATOM     11  C   UNL     1      16.796  15.093   7.819  1.00  0.00     0.000 C 
BRANCH  11  12
ATOM     12  C   UNL     1      16.416  13.609   7.838  1.00  0.00     0.000 C 
BRANCH  12  13
ATOM     13  C   UNL     1      15.023  13.392   7.228  1.00  0.00     0.000 C 
BRANCH  13  14
ATOM     14  C   UNL     1      14.019  12.798   8.230  1.00  0.00     0.000 C 
BRANCH  14  15
ATOM     15  C   UNL     1      14.412  12.955   9.712  1.00  0.00     0.000 C 
BRANCH  15  16
ATOM     16  C   UNL     1      14.005  11.755  10.593  1.00  0.00     0.006 C 
BRANCH  16  17
ATOM     17  C   UNL     1      14.812  11.689  11.897  1.00  0.00     0.053 C 
BRANCH  17  18
ATOM     18  C   UNL     1      16.256  11.426  11.606  1.00  0.00     0.041 C 
ATOM     19  O   UNL     1      17.084  12.375  11.602  1.00  0.00    -0.550 OA
ATOM     20  O   UNL     1      16.680  10.141  11.291  1.00  0.00    -0.550 OA
ENDBRANCH  17  18
ENDBRANCH  16  17
ENDBRANCH  15  16
ENDBRANCH  14  15
ENDBRANCH  13  14
ENDBRANCH  12  13
ENDBRANCH  11  12
ENDBRANCH   1  11
TORSDOF 15
ENDMDL
MODEL 3
REMARK VINA RESULT:    -2.633      1.353      6.424
REMARK INTER + INTRA:          -6.764
REMARK INTER:                  -4.970
REMARK INTRA:                  -1.794
REMARK UNBOUND:                -1.822
REMARK SMILES O=C([O-])CCCCCCCCCCCCCCC(=O)[O-]
REMARK SMILES IDX 10 1 9 2 8 3 7 4 6 5 5 6 4 7 2 8 1 9 3 10 11 11 12 12 13 13
REMARK SMILES IDX 14 14 15 15 16 16 17 17 18 18 19 19 20 20
REMARK H PARENT
REMARK Flexibility Score: inf
ROOT
ATOM      1  C   UNL     1      17.049  17.006   9.745  1.00  0.00     0.000 C 
ENDROOT
BRANCH   1   2
ATOM      2  C   UNL     1      16.358  16.348  10.952  1.00  0.00     0.000 C 
BRANCH   2   3
ATOM      3  C   UNL     1      16.846  16.847  12.326  1.00  0.00     0.000 C 
BRANCH   3   4
ATOM      4  C   UNL     1      16.022  18.027  12.886  1.00  0.00     0.000 C 
BRANCH   4   5
ATOM      5  C   UNL     1      16.663  19.388  12.563  1.00  0.00     0.000 C 
BRANCH   5   6
ATOM      6  C   UNL     1      15.833  20.212  11.567  1.00  0.00     0.006 C 
BRANCH   6   7
ATOM      7  C   UNL     1      14.427  19.638  11.351  1.00  0.00     0.053 C 
BRANCH   7   8
ATOM      8  C   UNL     1      13.407  20.482  12.048  1.00  0.00     0.041 C 
ATOM      9  O   UNL     1      13.205  21.668  11.678  1.00  0.00    -0.550 OA
ATOM     10  O   UNL     1      12.645  19.943  13.077  1.00  0.00    -0.550 OA
ENDBRANCH   7   8
ENDBRANCH   6   7
ENDBRANCH   5   6
ENDBRANCH   4   5
ENDBRANCH   3   4
ENDBRANCH   2   3
ENDBRANCH   1   2
BRANCH   1  11
ATOM     11  C   UNL     1      16.256  16.832   8.440  1.00  0.00     0.000 C 
BRANCH  11  12
ATOM     12  C   UNL     1      16.799  15.655   7.623  1.00  0.00     0.000 C 
BRANCH  12  13
ATOM     13  C   UNL     1      15.653  14.768   7.111  1.00  0.00     0.000 C 
BRANCH  13  14
ATOM     14  C   UNL     1      15.384  13.558   8.021  1.00  0.00     0.000 C 
BRANCH  14  15
ATOM     15  C   UNL     1      16.561  13.156   8.930  1.00  0.00     0.000 C 
BRANCH  15  16
ATOM     16  C   UNL     1      16.132  12.727  10.350  1.00  0.00     0.006 C 
BRANCH  16  17
ATOM     17  C   UNL     1      14.633  12.413  10.437  1.00  0.00     0.053 C 
BRANCH  17  18
ATOM     18  C   UNL     1      14.091  12.812  11.773  1.00  0.00     0.041 C 
ATOM     19  O   UNL     1      12.897  12.551  12.076  1.00  0.00    -0.550 OA
ATOM     20  O   UNL     1      14.890  13.515  12.667  1.00  0.00    -0.550 OA
ENDBRANCH  17  18
ENDBRANCH  16  17
ENDBRANCH  15  16
ENDBRANCH  14  15
ENDBRANCH  13  14
ENDBRANCH  12  13
ENDBRANCH  11  12
ENDBRANCH   1  11
TORSDOF 15
ENDMDL
MODEL 4
REMARK VINA RESULT:    -2.546      1.985      6.656
REMARK INTER + INTRA:          -6.602
REMARK INTER:                  -5.090
REMARK INTRA:                  -1.511
REMARK UNBOUND:                -1.822
REMARK SMILES O=C([O-])CCCCCCCCCCCCCCC(=O)[O-]
REMARK SMILES IDX 10 1 9 2 8 3 7 4 6 5 5 6 4 7 2 8 1 9 3 10 11 11 12 12 13 13
REMARK SMILES IDX 14 14 15 15 16 16 17 17 18 18 19 19 20 20
REMARK H PARENT
REMARK Flexibility Score: inf
ROOT
ATOM      1  C   UNL     1      15.743  15.544   9.268  1.00  0.00     0.000 C 
ENDROOT
BRANCH   1   2
ATOM      2  C   UNL     1      15.632  16.918   8.586  1.00  0.00     0.000 C 
BRANCH   2   3
ATOM      3  C   UNL     1      16.845  17.844   8.798  1.00  0.00     0.000 C 
BRANCH   3   4
ATOM      4  C   UNL     1      16.518  19.123   9.600  1.00  0.00     0.000 C 
BRANCH   4   5
ATOM      5  C   UNL     1      15.256  18.960  10.465  1.00  0.00     0.000 C 
BRANCH   5   6
ATOM      6  C   UNL     1      15.465  19.431  11.912  1.00  0.00     0.006 C 
BRANCH   6   7
ATOM      7  C   UNL     1      14.165  19.913  12.570  1.00  0.00     0.053 C 
BRANCH   7   8
ATOM      8  C   UNL     1      13.933  21.359  12.267  1.00  0.00     0.041 C 
ATOM      9  O   UNL     1      14.902  22.111  11.981  1.00  0.00    -0.550 OA
ATOM     10  O   UNL     1      12.640  21.868  12.253  1.00  0.00    -0.550 OA
ENDBRANCH   7   8
ENDBRANCH   6   7
ENDBRANCH   5   6
ENDBRANCH   4   5
ENDBRANCH   3   4
ENDBRANCH   2   3
ENDBRANCH   1   2
BRANCH   1  11
ATOM     11  C   UNL     1      17.077  15.352  10.006  1.00  0.00     0.000 C 
BRANCH  11  12
ATOM     12  C   UNL     1      16.964  15.802  11.467  1.00  0.00     0.000 C 
BRANCH  12  13
ATOM     13  C   UNL     1      15.983  14.907  12.241  1.00  0.00     0.000 C 
BRANCH  13  14
ATOM     14  C   UNL     1      16.691  13.812  13.055  1.00  0.00     0.000 C 
BRANCH  14  15
ATOM     15  C   UNL     1      16.900  12.481  12.307  1.00  0.00     0.000 C 
BRANCH  15  16
ATOM     16  C   UNL     1      15.655  11.569  12.301  1.00  0.00     0.006 C 
BRANCH  16  17
ATOM     17  C   UNL     1      15.177  11.243  10.880  1.00  0.00     0.053 C 
BRANCH  17  18
ATOM     18  C   UNL     1      14.125  12.214  10.446  1.00  0.00     0.041 C 
ATOM     19  O   UNL     1      13.368  12.750  11.298  1.00  0.00    -0.550 OA
ATOM     20  O   UNL     1      13.947  12.490   9.096  1.00  0.00    -0.550 OA
ENDBRANCH  17  18
ENDBRANCH  16  17
ENDBRANCH  15  16
ENDBRANCH  14  15
ENDBRANCH  13  14
ENDBRANCH  12  13
ENDBRANCH  11  12
ENDBRANCH   1  11
TORSDOF 15
ENDMDL
MODEL 5
REMARK VINA RESULT:    -2.541      1.760      2.447
REMARK INTER + INTRA:          -6.592
REMARK INTER:                  -5.099
REMARK INTRA:                  -1.492
REMARK UNBOUND:                -1.822
REMARK SMILES O=C([O-])CCCCCCCCCCCCCCC(=O)[O-]
REMARK SMILES IDX 10 1 9 2 8 3 7 4 6 5 5 6 4 7 2 8 1 9 3 10 11 11 12 12 13 13
REMARK SMILES IDX 14 14 15 15 16 16 17 17 18 18 19 19 20 20
REMARK H PARENT
REMARK Flexibility Score: inf
ROOT
ATOM      1  C   UNL     1      15.627  15.268   8.898  1.00  0.00     0.000 C 
ENDROOT
BRANCH   1   2
ATOM      2  C   UNL     1      16.578  14.110   9.247  1.00  0.00     0.000 C 
BRANCH   2   3
ATOM      3  C   UNL     1      17.041  14.076  10.717  1.00  0.00     0.000 C 
BRANCH   3   4
ATOM      4  C   UNL     1      15.963  14.544  11.719  1.00  0.00     0.000 C 
BRANCH   4   5
ATOM      5  C   UNL     1      15.926  13.669  12.984  1.00  0.00     0.000 C 
BRANCH   5   6
ATOM      6  C   UNL     1      14.760  12.668  12.979  1.00  0.00     0.006 C 
BRANCH   6   7
ATOM      7  C   UNL     1      13.840  12.838  11.764  1.00  0.00     0.053 C 
BRANCH   7   8
ATOM      8  C   UNL     1      14.144  11.800  10.730  1.00  0.00     0.041 C 
ATOM      9  O   UNL     1      13.448  11.726   9.684  1.00  0.00    -0.550 OA
ATOM     10  O   UNL     1      15.225  10.945  10.900  1.00  0.00    -0.550 OA
ENDBRANCH   7   8
ENDBRANCH   6   7
ENDBRANCH   5   6
ENDBRANCH   4   5
ENDBRANCH   3   4
ENDBRANCH   2   3
ENDBRANCH   1   2
BRANCH   1  11
ATOM     11  C   UNL     1      16.238  16.256   7.892  1.00  0.00     0.000 C 
BRANCH  11  12
ATOM     12  C   UNL     1      16.379  17.650   8.512  1.00  0.00     0.000 C 
BRANCH  12  13
ATOM     13  C   UNL     1      15.727  17.700   9.902  1.00  0.00     0.000 C 
BRANCH  13  14
ATOM     14  C   UNL     1      16.716  18.099  11.010  1.00  0.00     0.000 C 
BRANCH  14  15
ATOM     15  C   UNL     1      16.525  19.521  11.570  1.00  0.00     0.000 C 
BRANCH  15  16
ATOM     16  C   UNL     1      15.301  20.259  10.987  1.00  0.00     0.006 C 
BRANCH  16  17
ATOM     17  C   UNL     1      14.713  21.280  11.969  1.00  0.00     0.053 C 
BRANCH  17  18
ATOM     18  C   UNL     1      13.364  20.837  12.441  1.00  0.00     0.041 C 
ATOM     19  O   UNL     1      12.568  21.666  12.953  1.00  0.00    -0.550 OA
ATOM     20  O   UNL     1      13.004  19.497  12.358  1.00  0.00    -0.550 OA
ENDBRANCH  17  18
ENDBRANCH  16  17
ENDBRANCH  15  16
ENDBRANCH  14  15
ENDBRANCH  13  14
ENDBRANCH  12  13
ENDBRANCH  11  12
ENDBRANCH   1  11
TORSDOF 15
ENDMDL
MODEL 6
REMARK VINA RESULT:    -2.181      2.553      5.788
REMARK INTER + INTRA:          -5.915
REMARK INTER:                  -4.270
REMARK INTRA:                  -1.645
REMARK UNBOUND:                -1.822
REMARK SMILES O=C([O-])CCCCCCCCCCCCCCC(=O)[O-]
REMARK SMILES IDX 10 1 9 2 8 3 7 4 6 5 5 6 4 7 2 8 1 9 3 10 11 11 12 12 13 13
REMARK SMILES IDX 14 14 15 15 16 16 17 17 18 18 19 19 20 20
REMARK H PARENT
REMARK Flexibility Score: inf
ROOT
ATOM      1  C   UNL     1      13.391  12.862  11.993  1.00  0.00     0.000 C 
ENDROOT
BRANCH   1   2
ATOM      2  C   UNL     1      14.701  13.021  12.785  1.00  0.00     0.000 C 
BRANCH   2   3
ATOM      3  C   UNL     1      15.090  14.477  13.104  1.00  0.00     0.000 C 
BRANCH   3   4
ATOM      4  C   UNL     1      16.609  14.744  13.032  1.00  0.00     0.000 C 
BRANCH   4   5
ATOM      5  C   UNL     1      17.077  15.066  11.602  1.00  0.00     0.000 C 
BRANCH   5   6
ATOM      6  C   UNL     1      16.329  16.259  10.989  1.00  0.00     0.006 C 
BRANCH   6   7
ATOM      7  C   UNL     1      16.551  17.561  11.769  1.00  0.00     0.053 C 
BRANCH   7   8
ATOM      8  C   UNL     1      15.834  18.695  11.107  1.00  0.00     0.041 C 
ATOM      9  O   UNL     1      14.636  18.945  11.402  1.00  0.00    -0.550 OA
ATOM     10  O   UNL     1      16.503  19.506  10.200  1.00  0.00    -0.550 OA
ENDBRANCH   7   8
ENDBRANCH   6   7
ENDBRANCH   5   6
ENDBRANCH   4   5
ENDBRANCH   3   4
ENDBRANCH   2   3
ENDBRANCH   1   2
BRANCH   1  11
ATOM     11  C   UNL     1      13.565  12.022  10.718  1.00  0.00     0.000 C 
BRANCH  11  12
ATOM     12  C   UNL     1      14.874  12.377  10.004  1.00  0.00     0.000 C 
BRANCH  12  13
ATOM     13  C   UNL     1      14.696  13.621   9.119  1.00  0.00     0.000 C 
BRANCH  13  14
ATOM     14  C   UNL     1      14.624  13.281   7.621  1.00  0.00     0.000 C 
BRANCH  14  15
ATOM     15  C   UNL     1      15.989  13.073   6.937  1.00  0.00     0.000 C 
BRANCH  15  16
ATOM     16  C   UNL     1      17.083  14.048   7.422  1.00  0.00     0.006 C 
BRANCH  16  17
ATOM     17  C   UNL     1      17.125  15.338   6.594  1.00  0.00     0.053 C 
BRANCH  17  18
ATOM     18  C   UNL     1      16.430  16.448   7.317  1.00  0.00     0.041 C 
ATOM     19  O   UNL     1      17.074  17.193   8.102  1.00  0.00    -0.550 OA
ATOM     20  O   UNL     1      15.062  16.631   7.162  1.00  0.00    -0.550 OA
ENDBRANCH  17  18
ENDBRANCH  16  17
ENDBRANCH  15  16
ENDBRANCH  14  15
ENDBRANCH  13  14
ENDBRANCH  12  13
ENDBRANCH  11  12
ENDBRANCH   1  11
TORSDOF 15
ENDMDL
MODEL 7
REMARK VINA RESULT:    -1.937      2.586      6.404
REMARK INTER + INTRA:          -5.458
REMARK INTER:                  -4.130
REMARK INTRA:                  -1.328
REMARK UNBOUND:                -1.822
REMARK SMILES O=C([O-])CCCCCCCCCCCCCCC(=O)[O-]
REMARK SMILES IDX 10 1 9 2 8 3 7 4 6 5 5 6 4 7 2 8 1 9 3 10 11 11 12 12 13 13
REMARK SMILES IDX 14 14 15 15 16 16 17 17 18 18 19 19 20 20
REMARK H PARENT
REMARK Flexibility Score: inf
ROOT
ATOM      1  C   UNL     1      16.865  13.497  12.405  1.00  0.00     0.000 C 
ENDROOT
BRANCH   1   2
ATOM      2  C   UNL     1      15.716  14.224  13.125  1.00  0.00     0.000 C 
BRANCH   2   3
ATOM      3  C   UNL     1      15.805  15.762  13.096  1.00  0.00     0.000 C 
BRANCH   3   4
ATOM      4  C   UNL     1      16.783  16.307  12.032  1.00  0.00     0.000 C 
BRANCH   4   5
ATOM      5  C   UNL     1      16.093  17.266  11.046  1.00  0.00     0.000 C 
BRANCH   5   6
ATOM      6  C   UNL     1      16.438  18.739  11.312  1.00  0.00     0.006 C 
BRANCH   6   7
ATOM      7  C   UNL     1      15.462  19.707  10.631  1.00  0.00     0.053 C 
BRANCH   7   8
ATOM      8  C   UNL     1      14.560  20.337  11.645  1.00  0.00     0.041 C 
ATOM      9  O   UNL     1      14.649  21.568  11.894  1.00  0.00    -0.550 OA
ATOM     10  O   UNL     1      13.588  19.575  12.280  1.00  0.00    -0.550 OA
ENDBRANCH   7   8
ENDBRANCH   6   7
ENDBRANCH   5   6
ENDBRANCH   4   5
ENDBRANCH   3   4
ENDBRANCH   2   3
ENDBRANCH   1   2
BRANCH   1  11
ATOM     11  C   UNL     1      16.385  12.282  11.596  1.00  0.00     0.000 C 
BRANCH  11  12
ATOM     12  C   UNL     1      15.065  11.740  12.154  1.00  0.00     0.000 C 
BRANCH  12  13
ATOM     13  C   UNL     1      13.887  12.126  11.246  1.00  0.00     0.000 C 
BRANCH  13  14
ATOM     14  C   UNL     1      14.305  12.327   9.780  1.00  0.00     0.000 C 
BRANCH  14  15
ATOM     15  C   UNL     1      14.578  13.789   9.378  1.00  0.00     0.000 C 
BRANCH  15  16
ATOM     16  C   UNL     1      15.462  13.934   8.121  1.00  0.00     0.006 C 
BRANCH  16  17
ATOM     17  C   UNL     1      16.606  14.935   8.324  1.00  0.00     0.053 C 
BRANCH  17  18
ATOM     18  C   UNL     1      16.432  16.119   7.427  1.00  0.00     0.041 C 
ATOM     19  O   UNL     1      15.624  17.034   7.736  1.00  0.00    -0.550 OA
ATOM     20  O   UNL     1      17.125  16.190   6.225  1.00  0.00    -0.550 OA
ENDBRANCH  17  18
ENDBRANCH  16  17
ENDBRANCH  15  16
ENDBRANCH  14  15
ENDBRANCH  13  14
ENDBRANCH  12  13
ENDBRANCH  11  12
ENDBRANCH   1  11
TORSDOF 15
ENDMDL
MODEL 8
REMARK VINA RESULT:    -1.202      1.648      2.105
REMARK INTER + INTRA:          -4.079
REMARK INTER:                  -2.886
REMARK INTRA:                  -1.193
REMARK UNBOUND:                -1.822
REMARK SMILES O=C([O-])CCCCCCCCCCCCCCC(=O)[O-]
REMARK SMILES IDX 10 1 9 2 8 3 7 4 6 5 5 6 4 7 2 8 1 9 3 10 11 11 12 12 13 13
REMARK SMILES IDX 14 14 15 15 16 16 17 17 18 18 19 19 20 20
REMARK H PARENT
REMARK Flexibility Score: inf
ROOT
ATOM      1  C   UNL     1      15.495  14.950   7.887  1.00  0.00     0.000 C 
ENDROOT
BRANCH   1   2
ATOM      2  C   UNL     1      16.297  13.662   7.632  1.00  0.00     0.000 C 
BRANCH   2   3
ATOM      3  C   UNL     1      17.106  13.155   8.841  1.00  0.00     0.000 C 
BRANCH   3   4
ATOM      4  C   UNL     1      16.299  13.113  10.156  1.00  0.00     0.000 C 
BRANCH   4   5
ATOM      5  C   UNL     1      16.492  11.789  10.915  1.00  0.00     0.000 C 
BRANCH   5   6
ATOM      6  C   UNL     1      15.180  11.246  11.503  1.00  0.00     0.006 C 
BRANCH   6   7
ATOM      7  C   UNL     1      14.944  11.707  12.946  1.00  0.00     0.053 C 
BRANCH   7   8
ATOM      8  C   UNL     1      14.023  12.886  12.973  1.00  0.00     0.041 C 
ATOM      9  O   UNL     1      12.777  12.718  12.902  1.00  0.00    -0.550 OA
ATOM     10  O   UNL     1      14.537  14.167  13.125  1.00  0.00    -0.550 OA
ENDBRANCH   7   8
ENDBRANCH   6   7
ENDBRANCH   5   6
ENDBRANCH   4   5
ENDBRANCH   3   4
ENDBRANCH   2   3
ENDBRANCH   1   2
BRANCH   1  11
ATOM     11  C   UNL     1      16.266  16.219   7.494  1.00  0.00     0.000 C 
BRANCH  11  12
ATOM     12  C   UNL     1      16.883  16.889   8.726  1.00  0.00     0.000 C 
BRANCH  12  13
ATOM     13  C   UNL     1      15.973  16.721   9.954  1.00  0.00     0.000 C 
BRANCH  13  14
ATOM     14  C   UNL     1      16.596  17.290  11.239  1.00  0.00     0.000 C 
BRANCH  14  15
ATOM     15  C   UNL     1      16.557  18.826  11.355  1.00  0.00     0.000 C 
BRANCH  15  16
ATOM     16  C   UNL     1      15.245  19.455  10.840  1.00  0.00     0.006 C 
BRANCH  16  17
ATOM     17  C   UNL     1      14.976  20.832  11.460  1.00  0.00     0.053 C 
BRANCH  17  18
ATOM     18  C   UNL     1      13.570  20.915  11.964  1.00  0.00     0.041 C 
ATOM     19  O   UNL     1      12.866  21.928  11.714  1.00  0.00    -0.550 OA
ATOM     20  O   UNL     1      13.052  19.893  12.750  1.00  0.00    -0.550 OA
ENDBRANCH  17  18
ENDBRANCH  16  17
ENDBRANCH  15  16
ENDBRANCH  14  15
ENDBRANCH  13  14
ENDBRANCH  12  13
ENDBRANCH  11  12
ENDBRANCH   1  11
TORSDOF 15
ENDMDL
MODEL 9
REMARK VINA RESULT:    -0.738      1.804      6.227
REMARK INTER + INTRA:          -3.207
REMARK INTER:                  -2.251
REMARK INTRA:                  -0.955
REMARK UNBOUND:                -1.822
REMARK SMILES O=C([O-])CCCCCCCCCCCCCCC(=O)[O-]
REMARK SMILES IDX 10 1 9 2 8 3 7 4 6 5 5 6 4 7 2 8 1 9 3 10 11 11 12 12 13 13
REMARK SMILES IDX 14 14 15 15 16 16 17 17 18 18 19 19 20 20
REMARK H PARENT
REMARK Flexibility Score: inf
ROOT
ATOM      1  C   UNL     1      15.259  15.068   7.715  1.00  0.00     0.000 C 
ENDROOT
BRANCH   1   2
ATOM      2  C   UNL     1      16.342  15.989   7.126  1.00  0.00     0.000 C 
BRANCH   2   3
ATOM      3  C   UNL     1      16.711  17.198   8.007  1.00  0.00     0.000 C 
BRANCH   3   4
ATOM      4  C   UNL     1      15.803  17.365   9.245  1.00  0.00     0.000 C 
BRANCH   4   5
ATOM      5  C   UNL     1      15.928  18.764   9.873  1.00  0.00     0.000 C 
BRANCH   5   6
ATOM      6  C   UNL     1      15.366  18.826  11.301  1.00  0.00     0.006 C 
BRANCH   6   7
ATOM      7  C   UNL     1      14.036  19.586  11.380  1.00  0.00     0.053 C 
BRANCH   7   8
ATOM      8  C   UNL     1      14.238  20.927  12.013  1.00  0.00     0.041 C 
ATOM      9  O   UNL     1      15.321  21.548  11.847  1.00  0.00    -0.550 OA
ATOM     10  O   UNL     1      13.214  21.512  12.745  1.00  0.00    -0.550 OA
ENDBRANCH   7   8
ENDBRANCH   6   7
ENDBRANCH   5   6
ENDBRANCH   4   5
ENDBRANCH   3   4
ENDBRANCH   2   3
ENDBRANCH   1   2
BRANCH   1  11
ATOM     11  C   UNL     1      15.573  13.577   7.517  1.00  0.00     0.000 C 
BRANCH  11  12
ATOM     12  C   UNL     1      15.918  12.909   8.852  1.00  0.00     0.000 C 
BRANCH  12  13
ATOM     13  C   UNL     1      16.888  13.779   9.666  1.00  0.00     0.000 C 
BRANCH  13  14
ATOM     14  C   UNL     1      16.331  14.161  11.048  1.00  0.00     0.000 C 
BRANCH  14  15
ATOM     15  C   UNL     1      16.709  13.196  12.188  1.00  0.00     0.000 C 
BRANCH  15  16
ATOM     16  C   UNL     1      15.939  11.859  12.152  1.00  0.00     0.006 C 
BRANCH  16  17
ATOM     17  C   UNL     1      14.737  11.851  13.105  1.00  0.00     0.053 C 
BRANCH  17  18
ATOM     18  C   UNL     1      13.534  12.435  12.435  1.00  0.00     0.041 C 
ATOM     19  O   UNL     1      12.576  12.875  13.125  1.00  0.00    -0.550 OA
ATOM     20  O   UNL     1      13.448  12.451  11.049  1.00  0.00    -0.550 OA
ENDBRANCH  17  18
ENDBRANCH  16  17
ENDBRANCH  15  16
ENDBRANCH  14  15
ENDBRANCH  13  14
ENDBRANCH  12  13
ENDBRANCH  11  12
ENDBRANCH   1  11
TORSDOF 15
ENDMDL
