MODEL 1
REMARK VINA RESULT:    -6.325      0.000      0.000
REMARK INTER + INTRA:          -7.427
REMARK INTER:                  -7.434
REMARK INTRA:                   0.006
REMARK UNBOUND:                 0.006
REMARK SMILES COc1cc2ccc(=O)oc2c(OC)c1OC
REMARK SMILES IDX 3 1 15 2 12 3 11 4 5 5 4 6 6 7 7 8 8 9 9 10 10 11 2 12 1 13
REMARK SMILES IDX 16 14 17 15 13 16 14 17
REMARK H PARENT
REMARK Flexibility Score: inf
ROOT
ATOM      1  C   UNL     1      11.487  -4.386 -11.123  1.00  0.00     0.165 A 
ATOM      2  C   UNL     1      11.026  -5.617 -11.670  1.00  0.00     0.207 A 
ATOM      3  C   UNL     1      11.664  -6.146 -12.828  1.00  0.00     0.208 A 
ATOM      4  C   UNL     1      12.732  -5.453 -13.413  1.00  0.00     0.184 A 
ATOM      5  C   UNL     1      13.181  -4.238 -12.865  1.00  0.00     0.025 A 
ATOM      6  C   UNL     1      12.562  -3.712 -11.733  1.00  0.00     0.062 A 
ATOM      7  C   UNL     1      14.250  -3.579 -13.481  1.00  0.00     0.020 A 
ATOM      8  C   UNL     1      14.840  -4.137 -14.614  1.00  0.00     0.094 A 
ATOM      9  C   UNL     1      14.344  -5.349 -15.103  1.00  0.00     0.336 A 
ATOM     10  O   UNL     1      14.861  -5.873 -16.124  1.00  0.00    -0.246 OA
ATOM     11  O   UNL     1      13.326  -5.953 -14.497  1.00  0.00    -0.419 OA
ENDROOT
BRANCH   1  12
ATOM     12  O   UNL     1      10.869  -3.852  -9.981  1.00  0.00    -0.493 OA
ATOM     13  C   UNL     1      11.350  -3.985  -8.646  1.00  0.00     0.278 C 
ENDBRANCH   1  12
BRANCH   2  14
ATOM     14  O   UNL     1       9.957  -6.340 -11.110  1.00  0.00    -0.490 OA
ATOM     15  C   UNL     1       8.674  -5.842 -10.743  1.00  0.00     0.278 C 
ENDBRANCH   2  14
BRANCH   3  16
ATOM     16  O   UNL     1      11.288  -7.355 -13.450  1.00  0.00    -0.490 OA
ATOM     17  C   UNL     1      11.604  -8.675 -13.020  1.00  0.00     0.278 C 
ENDBRANCH   3  16
TORSDOF 3
ENDMDL
MODEL 2
REMARK VINA RESULT:    -5.964     10.514     14.372
REMARK INTER + INTRA:          -7.003
REMARK INTER:                  -6.786
REMARK INTRA:                  -0.217
REMARK UNBOUND:                 0.006
REMARK SMILES COc1cc2ccc(=O)oc2c(OC)c1OC
REMARK SMILES IDX 3 1 15 2 12 3 11 4 5 5 4 6 6 7 7 8 8 9 9 10 10 11 2 12 1 13
REMARK SMILES IDX 16 14 17 15 13 16 14 17
REMARK H PARENT
REMARK Flexibility Score: inf
ROOT
ATOM      1  C   UNL     1       1.313  -6.652  -8.160  1.00  0.00     0.165 A 
ATOM      2  C   UNL     1       0.385  -7.394  -7.375  1.00  0.00     0.207 A 
ATOM      3  C   UNL     1      -0.918  -6.867  -7.154  1.00  0.00     0.208 A 
ATOM      4  C   UNL     1      -1.273  -5.630  -7.709  1.00  0.00     0.184 A 
ATOM      5  C   UNL     1      -0.351  -4.904  -8.484  1.00  0.00     0.025 A 
ATOM      6  C   UNL     1       0.928  -5.412  -8.705  1.00  0.00     0.062 A 
ATOM      7  C   UNL     1      -0.747  -3.673  -9.018  1.00  0.00     0.020 A 
ATOM      8  C   UNL     1      -2.034  -3.199  -8.772  1.00  0.00     0.094 A 
ATOM      9  C   UNL     1      -2.899  -3.974  -7.994  1.00  0.00     0.336 A 
ATOM     10  O   UNL     1      -4.067  -3.568  -7.759  1.00  0.00    -0.246 OA
ATOM     11  O   UNL     1      -2.495  -5.141  -7.499  1.00  0.00    -0.419 OA
ENDROOT
BRANCH   1  12
ATOM     12  O   UNL     1       2.602  -7.159  -8.388  1.00  0.00    -0.493 OA
ATOM     13  C   UNL     1       3.307  -7.089  -9.625  1.00  0.00     0.278 C 
ENDBRANCH   1  12
BRANCH   2  14
ATOM     14  O   UNL     1       0.706  -8.639  -6.802  1.00  0.00    -0.490 OA
ATOM     15  C   UNL     1       0.305  -9.928  -7.256  1.00  0.00     0.278 C 
ENDBRANCH   2  14
BRANCH   3  16
ATOM     16  O   UNL     1      -1.911  -7.518  -6.393  1.00  0.00    -0.490 OA
ATOM     17  C   UNL     1      -2.033  -7.532  -4.975  1.00  0.00     0.278 C 
ENDBRANCH   3  16
TORSDOF 3
ENDMDL
MODEL 3
REMARK VINA RESULT:    -5.895     10.492     14.672
REMARK INTER + INTRA:          -6.922
REMARK INTER:                  -6.658
REMARK INTRA:                  -0.264
REMARK UNBOUND:                 0.006
REMARK SMILES COc1cc2ccc(=O)oc2c(OC)c1OC
REMARK SMILES IDX 3 1 15 2 12 3 11 4 5 5 4 6 6 7 7 8 8 9 9 10 10 11 2 12 1 13
REMARK SMILES IDX 16 14 17 15 13 16 14 17
REMARK H PARENT
REMARK Flexibility Score: inf
ROOT
ATOM      1  C   UNL     1       1.410  -6.644  -8.224  1.00  0.00     0.165 A 
ATOM      2  C   UNL     1       0.351  -5.700  -8.100  1.00  0.00     0.207 A 
ATOM      3  C   UNL     1      -0.833  -6.069  -7.403  1.00  0.00     0.208 A 
ATOM      4  C   UNL     1      -0.945  -7.351  -6.850  1.00  0.00     0.184 A 
ATOM      5  C   UNL     1       0.106  -8.278  -6.976  1.00  0.00     0.025 A 
ATOM      6  C   UNL     1       1.269  -7.925  -7.657  1.00  0.00     0.062 A 
ATOM      7  C   UNL     1      -0.047  -9.547  -6.408  1.00  0.00     0.020 A 
ATOM      8  C   UNL     1      -1.227  -9.861  -5.736  1.00  0.00     0.094 A 
ATOM      9  C   UNL     1      -2.230  -8.892  -5.648  1.00  0.00     0.336 A 
ATOM     10  O   UNL     1      -3.304  -9.152  -5.046  1.00  0.00    -0.246 OA
ATOM     11  O   UNL     1      -2.056  -7.693  -6.198  1.00  0.00    -0.419 OA
ENDROOT
BRANCH   1  12
ATOM     12  O   UNL     1       2.585  -6.294  -8.907  1.00  0.00    -0.493 OA
ATOM     13  C   UNL     1       3.134  -7.001 -10.017  1.00  0.00     0.278 C 
ENDBRANCH   1  12
BRANCH   2  14
ATOM     14  O   UNL     1       0.427  -4.404  -8.643  1.00  0.00    -0.490 OA
ATOM     15  C   UNL     1      -0.019  -3.976  -9.926  1.00  0.00     0.278 C 
ENDBRANCH   2  14
BRANCH   3  16
ATOM     16  O   UNL     1      -1.940  -5.214  -7.223  1.00  0.00    -0.490 OA
ATOM     17  C   UNL     1      -2.076  -4.180  -6.253  1.00  0.00     0.278 C 
ENDBRANCH   3  16
TORSDOF 3
ENDMDL
MODEL 4
REMARK VINA RESULT:    -5.837      2.004      5.636
REMARK INTER + INTRA:          -6.855
REMARK INTER:                  -6.605
REMARK INTRA:                  -0.249
REMARK UNBOUND:                 0.006
REMARK SMILES COc1cc2ccc(=O)oc2c(OC)c1OC
REMARK SMILES IDX 3 1 15 2 12 3 11 4 5 5 4 6 6 7 7 8 8 9 9 10 10 11 2 12 1 13
REMARK SMILES IDX 16 14 17 15 13 16 14 17
REMARK H PARENT
REMARK Flexibility Score: inf
ROOT
ATOM      1  C   UNL     1      12.009  -6.617 -13.309  1.00  0.00     0.165 A 
ATOM      2  C   UNL     1      11.181  -6.013 -12.320  1.00  0.00     0.207 A 
ATOM      3  C   UNL     1      10.352  -6.837 -11.508  1.00  0.00     0.208 A 
ATOM      4  C   UNL     1      10.358  -8.226 -11.689  1.00  0.00     0.184 A 
ATOM      5  C   UNL     1      11.179  -8.815 -12.668  1.00  0.00     0.025 A 
ATOM      6  C   UNL     1      11.994  -8.016 -13.468  1.00  0.00     0.062 A 
ATOM      7  C   UNL     1      11.155 -10.206 -12.816  1.00  0.00     0.020 A 
ATOM      8  C   UNL     1      10.324 -10.969 -11.997  1.00  0.00     0.094 A 
ATOM      9  C   UNL     1       9.535 -10.317 -11.045  1.00  0.00     0.336 A 
ATOM     10  O   UNL     1       8.778 -10.985 -10.293  1.00  0.00    -0.246 OA
ATOM     11  O   UNL     1       9.580  -8.993 -10.927  1.00  0.00    -0.419 OA
ENDROOT
BRANCH   1  12
ATOM     12  O   UNL     1      12.834  -5.819 -14.117  1.00  0.00    -0.493 OA
ATOM     13  C   UNL     1      13.635  -6.292 -15.196  1.00  0.00     0.278 C 
ENDBRANCH   1  12
BRANCH   2  14
ATOM     14  O   UNL     1      11.149  -4.622 -12.110  1.00  0.00    -0.490 OA
ATOM     15  C   UNL     1      11.971  -3.861 -11.230  1.00  0.00     0.278 C 
ENDBRANCH   2  14
BRANCH   3  16
ATOM     16  O   UNL     1       9.496  -6.343 -10.502  1.00  0.00    -0.490 OA
ATOM     17  C   UNL     1       8.197  -5.786 -10.679  1.00  0.00     0.278 C 
ENDBRANCH   3  16
TORSDOF 3
ENDMDL
MODEL 5
REMARK VINA RESULT:    -5.749     11.284     14.654
REMARK INTER + INTRA:          -6.751
REMARK INTER:                  -6.466
REMARK INTRA:                  -0.285
REMARK UNBOUND:                 0.006
REMARK SMILES COc1cc2ccc(=O)oc2c(OC)c1OC
REMARK SMILES IDX 3 1 15 2 12 3 11 4 5 5 4 6 6 7 7 8 8 9 9 10 10 11 2 12 1 13
REMARK SMILES IDX 16 14 17 15 13 16 14 17
REMARK H PARENT
REMARK Flexibility Score: inf
ROOT
ATOM      1  C   UNL     1      -1.627  -4.848  -6.992  1.00  0.00     0.165 A 
ATOM      2  C   UNL     1      -0.446  -5.043  -7.762  1.00  0.00     0.207 A 
ATOM      3  C   UNL     1       0.181  -6.321  -7.765  1.00  0.00     0.208 A 
ATOM      4  C   UNL     1      -0.368  -7.367  -7.012  1.00  0.00     0.184 A 
ATOM      5  C   UNL     1      -1.535  -7.166  -6.253  1.00  0.00     0.025 A 
ATOM      6  C   UNL     1      -2.155  -5.918  -6.245  1.00  0.00     0.062 A 
ATOM      7  C   UNL     1      -2.049  -8.238  -5.515  1.00  0.00     0.020 A 
ATOM      8  C   UNL     1      -1.397  -9.470  -5.549  1.00  0.00     0.094 A 
ATOM      9  C   UNL     1      -0.242  -9.599  -6.325  1.00  0.00     0.336 A 
ATOM     10  O   UNL     1       0.363 -10.702  -6.372  1.00  0.00    -0.246 OA
ATOM     11  O   UNL     1       0.223  -8.562  -7.016  1.00  0.00    -0.419 OA
ENDROOT
BRANCH   1  12
ATOM     12  O   UNL     1      -2.258  -3.594  -6.980  1.00  0.00    -0.493 OA
ATOM     13  C   UNL     1      -3.423  -3.252  -7.726  1.00  0.00     0.278 C 
ENDBRANCH   1  12
BRANCH   2  14
ATOM     14  O   UNL     1       0.133  -4.016  -8.530  1.00  0.00    -0.490 OA
ATOM     15  C   UNL     1      -0.056  -3.763  -9.919  1.00  0.00     0.278 C 
ENDBRANCH   2  14
BRANCH   3  16
ATOM     16  O   UNL     1       1.352  -6.622  -8.491  1.00  0.00    -0.490 OA
ATOM     17  C   UNL     1       2.688  -6.268  -8.149  1.00  0.00     0.278 C 
ENDBRANCH   3  16
TORSDOF 3
ENDMDL
MODEL 6
REMARK VINA RESULT:    -5.572      1.628      3.624
REMARK INTER + INTRA:          -6.543
REMARK INTER:                  -6.343
REMARK INTRA:                  -0.200
REMARK UNBOUND:                 0.006
REMARK SMILES COc1cc2ccc(=O)oc2c(OC)c1OC
REMARK SMILES IDX 3 1 15 2 12 3 11 4 5 5 4 6 6 7 7 8 8 9 9 10 10 11 2 12 1 13
REMARK SMILES IDX 16 14 17 15 13 16 14 17
REMARK H PARENT
REMARK Flexibility Score: inf
ROOT
ATOM      1  C   UNL     1      10.894  -7.885 -12.269  1.00  0.00     0.165 A 
ATOM      2  C   UNL     1      10.521  -6.845 -11.372  1.00  0.00     0.207 A 
ATOM      3  C   UNL     1      11.155  -5.575 -11.477  1.00  0.00     0.208 A 
ATOM      4  C   UNL     1      12.134  -5.363 -12.456  1.00  0.00     0.184 A 
ATOM      5  C   UNL     1      12.496  -6.397 -13.339  1.00  0.00     0.025 A 
ATOM      6  C   UNL     1      11.881  -7.643 -13.244  1.00  0.00     0.062 A 
ATOM      7  C   UNL     1      13.478  -6.142 -14.303  1.00  0.00     0.020 A 
ATOM      8  C   UNL     1      14.070  -4.882 -14.364  1.00  0.00     0.094 A 
ATOM      9  C   UNL     1      13.661  -3.902 -13.455  1.00  0.00     0.336 A 
ATOM     10  O   UNL     1      14.181  -2.756 -13.492  1.00  0.00    -0.246 OA
ATOM     11  O   UNL     1      12.725  -4.172 -12.550  1.00  0.00    -0.419 OA
ENDROOT
BRANCH   1  12
ATOM     12  O   UNL     1      10.277  -9.144 -12.179  1.00  0.00    -0.493 OA
ATOM     13  C   UNL     1      10.855 -10.375 -12.604  1.00  0.00     0.278 C 
ENDBRANCH   1  12
BRANCH   2  14
ATOM     14  O   UNL     1       9.543  -7.021 -10.376  1.00  0.00    -0.490 OA
ATOM     15  C   UNL     1       8.200  -6.546 -10.389  1.00  0.00     0.278 C 
ENDBRANCH   2  14
BRANCH   3  16
ATOM     16  O   UNL     1      10.862  -4.478 -10.640  1.00  0.00    -0.490 OA
ATOM     17  C   UNL     1      11.260  -4.304  -9.284  1.00  0.00     0.278 C 
ENDBRANCH   3  16
TORSDOF 3
ENDMDL
MODEL 7
REMARK VINA RESULT:    -5.564     10.276     13.518
REMARK INTER + INTRA:          -6.533
REMARK INTER:                  -6.294
REMARK INTRA:                  -0.239
REMARK UNBOUND:                 0.006
REMARK SMILES COc1cc2ccc(=O)oc2c(OC)c1OC
REMARK SMILES IDX 3 1 15 2 12 3 11 4 5 5 4 6 6 7 7 8 8 9 9 10 10 11 2 12 1 13
REMARK SMILES IDX 16 14 17 15 13 16 14 17
REMARK H PARENT
REMARK Flexibility Score: inf
ROOT
ATOM      1  C   UNL     1      -1.800  -6.153  -7.182  1.00  0.00     0.165 A 
ATOM      2  C   UNL     1      -1.366  -7.455  -6.802  1.00  0.00     0.207 A 
ATOM      3  C   UNL     1      -0.018  -7.839  -7.050  1.00  0.00     0.208 A 
ATOM      4  C   UNL     1       0.862  -6.937  -7.663  1.00  0.00     0.184 A 
ATOM      5  C   UNL     1       0.424  -5.653  -8.035  1.00  0.00     0.025 A 
ATOM      6  C   UNL     1      -0.893  -5.269  -7.796  1.00  0.00     0.062 A 
ATOM      7  C   UNL     1       1.336  -4.784  -8.645  1.00  0.00     0.020 A 
ATOM      8  C   UNL     1       2.645  -5.208  -8.867  1.00  0.00     0.094 A 
ATOM      9  C   UNL     1       3.012  -6.497  -8.472  1.00  0.00     0.336 A 
ATOM     10  O   UNL     1       4.188  -6.902  -8.661  1.00  0.00    -0.246 OA
ATOM     11  O   UNL     1       2.123  -7.302  -7.894  1.00  0.00    -0.419 OA
ENDROOT
BRANCH   1  12
ATOM     12  O   UNL     1      -3.127  -5.759  -6.943  1.00  0.00    -0.493 OA
ATOM     13  C   UNL     1      -3.711  -4.533  -7.375  1.00  0.00     0.278 C 
ENDBRANCH   1  12
BRANCH   2  14
ATOM     14  O   UNL     1      -2.221  -8.387  -6.185  1.00  0.00    -0.490 OA
ATOM     15  C   UNL     1      -2.368  -8.633  -4.790  1.00  0.00     0.278 C 
ENDBRANCH   2  14
BRANCH   3  16
ATOM     16  O   UNL     1       0.515  -9.101  -6.715  1.00  0.00    -0.490 OA
ATOM     17  C   UNL     1       0.324 -10.326  -7.416  1.00  0.00     0.278 C 
ENDBRANCH   3  16
TORSDOF 3
ENDMDL
MODEL 8
REMARK VINA RESULT:    -5.352     11.585     14.747
REMARK INTER + INTRA:          -6.284
REMARK INTER:                  -6.199
REMARK INTRA:                  -0.086
REMARK UNBOUND:                 0.006
REMARK SMILES COc1cc2ccc(=O)oc2c(OC)c1OC
REMARK SMILES IDX 3 1 15 2 12 3 11 4 5 5 4 6 6 7 7 8 8 9 9 10 10 11 2 12 1 13
REMARK SMILES IDX 16 14 17 15 13 16 14 17
REMARK H PARENT
REMARK Flexibility Score: inf
ROOT
ATOM      1  C   UNL     1      -1.458  -8.278  -5.703  1.00  0.00     0.165 A 
ATOM      2  C   UNL     1      -0.298  -8.427  -6.515  1.00  0.00     0.207 A 
ATOM      3  C   UNL     1       0.093  -7.360  -7.372  1.00  0.00     0.208 A 
ATOM      4  C   UNL     1      -0.664  -6.182  -7.408  1.00  0.00     0.184 A 
ATOM      5  C   UNL     1      -1.808  -6.044  -6.603  1.00  0.00     0.025 A 
ATOM      6  C   UNL     1      -2.199  -7.083  -5.761  1.00  0.00     0.062 A 
ATOM      7  C   UNL     1      -2.535  -4.850  -6.670  1.00  0.00     0.020 A 
ATOM      8  C   UNL     1      -2.112  -3.835  -7.527  1.00  0.00     0.094 A 
ATOM      9  C   UNL     1      -0.965  -4.041  -8.298  1.00  0.00     0.336 A 
ATOM     10  O   UNL     1      -0.563  -3.139  -9.078  1.00  0.00    -0.246 OA
ATOM     11  O   UNL     1      -0.294  -5.186  -8.213  1.00  0.00    -0.419 OA
ENDROOT
BRANCH   1  12
ATOM     12  O   UNL     1      -1.856  -9.321  -4.851  1.00  0.00    -0.493 OA
ATOM     13  C   UNL     1      -2.815 -10.325  -5.172  1.00  0.00     0.278 C 
ENDBRANCH   1  12
BRANCH   2  14
ATOM     14  O   UNL     1       0.486  -9.595  -6.505  1.00  0.00    -0.490 OA
ATOM     15  C   UNL     1       0.352 -10.734  -7.350  1.00  0.00     0.278 C 
ENDBRANCH   2  14
BRANCH   3  16
ATOM     16  O   UNL     1       1.222  -7.403  -8.217  1.00  0.00    -0.490 OA
ATOM     17  C   UNL     1       2.429  -6.662  -8.072  1.00  0.00     0.278 C 
ENDBRANCH   3  16
TORSDOF 3
ENDMDL
MODEL 9
REMARK VINA RESULT:    -3.926      1.298      4.799
REMARK INTER + INTRA:          -4.608
REMARK INTER:                  -4.876
REMARK INTRA:                   0.267
REMARK UNBOUND:                 0.006
REMARK SMILES COc1cc2ccc(=O)oc2c(OC)c1OC
REMARK SMILES IDX 3 1 15 2 12 3 11 4 5 5 4 6 6 7 7 8 8 9 9 10 10 11 2 12 1 13
REMARK SMILES IDX 16 14 17 15 13 16 14 17
REMARK H PARENT
REMARK Flexibility Score: inf
ROOT
ATOM      1  C   UNL     1      13.696  -4.697 -13.669  1.00  0.00     0.165 A 
ATOM      2  C   UNL     1      13.131  -5.922 -14.125  1.00  0.00     0.207 A 
ATOM      3  C   UNL     1      12.005  -6.466 -13.445  1.00  0.00     0.208 A 
ATOM      4  C   UNL     1      11.468  -5.794 -12.340  1.00  0.00     0.184 A 
ATOM      5  C   UNL     1      12.031  -4.584 -11.896  1.00  0.00     0.025 A 
ATOM      6  C   UNL     1      13.134  -4.044 -12.556  1.00  0.00     0.062 A 
ATOM      7  C   UNL     1      11.463  -3.946 -10.788  1.00  0.00     0.020 A 
ATOM      8  C   UNL     1      10.361  -4.520 -10.155  1.00  0.00     0.094 A 
ATOM      9  C   UNL     1       9.853  -5.724 -10.650  1.00  0.00     0.336 A 
ATOM     10  O   UNL     1       8.858  -6.261 -10.097  1.00  0.00    -0.246 OA
ATOM     11  O   UNL     1      10.414  -6.308 -11.706  1.00  0.00    -0.419 OA
ENDROOT
BRANCH   1  12
ATOM     12  O   UNL     1      14.805  -4.147 -14.330  1.00  0.00    -0.493 OA
ATOM     13  C   UNL     1      16.125  -4.069 -13.798  1.00  0.00     0.278 C 
ENDBRANCH   1  12
BRANCH   2  14
ATOM     14  O   UNL     1      13.644  -6.625 -15.231  1.00  0.00    -0.490 OA
ATOM     15  C   UNL     1      14.280  -6.079 -16.383  1.00  0.00     0.278 C 
ENDBRANCH   2  14
BRANCH   3  16
ATOM     16  O   UNL     1      11.371  -7.671 -13.813  1.00  0.00    -0.490 OA
ATOM     17  C   UNL     1      11.628  -8.969 -13.289  1.00  0.00     0.278 C 
ENDBRANCH   3  16
TORSDOF 3
ENDMDL
