MODEL 1
REMARK VINA RESULT:    -6.137      0.000      0.000
REMARK INTER + INTRA:         -18.992
REMARK INTER:                 -15.465
REMARK INTRA:                  -3.526
REMARK UNBOUND:                -3.526
REMARK SMILES CCCCCCCCCCCCCCCCCCCCCCCCCCCC(=O)[O-]
REMARK SMILES IDX 15 1 16 2 17 3 18 4 19 5 20 6 21 7 22 8 23 9 24 10 25 11
REMARK SMILES IDX 26 12 27 13 28 14 29 15 30 16 14 17 13 18 12 19 11 20 10 21
REMARK SMILES IDX 9 22 8 23 7 24 6 25 5 26 4 27 3 28 2 29 1 30
REMARK H PARENT
REMARK Flexibility Score: inf
ROOT
ATOM      1  C   UNL     1      -3.045  41.835 102.857  1.00  0.00     0.000 C 
ENDROOT
BRANCH   1   2
ATOM      2  C   UNL     1      -3.573  42.131 101.445  1.00  0.00     0.000 C 
BRANCH   2   3
ATOM      3  C   UNL     1      -3.565  43.633 101.111  1.00  0.00     0.000 C 
BRANCH   3   4
ATOM      4  C   UNL     1      -4.643  44.012 100.082  1.00  0.00     0.000 C 
BRANCH   4   5
ATOM      5  C   UNL     1      -5.376  45.314 100.447  1.00  0.00     0.000 C 
BRANCH   5   6
ATOM      6  C   UNL     1      -6.809  45.368  99.890  1.00  0.00     0.000 C 
BRANCH   6   7
ATOM      7  C   UNL     1      -7.907  44.908 100.870  1.00  0.00     0.000 C 
BRANCH   7   8
ATOM      8  C   UNL     1      -7.780  45.455 102.306  1.00  0.00     0.000 C 
BRANCH   8   9
ATOM      9  C   UNL     1      -7.718  44.380 103.407  1.00  0.00     0.000 C 
BRANCH   9  10
ATOM     10  C   UNL     1      -6.352  43.674 103.475  1.00  0.00     0.000 C 
BRANCH  10  11
ATOM     11  C   UNL     1      -5.880  43.455 104.929  1.00  0.00     0.000 C 
BRANCH  11  12
ATOM     12  C   UNL     1      -4.944  44.558 105.452  1.00  0.00     0.006 C 
BRANCH  12  13
ATOM     13  C   UNL     1      -3.935  45.035 104.400  1.00  0.00     0.053 C 
BRANCH  13  14
ATOM     14  C   UNL     1      -2.536  44.879 104.903  1.00  0.00     0.041 C 
ATOM     15  O   UNL     1      -2.310  44.819 106.141  1.00  0.00    -0.550 OA
ATOM     16  O   UNL     1      -1.480  44.773 104.005  1.00  0.00    -0.550 OA
ENDBRANCH  13  14
ENDBRANCH  12  13
ENDBRANCH  11  12
ENDBRANCH  10  11
ENDBRANCH   9  10
ENDBRANCH   8   9
ENDBRANCH   7   8
ENDBRANCH   6   7
ENDBRANCH   5   6
ENDBRANCH   4   5
ENDBRANCH   3   4
ENDBRANCH   2   3
ENDBRANCH   1   2
BRANCH   1  17
ATOM     17  C   UNL     1      -2.808  40.335 103.096  1.00  0.00     0.000 C 
BRANCH  17  18
ATOM     18  C   UNL     1      -1.750  39.737 102.153  1.00  0.00     0.000 C 
BRANCH  18  19
ATOM     19  C   UNL     1      -2.156  38.381 101.538  1.00  0.00     0.000 C 
BRANCH  19  20
ATOM     20  C   UNL     1      -3.146  37.610 102.424  1.00  0.00     0.000 C 
BRANCH  20  21
ATOM     21  C   UNL     1      -3.988  36.635 101.591  1.00  0.00     0.000 C 
BRANCH  21  22
ATOM     22  C   UNL     1      -3.094  35.592 100.901  1.00  0.00    -0.000 C 
BRANCH  22  23
ATOM     23  C   UNL     1      -3.905  34.448 100.270  1.00  0.00    -0.000 C 
BRANCH  23  24
ATOM     24  C   UNL     1      -4.039  34.600  98.745  1.00  0.00    -0.000 C 
BRANCH  24  25
ATOM     25  C   UNL     1      -2.904  35.432  98.120  1.00  0.00    -0.000 C 
BRANCH  25  26
ATOM     26  C   UNL     1      -3.354  36.667  97.317  1.00  0.00    -0.000 C 
BRANCH  26  27
ATOM     27  C   UNL     1      -3.602  37.900  98.199  1.00  0.00    -0.000 C 
BRANCH  27  28
ATOM     28  C   UNL     1      -5.095  38.134  98.488  1.00  0.00    -0.000 C 
BRANCH  28  29
ATOM     29  C   UNL     1      -5.947  38.335  97.216  1.00  0.00    -0.003 C 
ATOM     30  C   UNL     1      -5.638  39.658  96.513  1.00  0.00     0.004 C 
ENDBRANCH  28  29
ENDBRANCH  27  28
ENDBRANCH  26  27
ENDBRANCH  25  26
ENDBRANCH  24  25
ENDBRANCH  23  24
ENDBRANCH  22  23
ENDBRANCH  21  22
ENDBRANCH  20  21
ENDBRANCH  19  20
ENDBRANCH  18  19
ENDBRANCH  17  18
ENDBRANCH   1  17
TORSDOF 26
ENDMDL
MODEL 2
REMARK VINA RESULT:    -6.126      2.049      3.464
REMARK INTER + INTRA:         -18.964
REMARK INTER:                 -15.618
REMARK INTRA:                  -3.345
REMARK UNBOUND:                -3.526
REMARK SMILES CCCCCCCCCCCCCCCCCCCCCCCCCCCC(=O)[O-]
REMARK SMILES IDX 15 1 16 2 17 3 18 4 19 5 20 6 21 7 22 8 23 9 24 10 25 11
REMARK SMILES IDX 26 12 27 13 28 14 29 15 30 16 14 17 13 18 12 19 11 20 10 21
REMARK SMILES IDX 9 22 8 23 7 24 6 25 5 26 4 27 3 28 2 29 1 30
REMARK H PARENT
REMARK Flexibility Score: inf
ROOT
ATOM      1  C   UNL     1      -2.044  40.235 103.136  1.00  0.00     0.000 C 
ENDROOT
BRANCH   1   2
ATOM      2  C   UNL     1      -0.589  40.526 102.735  1.00  0.00     0.000 C 
BRANCH   2   3
ATOM      3  C   UNL     1      -0.148  41.955 103.101  1.00  0.00     0.000 C 
BRANCH   3   4
ATOM      4  C   UNL     1      -1.291  42.783 103.712  1.00  0.00     0.000 C 
BRANCH   4   5
ATOM      5  C   UNL     1      -1.904  43.774 102.707  1.00  0.00     0.000 C 
BRANCH   5   6
ATOM      6  C   UNL     1      -3.432  43.890 102.840  1.00  0.00     0.000 C 
BRANCH   6   7
ATOM      7  C   UNL     1      -3.955  43.995 104.286  1.00  0.00     0.000 C 
BRANCH   7   8
ATOM      8  C   UNL     1      -4.949  42.894 104.709  1.00  0.00     0.000 C 
BRANCH   8   9
ATOM      9  C   UNL     1      -6.435  43.259 104.535  1.00  0.00     0.000 C 
BRANCH   9  10
ATOM     10  C   UNL     1      -6.655  44.762 104.290  1.00  0.00     0.000 C 
BRANCH  10  11
ATOM     11  C   UNL     1      -7.730  45.027 103.214  1.00  0.00     0.000 C 
BRANCH  11  12
ATOM     12  C   UNL     1      -7.264  44.718 101.780  1.00  0.00     0.006 C 
BRANCH  12  13
ATOM     13  C   UNL     1      -6.361  45.811 101.196  1.00  0.00     0.053 C 
BRANCH  13  14
ATOM     14  C   UNL     1      -5.782  45.372  99.889  1.00  0.00     0.041 C 
ATOM     15  O   UNL     1      -5.801  46.146  98.896  1.00  0.00    -0.550 OA
ATOM     16  O   UNL     1      -5.195  44.117  99.773  1.00  0.00    -0.550 OA
ENDBRANCH  13  14
ENDBRANCH  12  13
ENDBRANCH  11  12
ENDBRANCH  10  11
ENDBRANCH   9  10
ENDBRANCH   8   9
ENDBRANCH   7   8
ENDBRANCH   6   7
ENDBRANCH   5   6
ENDBRANCH   4   5
ENDBRANCH   3   4
ENDBRANCH   2   3
ENDBRANCH   1   2
BRANCH   1  17
ATOM     17  C   UNL     1      -2.942  39.944 101.922  1.00  0.00     0.000 C 
BRANCH  17  18
ATOM     18  C   UNL     1      -2.403  38.809 101.035  1.00  0.00     0.000 C 
BRANCH  18  19
ATOM     19  C   UNL     1      -2.483  37.414 101.689  1.00  0.00     0.000 C 
BRANCH  19  20
ATOM     20  C   UNL     1      -3.895  37.085 102.197  1.00  0.00     0.000 C 
BRANCH  20  21
ATOM     21  C   UNL     1      -4.884  36.955 101.031  1.00  0.00     0.000 C 
BRANCH  21  22
ATOM     22  C   UNL     1      -5.261  35.485 100.795  1.00  0.00    -0.000 C 
BRANCH  22  23
ATOM     23  C   UNL     1      -5.489  35.168  99.308  1.00  0.00    -0.000 C 
BRANCH  23  24
ATOM     24  C   UNL     1      -4.340  34.342  98.704  1.00  0.00    -0.000 C 
BRANCH  24  25
ATOM     25  C   UNL     1      -3.090  35.186  98.393  1.00  0.00    -0.000 C 
BRANCH  25  26
ATOM     26  C   UNL     1      -3.314  36.370  97.434  1.00  0.00    -0.000 C 
BRANCH  26  27
ATOM     27  C   UNL     1      -3.370  37.726  98.154  1.00  0.00    -0.000 C 
BRANCH  27  28
ATOM     28  C   UNL     1      -4.501  38.629  97.633  1.00  0.00    -0.000 C 
BRANCH  28  29
ATOM     29  C   UNL     1      -5.502  37.898  96.712  1.00  0.00    -0.003 C 
ATOM     30  C   UNL     1      -6.937  37.976  97.238  1.00  0.00     0.004 C 
ENDBRANCH  28  29
ENDBRANCH  27  28
ENDBRANCH  26  27
ENDBRANCH  25  26
ENDBRANCH  24  25
ENDBRANCH  23  24
ENDBRANCH  22  23
ENDBRANCH  21  22
ENDBRANCH  20  21
ENDBRANCH  19  20
ENDBRANCH  18  19
ENDBRANCH  17  18
ENDBRANCH   1  17
TORSDOF 26
ENDMDL
MODEL 3
REMARK VINA RESULT:    -6.083      1.804      3.720
REMARK INTER + INTRA:         -18.855
REMARK INTER:                 -15.504
REMARK INTRA:                  -3.350
REMARK UNBOUND:                -3.526
REMARK SMILES CCCCCCCCCCCCCCCCCCCCCCCCCCCC(=O)[O-]
REMARK SMILES IDX 15 1 16 2 17 3 18 4 19 5 20 6 21 7 22 8 23 9 24 10 25 11
REMARK SMILES IDX 26 12 27 13 28 14 29 15 30 16 14 17 13 18 12 19 11 20 10 21
REMARK SMILES IDX 9 22 8 23 7 24 6 25 5 26 4 27 3 28 2 29 1 30
REMARK H PARENT
REMARK Flexibility Score: inf
ROOT
ATOM      1  C   UNL     1      -1.284  42.178 103.294  1.00  0.00     0.000 C 
ENDROOT
BRANCH   1   2
ATOM      2  C   UNL     1      -1.507  43.698 103.232  1.00  0.00     0.000 C 
BRANCH   2   3
ATOM      3  C   UNL     1      -1.921  44.292 104.590  1.00  0.00     0.000 C 
BRANCH   3   4
ATOM      4  C   UNL     1      -3.015  45.362 104.453  1.00  0.00     0.000 C 
BRANCH   4   5
ATOM      5  C   UNL     1      -4.234  45.078 105.348  1.00  0.00     0.000 C 
BRANCH   5   6
ATOM      6  C   UNL     1      -4.866  43.701 105.076  1.00  0.00     0.000 C 
BRANCH   6   7
ATOM      7  C   UNL     1      -5.595  43.574 103.724  1.00  0.00     0.000 C 
BRANCH   7   8
ATOM      8  C   UNL     1      -7.084  43.977 103.738  1.00  0.00     0.000 C 
BRANCH   8   9
ATOM      9  C   UNL     1      -7.376  45.403 103.234  1.00  0.00     0.000 C 
BRANCH   9  10
ATOM     10  C   UNL     1      -8.490  45.444 102.173  1.00  0.00     0.000 C 
BRANCH  10  11
ATOM     11  C   UNL     1      -7.984  45.016 100.778  1.00  0.00     0.000 C 
BRANCH  11  12
ATOM     12  C   UNL     1      -6.452  45.045 100.637  1.00  0.00     0.006 C 
BRANCH  12  13
ATOM     13  C   UNL     1      -5.980  44.866  99.189  1.00  0.00     0.053 C 
BRANCH  13  14
ATOM     14  C   UNL     1      -4.731  44.046  99.139  1.00  0.00     0.041 C 
ATOM     15  O   UNL     1      -4.247  43.695  98.031  1.00  0.00    -0.550 OA
ATOM     16  O   UNL     1      -4.083  43.691 100.316  1.00  0.00    -0.550 OA
ENDBRANCH  13  14
ENDBRANCH  12  13
ENDBRANCH  11  12
ENDBRANCH  10  11
ENDBRANCH   9  10
ENDBRANCH   8   9
ENDBRANCH   7   8
ENDBRANCH   6   7
ENDBRANCH   5   6
ENDBRANCH   4   5
ENDBRANCH   3   4
ENDBRANCH   2   3
ENDBRANCH   1   2
BRANCH   1  17
ATOM     17  C   UNL     1      -2.603  41.391 103.351  1.00  0.00     0.000 C 
BRANCH  17  18
ATOM     18  C   UNL     1      -2.515  40.022 102.654  1.00  0.00     0.000 C 
BRANCH  18  19
ATOM     19  C   UNL     1      -3.068  40.018 101.213  1.00  0.00     0.000 C 
BRANCH  19  20
ATOM     20  C   UNL     1      -2.935  38.644 100.539  1.00  0.00     0.000 C 
BRANCH  20  21
ATOM     21  C   UNL     1      -2.329  37.614 101.502  1.00  0.00     0.000 C 
BRANCH  21  22
ATOM     22  C   UNL     1      -3.273  36.416 101.686  1.00  0.00    -0.000 C 
BRANCH  22  23
ATOM     23  C   UNL     1      -4.706  36.720 101.218  1.00  0.00    -0.000 C 
BRANCH  23  24
ATOM     24  C   UNL     1      -5.376  35.502 100.559  1.00  0.00    -0.000 C 
BRANCH  24  25
ATOM     25  C   UNL     1      -4.364  34.469 100.030  1.00  0.00    -0.000 C 
BRANCH  25  26
ATOM     26  C   UNL     1      -4.048  34.564  98.526  1.00  0.00    -0.000 C 
BRANCH  26  27
ATOM     27  C   UNL     1      -2.862  35.490  98.216  1.00  0.00    -0.000 C 
BRANCH  27  28
ATOM     28  C   UNL     1      -3.264  36.705  97.363  1.00  0.00    -0.000 C 
BRANCH  28  29
ATOM     29  C   UNL     1      -4.790  36.854  97.178  1.00  0.00    -0.003 C 
ATOM     30  C   UNL     1      -5.314  38.182  97.727  1.00  0.00     0.004 C 
ENDBRANCH  28  29
ENDBRANCH  27  28
ENDBRANCH  26  27
ENDBRANCH  25  26
ENDBRANCH  24  25
ENDBRANCH  23  24
ENDBRANCH  22  23
ENDBRANCH  21  22
ENDBRANCH  20  21
ENDBRANCH  19  20
ENDBRANCH  18  19
ENDBRANCH  17  18
ENDBRANCH   1  17
TORSDOF 26
ENDMDL
MODEL 4
REMARK VINA RESULT:    -5.954      2.989      4.541
REMARK INTER + INTRA:         -18.531
REMARK INTER:                 -15.521
REMARK INTRA:                  -3.010
REMARK UNBOUND:                -3.526
REMARK SMILES CCCCCCCCCCCCCCCCCCCCCCCCCCCC(=O)[O-]
REMARK SMILES IDX 15 1 16 2 17 3 18 4 19 5 20 6 21 7 22 8 23 9 24 10 25 11
REMARK SMILES IDX 26 12 27 13 28 14 29 15 30 16 14 17 13 18 12 19 11 20 10 21
REMARK SMILES IDX 9 22 8 23 7 24 6 25 5 26 4 27 3 28 2 29 1 30
REMARK H PARENT
REMARK Flexibility Score: inf
ROOT
ATOM      1  C   UNL     1      -1.247  42.349 103.264  1.00  0.00     0.000 C 
ENDROOT
BRANCH   1   2
ATOM      2  C   UNL     1      -1.602  43.844 103.297  1.00  0.00     0.000 C 
BRANCH   2   3
ATOM      3  C   UNL     1      -2.086  44.307 104.682  1.00  0.00     0.000 C 
BRANCH   3   4
ATOM      4  C   UNL     1      -3.224  45.338 104.592  1.00  0.00     0.000 C 
BRANCH   4   5
ATOM      5  C   UNL     1      -4.466  44.917 105.395  1.00  0.00     0.000 C 
BRANCH   5   6
ATOM      6  C   UNL     1      -5.076  43.593 104.903  1.00  0.00     0.000 C 
BRANCH   6   7
ATOM      7  C   UNL     1      -5.507  43.584 103.423  1.00  0.00     0.000 C 
BRANCH   7   8
ATOM      8  C   UNL     1      -6.999  43.880 103.170  1.00  0.00     0.000 C 
BRANCH   8   9
ATOM      9  C   UNL     1      -7.293  45.267 102.569  1.00  0.00     0.000 C 
BRANCH   9  10
ATOM     10  C   UNL     1      -8.283  45.209 101.391  1.00  0.00     0.000 C 
BRANCH  10  11
ATOM     11  C   UNL     1      -9.653  45.823 101.750  1.00  0.00     0.000 C 
BRANCH  11  12
ATOM     12  C   UNL     1      -9.754  46.312 103.205  1.00  0.00     0.006 C 
BRANCH  12  13
ATOM     13  C   UNL     1     -11.001  47.165 103.466  1.00  0.00     0.053 C 
BRANCH  13  14
ATOM     14  C   UNL     1     -11.639  46.782 104.762  1.00  0.00     0.041 C 
ATOM     15  O   UNL     1     -12.589  47.466 105.228  1.00  0.00    -0.550 OA
ATOM     16  O   UNL     1     -11.204  45.653 105.447  1.00  0.00    -0.550 OA
ENDBRANCH  13  14
ENDBRANCH  12  13
ENDBRANCH  11  12
ENDBRANCH  10  11
ENDBRANCH   9  10
ENDBRANCH   8   9
ENDBRANCH   7   8
ENDBRANCH   6   7
ENDBRANCH   5   6
ENDBRANCH   4   5
ENDBRANCH   3   4
ENDBRANCH   2   3
ENDBRANCH   1   2
BRANCH   1  17
ATOM     17  C   UNL     1      -2.488  41.446 103.357  1.00  0.00     0.000 C 
BRANCH  17  18
ATOM     18  C   UNL     1      -2.351  40.151 102.538  1.00  0.00     0.000 C 
BRANCH  18  19
ATOM     19  C   UNL     1      -3.174  40.147 101.233  1.00  0.00     0.000 C 
BRANCH  19  20
ATOM     20  C   UNL     1      -3.146  38.783 100.526  1.00  0.00     0.000 C 
BRANCH  20  21
ATOM     21  C   UNL     1      -2.340  37.760 101.337  1.00  0.00     0.000 C 
BRANCH  21  22
ATOM     22  C   UNL     1      -3.238  36.606 101.807  1.00  0.00    -0.000 C 
BRANCH  22  23
ATOM     23  C   UNL     1      -4.709  36.805 101.407  1.00  0.00    -0.000 C 
BRANCH  23  24
ATOM     24  C   UNL     1      -5.257  35.623 100.588  1.00  0.00    -0.000 C 
BRANCH  24  25
ATOM     25  C   UNL     1      -4.170  34.603 100.200  1.00  0.00    -0.000 C 
BRANCH  25  26
ATOM     26  C   UNL     1      -3.817  34.552  98.702  1.00  0.00    -0.000 C 
BRANCH  26  27
ATOM     27  C   UNL     1      -2.851  35.667  98.272  1.00  0.00    -0.000 C 
BRANCH  27  28
ATOM     28  C   UNL     1      -3.477  36.638  97.256  1.00  0.00    -0.000 C 
BRANCH  28  29
ATOM     29  C   UNL     1      -5.011  36.507  97.141  1.00  0.00    -0.003 C 
ATOM     30  C   UNL     1      -5.733  37.804  97.508  1.00  0.00     0.004 C 
ENDBRANCH  28  29
ENDBRANCH  27  28
ENDBRANCH  26  27
ENDBRANCH  25  26
ENDBRANCH  24  25
ENDBRANCH  23  24
ENDBRANCH  22  23
ENDBRANCH  21  22
ENDBRANCH  20  21
ENDBRANCH  19  20
ENDBRANCH  18  19
ENDBRANCH  17  18
ENDBRANCH   1  17
TORSDOF 26
ENDMDL
MODEL 5
REMARK VINA RESULT:    -5.928      2.898      8.650
REMARK INTER + INTRA:         -18.465
REMARK INTER:                 -15.741
REMARK INTRA:                  -2.724
REMARK UNBOUND:                -3.526
REMARK SMILES CCCCCCCCCCCCCCCCCCCCCCCCCCCC(=O)[O-]
REMARK SMILES IDX 15 1 16 2 17 3 18 4 19 5 20 6 21 7 22 8 23 9 24 10 25 11
REMARK SMILES IDX 26 12 27 13 28 14 29 15 30 16 14 17 13 18 12 19 11 20 10 21
REMARK SMILES IDX 9 22 8 23 7 24 6 25 5 26 4 27 3 28 2 29 1 30
REMARK H PARENT
REMARK Flexibility Score: inf
ROOT
ATOM      1  C   UNL     1      -3.250  41.553 102.219  1.00  0.00     0.000 C 
ENDROOT
BRANCH   1   2
ATOM      2  C   UNL     1      -1.954  41.067 102.887  1.00  0.00     0.000 C 
BRANCH   2   3
ATOM      3  C   UNL     1      -1.587  39.626 102.490  1.00  0.00     0.000 C 
BRANCH   3   4
ATOM      4  C   UNL     1      -2.708  38.624 102.815  1.00  0.00     0.000 C 
BRANCH   4   5
ATOM      5  C   UNL     1      -2.751  37.447 101.826  1.00  0.00     0.000 C 
BRANCH   5   6
ATOM      6  C   UNL     1      -4.010  37.457 100.941  1.00  0.00     0.000 C 
BRANCH   6   7
ATOM      7  C   UNL     1      -5.120  36.480 101.376  1.00  0.00     0.000 C 
BRANCH   7   8
ATOM      8  C   UNL     1      -5.145  35.133 100.625  1.00  0.00     0.000 C 
BRANCH   8   9
ATOM      9  C   UNL     1      -5.673  35.205  99.180  1.00  0.00     0.000 C 
BRANCH   9  10
ATOM     10  C   UNL     1      -4.677  34.641  98.152  1.00  0.00     0.000 C 
BRANCH  10  11
ATOM     11  C   UNL     1      -3.311  35.358  98.208  1.00  0.00     0.000 C 
BRANCH  11  12
ATOM     12  C   UNL     1      -3.264  36.669  97.405  1.00  0.00     0.006 C 
BRANCH  12  13
ATOM     13  C   UNL     1      -4.546  36.927  96.604  1.00  0.00     0.053 C 
BRANCH  13  14
ATOM     14  C   UNL     1      -5.327  38.050  97.207  1.00  0.00     0.041 C 
ATOM     15  O   UNL     1      -4.738  38.955  97.856  1.00  0.00    -0.550 OA
ATOM     16  O   UNL     1      -6.705  38.114  97.033  1.00  0.00    -0.550 OA
ENDBRANCH  13  14
ENDBRANCH  12  13
ENDBRANCH  11  12
ENDBRANCH  10  11
ENDBRANCH   9  10
ENDBRANCH   8   9
ENDBRANCH   7   8
ENDBRANCH   6   7
ENDBRANCH   5   6
ENDBRANCH   4   5
ENDBRANCH   3   4
ENDBRANCH   2   3
ENDBRANCH   1   2
BRANCH   1  17
ATOM     17  C   UNL     1      -3.453  43.071 102.362  1.00  0.00     0.000 C 
BRANCH  17  18
ATOM     18  C   UNL     1      -3.571  43.525 103.827  1.00  0.00     0.000 C 
BRANCH  18  19
ATOM     19  C   UNL     1      -4.734  42.862 104.594  1.00  0.00     0.000 C 
BRANCH  19  20
ATOM     20  C   UNL     1      -5.890  43.836 104.862  1.00  0.00     0.000 C 
BRANCH  20  21
ATOM     21  C   UNL     1      -7.158  43.406 104.114  1.00  0.00     0.000 C 
BRANCH  21  22
ATOM     22  C   UNL     1      -8.024  44.625 103.760  1.00  0.00    -0.000 C 
BRANCH  22  23
ATOM     23  C   UNL     1      -7.185  45.829 103.302  1.00  0.00    -0.000 C 
BRANCH  23  24
ATOM     24  C   UNL     1      -7.160  45.974 101.770  1.00  0.00    -0.000 C 
BRANCH  24  25
ATOM     25  C   UNL     1      -5.790  45.636 101.155  1.00  0.00    -0.000 C 
BRANCH  25  26
ATOM     26  C   UNL     1      -5.830  44.723  99.915  1.00  0.00    -0.000 C 
BRANCH  26  27
ATOM     27  C   UNL     1      -4.507  44.710  99.133  1.00  0.00    -0.000 C 
BRANCH  27  28
ATOM     28  C   UNL     1      -4.270  43.386  98.387  1.00  0.00    -0.000 C 
BRANCH  28  29
ATOM     29  C   UNL     1      -4.472  43.492  96.859  1.00  0.00    -0.003 C 
ATOM     30  C   UNL     1      -5.134  42.244  96.274  1.00  0.00     0.004 C 
ENDBRANCH  28  29
ENDBRANCH  27  28
ENDBRANCH  26  27
ENDBRANCH  25  26
ENDBRANCH  24  25
ENDBRANCH  23  24
ENDBRANCH  22  23
ENDBRANCH  21  22
ENDBRANCH  20  21
ENDBRANCH  19  20
ENDBRANCH  18  19
ENDBRANCH  17  18
ENDBRANCH   1  17
TORSDOF 26
ENDMDL
MODEL 6
REMARK VINA RESULT:    -5.924      2.326      3.748
REMARK INTER + INTRA:         -18.454
REMARK INTER:                 -15.454
REMARK INTRA:                  -3.000
REMARK UNBOUND:                -3.526
REMARK SMILES CCCCCCCCCCCCCCCCCCCCCCCCCCCC(=O)[O-]
REMARK SMILES IDX 15 1 16 2 17 3 18 4 19 5 20 6 21 7 22 8 23 9 24 10 25 11
REMARK SMILES IDX 26 12 27 13 28 14 29 15 30 16 14 17 13 18 12 19 11 20 10 21
REMARK SMILES IDX 9 22 8 23 7 24 6 25 5 26 4 27 3 28 2 29 1 30
REMARK H PARENT
REMARK Flexibility Score: inf
ROOT
ATOM      1  C   UNL     1      -2.591  42.322 103.143  1.00  0.00     0.000 C 
ENDROOT
BRANCH   1   2
ATOM      2  C   UNL     1      -3.745  43.330 103.031  1.00  0.00     0.000 C 
BRANCH   2   3
ATOM      3  C   UNL     1      -4.269  43.787 104.404  1.00  0.00     0.000 C 
BRANCH   3   4
ATOM      4  C   UNL     1      -5.468  42.951 104.882  1.00  0.00     0.000 C 
BRANCH   4   5
ATOM      5  C   UNL     1      -6.815  43.538 104.426  1.00  0.00     0.000 C 
BRANCH   5   6
ATOM      6  C   UNL     1      -6.810  45.076 104.373  1.00  0.00     0.000 C 
BRANCH   6   7
ATOM      7  C   UNL     1      -8.144  45.718 103.942  1.00  0.00     0.000 C 
BRANCH   7   8
ATOM      8  C   UNL     1      -8.092  46.531 102.634  1.00  0.00     0.000 C 
BRANCH   8   9
ATOM      9  C   UNL     1      -8.842  45.900 101.446  1.00  0.00     0.000 C 
BRANCH   9  10
ATOM     10  C   UNL     1      -8.016  44.819 100.725  1.00  0.00     0.000 C 
BRANCH  10  11
ATOM     11  C   UNL     1      -6.497  45.070 100.843  1.00  0.00     0.000 C 
BRANCH  11  12
ATOM     12  C   UNL     1      -5.777  45.170  99.486  1.00  0.00     0.006 C 
BRANCH  12  13
ATOM     13  C   UNL     1      -4.595  44.201  99.363  1.00  0.00     0.053 C 
BRANCH  13  14
ATOM     14  C   UNL     1      -4.284  43.930  97.926  1.00  0.00     0.041 C 
ATOM     15  O   UNL     1      -3.263  44.437  97.392  1.00  0.00    -0.550 OA
ATOM     16  O   UNL     1      -5.108  43.095  97.180  1.00  0.00    -0.550 OA
ENDBRANCH  13  14
ENDBRANCH  12  13
ENDBRANCH  11  12
ENDBRANCH  10  11
ENDBRANCH   9  10
ENDBRANCH   8   9
ENDBRANCH   7   8
ENDBRANCH   6   7
ENDBRANCH   5   6
ENDBRANCH   4   5
ENDBRANCH   3   4
ENDBRANCH   2   3
ENDBRANCH   1   2
BRANCH   1  17
ATOM     17  C   UNL     1      -2.936  40.959 102.520  1.00  0.00     0.000 C 
BRANCH  17  18
ATOM     18  C   UNL     1      -1.928  39.858 102.888  1.00  0.00     0.000 C 
BRANCH  18  19
ATOM     19  C   UNL     1      -1.787  38.757 101.816  1.00  0.00     0.000 C 
BRANCH  19  20
ATOM     20  C   UNL     1      -3.133  38.387 101.176  1.00  0.00     0.000 C 
BRANCH  20  21
ATOM     21  C   UNL     1      -3.603  37.003 101.642  1.00  0.00     0.000 C 
BRANCH  21  22
ATOM     22  C   UNL     1      -5.055  36.745 101.212  1.00  0.00    -0.000 C 
BRANCH  22  23
ATOM     23  C   UNL     1      -5.308  35.273 100.848  1.00  0.00    -0.000 C 
BRANCH  23  24
ATOM     24  C   UNL     1      -5.502  35.071  99.335  1.00  0.00    -0.000 C 
BRANCH  24  25
ATOM     25  C   UNL     1      -4.297  34.393  98.657  1.00  0.00    -0.000 C 
BRANCH  25  26
ATOM     26  C   UNL     1      -3.094  35.312  98.376  1.00  0.00    -0.000 C 
BRANCH  26  27
ATOM     27  C   UNL     1      -3.387  36.381  97.311  1.00  0.00    -0.000 C 
BRANCH  27  28
ATOM     28  C   UNL     1      -3.571  37.784  97.913  1.00  0.00    -0.000 C 
BRANCH  28  29
ATOM     29  C   UNL     1      -4.963  38.396  97.643  1.00  0.00    -0.003 C 
ATOM     30  C   UNL     1      -5.823  37.507  96.744  1.00  0.00     0.004 C 
ENDBRANCH  28  29
ENDBRANCH  27  28
ENDBRANCH  26  27
ENDBRANCH  25  26
ENDBRANCH  24  25
ENDBRANCH  23  24
ENDBRANCH  22  23
ENDBRANCH  21  22
ENDBRANCH  20  21
ENDBRANCH  19  20
ENDBRANCH  18  19
ENDBRANCH  17  18
ENDBRANCH   1  17
TORSDOF 26
ENDMDL
MODEL 7
REMARK VINA RESULT:    -5.898      1.366      2.162
REMARK INTER + INTRA:         -18.390
REMARK INTER:                 -14.578
REMARK INTRA:                  -3.811
REMARK UNBOUND:                -3.526
REMARK SMILES CCCCCCCCCCCCCCCCCCCCCCCCCCCC(=O)[O-]
REMARK SMILES IDX 15 1 16 2 17 3 18 4 19 5 20 6 21 7 22 8 23 9 24 10 25 11
REMARK SMILES IDX 26 12 27 13 28 14 29 15 30 16 14 17 13 18 12 19 11 20 10 21
REMARK SMILES IDX 9 22 8 23 7 24 6 25 5 26 4 27 3 28 2 29 1 30
REMARK H PARENT
REMARK Flexibility Score: inf
ROOT
ATOM      1  C   UNL     1      -3.598  42.185 102.370  1.00  0.00     0.000 C 
ENDROOT
BRANCH   1   2
ATOM      2  C   UNL     1      -3.628  43.260 101.272  1.00  0.00     0.000 C 
BRANCH   2   3
ATOM      3  C   UNL     1      -3.273  44.659 101.803  1.00  0.00     0.000 C 
BRANCH   3   4
ATOM      4  C   UNL     1      -4.111  45.768 101.145  1.00  0.00     0.000 C 
BRANCH   4   5
ATOM      5  C   UNL     1      -5.367  46.120 101.959  1.00  0.00     0.000 C 
BRANCH   5   6
ATOM      6  C   UNL     1      -6.625  45.383 101.467  1.00  0.00     0.000 C 
BRANCH   6   7
ATOM      7  C   UNL     1      -7.096  44.225 102.370  1.00  0.00     0.000 C 
BRANCH   7   8
ATOM      8  C   UNL     1      -7.054  44.511 103.884  1.00  0.00     0.000 C 
BRANCH   8   9
ATOM      9  C   UNL     1      -6.522  43.354 104.749  1.00  0.00     0.000 C 
BRANCH   9  10
ATOM     10  C   UNL     1      -4.997  43.411 104.949  1.00  0.00     0.000 C 
BRANCH  10  11
ATOM     11  C   UNL     1      -4.508  44.830 105.309  1.00  0.00     0.000 C 
BRANCH  11  12
ATOM     12  C   UNL     1      -3.000  44.911 105.605  1.00  0.00     0.006 C 
BRANCH  12  13
ATOM     13  C   UNL     1      -2.695  45.281 107.061  1.00  0.00     0.053 C 
BRANCH  13  14
ATOM     14  C   UNL     1      -1.979  46.592 107.133  1.00  0.00     0.041 C 
ATOM     15  O   UNL     1      -2.037  47.399 106.168  1.00  0.00    -0.550 OA
ATOM     16  O   UNL     1      -1.268  46.936 108.276  1.00  0.00    -0.550 OA
ENDBRANCH  13  14
ENDBRANCH  12  13
ENDBRANCH  11  12
ENDBRANCH  10  11
ENDBRANCH   9  10
ENDBRANCH   8   9
ENDBRANCH   7   8
ENDBRANCH   6   7
ENDBRANCH   5   6
ENDBRANCH   4   5
ENDBRANCH   3   4
ENDBRANCH   2   3
ENDBRANCH   1   2
BRANCH   1  17
ATOM     17  C   UNL     1      -2.170  41.859 102.837  1.00  0.00     0.000 C 
BRANCH  17  18
ATOM     18  C   UNL     1      -1.925  40.351 103.013  1.00  0.00     0.000 C 
BRANCH  18  19
ATOM     19  C   UNL     1      -2.836  39.464 102.138  1.00  0.00     0.000 C 
BRANCH  19  20
ATOM     20  C   UNL     1      -2.036  38.550 101.198  1.00  0.00     0.000 C 
BRANCH  20  21
ATOM     21  C   UNL     1      -2.469  37.086 101.352  1.00  0.00     0.000 C 
BRANCH  21  22
ATOM     22  C   UNL     1      -3.950  36.993 101.749  1.00  0.00    -0.000 C 
BRANCH  22  23
ATOM     23  C   UNL     1      -4.716  35.949 100.920  1.00  0.00    -0.000 C 
BRANCH  23  24
ATOM     24  C   UNL     1      -3.823  34.771 100.495  1.00  0.00    -0.000 C 
BRANCH  24  25
ATOM     25  C   UNL     1      -3.849  34.512  98.977  1.00  0.00    -0.000 C 
BRANCH  25  26
ATOM     26  C   UNL     1      -5.169  34.869  98.268  1.00  0.00    -0.000 C 
BRANCH  26  27
ATOM     27  C   UNL     1      -5.045  36.092  97.346  1.00  0.00    -0.000 C 
BRANCH  27  28
ATOM     28  C   UNL     1      -3.607  36.631  97.262  1.00  0.00    -0.000 C 
BRANCH  28  29
ATOM     29  C   UNL     1      -3.421  38.005  97.940  1.00  0.00    -0.003 C 
ATOM     30  C   UNL     1      -4.744  38.596  98.429  1.00  0.00     0.004 C 
ENDBRANCH  28  29
ENDBRANCH  27  28
ENDBRANCH  26  27
ENDBRANCH  25  26
ENDBRANCH  24  25
ENDBRANCH  23  24
ENDBRANCH  22  23
ENDBRANCH  21  22
ENDBRANCH  20  21
ENDBRANCH  19  20
ENDBRANCH  18  19
ENDBRANCH  17  18
ENDBRANCH   1  17
TORSDOF 26
ENDMDL
MODEL 8
REMARK VINA RESULT:    -5.898      2.054      5.403
REMARK INTER + INTRA:         -18.390
REMARK INTER:                 -15.379
REMARK INTRA:                  -3.011
REMARK UNBOUND:                -3.526
REMARK SMILES CCCCCCCCCCCCCCCCCCCCCCCCCCCC(=O)[O-]
REMARK SMILES IDX 15 1 16 2 17 3 18 4 19 5 20 6 21 7 22 8 23 9 24 10 25 11
REMARK SMILES IDX 26 12 27 13 28 14 29 15 30 16 14 17 13 18 12 19 11 20 10 21
REMARK SMILES IDX 9 22 8 23 7 24 6 25 5 26 4 27 3 28 2 29 1 30
REMARK H PARENT
REMARK Flexibility Score: inf
ROOT
ATOM      1  C   UNL     1      -4.377  38.665  98.614  1.00  0.00     0.000 C 
ENDROOT
BRANCH   1   2
ATOM      2  C   UNL     1      -5.515  38.211  97.687  1.00  0.00     0.000 C 
BRANCH   2   3
ATOM      3  C   UNL     1      -5.781  39.207  96.543  1.00  0.00     0.000 C 
BRANCH   3   4
ATOM      4  C   UNL     1      -5.159  40.587  96.811  1.00  0.00     0.000 C 
BRANCH   4   5
ATOM      5  C   UNL     1      -5.533  41.621  95.735  1.00  0.00     0.000 C 
BRANCH   5   6
ATOM      6  C   UNL     1      -4.476  42.728  95.576  1.00  0.00     0.000 C 
BRANCH   6   7
ATOM      7  C   UNL     1      -5.041  44.131  95.278  1.00  0.00     0.000 C 
BRANCH   7   8
ATOM      8  C   UNL     1      -5.989  44.701  96.352  1.00  0.00     0.000 C 
BRANCH   8   9
ATOM      9  C   UNL     1      -5.287  45.354  97.558  1.00  0.00     0.000 C 
BRANCH   9  10
ATOM     10  C   UNL     1      -5.608  44.650  98.888  1.00  0.00     0.000 C 
BRANCH  10  11
ATOM     11  C   UNL     1      -6.808  45.294  99.615  1.00  0.00     0.000 C 
BRANCH  11  12
ATOM     12  C   UNL     1      -6.531  45.635 101.090  1.00  0.00     0.006 C 
BRANCH  12  13
ATOM     13  C   UNL     1      -7.490  44.930 102.057  1.00  0.00     0.053 C 
BRANCH  13  14
ATOM     14  C   UNL     1      -6.742  44.368 103.224  1.00  0.00     0.041 C 
ATOM     15  O   UNL     1      -5.547  44.706 103.432  1.00  0.00    -0.550 OA
ATOM     16  O   UNL     1      -7.372  43.491 104.099  1.00  0.00    -0.550 OA
ENDBRANCH  13  14
ENDBRANCH  12  13
ENDBRANCH  11  12
ENDBRANCH  10  11
ENDBRANCH   9  10
ENDBRANCH   8   9
ENDBRANCH   7   8
ENDBRANCH   6   7
ENDBRANCH   5   6
ENDBRANCH   4   5
ENDBRANCH   3   4
ENDBRANCH   2   3
ENDBRANCH   1   2
BRANCH   1  17
ATOM     17  C   UNL     1      -3.105  37.817  98.445  1.00  0.00     0.000 C 
BRANCH  17  18
ATOM     18  C   UNL     1      -3.316  36.594  97.535  1.00  0.00     0.000 C 
BRANCH  18  19
ATOM     19  C   UNL     1      -2.812  35.269  98.144  1.00  0.00     0.000 C 
BRANCH  19  20
ATOM     20  C   UNL     1      -3.960  34.386  98.656  1.00  0.00     0.000 C 
BRANCH  20  21
ATOM     21  C   UNL     1      -4.125  34.525 100.176  1.00  0.00     0.000 C 
BRANCH  21  22
ATOM     22  C   UNL     1      -5.304  35.450 100.515  1.00  0.00    -0.000 C 
BRANCH  22  23
ATOM     23  C   UNL     1      -4.922  36.540 101.530  1.00  0.00    -0.000 C 
BRANCH  23  24
ATOM     24  C   UNL     1      -3.398  36.706 101.662  1.00  0.00    -0.000 C 
BRANCH  24  25
ATOM     25  C   UNL     1      -2.993  37.999 102.393  1.00  0.00    -0.000 C 
BRANCH  25  26
ATOM     26  C   UNL     1      -1.784  38.745 101.798  1.00  0.00    -0.000 C 
BRANCH  26  27
ATOM     27  C   UNL     1      -1.597  40.153 102.383  1.00  0.00    -0.000 C 
BRANCH  27  28
ATOM     28  C   UNL     1      -2.933  40.857 102.676  1.00  0.00    -0.000 C 
BRANCH  28  29
ATOM     29  C   UNL     1      -2.769  42.304 103.192  1.00  0.00    -0.003 C 
ATOM     30  C   UNL     1      -1.313  42.644 103.513  1.00  0.00     0.004 C 
ENDBRANCH  28  29
ENDBRANCH  27  28
ENDBRANCH  26  27
ENDBRANCH  25  26
ENDBRANCH  24  25
ENDBRANCH  23  24
ENDBRANCH  22  23
ENDBRANCH  21  22
ENDBRANCH  20  21
ENDBRANCH  19  20
ENDBRANCH  18  19
ENDBRANCH  17  18
ENDBRANCH   1  17
TORSDOF 26
ENDMDL
MODEL 9
REMARK VINA RESULT:    -5.831      2.131      3.932
REMARK INTER + INTRA:         -18.221
REMARK INTER:                 -14.576
REMARK INTRA:                  -3.646
REMARK UNBOUND:                -3.526
REMARK SMILES CCCCCCCCCCCCCCCCCCCCCCCCCCCC(=O)[O-]
REMARK SMILES IDX 15 1 16 2 17 3 18 4 19 5 20 6 21 7 22 8 23 9 24 10 25 11
REMARK SMILES IDX 26 12 27 13 28 14 29 15 30 16 14 17 13 18 12 19 11 20 10 21
REMARK SMILES IDX 9 22 8 23 7 24 6 25 5 26 4 27 3 28 2 29 1 30
REMARK H PARENT
REMARK Flexibility Score: inf
ROOT
ATOM      1  C   UNL     1      -3.667  42.381 103.009  1.00  0.00     0.000 C 
ENDROOT
BRANCH   1   2
ATOM      2  C   UNL     1      -4.388  42.552 104.355  1.00  0.00     0.000 C 
BRANCH   2   3
ATOM      3  C   UNL     1      -4.886  43.991 104.583  1.00  0.00     0.000 C 
BRANCH   3   4
ATOM      4  C   UNL     1      -3.847  44.864 105.304  1.00  0.00     0.000 C 
BRANCH   4   5
ATOM      5  C   UNL     1      -3.342  46.025 104.429  1.00  0.00     0.000 C 
BRANCH   5   6
ATOM      6  C   UNL     1      -4.136  46.174 103.120  1.00  0.00     0.000 C 
BRANCH   6   7
ATOM      7  C   UNL     1      -3.291  46.546 101.885  1.00  0.00     0.000 C 
BRANCH   7   8
ATOM      8  C   UNL     1      -2.756  45.352 101.069  1.00  0.00     0.000 C 
BRANCH   8   9
ATOM      9  C   UNL     1      -3.504  45.079  99.751  1.00  0.00     0.000 C 
BRANCH   9  10
ATOM     10  C   UNL     1      -4.729  44.167  99.938  1.00  0.00     0.000 C 
BRANCH  10  11
ATOM     11  C   UNL     1      -6.032  44.972 100.129  1.00  0.00     0.000 C 
BRANCH  11  12
ATOM     12  C   UNL     1      -6.854  44.543 101.357  1.00  0.00     0.006 C 
BRANCH  12  13
ATOM     13  C   UNL     1      -8.140  45.360 101.532  1.00  0.00     0.053 C 
BRANCH  13  14
ATOM     14  C   UNL     1      -8.369  45.679 102.975  1.00  0.00     0.041 C 
ATOM     15  O   UNL     1      -8.262  46.865 103.386  1.00  0.00    -0.550 OA
ATOM     16  O   UNL     1      -8.726  44.672 103.863  1.00  0.00    -0.550 OA
ENDBRANCH  13  14
ENDBRANCH  12  13
ENDBRANCH  11  12
ENDBRANCH  10  11
ENDBRANCH   9  10
ENDBRANCH   8   9
ENDBRANCH   7   8
ENDBRANCH   6   7
ENDBRANCH   5   6
ENDBRANCH   4   5
ENDBRANCH   3   4
ENDBRANCH   2   3
ENDBRANCH   1   2
BRANCH   1  17
ATOM     17  C   UNL     1      -2.137  42.433 103.149  1.00  0.00     0.000 C 
BRANCH  17  18
ATOM     18  C   UNL     1      -1.475  41.051 103.015  1.00  0.00     0.000 C 
BRANCH  18  19
ATOM     19  C   UNL     1      -2.471  39.906 102.732  1.00  0.00     0.000 C 
BRANCH  19  20
ATOM     20  C   UNL     1      -2.013  39.005 101.576  1.00  0.00     0.000 C 
BRANCH  20  21
ATOM     21  C   UNL     1      -3.214  38.365 100.867  1.00  0.00     0.000 C 
BRANCH  21  22
ATOM     22  C   UNL     1      -3.737  37.157 101.659  1.00  0.00    -0.000 C 
BRANCH  22  23
ATOM     23  C   UNL     1      -5.078  36.636 101.118  1.00  0.00    -0.000 C 
BRANCH  23  24
ATOM     24  C   UNL     1      -4.931  35.286 100.395  1.00  0.00    -0.000 C 
BRANCH  24  25
ATOM     25  C   UNL     1      -3.470  34.808 100.299  1.00  0.00    -0.000 C 
BRANCH  25  26
ATOM     26  C   UNL     1      -2.804  34.991  98.922  1.00  0.00    -0.000 C 
BRANCH  26  27
ATOM     27  C   UNL     1      -3.792  35.425  97.828  1.00  0.00    -0.000 C 
BRANCH  27  28
ATOM     28  C   UNL     1      -3.485  36.825  97.271  1.00  0.00    -0.000 C 
BRANCH  28  29
ATOM     29  C   UNL     1      -4.705  37.515  96.624  1.00  0.00    -0.003 C 
ATOM     30  C   UNL     1      -5.767  37.902  97.654  1.00  0.00     0.004 C 
ENDBRANCH  28  29
ENDBRANCH  27  28
ENDBRANCH  26  27
ENDBRANCH  25  26
ENDBRANCH  24  25
ENDBRANCH  23  24
ENDBRANCH  22  23
ENDBRANCH  21  22
ENDBRANCH  20  21
ENDBRANCH  19  20
ENDBRANCH  18  19
ENDBRANCH  17  18
ENDBRANCH   1  17
TORSDOF 26
ENDMDL
