MODEL 1
REMARK VINA RESULT:    -4.179      0.000      0.000
REMARK INTER + INTRA:          -5.800
REMARK INTER:                  -5.645
REMARK INTRA:                  -0.155
REMARK UNBOUND:                -0.155
REMARK SMILES CCCCCCCC(=O)[O-]
REMARK SMILES IDX 5 1 6 2 7 3 8 4 9 5 10 6 4 7 3 8 2 9 1 10
REMARK H PARENT
REMARK Flexibility Score: inf
ROOT
ATOM      1  C   UNL     1      -7.971  23.786  13.996  1.00  0.00     0.000 C 
ENDROOT
BRANCH   1   2
ATOM      2  C   UNL     1      -8.195  25.282  14.260  1.00  0.00     0.006 C 
BRANCH   2   3
ATOM      3  C   UNL     1      -9.053  25.911  13.158  1.00  0.00     0.053 C 
BRANCH   3   4
ATOM      4  C   UNL     1      -8.956  27.403  13.206  1.00  0.00     0.041 C 
ATOM      5  O   UNL     1      -7.897  27.957  13.605  1.00  0.00    -0.550 OA
ATOM      6  O   UNL     1     -10.017  28.184  12.764  1.00  0.00    -0.550 OA
ENDBRANCH   3   4
ENDBRANCH   2   3
ENDBRANCH   1   2
BRANCH   1   7
ATOM      7  C   UNL     1      -9.146  22.912  14.471  1.00  0.00     0.000 C 
BRANCH   7   8
ATOM      8  C   UNL     1      -9.037  21.418  14.107  1.00  0.00    -0.000 C 
BRANCH   8   9
ATOM      9  C   UNL     1      -8.116  20.592  15.021  1.00  0.00    -0.003 C 
ATOM     10  C   UNL     1      -6.694  20.465  14.476  1.00  0.00     0.004 C 
ENDBRANCH   8   9
ENDBRANCH   7   8
ENDBRANCH   1   7
TORSDOF 6
ENDMDL
MODEL 2
REMARK VINA RESULT:    -3.839      3.651      5.350
REMARK INTER + INTRA:          -5.341
REMARK INTER:                  -5.176
REMARK INTRA:                  -0.165
REMARK UNBOUND:                -0.155
REMARK SMILES CCCCCCCC(=O)[O-]
REMARK SMILES IDX 5 1 6 2 7 3 8 4 9 5 10 6 4 7 3 8 2 9 1 10
REMARK H PARENT
REMARK Flexibility Score: inf
ROOT
ATOM      1  C   UNL     1      -5.973  19.872  14.377  1.00  0.00     0.000 C 
ENDROOT
BRANCH   1   2
ATOM      2  C   UNL     1      -7.302  20.408  14.927  1.00  0.00     0.006 C 
BRANCH   2   3
ATOM      3  C   UNL     1      -7.398  21.926  14.745  1.00  0.00     0.053 C 
BRANCH   3   4
ATOM      4  C   UNL     1      -8.787  22.321  14.355  1.00  0.00     0.041 C 
ATOM      5  O   UNL     1      -9.037  23.508  14.018  1.00  0.00    -0.550 OA
ATOM      6  O   UNL     1      -9.796  21.367  14.314  1.00  0.00    -0.550 OA
ENDBRANCH   3   4
ENDBRANCH   2   3
ENDBRANCH   1   2
BRANCH   1   7
ATOM      7  C   UNL     1      -5.547  18.545  15.030  1.00  0.00     0.000 C 
BRANCH   7   8
ATOM      8  C   UNL     1      -4.161  18.022  14.605  1.00  0.00    -0.000 C 
BRANCH   8   9
ATOM      9  C   UNL     1      -3.635  18.583  13.273  1.00  0.00    -0.003 C 
ATOM     10  C   UNL     1      -2.528  17.725  12.660  1.00  0.00     0.004 C 
ENDBRANCH   8   9
ENDBRANCH   7   8
ENDBRANCH   1   7
TORSDOF 6
ENDMDL
MODEL 3
REMARK VINA RESULT:    -3.488      5.465      7.713
REMARK INTER + INTRA:          -4.866
REMARK INTER:                  -4.751
REMARK INTRA:                  -0.115
REMARK UNBOUND:                -0.155
REMARK SMILES CCCCCCCC(=O)[O-]
REMARK SMILES IDX 5 1 6 2 7 3 8 4 9 5 10 6 4 7 3 8 2 9 1 10
REMARK H PARENT
REMARK Flexibility Score: inf
ROOT
ATOM      1  C   UNL     1      -6.435  19.576  15.006  1.00  0.00     0.000 C 
ENDROOT
BRANCH   1   2
ATOM      2  C   UNL     1      -5.053  19.478  14.345  1.00  0.00     0.006 C 
BRANCH   2   3
ATOM      3  C   UNL     1      -4.501  18.052  14.435  1.00  0.00     0.053 C 
BRANCH   3   4
ATOM      4  C   UNL     1      -3.272  17.912  13.594  1.00  0.00     0.041 C 
ATOM      5  O   UNL     1      -3.198  18.491  12.478  1.00  0.00    -0.550 OA
ATOM      6  O   UNL     1      -2.187  17.182  14.063  1.00  0.00    -0.550 OA
ENDBRANCH   3   4
ENDBRANCH   2   3
ENDBRANCH   1   2
BRANCH   1   7
ATOM      7  C   UNL     1      -7.089  20.957  14.824  1.00  0.00     0.000 C 
BRANCH   7   8
ATOM      8  C   UNL     1      -8.514  20.933  14.236  1.00  0.00    -0.000 C 
BRANCH   8   9
ATOM      9  C   UNL     1      -9.383  22.152  14.590  1.00  0.00    -0.003 C 
ATOM     10  C   UNL     1      -8.822  23.464  14.042  1.00  0.00     0.004 C 
ENDBRANCH   8   9
ENDBRANCH   7   8
ENDBRANCH   1   7
TORSDOF 6
ENDMDL
MODEL 4
REMARK VINA RESULT:    -3.452      3.734      6.190
REMARK INTER + INTRA:          -4.818
REMARK INTER:                  -4.690
REMARK INTRA:                  -0.128
REMARK UNBOUND:                -0.155
REMARK SMILES CCCCCCCC(=O)[O-]
REMARK SMILES IDX 5 1 6 2 7 3 8 4 9 5 10 6 4 7 3 8 2 9 1 10
REMARK H PARENT
REMARK Flexibility Score: inf
ROOT
ATOM      1  C   UNL     1      -8.495  23.888  13.576  1.00  0.00     0.000 C 
ENDROOT
BRANCH   1   2
ATOM      2  C   UNL     1      -8.281  23.075  14.861  1.00  0.00     0.006 C 
BRANCH   2   3
ATOM      3  C   UNL     1      -7.174  22.034  14.674  1.00  0.00     0.053 C 
BRANCH   3   4
ATOM      4  C   UNL     1      -7.714  20.653  14.868  1.00  0.00     0.041 C 
ATOM      5  O   UNL     1      -8.950  20.435  14.754  1.00  0.00    -0.550 OA
ATOM      6  O   UNL     1      -6.850  19.596  15.125  1.00  0.00    -0.550 OA
ENDBRANCH   3   4
ENDBRANCH   2   3
ENDBRANCH   1   2
BRANCH   1   7
ATOM      7  C   UNL     1      -8.360  25.405  13.798  1.00  0.00     0.000 C 
BRANCH   7   8
ATOM      8  C   UNL     1      -9.446  26.264  13.121  1.00  0.00    -0.000 C 
BRANCH   8   9
ATOM      9  C   UNL     1      -8.995  27.675  12.708  1.00  0.00    -0.003 C 
ATOM     10  C   UNL     1      -8.690  28.577  13.904  1.00  0.00     0.004 C 
ENDBRANCH   8   9
ENDBRANCH   7   8
ENDBRANCH   1   7
TORSDOF 6
ENDMDL
MODEL 5
REMARK VINA RESULT:    -3.197      6.710      8.946
REMARK INTER + INTRA:          -4.473
REMARK INTER:                  -4.355
REMARK INTRA:                  -0.118
REMARK UNBOUND:                -0.155
REMARK SMILES CCCCCCCC(=O)[O-]
REMARK SMILES IDX 5 1 6 2 7 3 8 4 9 5 10 6 4 7 3 8 2 9 1 10
REMARK H PARENT
REMARK Flexibility Score: inf
ROOT
ATOM      1  C   UNL     1      -4.164  18.949  14.343  1.00  0.00     0.000 C 
ENDROOT
BRANCH   1   2
ATOM      2  C   UNL     1      -3.493  18.659  12.993  1.00  0.00     0.006 C 
BRANCH   2   3
ATOM      3  C   UNL     1      -1.971  18.568  13.145  1.00  0.00     0.053 C 
BRANCH   3   4
ATOM      4  C   UNL     1      -1.464  17.282  12.574  1.00  0.00     0.041 C 
ATOM      5  O   UNL     1      -2.080  16.722  11.629  1.00  0.00    -0.550 OA
ATOM      6  O   UNL     1      -0.283  16.727  13.051  1.00  0.00    -0.550 OA
ENDBRANCH   3   4
ENDBRANCH   2   3
ENDBRANCH   1   2
BRANCH   1   7
ATOM      7  C   UNL     1      -5.576  19.543  14.194  1.00  0.00     0.000 C 
BRANCH   7   8
ATOM      8  C   UNL     1      -5.857  20.786  15.062  1.00  0.00    -0.000 C 
BRANCH   8   9
ATOM      9  C   UNL     1      -7.046  21.646  14.599  1.00  0.00    -0.003 C 
ATOM     10  C   UNL     1      -8.393  21.115  15.090  1.00  0.00     0.004 C 
ENDBRANCH   8   9
ENDBRANCH   7   8
ENDBRANCH   1   7
TORSDOF 6
ENDMDL
MODEL 6
REMARK VINA RESULT:    -3.184      7.530      9.848
REMARK INTER + INTRA:          -4.457
REMARK INTER:                  -4.206
REMARK INTRA:                  -0.251
REMARK UNBOUND:                -0.155
REMARK SMILES CCCCCCCC(=O)[O-]
REMARK SMILES IDX 5 1 6 2 7 3 8 4 9 5 10 6 4 7 3 8 2 9 1 10
REMARK H PARENT
REMARK Flexibility Score: inf
ROOT
ATOM      1  C   UNL     1      -3.633  18.730  13.104  1.00  0.00     0.000 C 
ENDROOT
BRANCH   1   2
ATOM      2  C   UNL     1      -2.249  18.205  12.695  1.00  0.00     0.006 C 
BRANCH   2   3
ATOM      3  C   UNL     1      -2.101  16.721  13.042  1.00  0.00     0.053 C 
BRANCH   3   4
ATOM      4  C   UNL     1      -1.414  15.989  11.933  1.00  0.00     0.041 C 
ATOM      5  O   UNL     1      -0.157  15.950  11.884  1.00  0.00    -0.550 OA
ATOM      6  O   UNL     1      -2.162  15.308  10.981  1.00  0.00    -0.550 OA
ENDBRANCH   3   4
ENDBRANCH   2   3
ENDBRANCH   1   2
BRANCH   1   7
ATOM      7  C   UNL     1      -4.241  17.955  14.286  1.00  0.00     0.000 C 
BRANCH   7   8
ATOM      8  C   UNL     1      -5.405  18.666  15.005  1.00  0.00    -0.000 C 
BRANCH   8   9
ATOM      9  C   UNL     1      -5.476  20.186  14.780  1.00  0.00    -0.003 C 
ATOM     10  C   UNL     1      -6.876  20.667  14.401  1.00  0.00     0.004 C 
ENDBRANCH   8   9
ENDBRANCH   7   8
ENDBRANCH   1   7
TORSDOF 6
ENDMDL
MODEL 7
REMARK VINA RESULT:    -3.175      8.423     10.638
REMARK INTER + INTRA:          -4.444
REMARK INTER:                  -4.168
REMARK INTRA:                  -0.276
REMARK UNBOUND:                -0.155
REMARK SMILES CCCCCCCC(=O)[O-]
REMARK SMILES IDX 5 1 6 2 7 3 8 4 9 5 10 6 4 7 3 8 2 9 1 10
REMARK H PARENT
REMARK Flexibility Score: inf
ROOT
ATOM      1  C   UNL     1      -1.849  18.410  12.863  1.00  0.00     0.000 C 
ENDROOT
BRANCH   1   2
ATOM      2  C   UNL     1      -1.374  16.952  12.779  1.00  0.00     0.006 C 
BRANCH   2   3
ATOM      3  C   UNL     1      -1.741  16.332  11.428  1.00  0.00     0.053 C 
BRANCH   3   4
ATOM      4  C   UNL     1      -2.142  14.901  11.599  1.00  0.00     0.041 C 
ATOM      5  O   UNL     1      -2.502  14.221  10.603  1.00  0.00    -0.550 OA
ATOM      6  O   UNL     1      -2.070  14.304  12.851  1.00  0.00    -0.550 OA
ENDBRANCH   3   4
ENDBRANCH   2   3
ENDBRANCH   1   2
BRANCH   1   7
ATOM      7  C   UNL     1      -3.373  18.533  13.046  1.00  0.00     0.000 C 
BRANCH   7   8
ATOM      8  C   UNL     1      -3.960  17.712  14.211  1.00  0.00    -0.000 C 
BRANCH   8   9
ATOM      9  C   UNL     1      -5.157  18.363  14.925  1.00  0.00    -0.003 C 
ATOM     10  C   UNL     1      -5.618  19.657  14.256  1.00  0.00     0.004 C 
ENDBRANCH   8   9
ENDBRANCH   7   8
ENDBRANCH   1   7
TORSDOF 6
ENDMDL
MODEL 8
REMARK VINA RESULT:    -3.124      7.777     10.066
REMARK INTER + INTRA:          -4.375
REMARK INTER:                  -4.118
REMARK INTRA:                  -0.256
REMARK UNBOUND:                -0.155
REMARK SMILES CCCCCCCC(=O)[O-]
REMARK SMILES IDX 5 1 6 2 7 3 8 4 9 5 10 6 4 7 3 8 2 9 1 10
REMARK H PARENT
REMARK Flexibility Score: inf
ROOT
ATOM      1  C   UNL     1      -0.998  17.031  12.771  1.00  0.00     0.000 C 
ENDROOT
BRANCH   1   2
ATOM      2  C   UNL     1      -1.677  18.308  13.284  1.00  0.00     0.006 C 
BRANCH   2   3
ATOM      3  C   UNL     1      -3.101  18.432  12.733  1.00  0.00     0.053 C 
BRANCH   3   4
ATOM      4  C   UNL     1      -4.102  18.337  13.840  1.00  0.00     0.041 C 
ATOM      5  O   UNL     1      -4.935  19.263  14.021  1.00  0.00    -0.550 OA
ATOM      6  O   UNL     1      -4.147  17.204  14.643  1.00  0.00    -0.550 OA
ENDBRANCH   3   4
ENDBRANCH   2   3
ENDBRANCH   1   2
BRANCH   1   7
ATOM      7  C   UNL     1      -1.781  16.353  11.633  1.00  0.00     0.000 C 
BRANCH   7   8
ATOM      8  C   UNL     1      -1.956  14.828  11.778  1.00  0.00    -0.000 C 
BRANCH   8   9
ATOM      9  C   UNL     1      -2.595  14.129  10.565  1.00  0.00    -0.003 C 
ATOM     10  C   UNL     1      -2.944  12.665  10.837  1.00  0.00     0.004 C 
ENDBRANCH   8   9
ENDBRANCH   7   8
ENDBRANCH   1   7
TORSDOF 6
ENDMDL
MODEL 9
REMARK VINA RESULT:    -3.057     10.174     12.755
REMARK INTER + INTRA:          -4.285
REMARK INTER:                  -4.106
REMARK INTRA:                  -0.179
REMARK UNBOUND:                -0.155
REMARK SMILES CCCCCCCC(=O)[O-]
REMARK SMILES IDX 5 1 6 2 7 3 8 4 9 5 10 6 4 7 3 8 2 9 1 10
REMARK H PARENT
REMARK Flexibility Score: inf
ROOT
ATOM      1  C   UNL     1      -0.618  15.384  11.714  1.00  0.00     0.000 C 
ENDROOT
BRANCH   1   2
ATOM      2  C   UNL     1      -1.097  13.933  11.571  1.00  0.00     0.006 C 
BRANCH   2   3
ATOM      3  C   UNL     1      -2.451  13.870  10.858  1.00  0.00     0.053 C 
BRANCH   3   4
ATOM      4  C   UNL     1      -2.761  12.466  10.445  1.00  0.00     0.041 C 
ATOM      5  O   UNL     1      -3.743  11.860  10.949  1.00  0.00    -0.550 OA
ATOM      6  O   UNL     1      -1.996  11.843   9.467  1.00  0.00    -0.550 OA
ENDBRANCH   3   4
ENDBRANCH   2   3
ENDBRANCH   1   2
BRANCH   1   7
ATOM      7  C   UNL     1      -1.764  16.406  11.607  1.00  0.00     0.000 C 
BRANCH   7   8
ATOM      8  C   UNL     1      -2.172  17.072  12.936  1.00  0.00    -0.000 C 
BRANCH   8   9
ATOM      9  C   UNL     1      -2.696  18.513  12.807  1.00  0.00    -0.003 C 
ATOM     10  C   UNL     1      -4.032  18.727  13.520  1.00  0.00     0.004 C 
ENDBRANCH   8   9
ENDBRANCH   7   8
ENDBRANCH   1   7
TORSDOF 6
ENDMDL
