MODEL 1
REMARK VINA RESULT:    -5.415      0.000      0.000
REMARK INTER + INTRA:          -8.213
REMARK INTER:                  -7.948
REMARK INTRA:                  -0.265
REMARK UNBOUND:                -0.265
REMARK SMILES O=C([O-])CCCCCCCC(=O)[O-]
REMARK SMILES IDX 7 1 6 2 5 3 4 4 2 5 1 6 3 7 8 8 9 9 10 10 11 11 12 12 13 13
REMARK H PARENT
REMARK Flexibility Score: inf
ROOT
ATOM      1  C   UNL     1      25.007   0.071  62.009  1.00  0.00     0.000 C 
ENDROOT
BRANCH   1   2
ATOM      2  C   UNL     1      25.832   1.156  62.713  1.00  0.00     0.000 C 
BRANCH   2   3
ATOM      3  C   UNL     1      25.349   2.557  62.318  1.00  0.00     0.006 C 
BRANCH   3   4
ATOM      4  C   UNL     1      25.661   3.575  63.419  1.00  0.00     0.053 C 
BRANCH   4   5
ATOM      5  C   UNL     1      24.693   3.435  64.552  1.00  0.00     0.041 C 
ATOM      6  O   UNL     1      25.101   3.105  65.697  1.00  0.00    -0.550 OA
ATOM      7  O   UNL     1      23.347   3.717  64.355  1.00  0.00    -0.550 OA
ENDBRANCH   4   5
ENDBRANCH   3   4
ENDBRANCH   2   3
ENDBRANCH   1   2
BRANCH   1   8
ATOM      8  C   UNL     1      25.892  -1.120  61.612  1.00  0.00     0.000 C 
BRANCH   8   9
ATOM      9  C   UNL     1      25.300  -2.469  62.051  1.00  0.00     0.006 C 
BRANCH   9  10
ATOM     10  C   UNL     1      25.674  -3.615  61.102  1.00  0.00     0.053 C 
BRANCH  10  11
ATOM     11  C   UNL     1      24.782  -3.610  59.901  1.00  0.00     0.041 C 
ATOM     12  O   UNL     1      23.607  -4.054  59.983  1.00  0.00    -0.550 OA
ATOM     13  O   UNL     1      25.231  -3.069  58.703  1.00  0.00    -0.550 OA
ENDBRANCH  10  11
ENDBRANCH   9  10
ENDBRANCH   8   9
ENDBRANCH   1   8
TORSDOF 8
ENDMDL
MODEL 2
REMARK VINA RESULT:    -5.406      0.899      1.320
REMARK INTER + INTRA:          -8.199
REMARK INTER:                  -7.889
REMARK INTRA:                  -0.310
REMARK UNBOUND:                -0.265
REMARK SMILES O=C([O-])CCCCCCCC(=O)[O-]
REMARK SMILES IDX 7 1 6 2 5 3 4 4 2 5 1 6 3 7 8 8 9 9 10 10 11 11 12 12 13 13
REMARK H PARENT
REMARK Flexibility Score: inf
ROOT
ATOM      1  C   UNL     1      25.038   0.096  62.010  1.00  0.00     0.000 C 
ENDROOT
BRANCH   1   2
ATOM      2  C   UNL     1      25.884   1.158  62.724  1.00  0.00     0.000 C 
BRANCH   2   3
ATOM      3  C   UNL     1      25.469   2.571  62.298  1.00  0.00     0.006 C 
BRANCH   3   4
ATOM      4  C   UNL     1      23.946   2.688  62.193  1.00  0.00     0.053 C 
BRANCH   4   5
ATOM      5  C   UNL     1      23.399   3.463  63.351  1.00  0.00     0.041 C 
ATOM      6  O   UNL     1      22.161   3.464  63.585  1.00  0.00    -0.550 OA
ATOM      7  O   UNL     1      24.261   4.143  64.201  1.00  0.00    -0.550 OA
ENDBRANCH   4   5
ENDBRANCH   3   4
ENDBRANCH   2   3
ENDBRANCH   1   2
BRANCH   1   8
ATOM      8  C   UNL     1      25.891  -1.124  61.634  1.00  0.00     0.000 C 
BRANCH   8   9
ATOM      9  C   UNL     1      25.244  -2.452  62.057  1.00  0.00     0.006 C 
BRANCH   9  10
ATOM     10  C   UNL     1      25.629  -3.617  61.135  1.00  0.00     0.053 C 
BRANCH  10  11
ATOM     11  C   UNL     1      24.755  -3.632  59.921  1.00  0.00     0.041 C 
ATOM     12  O   UNL     1      23.564  -4.032  60.002  1.00  0.00    -0.550 OA
ATOM     13  O   UNL     1      25.240  -3.156  58.710  1.00  0.00    -0.550 OA
ENDBRANCH  10  11
ENDBRANCH   9  10
ENDBRANCH   8   9
ENDBRANCH   1   8
TORSDOF 8
ENDMDL
MODEL 3
REMARK VINA RESULT:    -5.392      0.959      6.861
REMARK INTER + INTRA:          -8.179
REMARK INTER:                  -7.858
REMARK INTRA:                  -0.322
REMARK UNBOUND:                -0.265
REMARK SMILES O=C([O-])CCCCCCCC(=O)[O-]
REMARK SMILES IDX 7 1 6 2 5 3 4 4 2 5 1 6 3 7 8 8 9 9 10 10 11 11 12 12 13 13
REMARK H PARENT
REMARK Flexibility Score: inf
ROOT
ATOM      1  C   UNL     1      25.074   0.071  62.052  1.00  0.00     0.000 C 
ENDROOT
BRANCH   1   2
ATOM      2  C   UNL     1      25.887  -1.177  61.688  1.00  0.00     0.000 C 
BRANCH   2   3
ATOM      3  C   UNL     1      25.167  -2.454  62.137  1.00  0.00     0.006 C 
BRANCH   3   4
ATOM      4  C   UNL     1      25.565  -3.645  61.261  1.00  0.00     0.053 C 
BRANCH   4   5
ATOM      5  C   UNL     1      24.709  -3.703  60.035  1.00  0.00     0.041 C 
ATOM      6  O   UNL     1      23.518  -4.107  60.113  1.00  0.00    -0.550 OA
ATOM      7  O   UNL     1      25.208  -3.264  58.817  1.00  0.00    -0.550 OA
ENDBRANCH   4   5
ENDBRANCH   3   4
ENDBRANCH   2   3
ENDBRANCH   1   2
BRANCH   1   8
ATOM      8  C   UNL     1      25.957   1.121  62.742  1.00  0.00     0.000 C 
BRANCH   8   9
ATOM      9  C   UNL     1      25.562   2.561  62.376  1.00  0.00     0.006 C 
BRANCH   9  10
ATOM     10  C   UNL     1      24.068   2.700  62.053  1.00  0.00     0.053 C 
BRANCH  10  11
ATOM     11  C   UNL     1      23.343   3.331  63.199  1.00  0.00     0.041 C 
ATOM     12  O   UNL     1      22.140   3.038  63.426  1.00  0.00    -0.550 OA
ATOM     13  O   UNL     1      24.009   4.207  64.046  1.00  0.00    -0.550 OA
ENDBRANCH  10  11
ENDBRANCH   9  10
ENDBRANCH   8   9
ENDBRANCH   1   8
TORSDOF 8
ENDMDL
MODEL 4
REMARK VINA RESULT:    -5.362      0.435      7.028
REMARK INTER + INTRA:          -8.135
REMARK INTER:                  -7.876
REMARK INTRA:                  -0.259
REMARK UNBOUND:                -0.265
REMARK SMILES O=C([O-])CCCCCCCC(=O)[O-]
REMARK SMILES IDX 7 1 6 2 5 3 4 4 2 5 1 6 3 7 8 8 9 9 10 10 11 11 12 12 13 13
REMARK H PARENT
REMARK Flexibility Score: inf
ROOT
ATOM      1  C   UNL     1      25.033   0.043  62.065  1.00  0.00     0.000 C 
ENDROOT
BRANCH   1   2
ATOM      2  C   UNL     1      25.899  -1.151  61.641  1.00  0.00     0.000 C 
BRANCH   2   3
ATOM      3  C   UNL     1      25.254  -2.476  62.062  1.00  0.00     0.006 C 
BRANCH   3   4
ATOM      4  C   UNL     1      25.616  -3.598  61.084  1.00  0.00     0.053 C 
BRANCH   4   5
ATOM      5  C   UNL     1      24.669  -3.608  59.926  1.00  0.00     0.041 C 
ATOM      6  O   UNL     1      23.470  -3.960  60.090  1.00  0.00    -0.550 OA
ATOM      7  O   UNL     1      25.095  -3.183  58.675  1.00  0.00    -0.550 OA
ENDBRANCH   4   5
ENDBRANCH   3   4
ENDBRANCH   2   3
ENDBRANCH   1   2
BRANCH   1   8
ATOM      8  C   UNL     1      25.891   1.145  62.703  1.00  0.00     0.000 C 
BRANCH   8   9
ATOM      9  C   UNL     1      25.435   2.557  62.302  1.00  0.00     0.006 C 
BRANCH   9  10
ATOM     10  C   UNL     1      25.430   3.535  63.485  1.00  0.00     0.053 C 
BRANCH  10  11
ATOM     11  C   UNL     1      24.127   3.462  64.216  1.00  0.00     0.041 C 
ATOM     12  O   UNL     1      24.100   3.135  65.431  1.00  0.00    -0.550 OA
ATOM     13  O   UNL     1      22.947   3.803  63.569  1.00  0.00    -0.550 OA
ENDBRANCH  10  11
ENDBRANCH   9  10
ENDBRANCH   8   9
ENDBRANCH   1   8
TORSDOF 8
ENDMDL
MODEL 5
REMARK VINA RESULT:    -5.355      1.311      1.898
REMARK INTER + INTRA:          -8.124
REMARK INTER:                  -7.810
REMARK INTRA:                  -0.314
REMARK UNBOUND:                -0.265
REMARK SMILES O=C([O-])CCCCCCCC(=O)[O-]
REMARK SMILES IDX 7 1 6 2 5 3 4 4 2 5 1 6 3 7 8 8 9 9 10 10 11 11 12 12 13 13
REMARK H PARENT
REMARK Flexibility Score: inf
ROOT
ATOM      1  C   UNL     1      25.137  -0.070  62.287  1.00  0.00     0.000 C 
ENDROOT
BRANCH   1   2
ATOM      2  C   UNL     1      25.879   1.202  62.717  1.00  0.00     0.000 C 
BRANCH   2   3
ATOM      3  C   UNL     1      25.168   2.457  62.197  1.00  0.00     0.006 C 
BRANCH   3   4
ATOM      4  C   UNL     1      25.504   3.676  63.061  1.00  0.00     0.053 C 
BRANCH   4   5
ATOM      5  C   UNL     1      24.642   3.705  64.284  1.00  0.00     0.041 C 
ATOM      6  O   UNL     1      23.438   4.066  64.202  1.00  0.00    -0.550 OA
ATOM      7  O   UNL     1      25.154   3.286  65.504  1.00  0.00    -0.550 OA
ENDBRANCH   4   5
ENDBRANCH   3   4
ENDBRANCH   2   3
ENDBRANCH   1   2
BRANCH   1   8
ATOM      8  C   UNL     1      26.074  -1.023  61.530  1.00  0.00     0.000 C 
BRANCH   8   9
ATOM      9  C   UNL     1      25.343  -2.255  60.974  1.00  0.00     0.006 C 
BRANCH   9  10
ATOM     10  C   UNL     1      25.183  -3.368  62.018  1.00  0.00     0.053 C 
BRANCH  10  11
ATOM     11  C   UNL     1      23.739  -3.560  62.358  1.00  0.00     0.041 C 
ATOM     12  O   UNL     1      23.394  -3.786  63.548  1.00  0.00    -0.550 OA
ATOM     13  O   UNL     1      22.770  -3.442  61.371  1.00  0.00    -0.550 OA
ENDBRANCH  10  11
ENDBRANCH   9  10
ENDBRANCH   8   9
ENDBRANCH   1   8
TORSDOF 8
ENDMDL
MODEL 6
REMARK VINA RESULT:    -5.331      0.984      1.417
REMARK INTER + INTRA:          -8.089
REMARK INTER:                  -7.764
REMARK INTRA:                  -0.325
REMARK UNBOUND:                -0.265
REMARK SMILES O=C([O-])CCCCCCCC(=O)[O-]
REMARK SMILES IDX 7 1 6 2 5 3 4 4 2 5 1 6 3 7 8 8 9 9 10 10 11 11 12 12 13 13
REMARK H PARENT
REMARK Flexibility Score: inf
ROOT
ATOM      1  C   UNL     1      25.868  -1.097  61.586  1.00  0.00     0.000 C 
ENDROOT
BRANCH   1   2
ATOM      2  C   UNL     1      25.069   0.061  62.195  1.00  0.00     0.000 C 
BRANCH   2   3
ATOM      3  C   UNL     1      26.002   1.164  62.710  1.00  0.00     0.006 C 
BRANCH   3   4
ATOM      4  C   UNL     1      25.362   2.545  62.546  1.00  0.00     0.053 C 
BRANCH   4   5
ATOM      5  C   UNL     1      25.093   3.160  63.884  1.00  0.00     0.041 C 
ATOM      6  O   UNL     1      25.737   2.778  64.897  1.00  0.00    -0.550 OA
ATOM      7  O   UNL     1      24.168   4.189  64.003  1.00  0.00    -0.550 OA
ENDBRANCH   4   5
ENDBRANCH   3   4
ENDBRANCH   2   3
ENDBRANCH   1   2
BRANCH   1   8
ATOM      8  C   UNL     1      25.316  -2.452  62.053  1.00  0.00     0.000 C 
BRANCH   8   9
ATOM      9  C   UNL     1      23.868  -2.691  61.597  1.00  0.00     0.006 C 
BRANCH   9  10
ATOM     10  C   UNL     1      23.759  -3.777  60.519  1.00  0.00     0.053 C 
BRANCH  10  11
ATOM     11  C   UNL     1      23.920  -3.179  59.158  1.00  0.00     0.041 C 
ATOM     12  O   UNL     1      22.925  -2.696  58.557  1.00  0.00    -0.550 OA
ATOM     13  O   UNL     1      25.177  -3.109  58.572  1.00  0.00    -0.550 OA
ENDBRANCH  10  11
ENDBRANCH   9  10
ENDBRANCH   8   9
ENDBRANCH   1   8
TORSDOF 8
ENDMDL
MODEL 7
REMARK VINA RESULT:    -5.326      1.653      6.639
REMARK INTER + INTRA:          -8.082
REMARK INTER:                  -7.660
REMARK INTRA:                  -0.422
REMARK UNBOUND:                -0.265
REMARK SMILES O=C([O-])CCCCCCCC(=O)[O-]
REMARK SMILES IDX 7 1 6 2 5 3 4 4 2 5 1 6 3 7 8 8 9 9 10 10 11 11 12 12 13 13
REMARK H PARENT
REMARK Flexibility Score: inf
ROOT
ATOM      1  C   UNL     1      24.762  -2.431  62.187  1.00  0.00     0.000 C 
ENDROOT
BRANCH   1   2
ATOM      2  C   UNL     1      23.326  -2.053  61.800  1.00  0.00     0.000 C 
BRANCH   2   3
ATOM      3  C   UNL     1      22.648  -3.189  61.024  1.00  0.00     0.006 C 
BRANCH   3   4
ATOM      4  C   UNL     1      23.657  -3.929  60.141  1.00  0.00     0.053 C 
BRANCH   4   5
ATOM      5  C   UNL     1      23.927  -3.154  58.890  1.00  0.00     0.041 C 
ATOM      6  O   UNL     1      25.109  -3.006  58.479  1.00  0.00    -0.550 OA
ATOM      7  O   UNL     1      22.872  -2.637  58.151  1.00  0.00    -0.550 OA
ENDBRANCH   4   5
ENDBRANCH   3   4
ENDBRANCH   2   3
ENDBRANCH   1   2
BRANCH   1   8
ATOM      8  C   UNL     1      25.737  -1.290  61.863  1.00  0.00     0.000 C 
BRANCH   8   9
ATOM      9  C   UNL     1      25.081   0.096  61.963  1.00  0.00     0.006 C 
BRANCH   9  10
ATOM     10  C   UNL     1      25.950   1.108  62.722  1.00  0.00     0.053 C 
BRANCH  10  11
ATOM     11  C   UNL     1      25.407   2.491  62.553  1.00  0.00     0.041 C 
ATOM     12  O   UNL     1      24.496   2.716  61.713  1.00  0.00    -0.550 OA
ATOM     13  O   UNL     1      25.871   3.524  63.358  1.00  0.00    -0.550 OA
ENDBRANCH  10  11
ENDBRANCH   9  10
ENDBRANCH   8   9
ENDBRANCH   1   8
TORSDOF 8
ENDMDL
MODEL 8
REMARK VINA RESULT:    -5.241      1.767      6.549
REMARK INTER + INTRA:          -7.957
REMARK INTER:                  -7.404
REMARK INTRA:                  -0.554
REMARK UNBOUND:                -0.265
REMARK SMILES O=C([O-])CCCCCCCC(=O)[O-]
REMARK SMILES IDX 7 1 6 2 5 3 4 4 2 5 1 6 3 7 8 8 9 9 10 10 11 11 12 12 13 13
REMARK H PARENT
REMARK Flexibility Score: inf
ROOT
ATOM      1  C   UNL     1      25.489   2.972  61.990  1.00  0.00     0.000 C 
ENDROOT
BRANCH   1   2
ATOM      2  C   UNL     1      25.878   1.674  62.707  1.00  0.00     0.000 C 
BRANCH   2   3
ATOM      3  C   UNL     1      24.960   0.518  62.292  1.00  0.00     0.006 C 
BRANCH   3   4
ATOM      4  C   UNL     1      25.776  -0.689  61.820  1.00  0.00     0.053 C 
BRANCH   4   5
ATOM      5  C   UNL     1      24.961  -1.941  61.913  1.00  0.00     0.041 C 
ATOM      6  O   UNL     1      23.703  -1.880  61.900  1.00  0.00    -0.550 OA
ATOM      7  O   UNL     1      25.590  -3.177  61.963  1.00  0.00    -0.550 OA
ENDBRANCH   4   5
ENDBRANCH   3   4
ENDBRANCH   2   3
ENDBRANCH   1   2
BRANCH   1   8
ATOM      8  C   UNL     1      23.971   3.201  62.050  1.00  0.00     0.000 C 
BRANCH   8   9
ATOM      9  C   UNL     1      23.545   4.024  63.276  1.00  0.00     0.006 C 
BRANCH   9  10
ATOM     10  C   UNL     1      22.776   3.189  64.310  1.00  0.00     0.053 C 
BRANCH  10  11
ATOM     11  C   UNL     1      23.585   3.032  65.558  1.00  0.00     0.041 C 
ATOM     12  O   UNL     1      23.057   2.558  66.599  1.00  0.00    -0.550 OA
ATOM     13  O   UNL     1      24.933   3.362  65.560  1.00  0.00    -0.550 OA
ENDBRANCH  10  11
ENDBRANCH   9  10
ENDBRANCH   8   9
ENDBRANCH   1   8
TORSDOF 8
ENDMDL
MODEL 9
REMARK VINA RESULT:    -4.908      2.063      2.601
REMARK INTER + INTRA:          -7.468
REMARK INTER:                  -7.121
REMARK INTRA:                  -0.348
REMARK UNBOUND:                -0.265
REMARK SMILES O=C([O-])CCCCCCCC(=O)[O-]
REMARK SMILES IDX 7 1 6 2 5 3 4 4 2 5 1 6 3 7 8 8 9 9 10 10 11 11 12 12 13 13
REMARK H PARENT
REMARK Flexibility Score: inf
ROOT
ATOM      1  C   UNL     1      25.645  -1.817  61.619  1.00  0.00     0.000 C 
ENDROOT
BRANCH   1   2
ATOM      2  C   UNL     1      25.897  -0.342  61.955  1.00  0.00     0.000 C 
BRANCH   2   3
ATOM      3  C   UNL     1      24.577   0.408  62.172  1.00  0.00     0.006 C 
BRANCH   3   4
ATOM      4  C   UNL     1      24.820   1.912  62.329  1.00  0.00     0.053 C 
BRANCH   4   5
ATOM      5  C   UNL     1      23.551   2.673  62.105  1.00  0.00     0.041 C 
ATOM      6  O   UNL     1      22.446   2.181  62.458  1.00  0.00    -0.550 OA
ATOM      7  O   UNL     1      23.593   3.946  61.553  1.00  0.00    -0.550 OA
ENDBRANCH   4   5
ENDBRANCH   3   4
ENDBRANCH   2   3
ENDBRANCH   1   2
BRANCH   1   8
ATOM      8  C   UNL     1      26.000  -2.116  60.155  1.00  0.00     0.000 C 
BRANCH   8   9
ATOM      9  C   UNL     1      25.293  -3.370  59.618  1.00  0.00     0.006 C 
BRANCH   9  10
ATOM     10  C   UNL     1      24.067  -3.034  58.758  1.00  0.00     0.053 C 
BRANCH  10  11
ATOM     11  C   UNL     1      22.822  -3.080  59.586  1.00  0.00     0.041 C 
ATOM     12  O   UNL     1      22.783  -3.778  60.634  1.00  0.00    -0.550 OA
ATOM     13  O   UNL     1      21.720  -2.314  59.229  1.00  0.00    -0.550 OA
ENDBRANCH  10  11
ENDBRANCH   9  10
ENDBRANCH   8   9
ENDBRANCH   1   8
TORSDOF 8
ENDMDL
