MODEL 1
REMARK VINA RESULT:    -6.704      0.000      0.000
REMARK INTER + INTRA:          -8.009
REMARK INTER:                  -7.879
REMARK INTRA:                  -0.130
REMARK UNBOUND:                -0.130
REMARK SMILES O=c1c(O)c(-c2ccc(O)cc2)oc2cc(O)cc(O)c12
REMARK SMILES IDX 5 1 3 2 2 3 1 4 21 5 19 6 18 7 16 8 15 9 14 10 13 11 6 12
REMARK SMILES IDX 7 13 8 14 9 15 12 16 11 17 10 18 4 20 20 22 17 24
REMARK H PARENT 10 19 4 21 20 23 17 25
REMARK Flexibility Score: inf
ROOT
ATOM      1  C   UNL     1       6.733  -8.280  28.522  1.00  0.00     0.180 A 
ATOM      2  C   UNL     1       5.463  -8.798  28.829  1.00  0.00     0.208 A 
ATOM      3  C   UNL     1       4.818  -8.372  30.000  1.00  0.00     0.238 A 
ATOM      4  O   UNL     1       3.658  -8.798  30.241  1.00  0.00    -0.285 OA
ATOM      5  C   UNL     1       5.457  -7.445  30.859  1.00  0.00     0.111 A 
ATOM      6  C   UNL     1       4.913  -6.975  32.092  1.00  0.00     0.134 A 
ATOM      7  C   UNL     1       5.573  -5.960  32.795  1.00  0.00     0.093 A 
ATOM      8  C   UNL     1       6.788  -5.444  32.346  1.00  0.00     0.123 A 
ATOM      9  C   UNL     1       7.359  -5.940  31.173  1.00  0.00     0.094 A 
ATOM     10  C   UNL     1       6.706  -6.926  30.429  1.00  0.00     0.146 A 
ATOM     11  O   UNL     1       7.278  -7.363  29.314  1.00  0.00    -0.452 OA
ENDROOT
BRANCH   1  12
ATOM     12  C   UNL     1       7.486  -8.700  27.318  1.00  0.00     0.021 A 
ATOM     13  C   UNL     1       8.710  -9.386  27.422  1.00  0.00     0.016 A 
ATOM     14  C   UNL     1       9.415  -9.750  26.271  1.00  0.00     0.047 A 
ATOM     15  C   UNL     1       8.914  -9.423  25.005  1.00  0.00     0.115 A 
ATOM     16  C   UNL     1       7.002  -8.356  26.044  1.00  0.00     0.016 A 
ATOM     17  C   UNL     1       7.709  -8.723  24.895  1.00  0.00     0.047 A 
BRANCH  15  18
ATOM     18  O   UNL     1       9.608  -9.782  23.850  1.00  0.00    -0.508 OA
ATOM     19  H   UNL     1      10.620  -9.745  23.809  1.00  0.00     0.293 HD
ENDBRANCH  15  18
ENDBRANCH   1  12
BRANCH   2  20
ATOM     20  O   UNL     1       4.841  -9.696  27.956  1.00  0.00    -0.502 OA
ATOM     21  H   UNL     1       5.313 -10.513  27.589  1.00  0.00     0.293 HD
ENDBRANCH   2  20
BRANCH   6  22
ATOM     22  O   UNL     1       3.752  -7.486  32.679  1.00  0.00    -0.507 OA
ATOM     23  H   UNL     1       3.065  -6.934  33.170  1.00  0.00     0.293 HD
ENDBRANCH   6  22
BRANCH   8  24
ATOM     24  O   UNL     1       7.426  -4.447  33.079  1.00  0.00    -0.508 OA
ATOM     25  H   UNL     1       7.369  -3.471  32.808  1.00  0.00     0.293 HD
ENDBRANCH   8  24
TORSDOF 5
ENDMDL
MODEL 2
REMARK VINA RESULT:    -6.692      0.145      1.064
REMARK INTER + INTRA:          -7.996
REMARK INTER:                  -7.825
REMARK INTRA:                  -0.171
REMARK UNBOUND:                -0.130
REMARK SMILES O=c1c(O)c(-c2ccc(O)cc2)oc2cc(O)cc(O)c12
REMARK SMILES IDX 5 1 3 2 2 3 1 4 21 5 19 6 18 7 16 8 15 9 14 10 13 11 6 12
REMARK SMILES IDX 7 13 8 14 9 15 12 16 11 17 10 18 4 20 20 22 17 24
REMARK H PARENT 10 19 4 21 20 23 17 25
REMARK Flexibility Score: inf
ROOT
ATOM      1  C   UNL     1       6.774  -8.316  28.542  1.00  0.00     0.180 A 
ATOM      2  C   UNL     1       5.495  -8.821  28.834  1.00  0.00     0.208 A 
ATOM      3  C   UNL     1       4.837  -8.380  29.992  1.00  0.00     0.238 A 
ATOM      4  O   UNL     1       3.670  -8.795  30.219  1.00  0.00    -0.285 OA
ATOM      5  C   UNL     1       5.470  -7.451  30.853  1.00  0.00     0.111 A 
ATOM      6  C   UNL     1       4.911  -6.966  32.074  1.00  0.00     0.134 A 
ATOM      7  C   UNL     1       5.569  -5.951  32.778  1.00  0.00     0.093 A 
ATOM      8  C   UNL     1       6.795  -5.449  32.344  1.00  0.00     0.123 A 
ATOM      9  C   UNL     1       7.379  -5.959  31.183  1.00  0.00     0.094 A 
ATOM     10  C   UNL     1       6.730  -6.946  30.438  1.00  0.00     0.146 A 
ATOM     11  O   UNL     1       7.314  -7.396  29.335  1.00  0.00    -0.452 OA
ENDROOT
BRANCH   1  12
ATOM     12  C   UNL     1       7.542  -8.751  27.353  1.00  0.00     0.021 A 
ATOM     13  C   UNL     1       7.135  -8.405  26.051  1.00  0.00     0.016 A 
ATOM     14  C   UNL     1       7.862  -8.849  24.943  1.00  0.00     0.047 A 
ATOM     15  C   UNL     1       8.995  -9.653  25.120  1.00  0.00     0.115 A 
ATOM     16  C   UNL     1       8.667  -9.576  27.520  1.00  0.00     0.016 A 
ATOM     17  C   UNL     1       9.393 -10.018  26.409  1.00  0.00     0.047 A 
BRANCH  15  18
ATOM     18  O   UNL     1       9.728 -10.101  24.022  1.00  0.00    -0.508 OA
ATOM     19  H   UNL     1      10.315  -9.472  23.486  1.00  0.00     0.293 HD
ENDBRANCH  15  18
ENDBRANCH   1  12
BRANCH   2  20
ATOM     20  O   UNL     1       4.880  -9.721  27.959  1.00  0.00    -0.502 OA
ATOM     21  H   UNL     1       5.259  -9.937  27.046  1.00  0.00     0.293 HD
ENDBRANCH   2  20
BRANCH   6  22
ATOM     22  O   UNL     1       3.737  -7.464  32.647  1.00  0.00    -0.507 OA
ATOM     23  H   UNL     1       2.878  -6.943  32.741  1.00  0.00     0.293 HD
ENDBRANCH   6  22
BRANCH   8  24
ATOM     24  O   UNL     1       7.429  -4.450  33.078  1.00  0.00    -0.508 OA
ATOM     25  H   UNL     1       8.400  -4.209  32.917  1.00  0.00     0.293 HD
ENDBRANCH   8  24
TORSDOF 5
ENDMDL
MODEL 3
REMARK VINA RESULT:    -5.836     10.895     12.697
REMARK INTER + INTRA:          -6.990
REMARK INTER:                  -6.710
REMARK INTRA:                  -0.280
REMARK UNBOUND:                -0.130
REMARK SMILES O=c1c(O)c(-c2ccc(O)cc2)oc2cc(O)cc(O)c12
REMARK SMILES IDX 5 1 3 2 2 3 1 4 21 5 19 6 18 7 16 8 15 9 14 10 13 11 6 12
REMARK SMILES IDX 7 13 8 14 9 15 12 16 11 17 10 18 4 20 20 22 17 24
REMARK H PARENT 10 19 4 21 20 23 17 25
REMARK Flexibility Score: inf
ROOT
ATOM      1  C   UNL     1      14.702  -8.210  19.435  1.00  0.00     0.180 A 
ATOM      2  C   UNL     1      13.786  -9.007  20.143  1.00  0.00     0.208 A 
ATOM      3  C   UNL     1      14.065  -9.344  21.477  1.00  0.00     0.238 A 
ATOM      4  O   UNL     1      13.215 -10.012  22.122  1.00  0.00    -0.285 OA
ATOM      5  C   UNL     1      15.263  -8.893  22.082  1.00  0.00     0.111 A 
ATOM      6  C   UNL     1      15.666  -9.208  23.415  1.00  0.00     0.134 A 
ATOM      7  C   UNL     1      16.807  -8.601  23.953  1.00  0.00     0.093 A 
ATOM      8  C   UNL     1      17.595  -7.743  23.187  1.00  0.00     0.123 A 
ATOM      9  C   UNL     1      17.243  -7.475  21.863  1.00  0.00     0.094 A 
ATOM     10  C   UNL     1      16.090  -8.037  21.310  1.00  0.00     0.146 A 
ATOM     11  O   UNL     1      15.785  -7.748  20.051  1.00  0.00    -0.452 OA
ENDROOT
BRANCH   1  12
ATOM     12  C   UNL     1      14.490  -7.834  18.019  1.00  0.00     0.021 A 
ATOM     13  C   UNL     1      15.087  -8.558  16.971  1.00  0.00     0.016 A 
ATOM     14  C   UNL     1      14.893  -8.168  15.642  1.00  0.00     0.047 A 
ATOM     15  C   UNL     1      14.111  -7.045  15.345  1.00  0.00     0.115 A 
ATOM     16  C   UNL     1      13.725  -6.695  17.713  1.00  0.00     0.016 A 
ATOM     17  C   UNL     1      13.531  -6.309  16.382  1.00  0.00     0.047 A 
BRANCH  15  18
ATOM     18  O   UNL     1      13.909  -6.648  14.024  1.00  0.00    -0.508 OA
ATOM     19  H   UNL     1      13.868  -5.669  13.767  1.00  0.00     0.293 HD
ENDBRANCH  15  18
ENDBRANCH   1  12
BRANCH   2  20
ATOM     20  O   UNL     1      12.599  -9.423  19.533  1.00  0.00    -0.502 OA
ATOM     21  H   UNL     1      12.541  -9.636  18.545  1.00  0.00     0.293 HD
ENDBRANCH   2  20
BRANCH   6  22
ATOM     22  O   UNL     1      15.001 -10.125  24.236  1.00  0.00    -0.507 OA
ATOM     23  H   UNL     1      13.999 -10.203  24.315  1.00  0.00     0.293 HD
ENDBRANCH   6  22
BRANCH   8  24
ATOM     24  O   UNL     1      18.732  -7.169  23.749  1.00  0.00    -0.508 OA
ATOM     25  H   UNL     1      18.886  -6.166  23.729  1.00  0.00     0.293 HD
ENDBRANCH   8  24
TORSDOF 5
ENDMDL
MODEL 4
REMARK VINA RESULT:    -5.831     10.773     14.894
REMARK INTER + INTRA:          -6.984
REMARK INTER:                  -6.704
REMARK INTRA:                  -0.280
REMARK UNBOUND:                -0.130
REMARK SMILES O=c1c(O)c(-c2ccc(O)cc2)oc2cc(O)cc(O)c12
REMARK SMILES IDX 5 1 3 2 2 3 1 4 21 5 19 6 18 7 16 8 15 9 14 10 13 11 6 12
REMARK SMILES IDX 7 13 8 14 9 15 12 16 11 17 10 18 4 20 20 22 17 24
REMARK H PARENT 10 19 4 21 20 23 17 25
REMARK Flexibility Score: inf
ROOT
ATOM      1  C   UNL     1      14.758  -7.578  19.164  1.00  0.00     0.180 A 
ATOM      2  C   UNL     1      13.866  -6.592  18.708  1.00  0.00     0.208 A 
ATOM      3  C   UNL     1      13.649  -6.455  17.329  1.00  0.00     0.238 A 
ATOM      4  O   UNL     1      12.808  -5.607  16.930  1.00  0.00    -0.285 OA
ATOM      5  C   UNL     1      14.337  -7.295  16.420  1.00  0.00     0.111 A 
ATOM      6  C   UNL     1      14.223  -7.218  14.999  1.00  0.00     0.134 A 
ATOM      7  C   UNL     1      14.848  -8.185  14.203  1.00  0.00     0.093 A 
ATOM      8  C   UNL     1      15.637  -9.185  14.770  1.00  0.00     0.123 A 
ATOM      9  C   UNL     1      15.804  -9.234  16.154  1.00  0.00     0.094 A 
ATOM     10  C   UNL     1      15.162  -8.306  16.978  1.00  0.00     0.146 A 
ATOM     11  O   UNL     1      15.339  -8.394  18.291  1.00  0.00    -0.452 OA
ENDROOT
BRANCH   1  12
ATOM     12  C   UNL     1      15.059  -7.766  20.602  1.00  0.00     0.021 A 
ATOM     13  C   UNL     1      14.230  -8.548  21.427  1.00  0.00     0.016 A 
ATOM     14  C   UNL     1      14.520  -8.691  22.787  1.00  0.00     0.047 A 
ATOM     15  C   UNL     1      15.632  -8.044  23.342  1.00  0.00     0.115 A 
ATOM     16  C   UNL     1      16.159  -7.103  21.171  1.00  0.00     0.016 A 
ATOM     17  C   UNL     1      16.447  -7.249  22.532  1.00  0.00     0.047 A 
BRANCH  15  18
ATOM     18  O   UNL     1      15.931  -8.180  24.697  1.00  0.00    -0.508 OA
ATOM     19  H   UNL     1      16.807  -7.846  25.080  1.00  0.00     0.293 HD
ENDBRANCH  15  18
ENDBRANCH   1  12
BRANCH   2  20
ATOM     20  O   UNL     1      13.181  -5.787  19.624  1.00  0.00    -0.502 OA
ATOM     21  H   UNL     1      12.177  -5.663  19.593  1.00  0.00     0.293 HD
ENDBRANCH   2  20
BRANCH   6  22
ATOM     22  O   UNL     1      13.535  -6.204  14.325  1.00  0.00    -0.507 OA
ATOM     23  H   UNL     1      13.850  -5.766  13.473  1.00  0.00     0.293 HD
ENDBRANCH   6  22
BRANCH   8  24
ATOM     24  O   UNL     1      16.258 -10.121  13.946  1.00  0.00    -0.508 OA
ATOM     25  H   UNL     1      16.036 -10.189  12.959  1.00  0.00     0.293 HD
ENDBRANCH   8  24
TORSDOF 5
ENDMDL
MODEL 5
REMARK VINA RESULT:    -5.830      1.778      6.860
REMARK INTER + INTRA:          -6.983
REMARK INTER:                  -6.694
REMARK INTRA:                  -0.288
REMARK UNBOUND:                -0.130
REMARK SMILES O=c1c(O)c(-c2ccc(O)cc2)oc2cc(O)cc(O)c12
REMARK SMILES IDX 5 1 3 2 2 3 1 4 21 5 19 6 18 7 16 8 15 9 14 10 13 11 6 12
REMARK SMILES IDX 7 13 8 14 9 15 12 16 11 17 10 18 4 20 20 22 17 24
REMARK H PARENT 10 19 4 21 20 23 17 25
REMARK Flexibility Score: inf
ROOT
ATOM      1  C   UNL     1       6.356  -7.748  27.728  1.00  0.00     0.180 A 
ATOM      2  C   UNL     1       5.336  -7.626  26.768  1.00  0.00     0.208 A 
ATOM      3  C   UNL     1       5.604  -7.993  25.440  1.00  0.00     0.238 A 
ATOM      4  O   UNL     1       4.672  -7.933  24.596  1.00  0.00    -0.285 OA
ATOM      5  C   UNL     1       6.892  -8.462  25.084  1.00  0.00     0.111 A 
ATOM      6  C   UNL     1       7.286  -8.823  23.761  1.00  0.00     0.134 A 
ATOM      7  C   UNL     1       8.545  -9.398  23.547  1.00  0.00     0.093 A 
ATOM      8  C   UNL     1       9.448  -9.564  24.597  1.00  0.00     0.123 A 
ATOM      9  C   UNL     1       9.095  -9.158  25.885  1.00  0.00     0.094 A 
ATOM     10  C   UNL     1       7.833  -8.616  26.135  1.00  0.00     0.146 A 
ATOM     11  O   UNL     1       7.533  -8.253  27.377  1.00  0.00    -0.452 OA
ENDROOT
BRANCH   1  12
ATOM     12  C   UNL     1       6.157  -7.359  29.143  1.00  0.00     0.021 A 
ATOM     13  C   UNL     1       5.651  -8.269  30.089  1.00  0.00     0.016 A 
ATOM     14  C   UNL     1       5.448  -7.871  31.414  1.00  0.00     0.047 A 
ATOM     15  C   UNL     1       5.736  -6.557  31.807  1.00  0.00     0.115 A 
ATOM     16  C   UNL     1       6.422  -6.037  29.541  1.00  0.00     0.016 A 
ATOM     17  C   UNL     1       6.219  -5.642  30.867  1.00  0.00     0.047 A 
BRANCH  15  18
ATOM     18  O   UNL     1       5.539  -6.150  33.125  1.00  0.00    -0.508 OA
ATOM     19  H   UNL     1       5.837  -5.236  33.446  1.00  0.00     0.293 HD
ENDBRANCH  15  18
ENDBRANCH   1  12
BRANCH   2  20
ATOM     20  O   UNL     1       4.066  -7.182  27.145  1.00  0.00    -0.502 OA
ATOM     21  H   UNL     1       3.920  -6.550  27.923  1.00  0.00     0.293 HD
ENDBRANCH   2  20
BRANCH   6  22
ATOM     22  O   UNL     1       6.496  -8.614  22.626  1.00  0.00    -0.507 OA
ATOM     23  H   UNL     1       5.492  -8.511  22.637  1.00  0.00     0.293 HD
ENDBRANCH   6  22
BRANCH   8  24
ATOM     24  O   UNL     1      10.698 -10.125  24.346  1.00  0.00    -0.508 OA
ATOM     25  H   UNL     1      10.942 -11.050  24.682  1.00  0.00     0.293 HD
ENDBRANCH   8  24
TORSDOF 5
ENDMDL
MODEL 6
REMARK VINA RESULT:    -5.814     10.786     13.762
REMARK INTER + INTRA:          -6.964
REMARK INTER:                  -6.774
REMARK INTRA:                  -0.189
REMARK UNBOUND:                -0.130
REMARK SMILES O=c1c(O)c(-c2ccc(O)cc2)oc2cc(O)cc(O)c12
REMARK SMILES IDX 5 1 3 2 2 3 1 4 21 5 19 6 18 7 16 8 15 9 14 10 13 11 6 12
REMARK SMILES IDX 7 13 8 14 9 15 12 16 11 17 10 18 4 20 20 22 17 24
REMARK H PARENT 10 19 4 21 20 23 17 25
REMARK Flexibility Score: inf
ROOT
ATOM      1  C   UNL     1      13.785  -4.881  20.308  1.00  0.00     0.180 A 
ATOM      2  C   UNL     1      14.299  -6.019  20.954  1.00  0.00     0.208 A 
ATOM      3  C   UNL     1      14.527  -7.183  20.204  1.00  0.00     0.238 A 
ATOM      4  O   UNL     1      15.037  -8.181  20.777  1.00  0.00    -0.285 OA
ATOM      5  C   UNL     1      14.225  -7.201  18.821  1.00  0.00     0.111 A 
ATOM      6  C   UNL     1      14.379  -8.338  17.972  1.00  0.00     0.134 A 
ATOM      7  C   UNL     1      14.174  -8.204  16.594  1.00  0.00     0.093 A 
ATOM      8  C   UNL     1      13.757  -6.994  16.042  1.00  0.00     0.123 A 
ATOM      9  C   UNL     1      13.545  -5.891  16.871  1.00  0.00     0.094 A 
ATOM     10  C   UNL     1      13.777  -5.983  18.245  1.00  0.00     0.146 A 
ATOM     11  O   UNL     1      13.574  -4.908  18.997  1.00  0.00    -0.452 OA
ENDROOT
BRANCH   1  12
ATOM     12  C   UNL     1      13.495  -3.624  21.036  1.00  0.00     0.021 A 
ATOM     13  C   UNL     1      12.460  -3.550  21.986  1.00  0.00     0.016 A 
ATOM     14  C   UNL     1      12.188  -2.346  22.642  1.00  0.00     0.047 A 
ATOM     15  C   UNL     1      12.937  -1.200  22.350  1.00  0.00     0.115 A 
ATOM     16  C   UNL     1      14.227  -2.464  20.733  1.00  0.00     0.016 A 
ATOM     17  C   UNL     1      13.953  -1.261  21.392  1.00  0.00     0.047 A 
BRANCH  15  18
ATOM     18  O   UNL     1      12.676   0.006  22.999  1.00  0.00    -0.508 OA
ATOM     19  H   UNL     1      13.129   0.867  22.716  1.00  0.00     0.293 HD
ENDBRANCH  15  18
ENDBRANCH   1  12
BRANCH   2  20
ATOM     20  O   UNL     1      14.610  -5.972  22.316  1.00  0.00    -0.502 OA
ATOM     21  H   UNL     1      15.512  -5.663  22.657  1.00  0.00     0.293 HD
ENDBRANCH   2  20
BRANCH   6  22
ATOM     22  O   UNL     1      14.703  -9.618  18.433  1.00  0.00    -0.507 OA
ATOM     23  H   UNL     1      15.240  -9.810  19.266  1.00  0.00     0.293 HD
ENDBRANCH   6  22
BRANCH   8  24
ATOM     24  O   UNL     1      13.546  -6.901  14.669  1.00  0.00    -0.508 OA
ATOM     25  H   UNL     1      13.139  -7.665  14.141  1.00  0.00     0.293 HD
ENDBRANCH   8  24
TORSDOF 5
ENDMDL
MODEL 7
REMARK VINA RESULT:    -5.793     10.513     15.304
REMARK INTER + INTRA:          -6.939
REMARK INTER:                  -6.718
REMARK INTRA:                  -0.221
REMARK UNBOUND:                -0.130
REMARK SMILES O=c1c(O)c(-c2ccc(O)cc2)oc2cc(O)cc(O)c12
REMARK SMILES IDX 5 1 3 2 2 3 1 4 21 5 19 6 18 7 16 8 15 9 14 10 13 11 6 12
REMARK SMILES IDX 7 13 8 14 9 15 12 16 11 17 10 18 4 20 20 22 17 24
REMARK H PARENT 10 19 4 21 20 23 17 25
REMARK Flexibility Score: inf
ROOT
ATOM      1  C   UNL     1      15.359  -8.583  18.919  1.00  0.00     0.180 A 
ATOM      2  C   UNL     1      16.416  -9.311  18.347  1.00  0.00     0.208 A 
ATOM      3  C   UNL     1      16.428  -9.518  16.959  1.00  0.00     0.238 A 
ATOM      4  O   UNL     1      17.404 -10.124  16.446  1.00  0.00    -0.285 OA
ATOM      5  C   UNL     1      15.375  -9.007  16.161  1.00  0.00     0.111 A 
ATOM      6  C   UNL     1      15.264  -9.192  14.750  1.00  0.00     0.134 A 
ATOM      7  C   UNL     1      14.251  -8.531  14.045  1.00  0.00     0.093 A 
ATOM      8  C   UNL     1      13.306  -7.748  14.706  1.00  0.00     0.123 A 
ATOM      9  C   UNL     1      13.369  -7.610  16.094  1.00  0.00     0.094 A 
ATOM     10  C   UNL     1      14.390  -8.226  16.820  1.00  0.00     0.146 A 
ATOM     11  O   UNL     1      14.421  -8.061  18.137  1.00  0.00    -0.452 OA
ENDROOT
BRANCH   1  12
ATOM     12  C   UNL     1      15.265  -8.345  20.378  1.00  0.00     0.021 A 
ATOM     13  C   UNL     1      14.319  -9.021  21.171  1.00  0.00     0.016 A 
ATOM     14  C   UNL     1      14.231  -8.761  22.542  1.00  0.00     0.047 A 
ATOM     15  C   UNL     1      15.078  -7.815  23.135  1.00  0.00     0.115 A 
ATOM     16  C   UNL     1      16.094  -7.382  20.977  1.00  0.00     0.016 A 
ATOM     17  C   UNL     1      16.005  -7.125  22.349  1.00  0.00     0.047 A 
BRANCH  15  18
ATOM     18  O   UNL     1      15.000  -7.549  24.501  1.00  0.00    -0.508 OA
ATOM     19  H   UNL     1      14.218  -7.040  24.896  1.00  0.00     0.293 HD
ENDBRANCH  15  18
ENDBRANCH   1  12
BRANCH   2  20
ATOM     20  O   UNL     1      17.456  -9.788  19.150  1.00  0.00    -0.502 OA
ATOM     21  H   UNL     1      18.232 -10.319  18.775  1.00  0.00     0.293 HD
ENDBRANCH   2  20
BRANCH   6  22
ATOM     22  O   UNL     1      16.101 -10.027  14.004  1.00  0.00    -0.507 OA
ATOM     23  H   UNL     1      16.288 -10.995  14.221  1.00  0.00     0.293 HD
ENDBRANCH   6  22
BRANCH   8  24
ATOM     24  O   UNL     1      12.301  -7.119  13.975  1.00  0.00    -0.508 OA
ATOM     25  H   UNL     1      11.320  -7.266  14.185  1.00  0.00     0.293 HD
ENDBRANCH   8  24
TORSDOF 5
ENDMDL
MODEL 8
REMARK VINA RESULT:    -5.649      2.652      7.068
REMARK INTER + INTRA:          -6.770
REMARK INTER:                  -6.471
REMARK INTRA:                  -0.299
REMARK UNBOUND:                -0.130
REMARK SMILES O=c1c(O)c(-c2ccc(O)cc2)oc2cc(O)cc(O)c12
REMARK SMILES IDX 5 1 3 2 2 3 1 4 21 5 19 6 18 7 16 8 15 9 14 10 13 11 6 12
REMARK SMILES IDX 7 13 8 14 9 15 12 16 11 17 10 18 4 20 20 22 17 24
REMARK H PARENT 10 19 4 21 20 23 17 25
REMARK Flexibility Score: inf
ROOT
ATOM      1  C   UNL     1       6.713  -7.367  27.259  1.00  0.00     0.180 A 
ATOM      2  C   UNL     1       7.595  -8.312  26.707  1.00  0.00     0.208 A 
ATOM      3  C   UNL     1       7.521  -8.592  25.334  1.00  0.00     0.238 A 
ATOM      4  O   UNL     1       8.349  -9.398  24.835  1.00  0.00    -0.285 OA
ATOM      5  C   UNL     1       6.556  -7.935  24.532  1.00  0.00     0.111 A 
ATOM      6  C   UNL     1       6.365  -8.171  23.137  1.00  0.00     0.134 A 
ATOM      7  C   UNL     1       5.470  -7.371  22.417  1.00  0.00     0.093 A 
ATOM      8  C   UNL     1       4.710  -6.389  23.052  1.00  0.00     0.123 A 
ATOM      9  C   UNL     1       4.845  -6.191  24.427  1.00  0.00     0.094 A 
ATOM     10  C   UNL     1       5.757  -6.948  25.166  1.00  0.00     0.146 A 
ATOM     11  O   UNL     1       5.862  -6.721  26.469  1.00  0.00    -0.452 OA
ENDROOT
BRANCH   1  12
ATOM     12  C   UNL     1       6.713  -7.038  28.703  1.00  0.00     0.021 A 
ATOM     13  C   UNL     1       5.947  -7.776  29.624  1.00  0.00     0.016 A 
ATOM     14  C   UNL     1       5.944  -7.430  30.978  1.00  0.00     0.047 A 
ATOM     15  C   UNL     1       6.695  -6.336  31.427  1.00  0.00     0.115 A 
ATOM     16  C   UNL     1       7.446  -5.929  29.159  1.00  0.00     0.016 A 
ATOM     17  C   UNL     1       7.442  -5.586  30.515  1.00  0.00     0.047 A 
BRANCH  15  18
ATOM     18  O   UNL     1       6.701  -5.983  32.776  1.00  0.00    -0.508 OA
ATOM     19  H   UNL     1       6.210  -6.536  33.469  1.00  0.00     0.293 HD
ENDBRANCH  15  18
ENDBRANCH   1  12
BRANCH   2  20
ATOM     20  O   UNL     1       8.554  -8.932  27.512  1.00  0.00    -0.502 OA
ATOM     21  H   UNL     1       8.544  -8.860  28.522  1.00  0.00     0.293 HD
ENDBRANCH   2  20
BRANCH   6  22
ATOM     22  O   UNL     1       7.005  -9.189  22.422  1.00  0.00    -0.507 OA
ATOM     23  H   UNL     1       6.587 -10.076  22.188  1.00  0.00     0.293 HD
ENDBRANCH   6  22
BRANCH   8  24
ATOM     24  O   UNL     1       3.817  -5.622  22.308  1.00  0.00    -0.508 OA
ATOM     25  H   UNL     1       3.311  -4.847  22.722  1.00  0.00     0.293 HD
ENDBRANCH   8  24
TORSDOF 5
ENDMDL
