MODEL 1
REMARK VINA RESULT:    -7.195      0.000      0.000
REMARK INTER + INTRA:          -7.195
REMARK INTER:                  -7.195
REMARK INTRA:                   0.000
REMARK UNBOUND:                 0.000
REMARK SMILES CC1=CC[C@]2(C)CCCC(C)(C)[C@]23C[C@H]13
REMARK SMILES IDX 1 1 2 2 3 3 4 4 5 5 7 6 8 7 9 8 10 9 13 10 15 11 14 12 11 13
REMARK SMILES IDX 12 14 6 15
REMARK H PARENT
REMARK Flexibility Score: inf
ROOT
ATOM      1  C   UNL     1     113.263 112.497 115.569  1.00  0.00     0.039 C 
ATOM      2  C   UNL     1     112.271 111.777 114.698  1.00  0.00    -0.074 C 
ATOM      3  C   UNL     1     111.061 111.467 115.203  1.00  0.00    -0.027 C 
ATOM      4  C   UNL     1     110.027 110.714 114.406  1.00  0.00     0.034 C 
ATOM      5  C   UNL     1     110.078 111.088 112.893  1.00  0.00    -0.022 C 
ATOM      6  C   UNL     1     109.145 110.126 112.088  1.00  0.00     0.008 C 
ATOM      7  C   UNL     1     109.655 109.767 110.675  1.00  0.00     0.001 C 
ATOM      8  C   UNL     1     110.404 110.924 110.001  1.00  0.00     0.007 C 
ATOM      9  C   UNL     1     111.723 111.297 110.753  1.00  0.00    -0.029 C 
ATOM     10  C   UNL     1     111.542 111.008 112.308  1.00  0.00    -0.012 C 
ATOM     11  C   UNL     1     112.661 111.440 113.269  1.00  0.00     0.022 C 
ATOM     12  C   UNL     1     112.502 109.959 112.936  1.00  0.00     0.017 C 
ATOM     13  C   UNL     1     112.037 112.793 110.507  1.00  0.00     0.012 C 
ATOM     14  C   UNL     1     112.875 110.490 110.095  1.00  0.00     0.012 C 
ATOM     15  C   UNL     1     109.531 112.540 112.787  1.00  0.00     0.012 C 
ENDROOT
TORSDOF 0
ENDMDL
MODEL 2
REMARK VINA RESULT:    -7.189      1.435      3.452
REMARK INTER + INTRA:          -7.189
REMARK INTER:                  -7.189
REMARK INTRA:                   0.000
REMARK UNBOUND:                 0.000
REMARK SMILES CC1=CC[C@]2(C)CCCC(C)(C)[C@]23C[C@H]13
REMARK SMILES IDX 1 1 2 2 3 3 4 4 5 5 7 6 8 7 9 8 10 9 13 10 15 11 14 12 11 13
REMARK SMILES IDX 12 14 6 15
REMARK H PARENT
REMARK Flexibility Score: inf
ROOT
ATOM      1  C   UNL     1     109.916 112.135 114.505  1.00  0.00     0.039 C 
ATOM      2  C   UNL     1     110.693 112.041 113.222  1.00  0.00    -0.074 C 
ATOM      3  C   UNL     1     112.040 112.037 113.271  1.00  0.00    -0.027 C 
ATOM      4  C   UNL     1     112.889 111.983 112.026  1.00  0.00     0.034 C 
ATOM      5  C   UNL     1     112.229 111.113 110.913  1.00  0.00    -0.022 C 
ATOM      6  C   UNL     1     113.035 111.270 109.583  1.00  0.00     0.008 C 
ATOM      7  C   UNL     1     112.177 111.232 108.300  1.00  0.00     0.001 C 
ATOM      8  C   UNL     1     110.978 110.280 108.415  1.00  0.00     0.007 C 
ATOM      9  C   UNL     1     109.950 110.748 109.497  1.00  0.00    -0.029 C 
ATOM     10  C   UNL     1     110.721 111.512 110.661  1.00  0.00    -0.012 C 
ATOM     11  C   UNL     1     109.933 111.932 111.911  1.00  0.00     0.022 C 
ATOM     12  C   UNL     1     110.331 112.998 110.894  1.00  0.00     0.017 C 
ATOM     13  C   UNL     1     109.208 109.509 110.054  1.00  0.00     0.012 C 
ATOM     14  C   UNL     1     108.882 111.615 108.778  1.00  0.00     0.012 C 
ATOM     15  C   UNL     1     112.324 109.640 111.401  1.00  0.00     0.012 C 
ENDROOT
TORSDOF 0
ENDMDL
MODEL 3
REMARK VINA RESULT:    -7.181      3.177      4.868
REMARK INTER + INTRA:          -7.181
REMARK INTER:                  -7.181
REMARK INTRA:                   0.000
REMARK UNBOUND:                 0.000
REMARK SMILES CC1=CC[C@]2(C)CCCC(C)(C)[C@]23C[C@H]13
REMARK SMILES IDX 1 1 2 2 3 3 4 4 5 5 7 6 8 7 9 8 10 9 13 10 15 11 14 12 11 13
REMARK SMILES IDX 12 14 6 15
REMARK H PARENT
REMARK Flexibility Score: inf
ROOT
ATOM      1  C   UNL     1     113.259 112.502 110.689  1.00  0.00     0.039 C 
ATOM      2  C   UNL     1     112.260 111.786 109.825  1.00  0.00    -0.074 C 
ATOM      3  C   UNL     1     111.051 111.480 110.336  1.00  0.00    -0.027 C 
ATOM      4  C   UNL     1     110.010 110.730 109.545  1.00  0.00     0.034 C 
ATOM      5  C   UNL     1     110.053 111.103 108.033  1.00  0.00    -0.022 C 
ATOM      6  C   UNL     1     109.112 110.145 107.233  1.00  0.00     0.008 C 
ATOM      7  C   UNL     1     109.613 109.783 105.817  1.00  0.00     0.001 C 
ATOM      8  C   UNL     1     110.362 110.937 105.138  1.00  0.00     0.007 C 
ATOM      9  C   UNL     1     111.687 111.305 105.882  1.00  0.00    -0.029 C 
ATOM     10  C   UNL     1     111.514 111.018 107.439  1.00  0.00    -0.012 C 
ATOM     11  C   UNL     1     112.640 111.446 108.394  1.00  0.00     0.022 C 
ATOM     12  C   UNL     1     112.473 109.966 108.062  1.00  0.00     0.017 C 
ATOM     13  C   UNL     1     112.005 112.800 105.635  1.00  0.00     0.012 C 
ATOM     14  C   UNL     1     112.833 110.494 105.219  1.00  0.00     0.012 C 
ATOM     15  C   UNL     1     109.512 112.558 107.929  1.00  0.00     0.012 C 
ENDROOT
TORSDOF 0
ENDMDL
MODEL 4
REMARK VINA RESULT:    -7.157      1.414      2.136
REMARK INTER + INTRA:          -7.157
REMARK INTER:                  -7.157
REMARK INTRA:                   0.000
REMARK UNBOUND:                 0.000
REMARK SMILES CC1=CC[C@]2(C)CCCC(C)(C)[C@]23C[C@H]13
REMARK SMILES IDX 1 1 2 2 3 3 4 4 5 5 7 6 8 7 9 8 10 9 13 10 15 11 14 12 11 13
REMARK SMILES IDX 12 14 6 15
REMARK H PARENT
REMARK Flexibility Score: inf
ROOT
ATOM      1  C   UNL     1     112.499 110.233 114.392  1.00  0.00     0.039 C 
ATOM      2  C   UNL     1     111.682 110.262 113.132  1.00  0.00    -0.074 C 
ATOM      3  C   UNL     1     110.337 110.267 113.223  1.00  0.00    -0.027 C 
ATOM      4  C   UNL     1     109.449 110.258 112.005  1.00  0.00     0.034 C 
ATOM      5  C   UNL     1     110.072 111.070 110.829  1.00  0.00    -0.022 C 
ATOM      6  C   UNL     1     109.224 110.846 109.535  1.00  0.00     0.008 C 
ATOM      7  C   UNL     1     110.042 110.819 108.225  1.00  0.00     0.001 C 
ATOM      8  C   UNL     1     111.241 111.775 108.253  1.00  0.00     0.007 C 
ATOM      9  C   UNL     1     112.304 111.363 109.324  1.00  0.00    -0.029 C 
ATOM     10  C   UNL     1     111.571 110.660 110.550  1.00  0.00    -0.012 C 
ATOM     11  C   UNL     1     112.400 110.304 111.794  1.00  0.00     0.022 C 
ATOM     12  C   UNL     1     111.971 109.188 110.845  1.00  0.00     0.017 C 
ATOM     13  C   UNL     1     113.061 112.629 109.794  1.00  0.00     0.012 C 
ATOM     14  C   UNL     1     113.350 110.460 108.616  1.00  0.00     0.012 C 
ATOM     15  C   UNL     1     109.989 112.567 111.243  1.00  0.00     0.012 C 
ENDROOT
TORSDOF 0
ENDMDL
MODEL 5
REMARK VINA RESULT:    -7.134      3.289      5.951
REMARK INTER + INTRA:          -7.134
REMARK INTER:                  -7.134
REMARK INTRA:                   0.000
REMARK UNBOUND:                 0.000
REMARK SMILES CC1=CC[C@]2(C)CCCC(C)(C)[C@]23C[C@H]13
REMARK SMILES IDX 1 1 2 2 3 3 4 4 5 5 7 6 8 7 9 8 10 9 13 10 15 11 14 12 11 13
REMARK SMILES IDX 12 14 6 15
REMARK H PARENT
REMARK Flexibility Score: inf
ROOT
ATOM      1  C   UNL     1     109.130 109.552 110.532  1.00  0.00     0.039 C 
ATOM      2  C   UNL     1     110.100 110.313 109.673  1.00  0.00    -0.074 C 
ATOM      3  C   UNL     1     111.316 110.617 110.169  1.00  0.00    -0.027 C 
ATOM      4  C   UNL     1     112.330 111.408 109.383  1.00  0.00     0.034 C 
ATOM      5  C   UNL     1     112.258 111.089 107.859  1.00  0.00    -0.022 C 
ATOM      6  C   UNL     1     113.169 112.088 107.074  1.00  0.00     0.008 C 
ATOM      7  C   UNL     1     112.632 112.493 105.684  1.00  0.00     0.001 C 
ATOM      8  C   UNL     1     111.883 111.353 104.980  1.00  0.00     0.007 C 
ATOM      9  C   UNL     1     110.580 110.941 105.739  1.00  0.00    -0.029 C 
ATOM     10  C   UNL     1     110.783 111.175 107.301  1.00  0.00    -0.012 C 
ATOM     11  C   UNL     1     109.685 110.698 108.263  1.00  0.00     0.022 C 
ATOM     12  C   UNL     1     109.825 112.191 107.981  1.00  0.00     0.017 C 
ATOM     13  C   UNL     1     110.276 109.452 105.444  1.00  0.00     0.012 C 
ATOM     14  C   UNL     1     109.410 111.760 105.129  1.00  0.00     0.012 C 
ATOM     15  C   UNL     1     112.816 109.647 107.692  1.00  0.00     0.012 C 
ENDROOT
TORSDOF 0
ENDMDL
MODEL 6
REMARK VINA RESULT:    -7.130      0.895      3.173
REMARK INTER + INTRA:          -7.130
REMARK INTER:                  -7.130
REMARK INTRA:                   0.000
REMARK UNBOUND:                 0.000
REMARK SMILES CC1=CC[C@]2(C)CCCC(C)(C)[C@]23C[C@H]13
REMARK SMILES IDX 1 1 2 2 3 3 4 4 5 5 7 6 8 7 9 8 10 9 13 10 15 11 14 12 11 13
REMARK SMILES IDX 12 14 6 15
REMARK H PARENT
REMARK Flexibility Score: inf
ROOT
ATOM      1  C   UNL     1     109.108 109.885 115.566  1.00  0.00     0.039 C 
ATOM      2  C   UNL     1     110.088 110.562 114.649  1.00  0.00    -0.074 C 
ATOM      3  C   UNL     1     111.318 110.862 115.111  1.00  0.00    -0.027 C 
ATOM      4  C   UNL     1     112.342 111.574 114.265  1.00  0.00     0.034 C 
ATOM      5  C   UNL     1     112.241 111.161 112.765  1.00  0.00    -0.022 C 
ATOM      6  C   UNL     1     113.169 112.082 111.908  1.00  0.00     0.008 C 
ATOM      7  C   UNL     1     112.625 112.414 110.501  1.00  0.00     0.001 C 
ATOM      8  C   UNL     1     111.836 111.254 109.880  1.00  0.00     0.007 C 
ATOM      9  C   UNL     1     110.531 110.928 110.678  1.00  0.00    -0.029 C 
ATOM     10  C   UNL     1     110.762 111.253 112.219  1.00  0.00    -0.012 C 
ATOM     11  C   UNL     1     109.664 110.869 113.223  1.00  0.00     0.022 C 
ATOM     12  C   UNL     1     109.841 112.337 112.845  1.00  0.00     0.017 C 
ATOM     13  C   UNL     1     110.183 109.432 110.482  1.00  0.00     0.012 C 
ATOM     14  C   UNL     1     109.376 111.739 110.032  1.00  0.00     0.012 C 
ATOM     15  C   UNL     1     112.757 109.696 112.683  1.00  0.00     0.012 C 
ENDROOT
TORSDOF 0
ENDMDL
MODEL 7
REMARK VINA RESULT:    -7.100      1.856      2.862
REMARK INTER + INTRA:          -7.100
REMARK INTER:                  -7.100
REMARK INTRA:                   0.000
REMARK UNBOUND:                 0.000
REMARK SMILES CC1=CC[C@]2(C)CCCC(C)(C)[C@]23C[C@H]13
REMARK SMILES IDX 1 1 2 2 3 3 4 4 5 5 7 6 8 7 9 8 10 9 13 10 15 11 14 12 11 13
REMARK SMILES IDX 12 14 6 15
REMARK H PARENT
REMARK Flexibility Score: inf
ROOT
ATOM      1  C   UNL     1     113.108 110.926 118.672  1.00  0.00     0.039 C 
ATOM      2  C   UNL     1     112.074 110.742 117.598  1.00  0.00    -0.074 C 
ATOM      3  C   UNL     1     110.772 110.912 117.905  1.00  0.00    -0.027 C 
ATOM      4  C   UNL     1     109.675 110.708 116.893  1.00  0.00     0.034 C 
ATOM      5  C   UNL     1     110.117 111.147 115.464  1.00  0.00    -0.022 C 
ATOM      6  C   UNL     1     109.030 110.713 114.427  1.00  0.00     0.008 C 
ATOM      7  C   UNL     1     109.587 110.289 113.050  1.00  0.00     0.001 C 
ATOM      8  C   UNL     1     110.828 111.092 112.637  1.00  0.00     0.007 C 
ATOM      9  C   UNL     1     112.044 110.836 113.586  1.00  0.00    -0.029 C 
ATOM     10  C   UNL     1     111.510 110.525 115.054  1.00  0.00    -0.012 C 
ATOM     11  C   UNL     1     112.532 110.389 116.193  1.00  0.00     0.022 C 
ATOM     12  C   UNL     1     111.865 109.132 115.641  1.00  0.00     0.017 C 
ATOM     13  C   UNL     1     112.952 112.090 113.590  1.00  0.00     0.012 C 
ATOM     14  C   UNL     1     112.882 109.686 112.967  1.00  0.00     0.012 C 
ATOM     15  C   UNL     1     110.205 112.699 115.495  1.00  0.00     0.012 C 
ENDROOT
TORSDOF 0
ENDMDL
MODEL 8
REMARK VINA RESULT:    -7.096      1.943      4.342
REMARK INTER + INTRA:          -7.096
REMARK INTER:                  -7.096
REMARK INTRA:                   0.000
REMARK UNBOUND:                 0.000
REMARK SMILES CC1=CC[C@]2(C)CCCC(C)(C)[C@]23C[C@H]13
REMARK SMILES IDX 1 1 2 2 3 3 4 4 5 5 7 6 8 7 9 8 10 9 13 10 15 11 14 12 11 13
REMARK SMILES IDX 12 14 6 15
REMARK H PARENT
REMARK Flexibility Score: inf
ROOT
ATOM      1  C   UNL     1     109.959 111.832 119.324  1.00  0.00     0.039 C 
ATOM      2  C   UNL     1     110.728 111.858 118.033  1.00  0.00    -0.074 C 
ATOM      3  C   UNL     1     112.075 111.866 118.073  1.00  0.00    -0.027 C 
ATOM      4  C   UNL     1     112.915 111.929 116.823  1.00  0.00     0.034 C 
ATOM      5  C   UNL     1     112.257 111.152 115.643  1.00  0.00    -0.022 C 
ATOM      6  C   UNL     1     113.052 111.432 114.327  1.00  0.00     0.008 C 
ATOM      7  C   UNL     1     112.185 111.496 113.051  1.00  0.00     0.001 C 
ATOM      8  C   UNL     1     110.997 110.525 113.090  1.00  0.00     0.007 C 
ATOM      9  C   UNL     1     109.972 110.885 114.214  1.00  0.00    -0.029 C 
ATOM     10  C   UNL     1     110.744 111.554 115.436  1.00  0.00    -0.012 C 
ATOM     11  C   UNL     1     109.959 111.855 116.723  1.00  0.00     0.022 C 
ATOM     12  C   UNL     1     110.339 113.009 115.799  1.00  0.00     0.017 C 
ATOM     13  C   UNL     1     109.247 109.594 114.667  1.00  0.00     0.012 C 
ATOM     14  C   UNL     1     108.890 111.799 113.580  1.00  0.00     0.012 C 
ATOM     15  C   UNL     1     112.372 109.643 116.000  1.00  0.00     0.012 C 
ENDROOT
TORSDOF 0
ENDMDL
MODEL 9
REMARK VINA RESULT:    -6.956      3.177      4.869
REMARK INTER + INTRA:          -6.956
REMARK INTER:                  -6.956
REMARK INTRA:                   0.000
REMARK UNBOUND:                 0.000
REMARK SMILES CC1=CC[C@]2(C)CCCC(C)(C)[C@]23C[C@H]13
REMARK SMILES IDX 1 1 2 2 3 3 4 4 5 5 7 6 8 7 9 8 10 9 13 10 15 11 14 12 11 13
REMARK SMILES IDX 12 14 6 15
REMARK H PARENT
REMARK Flexibility Score: inf
ROOT
ATOM      1  C   UNL     1     113.235 112.464 120.418  1.00  0.00     0.039 C 
ATOM      2  C   UNL     1     112.219 111.766 119.557  1.00  0.00    -0.074 C 
ATOM      3  C   UNL     1     111.004 111.490 120.071  1.00  0.00    -0.027 C 
ATOM      4  C   UNL     1     109.947 110.760 119.284  1.00  0.00     0.034 C 
ATOM      5  C   UNL     1     109.997 111.124 117.769  1.00  0.00    -0.022 C 
ATOM      6  C   UNL     1     109.034 110.183 116.975  1.00  0.00     0.008 C 
ATOM      7  C   UNL     1     109.527 109.803 115.561  1.00  0.00     0.001 C 
ATOM      8  C   UNL     1     110.301 110.938 114.876  1.00  0.00     0.007 C 
ATOM      9  C   UNL     1     111.634 111.279 115.618  1.00  0.00    -0.029 C 
ATOM     10  C   UNL     1     111.456 111.004 117.176  1.00  0.00    -0.012 C 
ATOM     11  C   UNL     1     112.591 111.411 118.128  1.00  0.00     0.022 C 
ATOM     12  C   UNL     1     112.391 109.934 117.803  1.00  0.00     0.017 C 
ATOM     13  C   UNL     1     111.985 112.766 115.362  1.00  0.00     0.012 C 
ATOM     14  C   UNL     1     112.761 110.440 114.957  1.00  0.00     0.012 C 
ATOM     15  C   UNL     1     109.488 112.590 117.659  1.00  0.00     0.012 C 
ENDROOT
TORSDOF 0
ENDMDL
