MODEL 1
REMARK VINA RESULT:    -4.208      0.000      0.000
REMARK INTER + INTRA:          -7.129
REMARK INTER:                  -6.422
REMARK INTRA:                  -0.708
REMARK UNBOUND:                -0.708
REMARK SMILES O=C([O-])CCCCCCCCC(=O)[O-]
REMARK SMILES IDX 7 1 6 2 5 3 4 4 2 5 1 6 3 7 8 8 9 9 10 10 11 11 12 12 13 13
REMARK SMILES IDX 14 14
REMARK H PARENT
REMARK Flexibility Score: inf
ROOT
ATOM      1  C   UNL     1     163.985 178.096 181.867  1.00  0.00     0.000 C 
ENDROOT
BRANCH   1   2
ATOM      2  C   UNL     1     163.069 179.324 181.774  1.00  0.00     0.000 C 
BRANCH   2   3
ATOM      3  C   UNL     1     163.113 179.998 180.389  1.00  0.00     0.006 C 
BRANCH   3   4
ATOM      4  C   UNL     1     161.752 180.082 179.682  1.00  0.00     0.053 C 
BRANCH   4   5
ATOM      5  C   UNL     1     161.776 179.420 178.339  1.00  0.00     0.041 C 
ATOM      6  O   UNL     1     162.505 179.876 177.419  1.00  0.00    -0.550 OA
ATOM      7  O   UNL     1     161.015 178.279 178.113  1.00  0.00    -0.550 OA
ENDBRANCH   4   5
ENDBRANCH   3   4
ENDBRANCH   2   3
ENDBRANCH   1   2
BRANCH   1   8
ATOM      8  C   UNL     1     163.753 177.149 180.679  1.00  0.00     0.000 C 
BRANCH   8   9
ATOM      9  C   UNL     1     162.918 175.916 181.056  1.00  0.00     0.000 C 
BRANCH   9  10
ATOM     10  C   UNL     1     161.406 176.153 180.899  1.00  0.00     0.006 C 
BRANCH  10  11
ATOM     11  C   UNL     1     160.601 174.851 181.015  1.00  0.00     0.053 C 
BRANCH  11  12
ATOM     12  C   UNL     1     160.478 174.152 179.696  1.00  0.00     0.041 C 
ATOM     13  O   UNL     1     160.300 172.906 179.654  1.00  0.00    -0.550 OA
ATOM     14  O   UNL     1     160.528 174.879 178.514  1.00  0.00    -0.550 OA
ENDBRANCH  11  12
ENDBRANCH  10  11
ENDBRANCH   9  10
ENDBRANCH   8   9
ENDBRANCH   1   8
TORSDOF 9
ENDMDL
MODEL 2
REMARK VINA RESULT:    -4.157      1.288      5.598
REMARK INTER + INTRA:          -7.051
REMARK INTER:                  -6.392
REMARK INTRA:                  -0.659
REMARK UNBOUND:                -0.708
REMARK SMILES O=C([O-])CCCCCCCCC(=O)[O-]
REMARK SMILES IDX 7 1 6 2 5 3 4 4 2 5 1 6 3 7 8 8 9 9 10 10 11 11 12 12 13 13
REMARK SMILES IDX 14 14
REMARK H PARENT
REMARK Flexibility Score: inf
ROOT
ATOM      1  C   UNL     1     162.854 176.255 180.900  1.00  0.00     0.000 C 
ENDROOT
BRANCH   1   2
ATOM      2  C   UNL     1     161.362 176.499 181.172  1.00  0.00     0.000 C 
BRANCH   2   3
ATOM      3  C   UNL     1     160.534 175.200 181.171  1.00  0.00     0.006 C 
BRANCH   3   4
ATOM      4  C   UNL     1     161.342 173.936 180.840  1.00  0.00     0.053 C 
BRANCH   4   5
ATOM      5  C   UNL     1     160.884 172.753 181.636  1.00  0.00     0.041 C 
ATOM      6  O   UNL     1     160.795 171.620 181.095  1.00  0.00    -0.550 OA
ATOM      7  O   UNL     1     160.587 172.897 182.986  1.00  0.00    -0.550 OA
ENDBRANCH   4   5
ENDBRANCH   3   4
ENDBRANCH   2   3
ENDBRANCH   1   2
BRANCH   1   8
ATOM      8  C   UNL     1     163.691 177.478 181.304  1.00  0.00     0.000 C 
BRANCH   8   9
ATOM      9  C   UNL     1     162.826 178.690 181.686  1.00  0.00     0.000 C 
BRANCH   9  10
ATOM     10  C   UNL     1     162.955 179.850 180.684  1.00  0.00     0.006 C 
BRANCH  10  11
ATOM     11  C   UNL     1     161.661 180.077 179.891  1.00  0.00     0.053 C 
BRANCH  11  12
ATOM     12  C   UNL     1     161.747 179.513 178.506  1.00  0.00     0.041 C 
ATOM     13  O   UNL     1     162.478 180.066 177.642  1.00  0.00    -0.550 OA
ATOM     14  O   UNL     1     161.047 178.360 178.178  1.00  0.00    -0.550 OA
ENDBRANCH  11  12
ENDBRANCH  10  11
ENDBRANCH   9  10
ENDBRANCH   8   9
ENDBRANCH   1   8
TORSDOF 9
ENDMDL
MODEL 3
REMARK VINA RESULT:    -4.016     13.486     15.310
REMARK INTER + INTRA:          -6.837
REMARK INTER:                  -6.002
REMARK INTRA:                  -0.835
REMARK UNBOUND:                -0.708
REMARK SMILES O=C([O-])CCCCCCCCC(=O)[O-]
REMARK SMILES IDX 7 1 6 2 5 3 4 4 2 5 1 6 3 7 8 8 9 9 10 10 11 11 12 12 13 13
REMARK SMILES IDX 14 14
REMARK H PARENT
REMARK Flexibility Score: inf
ROOT
ATOM      1  C   UNL     1     175.992 179.376 181.162  1.00  0.00     0.000 C 
ENDROOT
BRANCH   1   2
ATOM      2  C   UNL     1     176.719 178.207 181.844  1.00  0.00     0.000 C 
BRANCH   2   3
ATOM      3  C   UNL     1     176.604 176.890 181.053  1.00  0.00     0.006 C 
BRANCH   3   4
ATOM      4  C   UNL     1     177.930 176.390 180.460  1.00  0.00     0.053 C 
BRANCH   4   5
ATOM      5  C   UNL     1     177.810 175.004 179.907  1.00  0.00     0.041 C 
ATOM      6  O   UNL     1     178.232 174.018 180.568  1.00  0.00    -0.550 OA
ATOM      7  O   UNL     1     177.201 174.797 178.675  1.00  0.00    -0.550 OA
ENDBRANCH   4   5
ENDBRANCH   3   4
ENDBRANCH   2   3
ENDBRANCH   1   2
BRANCH   1   8
ATOM      8  C   UNL     1     174.477 179.127 181.120  1.00  0.00     0.000 C 
BRANCH   8   9
ATOM      9  C   UNL     1     173.912 179.140 179.691  1.00  0.00     0.000 C 
BRANCH   9  10
ATOM     10  C   UNL     1     174.900 179.728 178.668  1.00  0.00     0.006 C 
BRANCH  10  11
ATOM     11  C   UNL     1     175.412 178.668 177.684  1.00  0.00     0.053 C 
BRANCH  11  12
ATOM     12  C   UNL     1     176.905 178.694 177.562  1.00  0.00     0.041 C 
ATOM     13  O   UNL     1     177.532 177.654 177.229  1.00  0.00    -0.550 OA
ATOM     14  O   UNL     1     177.602 179.875 177.786  1.00  0.00    -0.550 OA
ENDBRANCH  11  12
ENDBRANCH  10  11
ENDBRANCH   9  10
ENDBRANCH   8   9
ENDBRANCH   1   8
TORSDOF 9
ENDMDL
MODEL 4
REMARK VINA RESULT:    -4.014     11.130     13.122
REMARK INTER + INTRA:          -6.833
REMARK INTER:                  -6.171
REMARK INTRA:                  -0.663
REMARK UNBOUND:                -0.708
REMARK SMILES O=C([O-])CCCCCCCCC(=O)[O-]
REMARK SMILES IDX 7 1 6 2 5 3 4 4 2 5 1 6 3 7 8 8 9 9 10 10 11 11 12 12 13 13
REMARK SMILES IDX 14 14
REMARK H PARENT
REMARK Flexibility Score: inf
ROOT
ATOM      1  C   UNL     1     174.020 177.934 181.070  1.00  0.00     0.000 C 
ENDROOT
BRANCH   1   2
ATOM      2  C   UNL     1     173.707 179.437 181.119  1.00  0.00     0.000 C 
BRANCH   2   3
ATOM      3  C   UNL     1     172.211 179.727 181.344  1.00  0.00     0.006 C 
BRANCH   3   4
ATOM      4  C   UNL     1     171.263 178.731 180.658  1.00  0.00     0.053 C 
BRANCH   4   5
ATOM      5  C   UNL     1     170.712 179.273 179.376  1.00  0.00     0.041 C 
ATOM      6  O   UNL     1     169.467 179.333 179.195  1.00  0.00    -0.550 OA
ATOM      7  O   UNL     1     171.574 179.743 178.392  1.00  0.00    -0.550 OA
ENDBRANCH   4   5
ENDBRANCH   3   4
ENDBRANCH   2   3
ENDBRANCH   1   2
BRANCH   1   8
ATOM      8  C   UNL     1     175.465 177.662 181.516  1.00  0.00     0.000 C 
BRANCH   8   9
ATOM      9  C   UNL     1     176.367 177.200 180.360  1.00  0.00     0.000 C 
BRANCH   9  10
ATOM     10  C   UNL     1     177.576 178.127 180.145  1.00  0.00     0.006 C 
BRANCH  10  11
ATOM     11  C   UNL     1     177.153 179.571 179.846  1.00  0.00     0.053 C 
BRANCH  11  12
ATOM     12  C   UNL     1     176.692 179.737 178.431  1.00  0.00     0.041 C 
ATOM     13  O   UNL     1     177.478 179.499 177.476  1.00  0.00    -0.550 OA
ATOM     14  O   UNL     1     175.385 180.125 178.164  1.00  0.00    -0.550 OA
ENDBRANCH  11  12
ENDBRANCH  10  11
ENDBRANCH   9  10
ENDBRANCH   8   9
ENDBRANCH   1   8
TORSDOF 9
ENDMDL
MODEL 5
REMARK VINA RESULT:    -3.973      1.413      5.225
REMARK INTER + INTRA:          -6.770
REMARK INTER:                  -6.199
REMARK INTRA:                  -0.572
REMARK UNBOUND:                -0.708
REMARK SMILES O=C([O-])CCCCCCCCC(=O)[O-]
REMARK SMILES IDX 7 1 6 2 5 3 4 4 2 5 1 6 3 7 8 8 9 9 10 10 11 11 12 12 13 13
REMARK SMILES IDX 14 14
REMARK H PARENT
REMARK Flexibility Score: inf
ROOT
ATOM      1  C   UNL     1     162.889 176.645 180.819  1.00  0.00     0.000 C 
ENDROOT
BRANCH   1   2
ATOM      2  C   UNL     1     161.410 176.808 181.197  1.00  0.00     0.000 C 
BRANCH   2   3
ATOM      3  C   UNL     1     160.642 175.472 181.191  1.00  0.00     0.006 C 
BRANCH   3   4
ATOM      4  C   UNL     1     161.338 174.346 180.412  1.00  0.00     0.053 C 
BRANCH   4   5
ATOM      5  C   UNL     1     160.452 173.765 179.354  1.00  0.00     0.041 C 
ATOM      6  O   UNL     1     160.006 174.494 178.428  1.00  0.00    -0.550 OA
ATOM      7  O   UNL     1     160.144 172.410 179.372  1.00  0.00    -0.550 OA
ENDBRANCH   4   5
ENDBRANCH   3   4
ENDBRANCH   2   3
ENDBRANCH   1   2
BRANCH   1   8
ATOM      8  C   UNL     1     163.756 177.688 181.541  1.00  0.00     0.000 C 
BRANCH   8   9
ATOM      9  C   UNL     1     163.128 179.091 181.532  1.00  0.00     0.000 C 
BRANCH   9  10
ATOM     10  C   UNL     1     163.215 179.770 180.154  1.00  0.00     0.006 C 
BRANCH  10  11
ATOM     11  C   UNL     1     164.609 179.634 179.528  1.00  0.00     0.053 C 
BRANCH  11  12
ATOM     12  C   UNL     1     164.548 179.041 178.153  1.00  0.00     0.041 C 
ATOM     13  O   UNL     1     165.056 177.910 177.929  1.00  0.00    -0.550 OA
ATOM     14  O   UNL     1     163.905 179.721 177.128  1.00  0.00    -0.550 OA
ENDBRANCH  11  12
ENDBRANCH  10  11
ENDBRANCH   9  10
ENDBRANCH   8   9
ENDBRANCH   1   8
TORSDOF 9
ENDMDL
MODEL 6
REMARK VINA RESULT:    -3.940     11.788     13.417
REMARK INTER + INTRA:          -6.720
REMARK INTER:                  -5.924
REMARK INTRA:                  -0.797
REMARK UNBOUND:                -0.708
REMARK SMILES O=C([O-])CCCCCCCCC(=O)[O-]
REMARK SMILES IDX 7 1 6 2 5 3 4 4 2 5 1 6 3 7 8 8 9 9 10 10 11 11 12 12 13 13
REMARK SMILES IDX 14 14
REMARK H PARENT
REMARK Flexibility Score: inf
ROOT
ATOM      1  C   UNL     1     176.390 178.413 181.986  1.00  0.00     0.000 C 
ENDROOT
BRANCH   1   2
ATOM      2  C   UNL     1     177.113 179.462 181.128  1.00  0.00     0.000 C 
BRANCH   2   3
ATOM      3  C   UNL     1     177.463 178.943 179.720  1.00  0.00     0.006 C 
BRANCH   3   4
ATOM      4  C   UNL     1     176.912 179.806 178.574  1.00  0.00     0.053 C 
BRANCH   4   5
ATOM      5  C   UNL     1     176.654 178.999 177.340  1.00  0.00     0.041 C 
ATOM      6  O   UNL     1     177.446 179.062 176.363  1.00  0.00    -0.550 OA
ATOM      7  O   UNL     1     175.553 178.153 177.280  1.00  0.00    -0.550 OA
ENDBRANCH   4   5
ENDBRANCH   3   4
ENDBRANCH   2   3
ENDBRANCH   1   2
BRANCH   1   8
ATOM      8  C   UNL     1     175.940 177.221 181.128  1.00  0.00     0.000 C 
BRANCH   8   9
ATOM      9  C   UNL     1     174.424 177.206 180.882  1.00  0.00     0.000 C 
BRANCH   9  10
ATOM     10  C   UNL     1     173.774 178.584 181.093  1.00  0.00     0.006 C 
BRANCH  10  11
ATOM     11  C   UNL     1     173.177 179.148 179.797  1.00  0.00     0.053 C 
BRANCH  11  12
ATOM     12  C   UNL     1     171.720 179.461 179.942  1.00  0.00     0.041 C 
ATOM     13  O   UNL     1     171.110 179.157 181.001  1.00  0.00    -0.550 OA
ATOM     14  O   UNL     1     171.042 180.116 178.923  1.00  0.00    -0.550 OA
ENDBRANCH  11  12
ENDBRANCH  10  11
ENDBRANCH   9  10
ENDBRANCH   8   9
ENDBRANCH   1   8
TORSDOF 9
ENDMDL
MODEL 7
REMARK VINA RESULT:    -3.899      2.749      4.700
REMARK INTER + INTRA:          -6.659
REMARK INTER:                  -5.814
REMARK INTRA:                  -0.845
REMARK UNBOUND:                -0.708
REMARK SMILES O=C([O-])CCCCCCCCC(=O)[O-]
REMARK SMILES IDX 7 1 6 2 5 3 4 4 2 5 1 6 3 7 8 8 9 9 10 10 11 11 12 12 13 13
REMARK SMILES IDX 14 14
REMARK H PARENT
REMARK Flexibility Score: inf
ROOT
ATOM      1  C   UNL     1     163.881 178.621 181.971  1.00  0.00     0.000 C 
ENDROOT
BRANCH   1   2
ATOM      2  C   UNL     1     164.137 177.385 181.097  1.00  0.00     0.000 C 
BRANCH   2   3
ATOM      3  C   UNL     1     165.130 177.659 179.952  1.00  0.00     0.006 C 
BRANCH   3   4
ATOM      4  C   UNL     1     166.607 177.612 180.371  1.00  0.00     0.053 C 
BRANCH   4   5
ATOM      5  C   UNL     1     167.278 178.941 180.208  1.00  0.00     0.041 C 
ATOM      6  O   UNL     1     166.628 180.006 180.377  1.00  0.00    -0.550 OA
ATOM      7  O   UNL     1     168.632 179.002 179.901  1.00  0.00    -0.550 OA
ENDBRANCH   4   5
ENDBRANCH   3   4
ENDBRANCH   2   3
ENDBRANCH   1   2
BRANCH   1   8
ATOM      8  C   UNL     1     163.320 179.778 181.131  1.00  0.00     0.000 C 
BRANCH   8   9
ATOM      9  C   UNL     1     161.801 179.678 180.922  1.00  0.00     0.000 C 
BRANCH   9  10
ATOM     10  C   UNL     1     161.365 180.125 179.516  1.00  0.00     0.006 C 
BRANCH  10  11
ATOM     11  C   UNL     1     162.389 179.736 178.441  1.00  0.00     0.053 C 
BRANCH  11  12
ATOM     12  C   UNL     1     162.093 178.395 177.846  1.00  0.00     0.041 C 
ATOM     13  O   UNL     1     160.990 177.831 178.072  1.00  0.00    -0.550 OA
ATOM     14  O   UNL     1     163.021 177.780 177.015  1.00  0.00    -0.550 OA
ENDBRANCH  11  12
ENDBRANCH  10  11
ENDBRANCH   9  10
ENDBRANCH   8   9
ENDBRANCH   1   8
TORSDOF 9
ENDMDL
MODEL 8
REMARK VINA RESULT:    -3.896      0.788      4.740
REMARK INTER + INTRA:          -6.654
REMARK INTER:                  -5.688
REMARK INTRA:                  -0.966
REMARK UNBOUND:                -0.708
REMARK SMILES O=C([O-])CCCCCCCCC(=O)[O-]
REMARK SMILES IDX 7 1 6 2 5 3 4 4 2 5 1 6 3 7 8 8 9 9 10 10 11 11 12 12 13 13
REMARK SMILES IDX 14 14
REMARK H PARENT
REMARK Flexibility Score: inf
ROOT
ATOM      1  C   UNL     1     164.530 177.076 180.614  1.00  0.00     0.000 C 
ENDROOT
BRANCH   1   2
ATOM      2  C   UNL     1     163.473 176.090 180.094  1.00  0.00     0.000 C 
BRANCH   2   3
ATOM      3  C   UNL     1     162.536 175.578 181.204  1.00  0.00     0.006 C 
BRANCH   3   4
ATOM      4  C   UNL     1     161.049 175.565 180.820  1.00  0.00     0.053 C 
BRANCH   4   5
ATOM      5  C   UNL     1     160.646 174.272 180.180  1.00  0.00     0.041 C 
ATOM      6  O   UNL     1     160.979 173.175 180.701  1.00  0.00    -0.550 OA
ATOM      7  O   UNL     1     159.875 174.280 179.024  1.00  0.00    -0.550 OA
ENDBRANCH   4   5
ENDBRANCH   3   4
ENDBRANCH   2   3
ENDBRANCH   1   2
BRANCH   1   8
ATOM      8  C   UNL     1     164.015 177.826 181.852  1.00  0.00     0.000 C 
BRANCH   8   9
ATOM      9  C   UNL     1     163.543 179.252 181.529  1.00  0.00     0.000 C 
BRANCH   9  10
ATOM     10  C   UNL     1     162.062 179.308 181.114  1.00  0.00     0.006 C 
BRANCH  10  11
ATOM     11  C   UNL     1     161.855 180.090 179.811  1.00  0.00     0.053 C 
BRANCH  11  12
ATOM     12  C   UNL     1     162.066 179.230 178.603  1.00  0.00     0.041 C 
ATOM     13  O   UNL     1     163.149 179.292 177.963  1.00  0.00    -0.550 OA
ATOM     14  O   UNL     1     161.080 178.338 178.201  1.00  0.00    -0.550 OA
ENDBRANCH  11  12
ENDBRANCH  10  11
ENDBRANCH   9  10
ENDBRANCH   8   9
ENDBRANCH   1   8
TORSDOF 9
ENDMDL
MODEL 9
REMARK VINA RESULT:    -3.889     11.536     13.394
REMARK INTER + INTRA:          -6.643
REMARK INTER:                  -5.792
REMARK INTRA:                  -0.850
REMARK UNBOUND:                -0.708
REMARK SMILES O=C([O-])CCCCCCCCC(=O)[O-]
REMARK SMILES IDX 7 1 6 2 5 3 4 4 2 5 1 6 3 7 8 8 9 9 10 10 11 11 12 12 13 13
REMARK SMILES IDX 14 14
REMARK H PARENT
REMARK Flexibility Score: inf
ROOT
ATOM      1  C   UNL     1     176.406 177.607 181.146  1.00  0.00     0.000 C 
ENDROOT
BRANCH   1   2
ATOM      2  C   UNL     1     175.393 178.699 181.520  1.00  0.00     0.000 C 
BRANCH   2   3
ATOM      3  C   UNL     1     173.982 178.418 180.969  1.00  0.00     0.006 C 
BRANCH   3   4
ATOM      4  C   UNL     1     172.992 179.580 181.144  1.00  0.00     0.053 C 
BRANCH   4   5
ATOM      5  C   UNL     1     171.714 179.345 180.400  1.00  0.00     0.041 C 
ATOM      6  O   UNL     1     170.847 178.558 180.861  1.00  0.00    -0.550 OA
ATOM      7  O   UNL     1     171.468 180.021 179.211  1.00  0.00    -0.550 OA
ENDBRANCH   4   5
ENDBRANCH   3   4
ENDBRANCH   2   3
ENDBRANCH   1   2
BRANCH   1   8
ATOM      8  C   UNL     1     177.485 178.162 180.204  1.00  0.00     0.000 C 
BRANCH   8   9
ATOM      9  C   UNL     1     177.402 179.688 180.039  1.00  0.00     0.000 C 
BRANCH   9  10
ATOM     10  C   UNL     1     177.023 180.110 178.609  1.00  0.00     0.006 C 
BRANCH  10  11
ATOM     11  C   UNL     1     176.579 178.917 177.751  1.00  0.00     0.053 C 
BRANCH  11  12
ATOM     12  C   UNL     1     175.099 178.916 177.520  1.00  0.00     0.041 C 
ATOM     13  O   UNL     1     174.494 177.833 177.300  1.00  0.00    -0.550 OA
ATOM     14  O   UNL     1     174.383 180.104 177.578  1.00  0.00    -0.550 OA
ENDBRANCH  11  12
ENDBRANCH  10  11
ENDBRANCH   9  10
ENDBRANCH   8   9
ENDBRANCH   1   8
TORSDOF 9
ENDMDL
