MODEL 1
REMARK VINA RESULT:    -4.743      0.000      0.000
REMARK INTER + INTRA:         -10.291
REMARK INTER:                  -8.348
REMARK INTRA:                  -1.944
REMARK UNBOUND:                -1.944
REMARK SMILES CCCCCCCCCCCCCCC(=O)[O-]
REMARK SMILES IDX 9 1 10 2 11 3 12 4 13 5 14 6 15 7 16 8 17 9 8 10 7 11 6 12
REMARK SMILES IDX 5 13 4 14 3 15 2 16 1 17
REMARK H PARENT
REMARK Flexibility Score: inf
ROOT
ATOM      1  C   UNL     1      42.102  -9.623 -37.990  1.00  0.00     0.000 C 
ENDROOT
BRANCH   1   2
ATOM      2  C   UNL     1      41.668 -11.101 -37.918  1.00  0.00     0.000 C 
BRANCH   2   3
ATOM      3  C   UNL     1      42.536 -11.993 -37.014  1.00  0.00     0.000 C 
BRANCH   3   4
ATOM      4  C   UNL     1      43.716 -11.234 -36.383  1.00  0.00     0.000 C 
BRANCH   4   5
ATOM      5  C   UNL     1      44.212 -11.889 -35.083  1.00  0.00     0.006 C 
BRANCH   5   6
ATOM      6  C   UNL     1      45.559 -12.603 -35.257  1.00  0.00     0.053 C 
BRANCH   6   7
ATOM      7  C   UNL     1      45.350 -14.075 -35.425  1.00  0.00     0.041 C 
ATOM      8  O   UNL     1      45.426 -14.844 -34.432  1.00  0.00    -0.550 OA
ATOM      9  O   UNL     1      45.021 -14.593 -36.672  1.00  0.00    -0.550 OA
ENDBRANCH   6   7
ENDBRANCH   5   6
ENDBRANCH   4   5
ENDBRANCH   3   4
ENDBRANCH   2   3
ENDBRANCH   1   2
BRANCH   1  10
ATOM     10  C   UNL     1      41.882  -8.940 -39.355  1.00  0.00     0.000 C 
BRANCH  10  11
ATOM     11  C   UNL     1      40.912  -9.669 -40.303  1.00  0.00    -0.000 C 
BRANCH  11  12
ATOM     12  C   UNL     1      41.522  -9.940 -41.688  1.00  0.00    -0.000 C 
BRANCH  12  13
ATOM     13  C   UNL     1      43.054 -10.062 -41.643  1.00  0.00    -0.000 C 
BRANCH  13  14
ATOM     14  C   UNL     1      43.556 -11.451 -42.076  1.00  0.00    -0.000 C 
BRANCH  14  15
ATOM     15  C   UNL     1      44.133 -12.256 -40.892  1.00  0.00    -0.000 C 
BRANCH  15  16
ATOM     16  C   UNL     1      44.910 -11.393 -39.882  1.00  0.00    -0.003 C 
ATOM     17  C   UNL     1      46.043 -12.152 -39.194  1.00  0.00     0.004 C 
ENDBRANCH  15  16
ENDBRANCH  14  15
ENDBRANCH  13  14
ENDBRANCH  12  13
ENDBRANCH  11  12
ENDBRANCH  10  11
ENDBRANCH   1  10
TORSDOF 13
ENDMDL
MODEL 2
REMARK VINA RESULT:    -4.732      2.589      5.042
REMARK INTER + INTRA:         -10.272
REMARK INTER:                  -8.361
REMARK INTRA:                  -1.911
REMARK UNBOUND:                -1.944
REMARK SMILES CCCCCCCCCCCCCCC(=O)[O-]
REMARK SMILES IDX 9 1 10 2 11 3 12 4 13 5 14 6 15 7 16 8 17 9 8 10 7 11 6 12
REMARK SMILES IDX 5 13 4 14 3 15 2 16 1 17
REMARK H PARENT
REMARK Flexibility Score: inf
ROOT
ATOM      1  C   UNL     1      44.019 -11.710 -38.619  1.00  0.00     0.000 C 
ENDROOT
BRANCH   1   2
ATOM      2  C   UNL     1      43.856 -10.684 -37.480  1.00  0.00     0.000 C 
BRANCH   2   3
ATOM      3  C   UNL     1      43.746 -11.286 -36.068  1.00  0.00     0.000 C 
BRANCH   3   4
ATOM      4  C   UNL     1      42.803 -12.500 -36.010  1.00  0.00     0.000 C 
BRANCH   4   5
ATOM      5  C   UNL     1      42.702 -13.101 -34.599  1.00  0.00     0.006 C 
BRANCH   5   6
ATOM      6  C   UNL     1      43.506 -12.309 -33.559  1.00  0.00     0.053 C 
BRANCH   6   7
ATOM      7  C   UNL     1      43.952 -13.208 -32.450  1.00  0.00     0.041 C 
ATOM      8  O   UNL     1      44.200 -12.733 -31.311  1.00  0.00    -0.550 OA
ATOM      9  O   UNL     1      44.046 -14.578 -32.660  1.00  0.00    -0.550 OA
ENDBRANCH   6   7
ENDBRANCH   5   6
ENDBRANCH   4   5
ENDBRANCH   3   4
ENDBRANCH   2   3
ENDBRANCH   1   2
BRANCH   1  10
ATOM     10  C   UNL     1      45.416 -11.750 -39.272  1.00  0.00     0.000 C 
BRANCH  10  11
ATOM     11  C   UNL     1      46.108 -13.125 -39.248  1.00  0.00    -0.000 C 
BRANCH  11  12
ATOM     12  C   UNL     1      46.805 -13.418 -37.908  1.00  0.00    -0.000 C 
BRANCH  12  13
ATOM     13  C   UNL     1      45.976 -14.344 -37.002  1.00  0.00    -0.000 C 
BRANCH  13  14
ATOM     14  C   UNL     1      46.191 -14.061 -35.505  1.00  0.00    -0.000 C 
BRANCH  14  15
ATOM     15  C   UNL     1      47.409 -13.147 -35.253  1.00  0.00    -0.000 C 
BRANCH  15  16
ATOM     16  C   UNL     1      47.898 -13.163 -33.795  1.00  0.00    -0.003 C 
ATOM     17  C   UNL     1      47.480 -14.422 -33.038  1.00  0.00     0.004 C 
ENDBRANCH  15  16
ENDBRANCH  14  15
ENDBRANCH  13  14
ENDBRANCH  12  13
ENDBRANCH  11  12
ENDBRANCH  10  11
ENDBRANCH   1  10
TORSDOF 13
ENDMDL
MODEL 3
REMARK VINA RESULT:    -4.708      3.156      6.912
REMARK INTER + INTRA:         -10.230
REMARK INTER:                  -8.366
REMARK INTRA:                  -1.864
REMARK UNBOUND:                -1.944
REMARK SMILES CCCCCCCCCCCCCCC(=O)[O-]
REMARK SMILES IDX 9 1 10 2 11 3 12 4 13 5 14 6 15 7 16 8 17 9 8 10 7 11 6 12
REMARK SMILES IDX 5 13 4 14 3 15 2 16 1 17
REMARK H PARENT
REMARK Flexibility Score: inf
ROOT
ATOM      1  C   UNL     1      43.763 -14.557 -34.896  1.00  0.00     0.000 C 
ENDROOT
BRANCH   1   2
ATOM      2  C   UNL     1      43.132 -13.302 -34.259  1.00  0.00     0.000 C 
BRANCH   2   3
ATOM      3  C   UNL     1      43.675 -11.961 -34.782  1.00  0.00     0.000 C 
BRANCH   3   4
ATOM      4  C   UNL     1      43.736 -11.900 -36.319  1.00  0.00     0.000 C 
BRANCH   4   5
ATOM      5  C   UNL     1      42.348 -11.733 -36.958  1.00  0.00     0.006 C 
BRANCH   5   6
ATOM      6  C   UNL     1      42.405 -11.028 -38.320  1.00  0.00     0.053 C 
BRANCH   6   7
ATOM      7  C   UNL     1      42.992  -9.659 -38.173  1.00  0.00     0.041 C 
ATOM      8  O   UNL     1      44.147  -9.415 -38.607  1.00  0.00    -0.550 OA
ATOM      9  O   UNL     1      42.241  -8.639 -37.602  1.00  0.00    -0.550 OA
ENDBRANCH   6   7
ENDBRANCH   5   6
ENDBRANCH   4   5
ENDBRANCH   3   4
ENDBRANCH   2   3
ENDBRANCH   1   2
BRANCH   1  10
ATOM     10  C   UNL     1      44.120 -15.685 -33.907  1.00  0.00     0.000 C 
BRANCH  10  11
ATOM     11  C   UNL     1      44.756 -15.218 -32.584  1.00  0.00    -0.000 C 
BRANCH  11  12
ATOM     12  C   UNL     1      46.278 -15.028 -32.690  1.00  0.00    -0.000 C 
BRANCH  12  13
ATOM     13  C   UNL     1      46.693 -13.549 -32.621  1.00  0.00    -0.000 C 
BRANCH  13  14
ATOM     14  C   UNL     1      47.744 -13.175 -33.681  1.00  0.00    -0.000 C 
BRANCH  14  15
ATOM     15  C   UNL     1      47.132 -13.059 -35.094  1.00  0.00    -0.000 C 
BRANCH  15  16
ATOM     16  C   UNL     1      47.528 -14.211 -36.032  1.00  0.00    -0.003 C 
ATOM     17  C   UNL     1      46.594 -14.355 -37.231  1.00  0.00     0.004 C 
ENDBRANCH  15  16
ENDBRANCH  14  15
ENDBRANCH  13  14
ENDBRANCH  12  13
ENDBRANCH  11  12
ENDBRANCH  10  11
ENDBRANCH   1  10
TORSDOF 13
ENDMDL
MODEL 4
REMARK VINA RESULT:    -4.624      2.381      6.440
REMARK INTER + INTRA:         -10.082
REMARK INTER:                  -8.426
REMARK INTRA:                  -1.656
REMARK UNBOUND:                -1.944
REMARK SMILES CCCCCCCCCCCCCCC(=O)[O-]
REMARK SMILES IDX 9 1 10 2 11 3 12 4 13 5 14 6 15 7 16 8 17 9 8 10 7 11 6 12
REMARK SMILES IDX 5 13 4 14 3 15 2 16 1 17
REMARK H PARENT
REMARK Flexibility Score: inf
ROOT
ATOM      1  C   UNL     1      42.860 -12.751 -36.147  1.00  0.00     0.000 C 
ENDROOT
BRANCH   1   2
ATOM      2  C   UNL     1      43.718 -11.480 -36.308  1.00  0.00     0.000 C 
BRANCH   2   3
ATOM      3  C   UNL     1      43.307 -10.557 -37.469  1.00  0.00     0.000 C 
BRANCH   3   4
ATOM      4  C   UNL     1      42.114 -11.103 -38.272  1.00  0.00     0.000 C 
BRANCH   4   5
ATOM      5  C   UNL     1      42.243 -10.831 -39.780  1.00  0.00     0.006 C 
BRANCH   5   6
ATOM      6  C   UNL     1      43.703 -10.713 -40.237  1.00  0.00     0.053 C 
BRANCH   6   7
ATOM      7  C   UNL     1      44.171 -12.008 -40.823  1.00  0.00     0.041 C 
ATOM      8  O   UNL     1      43.853 -12.323 -41.998  1.00  0.00    -0.550 OA
ATOM      9  O   UNL     1      45.002 -12.843 -40.087  1.00  0.00    -0.550 OA
ENDBRANCH   6   7
ENDBRANCH   5   6
ENDBRANCH   4   5
ENDBRANCH   3   4
ENDBRANCH   2   3
ENDBRANCH   1   2
BRANCH   1  10
ATOM     10  C   UNL     1      42.782 -13.313 -34.713  1.00  0.00     0.000 C 
BRANCH  10  11
ATOM     11  C   UNL     1      43.151 -12.316 -33.599  1.00  0.00    -0.000 C 
BRANCH  11  12
ATOM     12  C   UNL     1      44.113 -12.915 -32.559  1.00  0.00    -0.000 C 
BRANCH  12  13
ATOM     13  C   UNL     1      44.303 -14.430 -32.734  1.00  0.00    -0.000 C 
BRANCH  13  14
ATOM     14  C   UNL     1      45.692 -14.798 -33.283  1.00  0.00    -0.000 C 
BRANCH  14  15
ATOM     15  C   UNL     1      46.604 -13.562 -33.436  1.00  0.00    -0.000 C 
BRANCH  15  16
ATOM     16  C   UNL     1      46.878 -13.179 -34.900  1.00  0.00    -0.003 C 
ATOM     17  C   UNL     1      46.341 -14.204 -35.898  1.00  0.00     0.004 C 
ENDBRANCH  15  16
ENDBRANCH  14  15
ENDBRANCH  13  14
ENDBRANCH  12  13
ENDBRANCH  11  12
ENDBRANCH  10  11
ENDBRANCH   1  10
TORSDOF 13
ENDMDL
MODEL 5
REMARK VINA RESULT:    -4.623      1.747      3.980
REMARK INTER + INTRA:         -10.079
REMARK INTER:                  -8.384
REMARK INTRA:                  -1.695
REMARK UNBOUND:                -1.944
REMARK SMILES CCCCCCCCCCCCCCC(=O)[O-]
REMARK SMILES IDX 9 1 10 2 11 3 12 4 13 5 14 6 15 7 16 8 17 9 8 10 7 11 6 12
REMARK SMILES IDX 5 13 4 14 3 15 2 16 1 17
REMARK H PARENT
REMARK Flexibility Score: inf
ROOT
ATOM      1  C   UNL     1      46.806 -12.744 -38.996  1.00  0.00     0.000 C 
ENDROOT
BRANCH   1   2
ATOM      2  C   UNL     1      46.093 -13.959 -38.370  1.00  0.00     0.000 C 
BRANCH   2   3
ATOM      3  C   UNL     1      46.748 -14.515 -37.093  1.00  0.00     0.000 C 
BRANCH   3   4
ATOM      4  C   UNL     1      47.589 -13.464 -36.348  1.00  0.00     0.000 C 
BRANCH   4   5
ATOM      5  C   UNL     1      47.234 -13.375 -34.855  1.00  0.00     0.006 C 
BRANCH   5   6
ATOM      6  C   UNL     1      46.121 -14.351 -34.453  1.00  0.00     0.053 C 
BRANCH   6   7
ATOM      7  C   UNL     1      46.123 -14.562 -32.971  1.00  0.00     0.041 C 
ATOM      8  O   UNL     1      45.093 -14.311 -32.294  1.00  0.00    -0.550 OA
ATOM      9  O   UNL     1      47.248 -15.084 -32.345  1.00  0.00    -0.550 OA
ENDBRANCH   6   7
ENDBRANCH   5   6
ENDBRANCH   4   5
ENDBRANCH   3   4
ENDBRANCH   2   3
ENDBRANCH   1   2
BRANCH   1  10
ATOM     10  C   UNL     1      45.872 -11.647 -39.547  1.00  0.00     0.000 C 
BRANCH  10  11
ATOM     11  C   UNL     1      44.679 -12.160 -40.374  1.00  0.00    -0.000 C 
BRANCH  11  12
ATOM     12  C   UNL     1      43.617 -11.076 -40.623  1.00  0.00    -0.000 C 
BRANCH  12  13
ATOM     13  C   UNL     1      42.358 -11.275 -39.764  1.00  0.00    -0.000 C 
BRANCH  13  14
ATOM     14  C   UNL     1      42.006 -10.034 -38.926  1.00  0.00    -0.000 C 
BRANCH  14  15
ATOM     15  C   UNL     1      42.708 -10.041 -37.550  1.00  0.00    -0.000 C 
BRANCH  15  16
ATOM     16  C   UNL     1      42.998 -11.454 -37.016  1.00  0.00    -0.003 C 
ATOM     17  C   UNL     1      44.252 -11.519 -36.146  1.00  0.00     0.004 C 
ENDBRANCH  15  16
ENDBRANCH  14  15
ENDBRANCH  13  14
ENDBRANCH  12  13
ENDBRANCH  11  12
ENDBRANCH  10  11
ENDBRANCH   1  10
TORSDOF 13
ENDMDL
MODEL 6
REMARK VINA RESULT:    -4.620      1.413      3.679
REMARK INTER + INTRA:         -10.075
REMARK INTER:                  -8.445
REMARK INTRA:                  -1.630
REMARK UNBOUND:                -1.944
REMARK SMILES CCCCCCCCCCCCCCC(=O)[O-]
REMARK SMILES IDX 9 1 10 2 11 3 12 4 13 5 14 6 15 7 16 8 17 9 8 10 7 11 6 12
REMARK SMILES IDX 5 13 4 14 3 15 2 16 1 17
REMARK H PARENT
REMARK Flexibility Score: inf
ROOT
ATOM      1  C   UNL     1      44.088 -11.986 -40.854  1.00  0.00     0.000 C 
ENDROOT
BRANCH   1   2
ATOM      2  C   UNL     1      45.369 -12.000 -39.996  1.00  0.00     0.000 C 
BRANCH   2   3
ATOM      3  C   UNL     1      45.714 -13.357 -39.358  1.00  0.00     0.000 C 
BRANCH   3   4
ATOM      4  C   UNL     1      46.769 -13.242 -38.244  1.00  0.00     0.000 C 
BRANCH   4   5
ATOM      5  C   UNL     1      46.481 -14.180 -37.060  1.00  0.00     0.006 C 
BRANCH   5   6
ATOM      6  C   UNL     1      47.637 -14.231 -36.052  1.00  0.00     0.053 C 
BRANCH   6   7
ATOM      7  C   UNL     1      47.137 -13.941 -34.672  1.00  0.00     0.041 C 
ATOM      8  O   UNL     1      47.493 -12.891 -34.077  1.00  0.00    -0.550 OA
ATOM      9  O   UNL     1      46.237 -14.806 -34.062  1.00  0.00    -0.550 OA
ENDBRANCH   6   7
ENDBRANCH   5   6
ENDBRANCH   4   5
ENDBRANCH   3   4
ENDBRANCH   2   3
ENDBRANCH   1   2
BRANCH   1  10
ATOM     10  C   UNL     1      43.554 -10.584 -41.214  1.00  0.00     0.000 C 
BRANCH  10  11
ATOM     11  C   UNL     1      42.072 -10.343 -40.876  1.00  0.00    -0.000 C 
BRANCH  11  12
ATOM     12  C   UNL     1      41.880  -9.547 -39.574  1.00  0.00    -0.000 C 
BRANCH  12  13
ATOM     13  C   UNL     1      41.814 -10.452 -38.333  1.00  0.00    -0.000 C 
BRANCH  13  14
ATOM     14  C   UNL     1      43.113 -10.431 -37.509  1.00  0.00    -0.000 C 
BRANCH  14  15
ATOM     15  C   UNL     1      43.349 -11.760 -36.759  1.00  0.00    -0.000 C 
BRANCH  15  16
ATOM     16  C   UNL     1      44.258 -11.617 -35.527  1.00  0.00    -0.003 C 
ATOM     17  C   UNL     1      43.748 -12.391 -34.313  1.00  0.00     0.004 C 
ENDBRANCH  15  16
ENDBRANCH  14  15
ENDBRANCH  13  14
ENDBRANCH  12  13
ENDBRANCH  11  12
ENDBRANCH  10  11
ENDBRANCH   1  10
TORSDOF 13
ENDMDL
MODEL 7
REMARK VINA RESULT:    -4.612      2.575      6.364
REMARK INTER + INTRA:         -10.061
REMARK INTER:                  -8.050
REMARK INTRA:                  -2.011
REMARK UNBOUND:                -1.944
REMARK SMILES CCCCCCCCCCCCCCC(=O)[O-]
REMARK SMILES IDX 9 1 10 2 11 3 12 4 13 5 14 6 15 7 16 8 17 9 8 10 7 11 6 12
REMARK SMILES IDX 5 13 4 14 3 15 2 16 1 17
REMARK H PARENT
REMARK Flexibility Score: inf
ROOT
ATOM      1  C   UNL     1      44.890 -12.275 -35.951  1.00  0.00     0.000 C 
ENDROOT
BRANCH   1   2
ATOM      2  C   UNL     1      43.504 -11.655 -35.683  1.00  0.00     0.000 C 
BRANCH   2   3
ATOM      3  C   UNL     1      42.308 -12.493 -36.167  1.00  0.00     0.000 C 
BRANCH   3   4
ATOM      4  C   UNL     1      41.366 -11.708 -37.095  1.00  0.00     0.000 C 
BRANCH   4   5
ATOM      5  C   UNL     1      42.111 -10.674 -37.955  1.00  0.00     0.006 C 
BRANCH   5   6
ATOM      6  C   UNL     1      42.630 -11.265 -39.272  1.00  0.00     0.053 C 
BRANCH   6   7
ATOM      7  C   UNL     1      44.105 -11.047 -39.396  1.00  0.00     0.041 C 
ATOM      8  O   UNL     1      44.807 -11.838 -40.077  1.00  0.00    -0.550 OA
ATOM      9  O   UNL     1      44.696  -9.940 -38.801  1.00  0.00    -0.550 OA
ENDBRANCH   6   7
ENDBRANCH   5   6
ENDBRANCH   4   5
ENDBRANCH   3   4
ENDBRANCH   2   3
ENDBRANCH   1   2
BRANCH   1  10
ATOM     10  C   UNL     1      44.875 -13.597 -36.745  1.00  0.00     0.000 C 
BRANCH  10  11
ATOM     11  C   UNL     1      46.263 -14.188 -37.056  1.00  0.00    -0.000 C 
BRANCH  11  12
ATOM     12  C   UNL     1      47.408 -13.390 -36.411  1.00  0.00    -0.000 C 
BRANCH  12  13
ATOM     13  C   UNL     1      47.999 -14.096 -35.180  1.00  0.00    -0.000 C 
BRANCH  13  14
ATOM     14  C   UNL     1      48.003 -13.204 -33.926  1.00  0.00    -0.000 C 
BRANCH  14  15
ATOM     15  C   UNL     1      46.785 -13.472 -33.016  1.00  0.00    -0.000 C 
BRANCH  15  16
ATOM     16  C   UNL     1      46.296 -14.930 -33.057  1.00  0.00    -0.003 C 
ATOM     17  C   UNL     1      44.804 -15.053 -33.358  1.00  0.00     0.004 C 
ENDBRANCH  15  16
ENDBRANCH  14  15
ENDBRANCH  13  14
ENDBRANCH  12  13
ENDBRANCH  11  12
ENDBRANCH  10  11
ENDBRANCH   1  10
TORSDOF 13
ENDMDL
MODEL 8
REMARK VINA RESULT:    -4.602      2.153      4.476
REMARK INTER + INTRA:         -10.043
REMARK INTER:                  -8.185
REMARK INTRA:                  -1.859
REMARK UNBOUND:                -1.944
REMARK SMILES CCCCCCCCCCCCCCC(=O)[O-]
REMARK SMILES IDX 9 1 10 2 11 3 12 4 13 5 14 6 15 7 16 8 17 9 8 10 7 11 6 12
REMARK SMILES IDX 5 13 4 14 3 15 2 16 1 17
REMARK H PARENT
REMARK Flexibility Score: inf
ROOT
ATOM      1  C   UNL     1      45.450 -13.025 -39.665  1.00  0.00     0.000 C 
ENDROOT
BRANCH   1   2
ATOM      2  C   UNL     1      46.563 -13.148 -38.605  1.00  0.00     0.000 C 
BRANCH   2   3
ATOM      3  C   UNL     1      46.334 -14.237 -37.541  1.00  0.00     0.000 C 
BRANCH   3   4
ATOM      4  C   UNL     1      47.395 -14.215 -36.427  1.00  0.00     0.000 C 
BRANCH   4   5
ATOM      5  C   UNL     1      46.775 -14.243 -35.021  1.00  0.00     0.006 C 
BRANCH   5   6
ATOM      6  C   UNL     1      47.329 -13.142 -34.108  1.00  0.00     0.053 C 
BRANCH   6   7
ATOM      7  C   UNL     1      46.962 -13.413 -32.683  1.00  0.00     0.041 C 
ATOM      8  O   UNL     1      47.767 -13.132 -31.757  1.00  0.00    -0.550 OA
ATOM      9  O   UNL     1      45.710 -13.930 -32.373  1.00  0.00    -0.550 OA
ENDBRANCH   6   7
ENDBRANCH   5   6
ENDBRANCH   4   5
ENDBRANCH   3   4
ENDBRANCH   2   3
ENDBRANCH   1   2
BRANCH   1  10
ATOM     10  C   UNL     1      44.865 -11.609 -39.841  1.00  0.00     0.000 C 
BRANCH  10  11
ATOM     11  C   UNL     1      43.327 -11.531 -39.819  1.00  0.00    -0.000 C 
BRANCH  11  12
ATOM     12  C   UNL     1      42.765 -11.241 -38.417  1.00  0.00    -0.000 C 
BRANCH  12  13
ATOM     13  C   UNL     1      43.825 -10.662 -37.465  1.00  0.00    -0.000 C 
BRANCH  13  14
ATOM     14  C   UNL     1      44.071 -11.552 -36.234  1.00  0.00    -0.000 C 
BRANCH  14  15
ATOM     15  C   UNL     1      43.065 -12.721 -36.150  1.00  0.00    -0.000 C 
BRANCH  15  16
ATOM     16  C   UNL     1      43.187 -13.544 -34.857  1.00  0.00    -0.003 C 
ATOM     17  C   UNL     1      43.286 -15.047 -35.111  1.00  0.00     0.004 C 
ENDBRANCH  15  16
ENDBRANCH  14  15
ENDBRANCH  13  14
ENDBRANCH  12  13
ENDBRANCH  11  12
ENDBRANCH  10  11
ENDBRANCH   1  10
TORSDOF 13
ENDMDL
MODEL 9
REMARK VINA RESULT:    -4.569      3.113      6.353
REMARK INTER + INTRA:          -9.985
REMARK INTER:                  -8.171
REMARK INTRA:                  -1.814
REMARK UNBOUND:                -1.944
REMARK SMILES CCCCCCCCCCCCCCC(=O)[O-]
REMARK SMILES IDX 9 1 10 2 11 3 12 4 13 5 14 6 15 7 16 8 17 9 8 10 7 11 6 12
REMARK SMILES IDX 5 13 4 14 3 15 2 16 1 17
REMARK H PARENT
REMARK Flexibility Score: inf
ROOT
ATOM      1  C   UNL     1      42.484 -12.987 -34.752  1.00  0.00     0.000 C 
ENDROOT
BRANCH   1   2
ATOM      2  C   UNL     1      42.905 -12.668 -36.200  1.00  0.00     0.000 C 
BRANCH   2   3
ATOM      3  C   UNL     1      43.851 -11.464 -36.356  1.00  0.00     0.000 C 
BRANCH   3   4
ATOM      4  C   UNL     1      43.417 -10.506 -37.479  1.00  0.00     0.000 C 
BRANCH   4   5
ATOM      5  C   UNL     1      42.419 -11.152 -38.453  1.00  0.00     0.006 C 
BRANCH   5   6
ATOM      6  C   UNL     1      43.011 -11.365 -39.853  1.00  0.00     0.053 C 
BRANCH   6   7
ATOM      7  C   UNL     1      42.845 -10.131 -40.682  1.00  0.00     0.041 C 
ATOM      8  O   UNL     1      43.599  -9.924 -41.668  1.00  0.00    -0.550 OA
ATOM      9  O   UNL     1      41.824  -9.233 -40.395  1.00  0.00    -0.550 OA
ENDBRANCH   6   7
ENDBRANCH   5   6
ENDBRANCH   4   5
ENDBRANCH   3   4
ENDBRANCH   2   3
ENDBRANCH   1   2
BRANCH   1  10
ATOM     10  C   UNL     1      43.507 -12.588 -33.668  1.00  0.00     0.000 C 
BRANCH  10  11
ATOM     11  C   UNL     1      44.121 -13.763 -32.884  1.00  0.00    -0.000 C 
BRANCH  11  12
ATOM     12  C   UNL     1      45.646 -13.861 -33.055  1.00  0.00    -0.000 C 
BRANCH  12  13
ATOM     13  C   UNL     1      46.057 -14.240 -34.487  1.00  0.00    -0.000 C 
BRANCH  13  14
ATOM     14  C   UNL     1      46.988 -13.200 -35.135  1.00  0.00    -0.000 C 
BRANCH  14  15
ATOM     15  C   UNL     1      47.277 -13.521 -36.617  1.00  0.00    -0.000 C 
BRANCH  15  16
ATOM     16  C   UNL     1      46.123 -14.251 -37.324  1.00  0.00    -0.003 C 
ATOM     17  C   UNL     1      45.804 -13.673 -38.701  1.00  0.00     0.004 C 
ENDBRANCH  15  16
ENDBRANCH  14  15
ENDBRANCH  13  14
ENDBRANCH  12  13
ENDBRANCH  11  12
ENDBRANCH  10  11
ENDBRANCH   1  10
TORSDOF 13
ENDMDL
