MODEL 1
REMARK VINA RESULT:    -3.735      0.000      0.000
REMARK INTER + INTRA:          -4.314
REMARK INTER:                  -4.063
REMARK INTRA:                  -0.251
REMARK UNBOUND:                -0.251
REMARK SMILES O=C([O-])c1ccccc1O
REMARK SMILES IDX 4 1 9 2 5 3 8 4 6 5 7 6 2 7 1 8 3 9 10 10
REMARK H PARENT 10 11
REMARK Flexibility Score: inf
ROOT
ATOM      1  C   UNL     1      37.239 181.793 172.230  1.00  0.00     0.039 A 
ATOM      2  C   UNL     1      38.520 181.348 171.822  1.00  0.00     0.124 A 
ATOM      3  C   UNL     1      37.003 182.018 173.600  1.00  0.00     0.014 A 
ATOM      4  C   UNL     1      39.525 181.139 172.778  1.00  0.00     0.047 A 
ATOM      5  C   UNL     1      38.013 181.805 174.542  1.00  0.00     0.001 A 
ATOM      6  C   UNL     1      39.271 181.367 174.132  1.00  0.00     0.004 A 
ENDROOT
BRANCH   1   7
ATOM      7  C   UNL     1      36.142 182.029 171.257  1.00  0.00     0.075 C 
ATOM      8  O   UNL     1      35.009 181.502 171.416  1.00  0.00    -0.545 OA
ATOM      9  O   UNL     1      36.350 182.841 170.149  1.00  0.00    -0.545 OA
ENDBRANCH   1   7
BRANCH   2  10
ATOM     10  O   UNL     1      38.798 181.114 170.475  1.00  0.00    -0.507 OA
ATOM     11  H   UNL     1      39.252 181.811 169.896  1.00  0.00     0.293 HD
ENDBRANCH   2  10
TORSDOF 2
ENDMDL
MODEL 2
REMARK VINA RESULT:    -3.650     20.556     21.516
REMARK INTER + INTRA:          -4.221
REMARK INTER:                  -3.972
REMARK INTRA:                  -0.249
REMARK UNBOUND:                -0.251
REMARK SMILES O=C([O-])c1ccccc1O
REMARK SMILES IDX 4 1 9 2 5 3 8 4 6 5 7 6 2 7 1 8 3 9 10 10
REMARK H PARENT 10 11
REMARK Flexibility Score: inf
ROOT
ATOM      1  C   UNL     1      31.618 166.888 158.305  1.00  0.00     0.039 A 
ATOM      2  C   UNL     1      32.925 166.730 157.786  1.00  0.00     0.124 A 
ATOM      3  C   UNL     1      30.608 167.390 157.461  1.00  0.00     0.014 A 
ATOM      4  C   UNL     1      33.194 167.073 156.452  1.00  0.00     0.047 A 
ATOM      5  C   UNL     1      30.890 167.728 156.135  1.00  0.00     0.001 A 
ATOM      6  C   UNL     1      32.180 167.569 155.631  1.00  0.00     0.004 A 
ENDROOT
BRANCH   1   7
ATOM      7  C   UNL     1      31.282 166.541 159.710  1.00  0.00     0.075 C 
ATOM      8  O   UNL     1      30.509 167.265 160.391  1.00  0.00    -0.545 OA
ATOM      9  O   UNL     1      31.820 165.403 160.298  1.00  0.00    -0.545 OA
ENDBRANCH   1   7
BRANCH   2  10
ATOM     10  O   UNL     1      33.956 166.236 158.586  1.00  0.00    -0.507 OA
ATOM     11  H   UNL     1      33.779 165.859 159.510  1.00  0.00     0.293 HD
ENDBRANCH   2  10
TORSDOF 2
ENDMDL
MODEL 3
REMARK VINA RESULT:    -3.619      1.533      2.011
REMARK INTER + INTRA:          -4.187
REMARK INTER:                  -3.965
REMARK INTRA:                  -0.222
REMARK UNBOUND:                -0.251
REMARK SMILES O=C([O-])c1ccccc1O
REMARK SMILES IDX 4 1 9 2 5 3 8 4 6 5 7 6 2 7 1 8 3 9 10 10
REMARK H PARENT 10 11
REMARK Flexibility Score: inf
ROOT
ATOM      1  C   UNL     1      38.516 181.976 172.875  1.00  0.00     0.039 A 
ATOM      2  C   UNL     1      39.643 181.124 172.960  1.00  0.00     0.124 A 
ATOM      3  C   UNL     1      38.464 183.117 173.699  1.00  0.00     0.014 A 
ATOM      4  C   UNL     1      40.682 181.425 173.853  1.00  0.00     0.047 A 
ATOM      5  C   UNL     1      39.506 183.405 174.584  1.00  0.00     0.001 A 
ATOM      6  C   UNL     1      40.613 182.561 174.661  1.00  0.00     0.004 A 
ENDROOT
BRANCH   1   7
ATOM      7  C   UNL     1      37.390 181.701 171.947  1.00  0.00     0.075 C 
ATOM      8  O   UNL     1      37.561 181.703 170.699  1.00  0.00    -0.545 OA
ATOM      9  O   UNL     1      36.119 181.435 172.445  1.00  0.00    -0.545 OA
ENDBRANCH   1   7
BRANCH   2  10
ATOM     10  O   UNL     1      39.736 179.982 172.162  1.00  0.00    -0.507 OA
ATOM     11  H   UNL     1      40.275 179.976 171.303  1.00  0.00     0.293 HD
ENDBRANCH   2  10
TORSDOF 2
ENDMDL
MODEL 4
REMARK VINA RESULT:    -3.571      3.613      4.779
REMARK INTER + INTRA:          -4.136
REMARK INTER:                  -3.886
REMARK INTRA:                  -0.249
REMARK UNBOUND:                -0.251
REMARK SMILES O=C([O-])c1ccccc1O
REMARK SMILES IDX 4 1 9 2 5 3 8 4 6 5 7 6 2 7 1 8 3 9 10 10
REMARK H PARENT 10 11
REMARK Flexibility Score: inf
ROOT
ATOM      1  C   UNL     1      40.318 181.152 173.582  1.00  0.00     0.039 A 
ATOM      2  C   UNL     1      40.049 182.407 174.179  1.00  0.00     0.124 A 
ATOM      3  C   UNL     1      39.411 180.644 172.632  1.00  0.00     0.014 A 
ATOM      4  C   UNL     1      38.895 183.120 173.820  1.00  0.00     0.047 A 
ATOM      5  C   UNL     1      38.265 181.364 172.284  1.00  0.00     0.001 A 
ATOM      6  C   UNL     1      38.008 182.599 172.877  1.00  0.00     0.004 A 
ENDROOT
BRANCH   1   7
ATOM      7  C   UNL     1      41.525 180.359 173.928  1.00  0.00     0.075 C 
ATOM      8  O   UNL     1      41.892 180.223 175.125  1.00  0.00    -0.545 OA
ATOM      9  O   UNL     1      42.274 179.750 172.927  1.00  0.00    -0.545 OA
ENDBRANCH   1   7
BRANCH   2  10
ATOM     10  O   UNL     1      40.921 182.950 175.124  1.00  0.00    -0.507 OA
ATOM     11  H   UNL     1      40.894 183.933 175.371  1.00  0.00     0.293 HD
ENDBRANCH   2  10
TORSDOF 2
ENDMDL
MODEL 5
REMARK VINA RESULT:    -3.514     21.376     22.019
REMARK INTER + INTRA:          -4.074
REMARK INTER:                  -3.824
REMARK INTRA:                  -0.250
REMARK UNBOUND:                -0.251
REMARK SMILES O=C([O-])c1ccccc1O
REMARK SMILES IDX 4 1 9 2 5 3 8 4 6 5 7 6 2 7 1 8 3 9 10 10
REMARK H PARENT 10 11
REMARK Flexibility Score: inf
ROOT
ATOM      1  C   UNL     1      31.195 167.625 156.492  1.00  0.00     0.039 A 
ATOM      2  C   UNL     1      31.000 167.096 157.791  1.00  0.00     0.124 A 
ATOM      3  C   UNL     1      32.486 167.585 155.930  1.00  0.00     0.014 A 
ATOM      4  C   UNL     1      32.083 166.545 158.491  1.00  0.00     0.047 A 
ATOM      5  C   UNL     1      33.556 167.034 156.639  1.00  0.00     0.001 A 
ATOM      6  C   UNL     1      33.355 166.515 157.917  1.00  0.00     0.004 A 
ENDROOT
BRANCH   1   7
ATOM      7  C   UNL     1      30.081 168.219 155.709  1.00  0.00     0.075 C 
ATOM      8  O   UNL     1      28.965 167.642 155.627  1.00  0.00    -0.545 OA
ATOM      9  O   UNL     1      30.256 169.430 155.049  1.00  0.00    -0.545 OA
ENDBRANCH   1   7
BRANCH   2  10
ATOM     10  O   UNL     1      29.738 167.113 158.386  1.00  0.00    -0.507 OA
ATOM     11  H   UNL     1      29.022 166.441 158.137  1.00  0.00     0.293 HD
ENDBRANCH   2  10
TORSDOF 2
ENDMDL
MODEL 6
REMARK VINA RESULT:    -3.495     20.567     21.665
REMARK INTER + INTRA:          -4.053
REMARK INTER:                  -3.798
REMARK INTRA:                  -0.255
REMARK UNBOUND:                -0.251
REMARK SMILES O=C([O-])c1ccccc1O
REMARK SMILES IDX 4 1 9 2 5 3 8 4 6 5 7 6 2 7 1 8 3 9 10 10
REMARK H PARENT 10 11
REMARK Flexibility Score: inf
ROOT
ATOM      1  C   UNL     1      31.720 166.746 158.383  1.00  0.00     0.039 A 
ATOM      2  C   UNL     1      30.704 167.136 157.477  1.00  0.00     0.124 A 
ATOM      3  C   UNL     1      33.055 166.719 157.935  1.00  0.00     0.014 A 
ATOM      4  C   UNL     1      31.038 167.487 156.161  1.00  0.00     0.047 A 
ATOM      5  C   UNL     1      33.373 167.070 156.621  1.00  0.00     0.001 A 
ATOM      6  C   UNL     1      32.367 167.454 155.735  1.00  0.00     0.004 A 
ENDROOT
BRANCH   1   7
ATOM      7  C   UNL     1      31.419 166.365 159.786  1.00  0.00     0.075 C 
ATOM      8  O   UNL     1      31.894 165.314 160.291  1.00  0.00    -0.545 OA
ATOM      9  O   UNL     1      30.601 167.170 160.571  1.00  0.00    -0.545 OA
ENDBRANCH   1   7
BRANCH   2  10
ATOM     10  O   UNL     1      29.368 167.178 157.878  1.00  0.00    -0.507 OA
ATOM     11  H   UNL     1      28.610 167.172 157.206  1.00  0.00     0.293 HD
ENDBRANCH   2  10
TORSDOF 2
ENDMDL
MODEL 7
REMARK VINA RESULT:    -3.481      3.768      5.239
REMARK INTER + INTRA:          -4.038
REMARK INTER:                  -3.796
REMARK INTRA:                  -0.242
REMARK UNBOUND:                -0.251
REMARK SMILES O=C([O-])c1ccccc1O
REMARK SMILES IDX 4 1 9 2 5 3 8 4 6 5 7 6 2 7 1 8 3 9 10 10
REMARK H PARENT 10 11
REMARK Flexibility Score: inf
ROOT
ATOM      1  C   UNL     1      34.074 180.006 172.181  1.00  0.00     0.039 A 
ATOM      2  C   UNL     1      32.975 179.735 171.332  1.00  0.00     0.124 A 
ATOM      3  C   UNL     1      34.467 179.027 173.115  1.00  0.00     0.014 A 
ATOM      4  C   UNL     1      32.300 178.509 171.430  1.00  0.00     0.047 A 
ATOM      5  C   UNL     1      33.786 177.811 173.203  1.00  0.00     0.001 A 
ATOM      6  C   UNL     1      32.704 177.552 172.362  1.00  0.00     0.004 A 
ENDROOT
BRANCH   1   7
ATOM      7  C   UNL     1      34.821 181.287 172.117  1.00  0.00     0.075 C 
ATOM      8  O   UNL     1      35.356 181.674 171.044  1.00  0.00    -0.545 OA
ATOM      9  O   UNL     1      34.942 182.086 173.248  1.00  0.00    -0.545 OA
ENDBRANCH   1   7
BRANCH   2  10
ATOM     10  O   UNL     1      32.551 180.674 170.391  1.00  0.00    -0.507 OA
ATOM     11  H   UNL     1      33.200 181.115 169.748  1.00  0.00     0.293 HD
ENDBRANCH   2  10
TORSDOF 2
ENDMDL
MODEL 8
REMARK VINA RESULT:    -3.463      2.692      3.741
REMARK INTER + INTRA:          -4.018
REMARK INTER:                  -3.775
REMARK INTRA:                  -0.243
REMARK UNBOUND:                -0.251
REMARK SMILES O=C([O-])c1ccccc1O
REMARK SMILES IDX 4 1 9 2 5 3 8 4 6 5 7 6 2 7 1 8 3 9 10 10
REMARK H PARENT 10 11
REMARK Flexibility Score: inf
ROOT
ATOM      1  C   UNL     1      39.947 180.763 173.506  1.00  0.00     0.039 A 
ATOM      2  C   UNL     1      40.876 181.325 174.414  1.00  0.00     0.124 A 
ATOM      3  C   UNL     1      39.925 179.365 173.336  1.00  0.00     0.014 A 
ATOM      4  C   UNL     1      41.752 180.490 175.124  1.00  0.00     0.047 A 
ATOM      5  C   UNL     1      40.804 178.546 174.048  1.00  0.00     0.001 A 
ATOM      6  C   UNL     1      41.715 179.107 174.941  1.00  0.00     0.004 A 
ENDROOT
BRANCH   1   7
ATOM      7  C   UNL     1      38.998 181.603 172.731  1.00  0.00     0.075 C 
ATOM      8  O   UNL     1      38.451 182.612 173.249  1.00  0.00    -0.545 OA
ATOM      9  O   UNL     1      38.697 181.284 171.412  1.00  0.00    -0.545 OA
ENDBRANCH   1   7
BRANCH   2  10
ATOM     10  O   UNL     1      40.932 182.704 174.616  1.00  0.00    -0.507 OA
ATOM     11  H   UNL     1      41.141 183.102 175.525  1.00  0.00     0.293 HD
ENDBRANCH   2  10
TORSDOF 2
ENDMDL
