MODEL 1
REMARK VINA RESULT:    -4.973      0.000      0.000
REMARK INTER + INTRA:          -7.346
REMARK INTER:                  -7.008
REMARK INTRA:                  -0.338
REMARK UNBOUND:                -0.338
REMARK SMILES CCCCCCCCC(=O)[O-]
REMARK SMILES IDX 6 1 7 2 8 3 9 4 10 5 11 6 5 7 4 8 3 9 2 10 1 11
REMARK H PARENT
REMARK Flexibility Score: inf
ROOT
ATOM      1  C   UNL     1       9.737   1.882 -36.167  1.00  0.00     0.000 C 
ENDROOT
BRANCH   1   2
ATOM      2  C   UNL     1       8.416   1.534 -36.870  1.00  0.00     0.006 C 
BRANCH   2   3
ATOM      3  C   UNL     1       7.900   0.137 -36.502  1.00  0.00     0.053 C 
BRANCH   3   4
ATOM      4  C   UNL     1       8.342  -0.867 -37.518  1.00  0.00     0.041 C 
ATOM      5  O   UNL     1       8.970  -0.496 -38.544  1.00  0.00    -0.550 OA
ATOM      6  O   UNL     1       8.018  -2.208 -37.358  1.00  0.00    -0.550 OA
ENDBRANCH   3   4
ENDBRANCH   2   3
ENDBRANCH   1   2
BRANCH   1   7
ATOM      7  C   UNL     1       9.789   1.374 -34.718  1.00  0.00     0.000 C 
BRANCH   7   8
ATOM      8  C   UNL     1      11.185   1.586 -34.112  1.00  0.00    -0.000 C 
BRANCH   8   9
ATOM      9  C   UNL     1      12.133   2.341 -35.057  1.00  0.00    -0.000 C 
BRANCH   9  10
ATOM     10  C   UNL     1      13.595   1.894 -34.910  1.00  0.00    -0.003 C 
ATOM     11  C   UNL     1      14.159   2.299 -33.551  1.00  0.00     0.004 C 
ENDBRANCH   9  10
ENDBRANCH   8   9
ENDBRANCH   7   8
ENDBRANCH   1   7
TORSDOF 7
ENDMDL
MODEL 2
REMARK VINA RESULT:    -4.889      3.509      5.739
REMARK INTER + INTRA:          -7.228
REMARK INTER:                  -6.870
REMARK INTRA:                  -0.358
REMARK UNBOUND:                -0.338
REMARK SMILES CCCCCCCCC(=O)[O-]
REMARK SMILES IDX 6 1 7 2 8 3 9 4 10 5 11 6 5 7 4 8 3 9 2 10 1 11
REMARK H PARENT
REMARK Flexibility Score: inf
ROOT
ATOM      1  C   UNL     1       9.628   1.348 -34.468  1.00  0.00     0.000 C 
ENDROOT
BRANCH   1   2
ATOM      2  C   UNL     1      10.898   1.678 -33.669  1.00  0.00     0.006 C 
BRANCH   2   3
ATOM      3  C   UNL     1      12.129   1.866 -34.565  1.00  0.00     0.053 C 
BRANCH   3   4
ATOM      4  C   UNL     1      13.305   2.306 -33.751  1.00  0.00     0.041 C 
ATOM      5  O   UNL     1      14.453   2.343 -34.265  1.00  0.00    -0.550 OA
ATOM      6  O   UNL     1      13.141   2.627 -32.410  1.00  0.00    -0.550 OA
ENDBRANCH   3   4
ENDBRANCH   2   3
ENDBRANCH   1   2
BRANCH   1   7
ATOM      7  C   UNL     1       9.712   1.810 -35.932  1.00  0.00     0.000 C 
BRANCH   7   8
ATOM      8  C   UNL     1       8.320   2.169 -36.474  1.00  0.00    -0.000 C 
BRANCH   8   9
ATOM      9  C   UNL     1       7.936   1.346 -37.713  1.00  0.00    -0.000 C 
BRANCH   9  10
ATOM     10  C   UNL     1       9.062   0.407 -38.172  1.00  0.00    -0.003 C 
ATOM     11  C   UNL     1       8.591  -1.044 -38.197  1.00  0.00     0.004 C 
ENDBRANCH   9  10
ENDBRANCH   8   9
ENDBRANCH   7   8
ENDBRANCH   1   7
TORSDOF 7
ENDMDL
MODEL 3
REMARK VINA RESULT:    -4.831      1.880      2.117
REMARK INTER + INTRA:          -7.146
REMARK INTER:                  -6.825
REMARK INTRA:                  -0.321
REMARK UNBOUND:                -0.338
REMARK SMILES CCCCCCCCC(=O)[O-]
REMARK SMILES IDX 6 1 7 2 8 3 9 4 10 5 11 6 5 7 4 8 3 9 2 10 1 11
REMARK H PARENT
REMARK Flexibility Score: inf
ROOT
ATOM      1  C   UNL     1       9.682   1.714 -36.003  1.00  0.00     0.000 C 
ENDROOT
BRANCH   1   2
ATOM      2  C   UNL     1       8.722   0.687 -36.624  1.00  0.00     0.006 C 
BRANCH   2   3
ATOM      3  C   UNL     1       7.252   1.113 -36.519  1.00  0.00     0.053 C 
BRANCH   3   4
ATOM      4  C   UNL     1       6.617   0.504 -35.309  1.00  0.00     0.041 C 
ATOM      5  O   UNL     1       6.455   1.190 -34.266  1.00  0.00    -0.550 OA
ATOM      6  O   UNL     1       6.250  -0.835 -35.316  1.00  0.00    -0.550 OA
ENDBRANCH   3   4
ENDBRANCH   2   3
ENDBRANCH   1   2
BRANCH   1   7
ATOM      7  C   UNL     1       9.962   1.441 -34.517  1.00  0.00     0.000 C 
BRANCH   7   8
ATOM      8  C   UNL     1      11.432   1.727 -34.174  1.00  0.00    -0.000 C 
BRANCH   8   9
ATOM      9  C   UNL     1      12.185   2.416 -35.323  1.00  0.00    -0.000 C 
BRANCH   9  10
ATOM     10  C   UNL     1      13.702   2.464 -35.091  1.00  0.00    -0.003 C 
ATOM     11  C   UNL     1      14.040   2.250 -33.618  1.00  0.00     0.004 C 
ENDBRANCH   9  10
ENDBRANCH   8   9
ENDBRANCH   7   8
ENDBRANCH   1   7
TORSDOF 7
ENDMDL
MODEL 4
REMARK VINA RESULT:    -4.530      3.201      3.668
REMARK INTER + INTRA:          -6.722
REMARK INTER:                  -6.500
REMARK INTRA:                  -0.222
REMARK UNBOUND:                -0.338
REMARK SMILES CCCCCCCCC(=O)[O-]
REMARK SMILES IDX 6 1 7 2 8 3 9 4 10 5 11 6 5 7 4 8 3 9 2 10 1 11
REMARK H PARENT
REMARK Flexibility Score: inf
ROOT
ATOM      1  C   UNL     1       8.274   1.750 -35.458  1.00  0.00     0.000 C 
ENDROOT
BRANCH   1   2
ATOM      2  C   UNL     1       8.081   1.363 -33.984  1.00  0.00     0.006 C 
BRANCH   2   3
ATOM      3  C   UNL     1       6.698   1.755 -33.446  1.00  0.00     0.053 C 
BRANCH   3   4
ATOM      4  C   UNL     1       6.170   0.689 -32.539  1.00  0.00     0.041 C 
ATOM      5  O   UNL     1       6.541   0.639 -31.337  1.00  0.00    -0.550 OA
ATOM      6  O   UNL     1       5.306  -0.280 -33.033  1.00  0.00    -0.550 OA
ENDBRANCH   3   4
ENDBRANCH   2   3
ENDBRANCH   1   2
BRANCH   1   7
ATOM      7  C   UNL     1       9.722   1.558 -35.936  1.00  0.00     0.000 C 
BRANCH   7   8
ATOM      8  C   UNL     1      10.704   1.637 -34.757  1.00  0.00    -0.000 C 
BRANCH   8   9
ATOM      9  C   UNL     1      12.027   2.324 -35.132  1.00  0.00    -0.000 C 
BRANCH   9  10
ATOM     10  C   UNL     1      13.254   1.594 -34.566  1.00  0.00    -0.003 C 
ATOM     11  C   UNL     1      13.900   2.397 -33.441  1.00  0.00     0.004 C 
ENDBRANCH   9  10
ENDBRANCH   8   9
ENDBRANCH   7   8
ENDBRANCH   1   7
TORSDOF 7
ENDMDL
MODEL 5
REMARK VINA RESULT:    -4.518      4.459      6.458
REMARK INTER + INTRA:          -6.705
REMARK INTER:                  -6.470
REMARK INTRA:                  -0.235
REMARK UNBOUND:                -0.338
REMARK SMILES CCCCCCCCC(=O)[O-]
REMARK SMILES IDX 6 1 7 2 8 3 9 4 10 5 11 6 5 7 4 8 3 9 2 10 1 11
REMARK H PARENT
REMARK Flexibility Score: inf
ROOT
ATOM      1  C   UNL     1      11.474   1.412 -34.082  1.00  0.00     0.000 C 
ENDROOT
BRANCH   1   2
ATOM      2  C   UNL     1      11.870   2.598 -33.189  1.00  0.00     0.006 C 
BRANCH   2   3
ATOM      3  C   UNL     1      11.322   2.473 -31.762  1.00  0.00     0.053 C 
BRANCH   3   4
ATOM      4  C   UNL     1      12.321   2.984 -30.773  1.00  0.00     0.041 C 
ATOM      5  O   UNL     1      13.518   3.164 -31.117  1.00  0.00    -0.550 OA
ATOM      6  O   UNL     1      11.942   3.214 -29.457  1.00  0.00    -0.550 OA
ENDBRANCH   3   4
ENDBRANCH   2   3
ENDBRANCH   1   2
BRANCH   1   7
ATOM      7  C   UNL     1      10.008   1.477 -34.539  1.00  0.00     0.000 C 
BRANCH   7   8
ATOM      8  C   UNL     1       9.915   1.813 -36.036  1.00  0.00    -0.000 C 
BRANCH   8   9
ATOM      9  C   UNL     1       8.478   2.116 -36.487  1.00  0.00    -0.000 C 
BRANCH   9  10
ATOM     10  C   UNL     1       7.907   1.033 -37.414  1.00  0.00    -0.003 C 
ATOM     11  C   UNL     1       9.015   0.363 -38.222  1.00  0.00     0.004 C 
ENDBRANCH   9  10
ENDBRANCH   8   9
ENDBRANCH   7   8
ENDBRANCH   1   7
TORSDOF 7
ENDMDL
MODEL 6
REMARK VINA RESULT:    -4.453      4.133      5.651
REMARK INTER + INTRA:          -6.613
REMARK INTER:                  -6.173
REMARK INTRA:                  -0.440
REMARK UNBOUND:                -0.338
REMARK SMILES CCCCCCCCC(=O)[O-]
REMARK SMILES IDX 6 1 7 2 8 3 9 4 10 5 11 6 5 7 4 8 3 9 2 10 1 11
REMARK H PARENT
REMARK Flexibility Score: inf
ROOT
ATOM      1  C   UNL     1       6.720   0.779 -35.139  1.00  0.00     0.000 C 
ENDROOT
BRANCH   1   2
ATOM      2  C   UNL     1       6.448   0.395 -33.676  1.00  0.00     0.006 C 
BRANCH   2   3
ATOM      3  C   UNL     1       6.034   1.596 -32.816  1.00  0.00     0.053 C 
BRANCH   3   4
ATOM      4  C   UNL     1       6.947   1.736 -31.640  1.00  0.00     0.041 C 
ATOM      5  O   UNL     1       8.163   1.425 -31.741  1.00  0.00    -0.550 OA
ATOM      6  O   UNL     1       6.446   2.162 -30.417  1.00  0.00    -0.550 OA
ENDBRANCH   3   4
ENDBRANCH   2   3
ENDBRANCH   1   2
BRANCH   1   7
ATOM      7  C   UNL     1       7.784   1.879 -35.275  1.00  0.00     0.000 C 
BRANCH   7   8
ATOM      8  C   UNL     1       8.845   1.489 -36.316  1.00  0.00    -0.000 C 
BRANCH   8   9
ATOM      9  C   UNL     1       8.232   1.098 -37.670  1.00  0.00    -0.000 C 
BRANCH   9  10
ATOM     10  C   UNL     1       8.971  -0.070 -38.339  1.00  0.00    -0.003 C 
ATOM     11  C   UNL     1       8.378  -1.411 -37.914  1.00  0.00     0.004 C 
ENDBRANCH   9  10
ENDBRANCH   8   9
ENDBRANCH   7   8
ENDBRANCH   1   7
TORSDOF 7
ENDMDL
MODEL 7
REMARK VINA RESULT:    -4.441      3.529      5.940
REMARK INTER + INTRA:          -6.596
REMARK INTER:                  -6.348
REMARK INTRA:                  -0.247
REMARK UNBOUND:                -0.338
REMARK SMILES CCCCCCCCC(=O)[O-]
REMARK SMILES IDX 6 1 7 2 8 3 9 4 10 5 11 6 5 7 4 8 3 9 2 10 1 11
REMARK H PARENT
REMARK Flexibility Score: inf
ROOT
ATOM      1  C   UNL     1       9.291   1.408 -36.097  1.00  0.00     0.000 C 
ENDROOT
BRANCH   1   2
ATOM      2  C   UNL     1      10.224   1.540 -34.884  1.00  0.00     0.006 C 
BRANCH   2   3
ATOM      3  C   UNL     1      11.575   2.171 -35.243  1.00  0.00     0.053 C 
BRANCH   3   4
ATOM      4  C   UNL     1      12.574   1.918 -34.158  1.00  0.00     0.041 C 
ATOM      5  O   UNL     1      13.630   1.280 -34.405  1.00  0.00    -0.550 OA
ATOM      6  O   UNL     1      12.315   2.344 -32.861  1.00  0.00    -0.550 OA
ENDBRANCH   3   4
ENDBRANCH   2   3
ENDBRANCH   1   2
BRANCH   1   7
ATOM      7  C   UNL     1       7.875   1.935 -35.815  1.00  0.00     0.000 C 
BRANCH   7   8
ATOM      8  C   UNL     1       6.945   0.796 -35.370  1.00  0.00    -0.000 C 
BRANCH   8   9
ATOM      9  C   UNL     1       6.664   0.816 -33.859  1.00  0.00    -0.000 C 
BRANCH   9  10
ATOM     10  C   UNL     1       5.468  -0.065 -33.468  1.00  0.00    -0.003 C 
ATOM     11  C   UNL     1       5.290  -1.218 -34.451  1.00  0.00     0.004 C 
ENDBRANCH   9  10
ENDBRANCH   8   9
ENDBRANCH   7   8
ENDBRANCH   1   7
TORSDOF 7
ENDMDL
MODEL 8
REMARK VINA RESULT:    -4.398      3.498      4.813
REMARK INTER + INTRA:          -6.536
REMARK INTER:                  -6.201
REMARK INTRA:                  -0.335
REMARK UNBOUND:                -0.338
REMARK SMILES CCCCCCCCC(=O)[O-]
REMARK SMILES IDX 6 1 7 2 8 3 9 4 10 5 11 6 5 7 4 8 3 9 2 10 1 11
REMARK H PARENT
REMARK Flexibility Score: inf
ROOT
ATOM      1  C   UNL     1       7.618   1.440 -34.027  1.00  0.00     0.000 C 
ENDROOT
BRANCH   1   2
ATOM      2  C   UNL     1       7.786   1.702 -35.531  1.00  0.00     0.006 C 
BRANCH   2   3
ATOM      3  C   UNL     1       9.104   1.147 -36.085  1.00  0.00     0.053 C 
BRANCH   3   4
ATOM      4  C   UNL     1       8.838   0.199 -37.212  1.00  0.00     0.041 C 
ATOM      5  O   UNL     1       9.261   0.456 -38.369  1.00  0.00    -0.550 OA
ATOM      6  O   UNL     1       8.081  -0.944 -36.995  1.00  0.00    -0.550 OA
ENDBRANCH   3   4
ENDBRANCH   2   3
ENDBRANCH   1   2
BRANCH   1   7
ATOM      7  C   UNL     1       6.343   0.646 -33.702  1.00  0.00     0.000 C 
BRANCH   7   8
ATOM      8  C   UNL     1       6.046   0.678 -32.195  1.00  0.00    -0.000 C 
BRANCH   8   9
ATOM      9  C   UNL     1       6.718   1.864 -31.484  1.00  0.00    -0.000 C 
BRANCH   9  10
ATOM     10  C   UNL     1       6.725   1.710 -29.956  1.00  0.00    -0.003 C 
ATOM     11  C   UNL     1       6.557   0.248 -29.550  1.00  0.00     0.004 C 
ENDBRANCH   9  10
ENDBRANCH   8   9
ENDBRANCH   7   8
ENDBRANCH   1   7
TORSDOF 7
ENDMDL
MODEL 9
REMARK VINA RESULT:    -4.390      4.767      6.329
REMARK INTER + INTRA:          -6.525
REMARK INTER:                  -6.324
REMARK INTRA:                  -0.202
REMARK UNBOUND:                -0.338
REMARK SMILES CCCCCCCCC(=O)[O-]
REMARK SMILES IDX 6 1 7 2 8 3 9 4 10 5 11 6 5 7 4 8 3 9 2 10 1 11
REMARK H PARENT
REMARK Flexibility Score: inf
ROOT
ATOM      1  C   UNL     1       7.615   1.407 -32.858  1.00  0.00     0.000 C 
ENDROOT
BRANCH   1   2
ATOM      2  C   UNL     1       6.394   1.412 -31.925  1.00  0.00     0.006 C 
BRANCH   2   3
ATOM      3  C   UNL     1       6.764   1.720 -30.468  1.00  0.00     0.053 C 
BRANCH   3   4
ATOM      4  C   UNL     1       7.003   0.452 -29.712  1.00  0.00     0.041 C 
ATOM      5  O   UNL     1       6.094  -0.413 -29.621  1.00  0.00    -0.550 OA
ATOM      6  O   UNL     1       8.215   0.247 -29.064  1.00  0.00    -0.550 OA
ENDBRANCH   3   4
ENDBRANCH   2   3
ENDBRANCH   1   2
BRANCH   1   7
ATOM      7  C   UNL     1       7.225   1.443 -34.344  1.00  0.00     0.000 C 
BRANCH   7   8
ATOM      8  C   UNL     1       8.468   1.606 -35.233  1.00  0.00    -0.000 C 
BRANCH   8   9
ATOM      9  C   UNL     1       8.165   2.345 -36.545  1.00  0.00    -0.000 C 
BRANCH   9  10
ATOM     10  C   UNL     1       7.680   1.403 -37.657  1.00  0.00    -0.003 C 
ATOM     11  C   UNL     1       8.763   0.395 -38.033  1.00  0.00     0.004 C 
ENDBRANCH   9  10
ENDBRANCH   8   9
ENDBRANCH   7   8
ENDBRANCH   1   7
TORSDOF 7
ENDMDL
