MODEL 1
REMARK VINA RESULT:    -3.872      0.000      0.000
REMARK INTER + INTRA:          -6.091
REMARK INTER:                  -5.682
REMARK INTRA:                  -0.409
REMARK UNBOUND:                -0.409
REMARK SMILES O=C([O-])CCCCCCCC(=O)[O-]
REMARK SMILES IDX 7 1 6 2 5 3 4 4 2 5 1 6 3 7 8 8 9 9 10 10 11 11 12 12 13 13
REMARK H PARENT
REMARK Flexibility Score: inf
ROOT
ATOM      1  C   UNL     1      -8.511  18.033 -10.975  1.00  0.00     0.000 C 
ENDROOT
BRANCH   1   2
ATOM      2  C   UNL     1      -7.196  17.976 -10.182  1.00  0.00     0.000 C 
BRANCH   2   3
ATOM      3  C   UNL     1      -7.079  16.709  -9.320  1.00  0.00     0.006 C 
BRANCH   3   4
ATOM      4  C   UNL     1      -6.750  17.022  -7.853  1.00  0.00     0.053 C 
BRANCH   4   5
ATOM      5  C   UNL     1      -5.384  16.520  -7.507  1.00  0.00     0.041 C 
ATOM      6  O   UNL     1      -5.056  16.357  -6.302  1.00  0.00    -0.550 OA
ATOM      7  O   UNL     1      -4.456  16.279  -8.512  1.00  0.00    -0.550 OA
ENDBRANCH   4   5
ENDBRANCH   3   4
ENDBRANCH   2   3
ENDBRANCH   1   2
BRANCH   1   8
ATOM      8  C   UNL     1      -9.397  16.823 -10.657  1.00  0.00     0.000 C 
BRANCH   8   9
ATOM      9  C   UNL     1     -10.611  16.768 -11.594  1.00  0.00     0.006 C 
BRANCH   9  10
ATOM     10  C   UNL     1     -10.516  17.844 -12.680  1.00  0.00     0.053 C 
BRANCH  10  11
ATOM     11  C   UNL     1     -11.710  18.743 -12.632  1.00  0.00     0.041 C 
ATOM     12  O   UNL     1     -11.771  19.671 -11.783  1.00  0.00    -0.550 OA
ATOM     13  O   UNL     1     -12.778  18.527 -13.493  1.00  0.00    -0.550 OA
ENDBRANCH  10  11
ENDBRANCH   9  10
ENDBRANCH   8   9
ENDBRANCH   1   8
TORSDOF 8
ENDMDL
MODEL 2
REMARK VINA RESULT:    -3.828      1.456      1.910
REMARK INTER + INTRA:          -6.026
REMARK INTER:                  -5.534
REMARK INTRA:                  -0.492
REMARK UNBOUND:                -0.409
REMARK SMILES O=C([O-])CCCCCCCC(=O)[O-]
REMARK SMILES IDX 7 1 6 2 5 3 4 4 2 5 1 6 3 7 8 8 9 9 10 10 11 11 12 12 13 13
REMARK H PARENT
REMARK Flexibility Score: inf
ROOT
ATOM      1  C   UNL     1      -7.245  19.054  -9.717  1.00  0.00     0.000 C 
ENDROOT
BRANCH   1   2
ATOM      2  C   UNL     1      -6.800  17.650 -10.152  1.00  0.00     0.000 C 
BRANCH   2   3
ATOM      3  C   UNL     1      -7.009  16.595  -9.054  1.00  0.00     0.006 C 
BRANCH   3   4
ATOM      4  C   UNL     1      -6.621  17.109  -7.661  1.00  0.00     0.053 C 
BRANCH   4   5
ATOM      5  C   UNL     1      -5.251  16.636  -7.293  1.00  0.00     0.041 C 
ATOM      6  O   UNL     1      -4.938  16.477  -6.084  1.00  0.00    -0.550 OA
ATOM      7  O   UNL     1      -4.301  16.418  -8.284  1.00  0.00    -0.550 OA
ENDBRANCH   4   5
ENDBRANCH   3   4
ENDBRANCH   2   3
ENDBRANCH   1   2
BRANCH   1   8
ATOM      8  C   UNL     1      -8.049  19.743 -10.825  1.00  0.00     0.000 C 
BRANCH   8   9
ATOM      9  C   UNL     1      -8.804  18.716 -11.680  1.00  0.00     0.006 C 
BRANCH   9  10
ATOM     10  C   UNL     1     -10.303  18.740 -11.370  1.00  0.00     0.053 C 
BRANCH  10  11
ATOM     11  C   UNL     1     -10.861  17.352 -11.376  1.00  0.00     0.041 C 
ATOM     12  O   UNL     1     -10.322  16.450 -10.682  1.00  0.00    -0.550 OA
ATOM     13  O   UNL     1     -11.947  17.042 -12.184  1.00  0.00    -0.550 OA
ENDBRANCH  10  11
ENDBRANCH   9  10
ENDBRANCH   8   9
ENDBRANCH   1   8
TORSDOF 8
ENDMDL
MODEL 3
REMARK VINA RESULT:    -3.770      1.603      6.772
REMARK INTER + INTRA:          -5.942
REMARK INTER:                  -5.521
REMARK INTRA:                  -0.422
REMARK UNBOUND:                -0.409
REMARK SMILES O=C([O-])CCCCCCCC(=O)[O-]
REMARK SMILES IDX 7 1 6 2 5 3 4 4 2 5 1 6 3 7 8 8 9 9 10 10 11 11 12 12 13 13
REMARK H PARENT
REMARK Flexibility Score: inf
ROOT
ATOM      1  C   UNL     1      -6.676  18.289  -9.867  1.00  0.00     0.000 C 
ENDROOT
BRANCH   1   2
ATOM      2  C   UNL     1      -7.350  18.493 -11.232  1.00  0.00     0.000 C 
BRANCH   2   3
ATOM      3  C   UNL     1      -8.844  18.831 -11.112  1.00  0.00     0.006 C 
BRANCH   3   4
ATOM      4  C   UNL     1      -9.685  18.195 -12.228  1.00  0.00     0.053 C 
BRANCH   4   5
ATOM      5  C   UNL     1     -10.632  17.188 -11.658  1.00  0.00     0.041 C 
ATOM      6  O   UNL     1     -11.795  17.075 -12.127  1.00  0.00    -0.550 OA
ATOM      7  O   UNL     1     -10.248  16.406 -10.574  1.00  0.00    -0.550 OA
ENDBRANCH   4   5
ENDBRANCH   3   4
ENDBRANCH   2   3
ENDBRANCH   1   2
BRANCH   1   8
ATOM      8  C   UNL     1      -6.756  16.823  -9.428  1.00  0.00     0.000 C 
BRANCH   8   9
ATOM      9  C   UNL     1      -6.811  16.707  -7.899  1.00  0.00     0.006 C 
BRANCH   9  10
ATOM     10  C   UNL     1      -5.442  16.327  -7.328  1.00  0.00     0.053 C 
BRANCH  10  11
ATOM     11  C   UNL     1      -4.952  17.388  -6.394  1.00  0.00     0.041 C 
ATOM     12  O   UNL     1      -4.577  17.084  -5.231  1.00  0.00    -0.550 OA
ATOM     13  O   UNL     1      -4.956  18.719  -6.790  1.00  0.00    -0.550 OA
ENDBRANCH  10  11
ENDBRANCH   9  10
ENDBRANCH   8   9
ENDBRANCH   1   8
TORSDOF 8
ENDMDL
MODEL 4
REMARK VINA RESULT:    -3.766      1.555      6.369
REMARK INTER + INTRA:          -5.936
REMARK INTER:                  -5.357
REMARK INTRA:                  -0.580
REMARK UNBOUND:                -0.409
REMARK SMILES O=C([O-])CCCCCCCC(=O)[O-]
REMARK SMILES IDX 7 1 6 2 5 3 4 4 2 5 1 6 3 7 8 8 9 9 10 10 11 11 12 12 13 13
REMARK H PARENT
REMARK Flexibility Score: inf
ROOT
ATOM      1  C   UNL     1      -7.266  18.599 -11.675  1.00  0.00     0.000 C 
ENDROOT
BRANCH   1   2
ATOM      2  C   UNL     1      -8.649  19.115 -12.099  1.00  0.00     0.000 C 
BRANCH   2   3
ATOM      3  C   UNL     1      -9.605  19.295 -10.909  1.00  0.00     0.006 C 
BRANCH   3   4
ATOM      4  C   UNL     1     -11.014  18.760 -11.198  1.00  0.00     0.053 C 
BRANCH   4   5
ATOM      5  C   UNL     1     -10.974  17.281 -11.423  1.00  0.00     0.041 C 
ATOM      6  O   UNL     1     -11.607  16.768 -12.383  1.00  0.00    -0.550 OA
ATOM      7  O   UNL     1     -10.278  16.462 -10.542  1.00  0.00    -0.550 OA
ENDBRANCH   4   5
ENDBRANCH   3   4
ENDBRANCH   2   3
ENDBRANCH   1   2
BRANCH   1   8
ATOM      8  C   UNL     1      -7.198  18.389 -10.158  1.00  0.00     0.000 C 
BRANCH   8   9
ATOM      9  C   UNL     1      -6.806  16.945  -9.818  1.00  0.00     0.006 C 
BRANCH   9  10
ATOM     10  C   UNL     1      -6.885  16.695  -8.309  1.00  0.00     0.053 C 
BRANCH  10  11
ATOM     11  C   UNL     1      -5.520  16.454  -7.747  1.00  0.00     0.041 C 
ATOM     12  O   UNL     1      -5.353  16.368  -6.502  1.00  0.00    -0.550 OA
ATOM     13  O   UNL     1      -4.423  16.371  -8.596  1.00  0.00    -0.550 OA
ENDBRANCH  10  11
ENDBRANCH   9  10
ENDBRANCH   8   9
ENDBRANCH   1   8
TORSDOF 8
ENDMDL
MODEL 5
REMARK VINA RESULT:    -3.732      3.063      4.612
REMARK INTER + INTRA:          -5.886
REMARK INTER:                  -4.977
REMARK INTRA:                  -0.910
REMARK UNBOUND:                -0.409
REMARK SMILES O=C([O-])CCCCCCCC(=O)[O-]
REMARK SMILES IDX 7 1 6 2 5 3 4 4 2 5 1 6 3 7 8 8 9 9 10 10 11 11 12 12 13 13
REMARK H PARENT
REMARK Flexibility Score: inf
ROOT
ATOM      1  C   UNL     1      -5.571  16.277  -7.285  1.00  0.00     0.000 C 
ENDROOT
BRANCH   1   2
ATOM      2  C   UNL     1      -4.938  17.051  -6.119  1.00  0.00     0.000 C 
BRANCH   2   3
ATOM      3  C   UNL     1      -4.058  18.219  -6.591  1.00  0.00     0.006 C 
BRANCH   3   4
ATOM      4  C   UNL     1      -4.779  19.571  -6.509  1.00  0.00     0.053 C 
BRANCH   4   5
ATOM      5  C   UNL     1      -5.484  19.865  -7.795  1.00  0.00     0.041 C 
ATOM      6  O   UNL     1      -4.824  20.037  -8.854  1.00  0.00    -0.550 OA
ATOM      7  O   UNL     1      -6.867  19.998  -7.817  1.00  0.00    -0.550 OA
ENDBRANCH   4   5
ENDBRANCH   3   4
ENDBRANCH   2   3
ENDBRANCH   1   2
BRANCH   1   8
ATOM      8  C   UNL     1      -4.710  16.387  -8.549  1.00  0.00     0.000 C 
BRANCH   8   9
ATOM      9  C   UNL     1      -5.579  16.636  -9.789  1.00  0.00     0.006 C 
BRANCH   9  10
ATOM     10  C   UNL     1      -7.041  16.872  -9.396  1.00  0.00     0.053 C 
BRANCH  10  11
ATOM     11  C   UNL     1      -7.731  17.706 -10.428  1.00  0.00     0.041 C 
ATOM     12  O   UNL     1      -7.162  18.721 -10.908  1.00  0.00    -0.550 OA
ATOM     13  O   UNL     1      -9.024  17.390 -10.826  1.00  0.00    -0.550 OA
ENDBRANCH  10  11
ENDBRANCH   9  10
ENDBRANCH   8   9
ENDBRANCH   1   8
TORSDOF 8
ENDMDL
MODEL 6
REMARK VINA RESULT:    -3.694      1.097      7.045
REMARK INTER + INTRA:          -5.831
REMARK INTER:                  -5.446
REMARK INTRA:                  -0.385
REMARK UNBOUND:                -0.409
REMARK SMILES O=C([O-])CCCCCCCC(=O)[O-]
REMARK SMILES IDX 7 1 6 2 5 3 4 4 2 5 1 6 3 7 8 8 9 9 10 10 11 11 12 12 13 13
REMARK H PARENT
REMARK Flexibility Score: inf
ROOT
ATOM      1  C   UNL     1      -8.693  18.205 -11.337  1.00  0.00     0.000 C 
ENDROOT
BRANCH   1   2
ATOM      2  C   UNL     1      -9.594  17.006 -11.006  1.00  0.00     0.000 C 
BRANCH   2   3
ATOM      3  C   UNL     1     -11.087  17.315 -11.199  1.00  0.00     0.006 C 
BRANCH   3   4
ATOM      4  C   UNL     1     -11.330  18.723 -11.760  1.00  0.00     0.053 C 
BRANCH   4   5
ATOM      5  C   UNL     1     -11.969  18.643 -13.110  1.00  0.00     0.041 C 
ATOM      6  O   UNL     1     -11.607  19.422 -14.031  1.00  0.00    -0.550 OA
ATOM      7  O   UNL     1     -13.001  17.740 -13.339  1.00  0.00    -0.550 OA
ENDBRANCH   4   5
ENDBRANCH   3   4
ENDBRANCH   2   3
ENDBRANCH   1   2
BRANCH   1   8
ATOM      8  C   UNL     1      -7.413  18.179 -10.492  1.00  0.00     0.000 C 
BRANCH   8   9
ATOM      9  C   UNL     1      -7.361  16.926  -9.609  1.00  0.00     0.006 C 
BRANCH   9  10
ATOM     10  C   UNL     1      -5.915  16.480  -9.372  1.00  0.00     0.053 C 
BRANCH  10  11
ATOM     11  C   UNL     1      -5.512  16.742  -7.956  1.00  0.00     0.041 C 
ATOM     12  O   UNL     1      -6.389  16.918  -7.070  1.00  0.00    -0.550 OA
ATOM     13  O   UNL     1      -4.167  16.839  -7.623  1.00  0.00    -0.550 OA
ENDBRANCH  10  11
ENDBRANCH   9  10
ENDBRANCH   8   9
ENDBRANCH   1   8
TORSDOF 8
ENDMDL
MODEL 7
REMARK VINA RESULT:    -3.691      1.605      2.380
REMARK INTER + INTRA:          -5.826
REMARK INTER:                  -5.395
REMARK INTRA:                  -0.431
REMARK UNBOUND:                -0.409
REMARK SMILES O=C([O-])CCCCCCCC(=O)[O-]
REMARK SMILES IDX 7 1 6 2 5 3 4 4 2 5 1 6 3 7 8 8 9 9 10 10 11 11 12 12 13 13
REMARK H PARENT
REMARK Flexibility Score: inf
ROOT
ATOM      1  C   UNL     1      -7.066  16.907  -9.392  1.00  0.00     0.000 C 
ENDROOT
BRANCH   1   2
ATOM      2  C   UNL     1      -5.750  16.142  -9.591  1.00  0.00     0.000 C 
BRANCH   2   3
ATOM      3  C   UNL     1      -4.712  16.453  -8.502  1.00  0.00     0.006 C 
BRANCH   3   4
ATOM      4  C   UNL     1      -5.313  16.429  -7.090  1.00  0.00     0.053 C 
BRANCH   4   5
ATOM      5  C   UNL     1      -4.871  17.630  -6.315  1.00  0.00     0.041 C 
ATOM      6  O   UNL     1      -4.263  17.490  -5.221  1.00  0.00    -0.550 OA
ATOM      7  O   UNL     1      -5.173  18.906  -6.776  1.00  0.00    -0.550 OA
ENDBRANCH   4   5
ENDBRANCH   3   4
ENDBRANCH   2   3
ENDBRANCH   1   2
BRANCH   1   8
ATOM      8  C   UNL     1      -7.046  18.242 -10.147  1.00  0.00     0.000 C 
BRANCH   8   9
ATOM      9  C   UNL     1      -8.280  18.386 -11.046  1.00  0.00     0.006 C 
BRANCH   9  10
ATOM     10  C   UNL     1      -9.154  17.129 -10.984  1.00  0.00     0.053 C 
BRANCH  10  11
ATOM     11  C   UNL     1     -10.531  17.425 -11.488  1.00  0.00     0.041 C 
ATOM     12  O   UNL     1     -11.090  18.516 -11.202  1.00  0.00    -0.550 OA
ATOM     13  O   UNL     1     -11.218  16.474 -12.232  1.00  0.00    -0.550 OA
ENDBRANCH  10  11
ENDBRANCH   9  10
ENDBRANCH   8   9
ENDBRANCH   1   8
TORSDOF 8
ENDMDL
MODEL 8
REMARK VINA RESULT:    -3.521      2.565      3.623
REMARK INTER + INTRA:          -5.576
REMARK INTER:                  -5.138
REMARK INTRA:                  -0.438
REMARK UNBOUND:                -0.409
REMARK SMILES O=C([O-])CCCCCCCC(=O)[O-]
REMARK SMILES IDX 7 1 6 2 5 3 4 4 2 5 1 6 3 7 8 8 9 9 10 10 11 11 12 12 13 13
REMARK H PARENT
REMARK Flexibility Score: inf
ROOT
ATOM      1  C   UNL     1      -6.928  16.505  -8.674  1.00  0.00     0.000 C 
ENDROOT
BRANCH   1   2
ATOM      2  C   UNL     1      -6.492  17.045  -7.304  1.00  0.00     0.000 C 
BRANCH   2   3
ATOM      3  C   UNL     1      -5.098  16.553  -6.888  1.00  0.00     0.006 C 
BRANCH   3   4
ATOM      4  C   UNL     1      -4.148  17.704  -6.530  1.00  0.00     0.053 C 
BRANCH   4   5
ATOM      5  C   UNL     1      -4.147  17.939  -5.053  1.00  0.00     0.041 C 
ATOM      6  O   UNL     1      -4.208  16.965  -4.256  1.00  0.00    -0.550 OA
ATOM      7  O   UNL     1      -4.128  19.236  -4.554  1.00  0.00    -0.550 OA
ENDBRANCH   4   5
ENDBRANCH   3   4
ENDBRANCH   2   3
ENDBRANCH   1   2
BRANCH   1   8
ATOM      8  C   UNL     1      -5.929  16.908  -9.766  1.00  0.00     0.000 C 
BRANCH   8   9
ATOM      9  C   UNL     1      -6.458  18.091 -10.588  1.00  0.00     0.006 C 
BRANCH   9  10
ATOM     10  C   UNL     1      -7.988  18.070 -10.657  1.00  0.00     0.053 C 
BRANCH  10  11
ATOM     11  C   UNL     1      -8.527  19.464 -10.732  1.00  0.00     0.041 C 
ATOM     12  O   UNL     1      -7.742  20.448 -10.714  1.00  0.00    -0.550 OA
ATOM     13  O   UNL     1      -9.898  19.678 -10.773  1.00  0.00    -0.550 OA
ENDBRANCH  10  11
ENDBRANCH   9  10
ENDBRANCH   8   9
ENDBRANCH   1   8
TORSDOF 8
ENDMDL
MODEL 9
REMARK VINA RESULT:    -3.467      4.115      5.605
REMARK INTER + INTRA:          -5.497
REMARK INTER:                  -4.643
REMARK INTRA:                  -0.854
REMARK UNBOUND:                -0.409
REMARK SMILES O=C([O-])CCCCCCCC(=O)[O-]
REMARK SMILES IDX 7 1 6 2 5 3 4 4 2 5 1 6 3 7 8 8 9 9 10 10 11 11 12 12 13 13
REMARK H PARENT
REMARK Flexibility Score: inf
ROOT
ATOM      1  C   UNL     1      -3.875  18.624  -6.002  1.00  0.00     0.000 C 
ENDROOT
BRANCH   1   2
ATOM      2  C   UNL     1      -4.564  17.356  -5.476  1.00  0.00     0.000 C 
BRANCH   2   3
ATOM      3  C   UNL     1      -5.373  16.627  -6.561  1.00  0.00     0.006 C 
BRANCH   3   4
ATOM      4  C   UNL     1      -4.663  16.621  -7.922  1.00  0.00     0.053 C 
BRANCH   4   5
ATOM      5  C   UNL     1      -5.653  16.419  -9.025  1.00  0.00     0.041 C 
ATOM      6  O   UNL     1      -5.275  16.429 -10.226  1.00  0.00    -0.550 OA
ATOM      7  O   UNL     1      -7.003  16.268  -8.730  1.00  0.00    -0.550 OA
ENDBRANCH   4   5
ENDBRANCH   3   4
ENDBRANCH   2   3
ENDBRANCH   1   2
BRANCH   1   8
ATOM      8  C   UNL     1      -4.760  19.858  -5.789  1.00  0.00     0.000 C 
BRANCH   8   9
ATOM      9  C   UNL     1      -5.111  20.521  -7.127  1.00  0.00     0.006 C 
BRANCH   9  10
ATOM     10  C   UNL     1      -6.493  20.076  -7.615  1.00  0.00     0.053 C 
BRANCH  10  11
ATOM     11  C   UNL     1      -6.468  19.811  -9.087  1.00  0.00     0.041 C 
ATOM     12  O   UNL     1      -5.394  19.928  -9.734  1.00  0.00    -0.550 OA
ATOM     13  O   UNL     1      -7.641  19.482  -9.754  1.00  0.00    -0.550 OA
ENDBRANCH  10  11
ENDBRANCH   9  10
ENDBRANCH   8   9
ENDBRANCH   1   8
TORSDOF 8
ENDMDL
