MODEL 1
REMARK VINA RESULT:    -5.821      0.000      0.000
REMARK INTER + INTRA:          -6.367
REMARK INTER:                  -6.332
REMARK INTRA:                  -0.035
REMARK UNBOUND:                -0.035
REMARK SMILES O=C([O-])c1ccc(O)cc1
REMARK SMILES IDX 4 1 5 2 10 3 6 4 9 5 7 6 2 7 1 8 3 9 8 10
REMARK H PARENT 8 11
REMARK Flexibility Score: inf
ROOT
ATOM      1  C   UNL     1       7.101  44.952  -5.250  1.00  0.00    -0.003 A 
ATOM      2  C   UNL     1       7.050  46.052  -6.125  1.00  0.00     0.014 A 
ATOM      3  C   UNL     1       8.341  44.332  -5.007  1.00  0.00     0.014 A 
ATOM      4  C   UNL     1       8.214  46.521  -6.743  1.00  0.00     0.047 A 
ATOM      5  C   UNL     1       9.502  44.804  -5.627  1.00  0.00     0.047 A 
ATOM      6  C   UNL     1       9.441  45.899  -6.496  1.00  0.00     0.115 A 
ENDROOT
BRANCH   1   7
ATOM      7  C   UNL     1       5.869  44.459  -4.598  1.00  0.00     0.071 C 
ATOM      8  O   UNL     1       5.817  43.293  -4.124  1.00  0.00    -0.545 OA
ATOM      9  O   UNL     1       4.748  45.275  -4.499  1.00  0.00    -0.545 OA
ENDBRANCH   1   7
BRANCH   6  10
ATOM     10  O   UNL     1      10.592  46.378  -7.119  1.00  0.00    -0.508 OA
ATOM     11  H   UNL     1      11.421  46.619  -6.587  1.00  0.00     0.293 HD
ENDBRANCH   6  10
TORSDOF 2
ENDMDL
MODEL 2
REMARK VINA RESULT:    -5.494      8.850     11.673
REMARK INTER + INTRA:          -6.010
REMARK INTER:                  -5.978
REMARK INTRA:                  -0.032
REMARK UNBOUND:                -0.035
REMARK SMILES O=C([O-])c1ccc(O)cc1
REMARK SMILES IDX 4 1 5 2 10 3 6 4 9 5 7 6 2 7 1 8 3 9 8 10
REMARK H PARENT 8 11
REMARK Flexibility Score: inf
ROOT
ATOM      1  C   UNL     1      -0.942  44.860  -0.180  1.00  0.00    -0.003 A 
ATOM      2  C   UNL     1      -0.929  44.090   0.997  1.00  0.00     0.014 A 
ATOM      3  C   UNL     1      -2.051  45.687  -0.441  1.00  0.00     0.014 A 
ATOM      4  C   UNL     1      -2.001  44.146   1.893  1.00  0.00     0.047 A 
ATOM      5  C   UNL     1      -3.121  45.740   0.457  1.00  0.00     0.047 A 
ATOM      6  C   UNL     1      -3.099  44.969   1.626  1.00  0.00     0.115 A 
ENDROOT
BRANCH   1   7
ATOM      7  C   UNL     1       0.193  44.799  -1.125  1.00  0.00     0.071 C 
ATOM      8  O   UNL     1       1.377  44.721  -0.701  1.00  0.00    -0.545 OA
ATOM      9  O   UNL     1      -0.029  44.826  -2.497  1.00  0.00    -0.545 OA
ENDBRANCH   1   7
BRANCH   6  10
ATOM     10  O   UNL     1      -4.159  45.015   2.528  1.00  0.00    -0.508 OA
ATOM     11  H   UNL     1      -4.658  44.175   2.802  1.00  0.00     0.293 HD
ENDBRANCH   6  10
TORSDOF 2
ENDMDL
MODEL 3
REMARK VINA RESULT:    -5.484      8.848     11.572
REMARK INTER + INTRA:          -5.999
REMARK INTER:                  -5.967
REMARK INTRA:                  -0.032
REMARK UNBOUND:                -0.035
REMARK SMILES O=C([O-])c1ccc(O)cc1
REMARK SMILES IDX 4 1 5 2 10 3 6 4 9 5 7 6 2 7 1 8 3 9 8 10
REMARK H PARENT 8 11
REMARK Flexibility Score: inf
ROOT
ATOM      1  C   UNL     1      -0.952  44.860  -0.194  1.00  0.00    -0.003 A 
ATOM      2  C   UNL     1      -2.080  45.663  -0.439  1.00  0.00     0.014 A 
ATOM      3  C   UNL     1      -0.899  44.103   0.992  1.00  0.00     0.014 A 
ATOM      4  C   UNL     1      -3.131  45.709   0.483  1.00  0.00     0.047 A 
ATOM      5  C   UNL     1      -1.951  44.152   1.911  1.00  0.00     0.047 A 
ATOM      6  C   UNL     1      -3.070  44.956   1.658  1.00  0.00     0.115 A 
ENDROOT
BRANCH   1   7
ATOM      7  C   UNL     1       0.158  44.813  -1.170  1.00  0.00     0.071 C 
ATOM      8  O   UNL     1       1.354  44.750  -0.779  1.00  0.00    -0.545 OA
ATOM      9  O   UNL     1      -0.103  44.838  -2.535  1.00  0.00    -0.545 OA
ENDBRANCH   1   7
BRANCH   6  10
ATOM     10  O   UNL     1      -4.125  45.012   2.566  1.00  0.00    -0.508 OA
ATOM     11  H   UNL     1      -3.974  44.891   3.562  1.00  0.00     0.293 HD
ENDBRANCH   6  10
TORSDOF 2
ENDMDL
MODEL 4
REMARK VINA RESULT:    -5.458     11.671     12.831
REMARK INTER + INTRA:          -5.972
REMARK INTER:                  -5.941
REMARK INTRA:                  -0.031
REMARK UNBOUND:                -0.035
REMARK SMILES O=C([O-])c1ccc(O)cc1
REMARK SMILES IDX 4 1 5 2 10 3 6 4 9 5 7 6 2 7 1 8 3 9 8 10
REMARK H PARENT 8 11
REMARK Flexibility Score: inf
ROOT
ATOM      1  C   UNL     1      -2.013  45.351   2.819  1.00  0.00    -0.003 A 
ATOM      2  C   UNL     1      -1.681  46.278   1.815  1.00  0.00     0.014 A 
ATOM      3  C   UNL     1      -2.677  44.164   2.458  1.00  0.00     0.014 A 
ATOM      4  C   UNL     1      -2.008  46.024   0.479  1.00  0.00     0.047 A 
ATOM      5  C   UNL     1      -3.001  43.913   1.122  1.00  0.00     0.047 A 
ATOM      6  C   UNL     1      -2.668  44.843   0.129  1.00  0.00     0.115 A 
ENDROOT
BRANCH   1   7
ATOM      7  C   UNL     1      -1.666  45.623   4.231  1.00  0.00     0.071 C 
ATOM      8  O   UNL     1      -0.521  46.049   4.539  1.00  0.00    -0.545 OA
ATOM      9  O   UNL     1      -2.599  45.412   5.240  1.00  0.00    -0.545 OA
ENDBRANCH   1   7
BRANCH   6  10
ATOM     10  O   UNL     1      -2.986  44.603  -1.206  1.00  0.00    -0.508 OA
ATOM     11  H   UNL     1      -2.737  43.732  -1.661  1.00  0.00     0.293 HD
ENDBRANCH   6  10
TORSDOF 2
ENDMDL
MODEL 5
REMARK VINA RESULT:    -5.442     11.488     13.568
REMARK INTER + INTRA:          -5.954
REMARK INTER:                  -5.920
REMARK INTRA:                  -0.033
REMARK UNBOUND:                -0.035
REMARK SMILES O=C([O-])c1ccc(O)cc1
REMARK SMILES IDX 4 1 5 2 10 3 6 4 9 5 7 6 2 7 1 8 3 9 8 10
REMARK H PARENT 8 11
REMARK Flexibility Score: inf
ROOT
ATOM      1  C   UNL     1      -2.417  45.258   4.104  1.00  0.00    -0.003 A 
ATOM      2  C   UNL     1      -3.098  44.283   3.355  1.00  0.00     0.014 A 
ATOM      3  C   UNL     1      -1.268  45.859   3.557  1.00  0.00     0.014 A 
ATOM      4  C   UNL     1      -2.640  43.917   2.085  1.00  0.00     0.047 A 
ATOM      5  C   UNL     1      -0.813  45.490   2.288  1.00  0.00     0.047 A 
ATOM      6  C   UNL     1      -1.498  44.518   1.548  1.00  0.00     0.115 A 
ENDROOT
BRANCH   1   7
ATOM      7  C   UNL     1      -2.904  45.643   5.446  1.00  0.00     0.071 C 
ATOM      8  O   UNL     1      -2.097  46.015   6.339  1.00  0.00    -0.545 OA
ATOM      9  O   UNL     1      -4.262  45.599   5.743  1.00  0.00    -0.545 OA
ENDBRANCH   1   7
BRANCH   6  10
ATOM     10  O   UNL     1      -1.053  44.143   0.283  1.00  0.00    -0.508 OA
ATOM     11  H   UNL     1      -0.121  43.771   0.137  1.00  0.00     0.293 HD
ENDBRANCH   6  10
TORSDOF 2
ENDMDL
MODEL 6
REMARK VINA RESULT:    -5.441     11.741     12.903
REMARK INTER + INTRA:          -5.953
REMARK INTER:                  -5.922
REMARK INTRA:                  -0.031
REMARK UNBOUND:                -0.035
REMARK SMILES O=C([O-])c1ccc(O)cc1
REMARK SMILES IDX 4 1 5 2 10 3 6 4 9 5 7 6 2 7 1 8 3 9 8 10
REMARK H PARENT 8 11
REMARK Flexibility Score: inf
ROOT
ATOM      1  C   UNL     1      -1.999  45.362   2.816  1.00  0.00    -0.003 A 
ATOM      2  C   UNL     1      -2.671  44.168   2.498  1.00  0.00     0.014 A 
ATOM      3  C   UNL     1      -1.703  46.273   1.784  1.00  0.00     0.014 A 
ATOM      4  C   UNL     1      -3.038  43.891   1.177  1.00  0.00     0.047 A 
ATOM      5  C   UNL     1      -2.071  45.991   0.465  1.00  0.00     0.047 A 
ATOM      6  C   UNL     1      -2.739  44.799   0.159  1.00  0.00     0.115 A 
ENDROOT
BRANCH   1   7
ATOM      7  C   UNL     1      -1.613  45.653   4.213  1.00  0.00     0.071 C 
ATOM      8  O   UNL     1      -0.469  46.108   4.481  1.00  0.00    -0.545 OA
ATOM      9  O   UNL     1      -2.507  45.427   5.254  1.00  0.00    -0.545 OA
ENDBRANCH   1   7
BRANCH   6  10
ATOM     10  O   UNL     1      -3.111  44.509  -1.152  1.00  0.00    -0.508 OA
ATOM     11  H   UNL     1      -4.050  44.689  -1.488  1.00  0.00     0.293 HD
ENDBRANCH   6  10
TORSDOF 2
ENDMDL
MODEL 7
REMARK VINA RESULT:    -5.413     10.355     11.640
REMARK INTER + INTRA:          -5.923
REMARK INTER:                  -5.894
REMARK INTRA:                  -0.029
REMARK UNBOUND:                -0.035
REMARK SMILES O=C([O-])c1ccc(O)cc1
REMARK SMILES IDX 4 1 5 2 10 3 6 4 9 5 7 6 2 7 1 8 3 9 8 10
REMARK H PARENT 8 11
REMARK Flexibility Score: inf
ROOT
ATOM      1  C   UNL     1      -0.851  45.795   2.217  1.00  0.00    -0.003 A 
ATOM      2  C   UNL     1      -1.999  46.395   1.672  1.00  0.00     0.014 A 
ATOM      3  C   UNL     1      -0.106  44.901   1.424  1.00  0.00     0.014 A 
ATOM      4  C   UNL     1      -2.395  46.107   0.361  1.00  0.00     0.047 A 
ATOM      5  C   UNL     1      -0.505  44.616   0.115  1.00  0.00     0.047 A 
ATOM      6  C   UNL     1      -1.651  45.219  -0.420  1.00  0.00     0.115 A 
ENDROOT
BRANCH   1   7
ATOM      7  C   UNL     1      -0.435  46.101   3.603  1.00  0.00     0.071 C 
ATOM      8  O   UNL     1       0.671  46.659   3.832  1.00  0.00    -0.545 OA
ATOM      9  O   UNL     1      -1.259  45.777   4.675  1.00  0.00    -0.545 OA
ENDBRANCH   1   7
BRANCH   6  10
ATOM     10  O   UNL     1      -2.057  44.942  -1.723  1.00  0.00    -0.508 OA
ATOM     11  H   UNL     1      -3.038  44.856  -1.965  1.00  0.00     0.293 HD
ENDBRANCH   6  10
TORSDOF 2
ENDMDL
MODEL 8
REMARK VINA RESULT:    -5.311      9.419     12.140
REMARK INTER + INTRA:          -5.811
REMARK INTER:                  -5.782
REMARK INTRA:                  -0.030
REMARK UNBOUND:                -0.035
REMARK SMILES O=C([O-])c1ccc(O)cc1
REMARK SMILES IDX 4 1 5 2 10 3 6 4 9 5 7 6 2 7 1 8 3 9 8 10
REMARK H PARENT 8 11
REMARK Flexibility Score: inf
ROOT
ATOM      1  C   UNL     1      -0.549  44.640   1.244  1.00  0.00    -0.003 A 
ATOM      2  C   UNL     1      -1.665  43.802   1.075  1.00  0.00     0.014 A 
ATOM      3  C   UNL     1      -0.540  45.557   2.312  1.00  0.00     0.014 A 
ATOM      4  C   UNL     1      -2.749  43.879   1.955  1.00  0.00     0.047 A 
ATOM      5  C   UNL     1      -1.625  45.630   3.190  1.00  0.00     0.047 A 
ATOM      6  C   UNL     1      -2.733  44.792   3.013  1.00  0.00     0.115 A 
ENDROOT
BRANCH   1   7
ATOM      7  C   UNL     1       0.596  44.557   0.311  1.00  0.00     0.071 C 
ATOM      8  O   UNL     1       0.425  44.697  -0.929  1.00  0.00    -0.545 OA
ATOM      9  O   UNL     1       1.880  44.320   0.790  1.00  0.00    -0.545 OA
ENDBRANCH   1   7
BRANCH   6  10
ATOM     10  O   UNL     1      -3.820  44.857   3.882  1.00  0.00    -0.508 OA
ATOM     11  H   UNL     1      -3.930  45.624   4.536  1.00  0.00     0.293 HD
ENDBRANCH   6  10
TORSDOF 2
ENDMDL
MODEL 9
REMARK VINA RESULT:    -4.560      0.031      1.532
REMARK INTER + INTRA:          -4.994
REMARK INTER:                  -4.959
REMARK INTRA:                  -0.035
REMARK UNBOUND:                -0.035
REMARK SMILES O=C([O-])c1ccc(O)cc1
REMARK SMILES IDX 4 1 5 2 10 3 6 4 9 5 7 6 2 7 1 8 3 9 8 10
REMARK H PARENT 8 11
REMARK Flexibility Score: inf
ROOT
ATOM      1  C   UNL     1       7.092  44.956  -5.259  1.00  0.00    -0.003 A 
ATOM      2  C   UNL     1       8.330  44.322  -5.048  1.00  0.00     0.014 A 
ATOM      3  C   UNL     1       7.037  46.078  -6.107  1.00  0.00     0.014 A 
ATOM      4  C   UNL     1       9.487  44.801  -5.672  1.00  0.00     0.047 A 
ATOM      5  C   UNL     1       8.195  46.554  -6.728  1.00  0.00     0.047 A 
ATOM      6  C   UNL     1       9.424  45.916  -6.512  1.00  0.00     0.115 A 
ENDROOT
BRANCH   1   7
ATOM      7  C   UNL     1       5.871  44.447  -4.599  1.00  0.00     0.071 C 
ATOM      8  O   UNL     1       5.838  43.282  -4.121  1.00  0.00    -0.545 OA
ATOM      9  O   UNL     1       4.738  45.247  -4.497  1.00  0.00    -0.545 OA
ENDBRANCH   1   7
BRANCH   6  10
ATOM     10  O   UNL     1      10.584  46.381  -7.125  1.00  0.00    -0.508 OA
ATOM     11  H   UNL     1      10.677  47.347  -7.419  1.00  0.00     0.293 HD
ENDBRANCH   6  10
TORSDOF 2
ENDMDL
