MODEL 1
REMARK VINA RESULT:    -3.672      0.000      0.000
REMARK INTER + INTRA:          -5.056
REMARK INTER:                  -4.745
REMARK INTRA:                  -0.311
REMARK UNBOUND:                -0.311
REMARK SMILES CCCCCCC(=O)[O-]
REMARK SMILES IDX 5 1 6 2 7 3 8 4 9 5 4 6 3 7 2 8 1 9
REMARK H PARENT
REMARK Flexibility Score: inf
ROOT
ATOM      1  C   UNL     1       3.777 -10.336   5.440  1.00  0.00     0.006 C 
ENDROOT
BRANCH   1   2
ATOM      2  C   UNL     1       4.544 -10.873   4.224  1.00  0.00     0.053 C 
BRANCH   2   3
ATOM      3  C   UNL     1       3.927 -10.377   2.956  1.00  0.00     0.041 C 
ATOM      4  O   UNL     1       4.583  -9.635   2.179  1.00  0.00    -0.550 OA
ATOM      5  O   UNL     1       2.643 -10.775   2.605  1.00  0.00    -0.550 OA
ENDBRANCH   2   3
ENDBRANCH   1   2
BRANCH   1   6
ATOM      6  C   UNL     1       4.611  -9.362   6.292  1.00  0.00     0.000 C 
BRANCH   6   7
ATOM      7  C   UNL     1       6.122  -9.357   5.986  1.00  0.00    -0.000 C 
BRANCH   7   8
ATOM      8  C   UNL     1       6.693  -7.994   5.556  1.00  0.00    -0.003 C 
ATOM      9  C   UNL     1       6.751  -7.826   4.039  1.00  0.00     0.004 C 
ENDBRANCH   7   8
ENDBRANCH   6   7
ENDBRANCH   1   6
TORSDOF 5
ENDMDL
MODEL 2
REMARK VINA RESULT:    -3.645      1.428      2.035
REMARK INTER + INTRA:          -5.021
REMARK INTER:                  -4.855
REMARK INTRA:                  -0.166
REMARK UNBOUND:                -0.311
REMARK SMILES CCCCCCC(=O)[O-]
REMARK SMILES IDX 5 1 6 2 7 3 8 4 9 5 4 6 3 7 2 8 1 9
REMARK H PARENT
REMARK Flexibility Score: inf
ROOT
ATOM      1  C   UNL     1       4.704 -10.044   4.779  1.00  0.00     0.006 C 
ENDROOT
BRANCH   1   2
ATOM      2  C   UNL     1       4.936  -9.311   3.451  1.00  0.00     0.053 C 
BRANCH   2   3
ATOM      3  C   UNL     1       3.710  -9.377   2.597  1.00  0.00     0.041 C 
ATOM      4  O   UNL     1       3.027 -10.434   2.548  1.00  0.00    -0.550 OA
ATOM      5  O   UNL     1       3.292  -8.255   1.893  1.00  0.00    -0.550 OA
ENDBRANCH   2   3
ENDBRANCH   1   2
BRANCH   1   6
ATOM      6  C   UNL     1       5.266  -9.280   5.991  1.00  0.00     0.000 C 
BRANCH   6   7
ATOM      7  C   UNL     1       6.418  -8.304   5.671  1.00  0.00    -0.000 C 
BRANCH   7   8
ATOM      8  C   UNL     1       6.834  -7.387   6.834  1.00  0.00    -0.003 C 
ATOM      9  C   UNL     1       6.092  -7.699   8.133  1.00  0.00     0.004 C 
ENDBRANCH   7   8
ENDBRANCH   6   7
ENDBRANCH   1   6
TORSDOF 5
ENDMDL
MODEL 3
REMARK VINA RESULT:    -3.514      1.291      2.040
REMARK INTER + INTRA:          -4.851
REMARK INTER:                  -4.676
REMARK INTRA:                  -0.175
REMARK UNBOUND:                -0.311
REMARK SMILES CCCCCCC(=O)[O-]
REMARK SMILES IDX 5 1 6 2 7 3 8 4 9 5 4 6 3 7 2 8 1 9
REMARK H PARENT
REMARK Flexibility Score: inf
ROOT
ATOM      1  C   UNL     1       5.705  -8.577   3.532  1.00  0.00     0.006 C 
ENDROOT
BRANCH   1   2
ATOM      2  C   UNL     1       4.707  -9.714   3.788  1.00  0.00     0.053 C 
BRANCH   2   3
ATOM      3  C   UNL     1       3.651  -9.731   2.729  1.00  0.00     0.041 C 
ATOM      4  O   UNL     1       3.575  -8.791   1.895  1.00  0.00    -0.550 OA
ATOM      5  O   UNL     1       2.780 -10.809   2.632  1.00  0.00    -0.550 OA
ENDBRANCH   2   3
ENDBRANCH   1   2
BRANCH   1   6
ATOM      6  C   UNL     1       6.461  -8.146   4.802  1.00  0.00     0.000 C 
BRANCH   6   7
ATOM      7  C   UNL     1       6.049  -8.888   6.090  1.00  0.00    -0.000 C 
BRANCH   7   8
ATOM      8  C   UNL     1       5.990  -8.012   7.353  1.00  0.00    -0.003 C 
ATOM      9  C   UNL     1       7.048  -6.910   7.363  1.00  0.00     0.004 C 
ENDBRANCH   7   8
ENDBRANCH   6   7
ENDBRANCH   1   6
TORSDOF 5
ENDMDL
MODEL 4
REMARK VINA RESULT:    -3.485     22.008     23.113
REMARK INTER + INTRA:          -4.815
REMARK INTER:                  -4.698
REMARK INTRA:                  -0.117
REMARK UNBOUND:                -0.311
REMARK SMILES CCCCCCC(=O)[O-]
REMARK SMILES IDX 5 1 6 2 7 3 8 4 9 5 4 6 3 7 2 8 1 9
REMARK H PARENT
REMARK Flexibility Score: inf
ROOT
ATOM      1  C   UNL     1      -5.226   5.778  -8.659  1.00  0.00     0.006 C 
ENDROOT
BRANCH   1   2
ATOM      2  C   UNL     1      -5.095   7.061  -9.490  1.00  0.00     0.053 C 
BRANCH   2   3
ATOM      3  C   UNL     1      -4.985   8.254  -8.596  1.00  0.00     0.041 C 
ATOM      4  O   UNL     1      -5.986   8.650  -7.941  1.00  0.00    -0.550 OA
ATOM      5  O   UNL     1      -3.766   8.901  -8.446  1.00  0.00    -0.550 OA
ENDBRANCH   2   3
ENDBRANCH   1   2
BRANCH   1   6
ATOM      6  C   UNL     1      -5.652   4.561  -9.500  1.00  0.00     0.000 C 
BRANCH   6   7
ATOM      7  C   UNL     1      -5.202   3.194  -8.944  1.00  0.00    -0.000 C 
BRANCH   7   8
ATOM      8  C   UNL     1      -6.226   2.057  -9.109  1.00  0.00    -0.003 C 
ATOM      9  C   UNL     1      -7.582   2.384  -8.488  1.00  0.00     0.004 C 
ENDBRANCH   7   8
ENDBRANCH   6   7
ENDBRANCH   1   6
TORSDOF 5
ENDMDL
MODEL 5
REMARK VINA RESULT:    -3.325     21.626     22.350
REMARK INTER + INTRA:          -4.607
REMARK INTER:                  -4.259
REMARK INTRA:                  -0.349
REMARK UNBOUND:                -0.311
REMARK SMILES CCCCCCC(=O)[O-]
REMARK SMILES IDX 5 1 6 2 7 3 8 4 9 5 4 6 3 7 2 8 1 9
REMARK H PARENT
REMARK Flexibility Score: inf
ROOT
ATOM      1  C   UNL     1      -5.416   3.885 -10.062  1.00  0.00     0.006 C 
ENDROOT
BRANCH   1   2
ATOM      2  C   UNL     1      -5.008   4.433  -8.688  1.00  0.00     0.053 C 
BRANCH   2   3
ATOM      3  C   UNL     1      -5.709   5.724  -8.411  1.00  0.00     0.041 C 
ATOM      4  O   UNL     1      -5.061   6.803  -8.375  1.00  0.00    -0.550 OA
ATOM      5  O   UNL     1      -7.088   5.744  -8.241  1.00  0.00    -0.550 OA
ENDBRANCH   2   3
ENDBRANCH   1   2
BRANCH   1   6
ATOM      6  C   UNL     1      -6.043   2.482  -9.985  1.00  0.00     0.000 C 
BRANCH   6   7
ATOM      7  C   UNL     1      -6.713   2.139  -8.639  1.00  0.00    -0.000 C 
BRANCH   7   8
ATOM      8  C   UNL     1      -8.226   2.414  -8.578  1.00  0.00    -0.003 C 
ATOM      9  C   UNL     1      -8.727   2.665  -7.157  1.00  0.00     0.004 C 
ENDBRANCH   7   8
ENDBRANCH   6   7
ENDBRANCH   1   6
TORSDOF 5
ENDMDL
MODEL 6
REMARK VINA RESULT:    -3.254     21.142     21.958
REMARK INTER + INTRA:          -4.516
REMARK INTER:                  -4.245
REMARK INTRA:                  -0.271
REMARK UNBOUND:                -0.311
REMARK SMILES CCCCCCC(=O)[O-]
REMARK SMILES IDX 5 1 6 2 7 3 8 4 9 5 4 6 3 7 2 8 1 9
REMARK H PARENT
REMARK Flexibility Score: inf
ROOT
ATOM      1  C   UNL     1      -6.767   1.973  -8.639  1.00  0.00     0.006 C 
ENDROOT
BRANCH   1   2
ATOM      2  C   UNL     1      -8.223   2.446  -8.728  1.00  0.00     0.053 C 
BRANCH   2   3
ATOM      3  C   UNL     1      -8.653   3.064  -7.435  1.00  0.00     0.041 C 
ATOM      4  O   UNL     1      -8.989   2.335  -6.465  1.00  0.00    -0.550 OA
ATOM      5  O   UNL     1      -8.634   4.444  -7.284  1.00  0.00    -0.550 OA
ENDBRANCH   2   3
ENDBRANCH   1   2
BRANCH   1   6
ATOM      6  C   UNL     1      -5.840   2.699  -9.630  1.00  0.00     0.000 C 
BRANCH   6   7
ATOM      7  C   UNL     1      -4.901   3.747  -8.999  1.00  0.00    -0.000 C 
BRANCH   7   8
ATOM      8  C   UNL     1      -5.179   5.202  -9.415  1.00  0.00    -0.003 C 
ATOM      9  C   UNL     1      -5.705   6.059  -8.265  1.00  0.00     0.004 C 
ENDBRANCH   7   8
ENDBRANCH   6   7
ENDBRANCH   1   6
TORSDOF 5
ENDMDL
MODEL 7
REMARK VINA RESULT:    -3.205     15.058     16.500
REMARK INTER + INTRA:          -4.453
REMARK INTER:                  -4.196
REMARK INTRA:                  -0.256
REMARK UNBOUND:                -0.311
REMARK SMILES CCCCCCC(=O)[O-]
REMARK SMILES IDX 5 1 6 2 7 3 8 4 9 5 4 6 3 7 2 8 1 9
REMARK H PARENT
REMARK Flexibility Score: inf
ROOT
ATOM      1  C   UNL     1      -7.136  -7.689  -7.933  1.00  0.00     0.006 C 
ENDROOT
BRANCH   1   2
ATOM      2  C   UNL     1      -6.270  -6.491  -7.521  1.00  0.00     0.053 C 
BRANCH   2   3
ATOM      3  C   UNL     1      -6.899  -5.211  -7.971  1.00  0.00     0.041 C 
ATOM      4  O   UNL     1      -6.405  -4.566  -8.933  1.00  0.00    -0.550 OA
ATOM      5  O   UNL     1      -8.060  -4.755  -7.361  1.00  0.00    -0.550 OA
ENDBRANCH   2   3
ENDBRANCH   1   2
BRANCH   1   6
ATOM      6  C   UNL     1      -6.858  -8.947  -7.091  1.00  0.00     0.000 C 
BRANCH   6   7
ATOM      7  C   UNL     1      -5.723  -8.803  -6.057  1.00  0.00    -0.000 C 
BRANCH   7   8
ATOM      8  C   UNL     1      -4.482  -9.670  -6.331  1.00  0.00    -0.003 C 
ATOM      9  C   UNL     1      -3.319  -8.874  -6.921  1.00  0.00     0.004 C 
ENDBRANCH   7   8
ENDBRANCH   6   7
ENDBRANCH   1   6
TORSDOF 5
ENDMDL
MODEL 8
REMARK VINA RESULT:    -3.122     21.543     22.122
REMARK INTER + INTRA:          -4.345
REMARK INTER:                  -4.089
REMARK INTRA:                  -0.256
REMARK UNBOUND:                -0.311
REMARK SMILES CCCCCCC(=O)[O-]
REMARK SMILES IDX 5 1 6 2 7 3 8 4 9 5 4 6 3 7 2 8 1 9
REMARK H PARENT
REMARK Flexibility Score: inf
ROOT
ATOM      1  C   UNL     1      -7.432   3.340  -9.338  1.00  0.00     0.006 C 
ENDROOT
BRANCH   1   2
ATOM      2  C   UNL     1      -6.879   4.612  -8.683  1.00  0.00     0.053 C 
BRANCH   2   3
ATOM      3  C   UNL     1      -5.384   4.615  -8.727  1.00  0.00     0.041 C 
ATOM      4  O   UNL     1      -4.735   5.521  -8.141  1.00  0.00    -0.550 OA
ATOM      5  O   UNL     1      -4.705   3.590  -9.373  1.00  0.00    -0.550 OA
ENDBRANCH   2   3
ENDBRANCH   1   2
BRANCH   1   6
ATOM      6  C   UNL     1      -7.842   2.268  -8.312  1.00  0.00     0.000 C 
BRANCH   6   7
ATOM      7  C   UNL     1      -9.296   2.369  -7.807  1.00  0.00    -0.000 C 
BRANCH   7   8
ATOM      8  C   UNL     1      -9.453   2.377  -6.276  1.00  0.00    -0.003 C 
ATOM      9  C   UNL     1      -9.251   3.761  -5.664  1.00  0.00     0.004 C 
ENDBRANCH   7   8
ENDBRANCH   6   7
ENDBRANCH   1   6
TORSDOF 5
ENDMDL
MODEL 9
REMARK VINA RESULT:    -3.109      1.546      2.746
REMARK INTER + INTRA:          -4.329
REMARK INTER:                  -4.199
REMARK INTRA:                  -0.130
REMARK UNBOUND:                -0.311
REMARK SMILES CCCCCCC(=O)[O-]
REMARK SMILES IDX 5 1 6 2 7 3 8 4 9 5 4 6 3 7 2 8 1 9
REMARK H PARENT
REMARK Flexibility Score: inf
ROOT
ATOM      1  C   UNL     1       4.782 -10.201   4.684  1.00  0.00     0.006 C 
ENDROOT
BRANCH   1   2
ATOM      2  C   UNL     1       4.932  -9.309   3.445  1.00  0.00     0.053 C 
BRANCH   2   3
ATOM      3  C   UNL     1       3.700  -9.377   2.599  1.00  0.00     0.041 C 
ATOM      4  O   UNL     1       3.011 -10.430   2.567  1.00  0.00    -0.550 OA
ATOM      5  O   UNL     1       3.285  -8.260   1.885  1.00  0.00    -0.550 OA
ENDBRANCH   2   3
ENDBRANCH   1   2
BRANCH   1   6
ATOM      6  C   UNL     1       5.018  -9.442   6.001  1.00  0.00     0.000 C 
BRANCH   6   7
ATOM      7  C   UNL     1       4.723 -10.249   7.282  1.00  0.00    -0.000 C 
BRANCH   7   8
ATOM      8  C   UNL     1       4.228  -9.414   8.476  1.00  0.00    -0.003 C 
ATOM      9  C   UNL     1       3.118  -8.435   8.097  1.00  0.00     0.004 C 
ENDBRANCH   7   8
ENDBRANCH   6   7
ENDBRANCH   1   6
TORSDOF 5
ENDMDL
