MODEL 1
REMARK VINA RESULT:    -7.755      0.000      0.000
REMARK INTER + INTRA:         -12.575
REMARK INTER:                 -12.061
REMARK INTRA:                  -0.514
REMARK UNBOUND:                -0.514
REMARK SMILES C[C@@]12C[C@@]3(O)O[C@@H](O1)[C@]1(COC(=O)c4ccccc4)[C@H]3C[C@@]12O[C@H]1O[C@H](CO)[C@@H](O)[C@@H](O)[C@@H]1O
REMARK SMILES IDX 1 1 2 2 3 3 4 4 20 5 21 6 22 7 9 8 7 9 8 10 6 11 23 12 24 13
REMARK SMILES IDX 33 14 25 15 31 16 26 17 29 18 34 19 32 21 27 23 28 24 30 26
REMARK SMILES IDX 5 28 10 30 11 31 12 32 13 33 14 34 15 35 19 36 16 37 18 38
REMARK SMILES IDX 17 39
REMARK H PARENT 34 20 32 22 28 25 30 27 5 29
REMARK Flexibility Score: inf
ROOT
ATOM      1  C   UNL     1       7.691   3.629   0.091  1.00  0.00     0.046 C 
ATOM      2  C   UNL     1       7.256   2.203  -0.272  1.00  0.00     0.104 C 
ATOM      3  C   UNL     1       7.752   1.178   0.819  1.00  0.00     0.104 C 
ATOM      4  C   UNL     1       7.315  -0.214   0.252  1.00  0.00     0.175 C 
ATOM      5  C   UNL     1       7.754  -0.354  -1.241  1.00  0.00     0.070 C 
ATOM      6  C   UNL     1       8.826   0.673  -1.641  1.00  0.00     0.050 C 
ATOM      7  C   UNL     1       7.690   1.705  -1.710  1.00  0.00     0.115 C 
ATOM      8  C   UNL     1       6.696   0.548  -1.870  1.00  0.00     0.096 C 
ATOM      9  C   UNL     1       5.630   0.765  -0.802  1.00  0.00     0.267 C 
ATOM     10  O   UNL     1       5.846   2.072  -0.278  1.00  0.00    -0.342 OA
ATOM     11  O   UNL     1       5.902  -0.189   0.212  1.00  0.00    -0.320 OA
ENDROOT
BRANCH   7  12
ATOM     12  O   UNL     1       7.856   2.631  -2.781  1.00  0.00    -0.339 OA
BRANCH  12  13
ATOM     13  C   UNL     1       6.687   2.872  -3.554  1.00  0.00     0.282 C 
ATOM     14  C   UNL     1       7.057   3.122  -5.035  1.00  0.00     0.202 C 
ATOM     15  O   UNL     1       5.946   3.969  -3.045  1.00  0.00    -0.341 OA
ATOM     16  C   UNL     1       7.755   4.485  -5.238  1.00  0.00     0.179 C 
ATOM     17  C   UNL     1       6.703   5.168  -3.023  1.00  0.00     0.178 C 
ATOM     18  C   UNL     1       7.038   5.614  -4.466  1.00  0.00     0.177 C 
BRANCH  14  19
ATOM     19  O   UNL     1       5.879   3.080  -5.802  1.00  0.00    -0.385 OA
ATOM     20  H   UNL     1       6.049   3.612  -6.623  1.00  0.00     0.211 HD
ENDBRANCH  14  19
BRANCH  16  21
ATOM     21  O   UNL     1       9.126   4.411  -4.922  1.00  0.00    -0.387 OA
ATOM     22  H   UNL     1       9.256   4.724  -3.992  1.00  0.00     0.211 HD
ENDBRANCH  16  21
BRANCH  17  23
ATOM     23  C   UNL     1       5.871   6.232  -2.292  1.00  0.00     0.191 C 
BRANCH  23  24
ATOM     24  O   UNL     1       6.670   7.329  -1.945  1.00  0.00    -0.394 OA
ATOM     25  H   UNL     1       6.628   7.397  -0.956  1.00  0.00     0.210 HD
ENDBRANCH  23  24
ENDBRANCH  17  23
BRANCH  18  26
ATOM     26  O   UNL     1       7.842   6.767  -4.444  1.00  0.00    -0.387 OA
ATOM     27  H   UNL     1       7.239   7.539  -4.608  1.00  0.00     0.211 HD
ENDBRANCH  18  26
ENDBRANCH  12  13
ENDBRANCH   7  12
BRANCH   4  28
ATOM     28  O   UNL     1       7.789  -1.262   1.052  1.00  0.00    -0.365 OA
ATOM     29  H   UNL     1       7.008  -1.620   1.550  1.00  0.00     0.214 HD
ENDBRANCH   4  28
BRANCH   8  30
ATOM     30  C   UNL     1       6.182   0.108  -3.260  1.00  0.00     0.249 C 
BRANCH  30  31
ATOM     31  O   UNL     1       4.757   0.056  -3.316  1.00  0.00    -0.461 OA
BRANCH  31  32
ATOM     32  C   UNL     1       4.011  -1.130  -3.318  1.00  0.00     0.338 C 
ATOM     33  O   UNL     1       4.426  -2.144  -3.944  1.00  0.00    -0.246 OA
BRANCH  32  34
ATOM     34  C   UNL     1       2.731  -1.188  -2.580  1.00  0.00     0.060 A 
ATOM     35  C   UNL     1       2.064  -0.008  -2.201  1.00  0.00     0.015 A 
ATOM     36  C   UNL     1       2.166  -2.430  -2.241  1.00  0.00     0.015 A 
ATOM     37  C   UNL     1       0.857  -0.074  -1.498  1.00  0.00     0.001 A 
ATOM     38  C   UNL     1       0.959  -2.491  -1.538  1.00  0.00     0.001 A 
ATOM     39  C   UNL     1       0.305  -1.314  -1.168  1.00  0.00     0.000 A 
ENDBRANCH  32  34
ENDBRANCH  31  32
ENDBRANCH  30  31
ENDBRANCH   8  30
TORSDOF 12
ENDMDL
MODEL 2
REMARK VINA RESULT:    -7.751      1.732      3.237
REMARK INTER + INTRA:         -12.569
REMARK INTER:                 -11.788
REMARK INTRA:                  -0.780
REMARK UNBOUND:                -0.514
REMARK SMILES C[C@@]12C[C@@]3(O)O[C@@H](O1)[C@]1(COC(=O)c4ccccc4)[C@H]3C[C@@]12O[C@H]1O[C@H](CO)[C@@H](O)[C@@H](O)[C@@H]1O
REMARK SMILES IDX 1 1 2 2 3 3 4 4 20 5 21 6 22 7 9 8 7 9 8 10 6 11 23 12 24 13
REMARK SMILES IDX 33 14 25 15 31 16 26 17 29 18 34 19 32 21 27 23 28 24 30 26
REMARK SMILES IDX 5 28 10 30 11 31 12 32 13 33 14 34 15 35 19 36 16 37 18 38
REMARK SMILES IDX 17 39
REMARK H PARENT 34 20 32 22 28 25 30 27 5 29
REMARK Flexibility Score: inf
ROOT
ATOM      1  C   UNL     1       6.354   5.416  -1.131  1.00  0.00     0.046 C 
ATOM      2  C   UNL     1       6.413   4.207  -0.188  1.00  0.00     0.104 C 
ATOM      3  C   UNL     1       7.266   4.547   1.094  1.00  0.00     0.104 C 
ATOM      4  C   UNL     1       7.305   3.197   1.888  1.00  0.00     0.175 C 
ATOM      5  C   UNL     1       7.710   2.023   0.941  1.00  0.00     0.070 C 
ATOM      6  C   UNL     1       8.357   2.512  -0.365  1.00  0.00     0.050 C 
ATOM      7  C   UNL     1       6.937   2.863  -0.837  1.00  0.00     0.115 C 
ATOM      8  C   UNL     1       6.388   1.871   0.196  1.00  0.00     0.096 C 
ATOM      9  C   UNL     1       5.350   2.644   1.004  1.00  0.00     0.267 C 
ATOM     10  O   UNL     1       5.131   3.868   0.309  1.00  0.00    -0.342 OA
ATOM     11  O   UNL     1       5.966   2.924   2.250  1.00  0.00    -0.320 OA
ENDROOT
BRANCH   7  12
ATOM     12  O   UNL     1       6.741   2.601  -2.225  1.00  0.00    -0.339 OA
BRANCH  12  13
ATOM     13  C   UNL     1       7.930   2.333  -2.959  1.00  0.00     0.282 C 
ATOM     14  C   UNL     1       8.406   3.602  -3.703  1.00  0.00     0.202 C 
ATOM     15  O   UNL     1       7.741   1.270  -3.880  1.00  0.00    -0.341 OA
ATOM     16  C   UNL     1       7.478   3.967  -4.885  1.00  0.00     0.179 C 
ATOM     17  C   UNL     1       6.708   1.542  -4.813  1.00  0.00     0.178 C 
ATOM     18  C   UNL     1       7.111   2.724  -5.725  1.00  0.00     0.177 C 
BRANCH  14  19
ATOM     19  O   UNL     1       9.708   3.376  -4.183  1.00  0.00    -0.385 OA
ATOM     20  H   UNL     1      10.255   4.163  -3.919  1.00  0.00     0.211 HD
ENDBRANCH  14  19
BRANCH  16  21
ATOM     21  O   UNL     1       6.339   4.668  -4.444  1.00  0.00    -0.387 OA
ATOM     22  H   UNL     1       6.420   4.829  -3.472  1.00  0.00     0.211 HD
ENDBRANCH  16  21
BRANCH  17  23
ATOM     23  C   UNL     1       6.473   0.264  -5.632  1.00  0.00     0.191 C 
BRANCH  23  24
ATOM     24  O   UNL     1       5.226   0.311  -6.269  1.00  0.00    -0.394 OA
ATOM     25  H   UNL     1       5.278  -0.334  -7.023  1.00  0.00     0.210 HD
ENDBRANCH  23  24
ENDBRANCH  17  23
BRANCH  18  26
ATOM     26  O   UNL     1       6.063   3.035  -6.609  1.00  0.00    -0.387 OA
ATOM     27  H   UNL     1       5.505   2.217  -6.690  1.00  0.00     0.211 HD
ENDBRANCH  18  26
ENDBRANCH  12  13
ENDBRANCH   7  12
BRANCH   4  28
ATOM     28  O   UNL     1       8.134   3.292   3.014  1.00  0.00    -0.365 OA
ATOM     29  H   UNL     1       7.688   2.787   3.743  1.00  0.00     0.214 HD
ENDBRANCH   4  28
BRANCH   8  30
ATOM     30  C   UNL     1       6.001   0.426  -0.195  1.00  0.00     0.249 C 
BRANCH  30  31
ATOM     31  O   UNL     1       4.590   0.265  -0.337  1.00  0.00    -0.461 OA
BRANCH  31  32
ATOM     32  C   UNL     1       3.953  -0.078  -1.537  1.00  0.00     0.338 C 
ATOM     33  O   UNL     1       4.541   0.086  -2.641  1.00  0.00    -0.246 OA
BRANCH  32  34
ATOM     34  C   UNL     1       2.583  -0.633  -1.503  1.00  0.00     0.060 A 
ATOM     35  C   UNL     1       1.553   0.031  -0.810  1.00  0.00     0.015 A 
ATOM     36  C   UNL     1       2.294  -1.841  -2.160  1.00  0.00     0.015 A 
ATOM     37  C   UNL     1       0.263  -0.506  -0.778  1.00  0.00     0.001 A 
ATOM     38  C   UNL     1       1.002  -2.375  -2.127  1.00  0.00     0.001 A 
ATOM     39  C   UNL     1      -0.013  -1.707  -1.437  1.00  0.00     0.000 A 
ENDBRANCH  32  34
ENDBRANCH  31  32
ENDBRANCH  30  31
ENDBRANCH   8  30
TORSDOF 12
ENDMDL
MODEL 3
REMARK VINA RESULT:    -7.515      2.241      3.554
REMARK INTER + INTRA:         -12.202
REMARK INTER:                 -11.207
REMARK INTRA:                  -0.995
REMARK UNBOUND:                -0.514
REMARK SMILES C[C@@]12C[C@@]3(O)O[C@@H](O1)[C@]1(COC(=O)c4ccccc4)[C@H]3C[C@@]12O[C@H]1O[C@H](CO)[C@@H](O)[C@@H](O)[C@@H]1O
REMARK SMILES IDX 1 1 2 2 3 3 4 4 20 5 21 6 22 7 9 8 7 9 8 10 6 11 23 12 24 13
REMARK SMILES IDX 33 14 25 15 31 16 26 17 29 18 34 19 32 21 27 23 28 24 30 26
REMARK SMILES IDX 5 28 10 30 11 31 12 32 13 33 14 34 15 35 19 36 16 37 18 38
REMARK SMILES IDX 17 39
REMARK H PARENT 34 20 32 22 28 25 30 27 5 29
REMARK Flexibility Score: inf
ROOT
ATOM      1  C   UNL     1       6.144   6.803  -0.115  1.00  0.00     0.046 C 
ATOM      2  C   UNL     1       6.160   5.572   0.800  1.00  0.00     0.104 C 
ATOM      3  C   UNL     1       6.479   5.993   2.287  1.00  0.00     0.104 C 
ATOM      4  C   UNL     1       6.552   4.630   3.054  1.00  0.00     0.175 C 
ATOM      5  C   UNL     1       7.472   3.625   2.290  1.00  0.00     0.070 C 
ATOM      6  C   UNL     1       8.375   4.319   1.257  1.00  0.00     0.050 C 
ATOM      7  C   UNL     1       7.133   4.406   0.356  1.00  0.00     0.115 C 
ATOM      8  C   UNL     1       6.512   3.259   1.162  1.00  0.00     0.096 C 
ATOM      9  C   UNL     1       5.135   3.753   1.595  1.00  0.00     0.267 C 
ATOM     10  O   UNL     1       4.890   4.951   0.863  1.00  0.00    -0.342 OA
ATOM     11  O   UNL     1       5.257   4.070   2.971  1.00  0.00    -0.320 OA
ENDROOT
BRANCH   7  12
ATOM     12  O   UNL     1       7.441   4.201  -1.022  1.00  0.00    -0.339 OA
BRANCH  12  13
ATOM     13  C   UNL     1       6.328   3.861  -1.841  1.00  0.00     0.282 C 
ATOM     14  C   UNL     1       6.687   2.689  -2.784  1.00  0.00     0.202 C 
ATOM     15  O   UNL     1       5.882   4.976  -2.597  1.00  0.00    -0.341 OA
ATOM     16  C   UNL     1       7.673   3.116  -3.894  1.00  0.00     0.179 C 
ATOM     17  C   UNL     1       6.896   5.497  -3.440  1.00  0.00     0.178 C 
ATOM     18  C   UNL     1       7.267   4.464  -4.529  1.00  0.00     0.177 C 
BRANCH  14  19
ATOM     19  O   UNL     1       5.502   2.209  -3.369  1.00  0.00    -0.385 OA
ATOM     20  H   UNL     1       5.560   2.401  -4.342  1.00  0.00     0.211 HD
ENDBRANCH  14  19
BRANCH  16  21
ATOM     21  O   UNL     1       9.001   3.127  -3.424  1.00  0.00    -0.387 OA
ATOM     22  H   UNL     1       9.565   3.613  -4.075  1.00  0.00     0.211 HD
ENDBRANCH  16  21
BRANCH  17  23
ATOM     23  C   UNL     1       6.362   6.795  -4.063  1.00  0.00     0.191 C 
BRANCH  23  24
ATOM     24  O   UNL     1       7.171   7.882  -3.707  1.00  0.00    -0.394 OA
ATOM     25  H   UNL     1       6.612   8.462  -3.127  1.00  0.00     0.210 HD
ENDBRANCH  23  24
ENDBRANCH  17  23
BRANCH  18  26
ATOM     26  O   UNL     1       8.316   4.955  -5.326  1.00  0.00    -0.387 OA
ATOM     27  H   UNL     1       9.163   4.703  -4.871  1.00  0.00     0.211 HD
ENDBRANCH  18  26
ENDBRANCH  12  13
ENDBRANCH   7  12
BRANCH   4  28
ATOM     28  O   UNL     1       6.949   4.816   4.386  1.00  0.00    -0.365 OA
ATOM     29  H   UNL     1       7.348   5.723   4.443  1.00  0.00     0.214 HD
ENDBRANCH   4  28
BRANCH   8  30
ATOM     30  C   UNL     1       6.582   1.794   0.672  1.00  0.00     0.249 C 
BRANCH  30  31
ATOM     31  O   UNL     1       5.342   1.108   0.846  1.00  0.00    -0.461 OA
BRANCH  31  32
ATOM     32  C   UNL     1       4.596   0.552  -0.202  1.00  0.00     0.338 C 
ATOM     33  O   UNL     1       5.176   0.101  -1.229  1.00  0.00    -0.246 OA
BRANCH  32  34
ATOM     34  C   UNL     1       3.123   0.495  -0.099  1.00  0.00     0.060 A 
ATOM     35  C   UNL     1       2.358  -0.177  -1.071  1.00  0.00     0.015 A 
ATOM     36  C   UNL     1       2.465   1.123   0.973  1.00  0.00     0.015 A 
ATOM     37  C   UNL     1       0.964  -0.218  -0.968  1.00  0.00     0.001 A 
ATOM     38  C   UNL     1       1.071   1.078   1.072  1.00  0.00     0.001 A 
ATOM     39  C   UNL     1       0.321   0.407   0.103  1.00  0.00     0.000 A 
ENDBRANCH  32  34
ENDBRANCH  31  32
ENDBRANCH  30  31
ENDBRANCH   8  30
TORSDOF 12
ENDMDL
MODEL 4
REMARK VINA RESULT:    -7.231      1.869      3.734
REMARK INTER + INTRA:         -11.761
REMARK INTER:                 -10.749
REMARK INTRA:                  -1.012
REMARK UNBOUND:                -0.514
REMARK SMILES C[C@@]12C[C@@]3(O)O[C@@H](O1)[C@]1(COC(=O)c4ccccc4)[C@H]3C[C@@]12O[C@H]1O[C@H](CO)[C@@H](O)[C@@H](O)[C@@H]1O
REMARK SMILES IDX 1 1 2 2 3 3 4 4 20 5 21 6 22 7 9 8 7 9 8 10 6 11 23 12 24 13
REMARK SMILES IDX 33 14 25 15 31 16 26 17 29 18 34 19 32 21 27 23 28 24 30 26
REMARK SMILES IDX 5 28 10 30 11 31 12 32 13 33 14 34 15 35 19 36 16 37 18 38
REMARK SMILES IDX 17 39
REMARK H PARENT 34 20 32 22 28 25 30 27 5 29
REMARK Flexibility Score: inf
ROOT
ATOM      1  C   UNL     1       6.461   5.206  -1.319  1.00  0.00     0.046 C 
ATOM      2  C   UNL     1       6.460   4.083  -0.274  1.00  0.00     0.104 C 
ATOM      3  C   UNL     1       7.335   4.488   0.974  1.00  0.00     0.104 C 
ATOM      4  C   UNL     1       7.305   3.213   1.882  1.00  0.00     0.175 C 
ATOM      5  C   UNL     1       7.644   1.940   1.043  1.00  0.00     0.070 C 
ATOM      6  C   UNL     1       8.310   2.278  -0.301  1.00  0.00     0.050 C 
ATOM      7  C   UNL     1       6.909   2.661  -0.802  1.00  0.00     0.115 C 
ATOM      8  C   UNL     1       6.312   1.794   0.313  1.00  0.00     0.096 C 
ATOM      9  C   UNL     1       5.320   2.689   1.050  1.00  0.00     0.267 C 
ATOM     10  O   UNL     1       5.164   3.858   0.250  1.00  0.00    -0.342 OA
ATOM     11  O   UNL     1       5.955   3.045   2.267  1.00  0.00    -0.320 OA
ENDROOT
BRANCH   7  12
ATOM     12  O   UNL     1       6.693   2.289  -2.162  1.00  0.00    -0.339 OA
BRANCH  12  13
ATOM     13  C   UNL     1       7.766   2.595  -3.045  1.00  0.00     0.282 C 
ATOM     14  C   UNL     1       7.228   3.202  -4.362  1.00  0.00     0.202 C 
ATOM     15  O   UNL     1       8.551   1.446  -3.323  1.00  0.00    -0.341 OA
ATOM     16  C   UNL     1       6.500   2.152  -5.232  1.00  0.00     0.179 C 
ATOM     17  C   UNL     1       7.792   0.402  -3.910  1.00  0.00     0.178 C 
ATOM     18  C   UNL     1       7.293   0.828  -5.310  1.00  0.00     0.177 C 
BRANCH  14  19
ATOM     19  O   UNL     1       8.311   3.737  -5.081  1.00  0.00    -0.385 OA
ATOM     20  H   UNL     1       8.549   4.599  -4.648  1.00  0.00     0.211 HD
ENDBRANCH  14  19
BRANCH  16  21
ATOM     21  O   UNL     1       5.175   1.955  -4.798  1.00  0.00    -0.387 OA
ATOM     22  H   UNL     1       4.561   2.156  -5.546  1.00  0.00     0.211 HD
ENDBRANCH  16  21
BRANCH  17  23
ATOM     23  C   UNL     1       8.694  -0.838  -3.996  1.00  0.00     0.191 C 
BRANCH  23  24
ATOM     24  O   UNL     1       7.922  -2.005  -4.053  1.00  0.00    -0.394 OA
ATOM     25  H   UNL     1       7.655  -2.111  -5.004  1.00  0.00     0.210 HD
ENDBRANCH  23  24
ENDBRANCH  17  23
BRANCH  18  26
ATOM     26  O   UNL     1       6.488  -0.181  -5.867  1.00  0.00    -0.387 OA
ATOM     27  H   UNL     1       7.100  -0.907  -6.158  1.00  0.00     0.211 HD
ENDBRANCH  18  26
ENDBRANCH  12  13
ENDBRANCH   7  12
BRANCH   4  28
ATOM     28  O   UNL     1       8.143   3.362   2.996  1.00  0.00    -0.365 OA
ATOM     29  H   UNL     1       7.917   2.628   3.626  1.00  0.00     0.214 HD
ENDBRANCH   4  28
BRANCH   8  30
ATOM     30  C   UNL     1       5.847   0.343   0.051  1.00  0.00     0.249 C 
BRANCH  30  31
ATOM     31  O   UNL     1       4.448   0.265  -0.221  1.00  0.00    -0.461 OA
BRANCH  31  32
ATOM     32  C   UNL     1       3.906  -0.116  -1.456  1.00  0.00     0.338 C 
ATOM     33  O   UNL     1       4.568   0.037  -2.519  1.00  0.00    -0.246 OA
BRANCH  32  34
ATOM     34  C   UNL     1       2.549  -0.700  -1.507  1.00  0.00     0.060 A 
ATOM     35  C   UNL     1       2.298  -1.875  -2.240  1.00  0.00     0.015 A 
ATOM     36  C   UNL     1       1.486  -0.081  -0.826  1.00  0.00     0.015 A 
ATOM     37  C   UNL     1       1.009  -2.416  -2.288  1.00  0.00     0.001 A 
ATOM     38  C   UNL     1       0.199  -0.626  -0.876  1.00  0.00     0.001 A 
ATOM     39  C   UNL     1      -0.039  -1.793  -1.606  1.00  0.00     0.000 A 
ENDBRANCH  32  34
ENDBRANCH  31  32
ENDBRANCH  30  31
ENDBRANCH   8  30
TORSDOF 12
ENDMDL
MODEL 5
REMARK VINA RESULT:    -7.162      3.127      6.104
REMARK INTER + INTRA:         -11.654
REMARK INTER:                 -10.998
REMARK INTRA:                  -0.656
REMARK UNBOUND:                -0.514
REMARK SMILES C[C@@]12C[C@@]3(O)O[C@@H](O1)[C@]1(COC(=O)c4ccccc4)[C@H]3C[C@@]12O[C@H]1O[C@H](CO)[C@@H](O)[C@@H](O)[C@@H]1O
REMARK SMILES IDX 1 1 2 2 3 3 4 4 20 5 21 6 22 7 9 8 7 9 8 10 6 11 23 12 24 13
REMARK SMILES IDX 33 14 25 15 31 16 26 17 29 18 34 19 32 21 27 23 28 24 30 26
REMARK SMILES IDX 5 28 10 30 11 31 12 32 13 33 14 34 15 35 19 36 16 37 18 38
REMARK SMILES IDX 17 39
REMARK H PARENT 34 20 32 22 28 25 30 27 5 29
REMARK Flexibility Score: inf
ROOT
ATOM      1  C   UNL     1       5.910   1.697  -1.165  1.00  0.00     0.046 C 
ATOM      2  C   UNL     1       6.006   0.895  -2.468  1.00  0.00     0.104 C 
ATOM      3  C   UNL     1       7.042   1.562  -3.453  1.00  0.00     0.104 C 
ATOM      4  C   UNL     1       6.945   0.687  -4.748  1.00  0.00     0.175 C 
ATOM      5  C   UNL     1       5.451   0.495  -5.163  1.00  0.00     0.070 C 
ATOM      6  C   UNL     1       4.515   1.511  -4.488  1.00  0.00     0.050 C 
ATOM      7  C   UNL     1       4.635   0.651  -3.221  1.00  0.00     0.115 C 
ATOM      8  C   UNL     1       5.056  -0.530  -4.104  1.00  0.00     0.096 C 
ATOM      9  C   UNL     1       6.359  -1.052  -3.507  1.00  0.00     0.267 C 
ATOM     10  O   UNL     1       6.508  -0.410  -2.244  1.00  0.00    -0.342 OA
ATOM     11  O   UNL     1       7.386  -0.604  -4.376  1.00  0.00    -0.320 OA
ENDROOT
BRANCH   7  12
ATOM     12  O   UNL     1       3.411   0.574  -2.493  1.00  0.00    -0.339 OA
BRANCH  12  13
ATOM     13  C   UNL     1       3.238  -0.617  -1.734  1.00  0.00     0.282 C 
ATOM     14  C   UNL     1       1.849  -1.238  -2.007  1.00  0.00     0.202 C 
ATOM     15  O   UNL     1       3.398  -0.372  -0.345  1.00  0.00    -0.341 OA
ATOM     16  C   UNL     1       0.705  -0.400  -1.393  1.00  0.00     0.179 C 
ATOM     17  C   UNL     1       2.477   0.590   0.143  1.00  0.00     0.178 C 
ATOM     18  C   UNL     1       1.034   0.042   0.050  1.00  0.00     0.177 C 
BRANCH  14  19
ATOM     19  O   UNL     1       1.825  -2.534  -1.463  1.00  0.00    -0.385 OA
ATOM     20  H   UNL     1       1.867  -2.435  -0.475  1.00  0.00     0.211 HD
ENDBRANCH  14  19
BRANCH  16  21
ATOM     21  O   UNL     1       0.366   0.689  -2.219  1.00  0.00    -0.387 OA
ATOM     22  H   UNL     1      -0.053   0.343  -3.046  1.00  0.00     0.211 HD
ENDBRANCH  16  21
BRANCH  17  23
ATOM     23  C   UNL     1       2.859   0.904   1.597  1.00  0.00     0.191 C 
BRANCH  23  24
ATOM     24  O   UNL     1       1.876   0.433   2.477  1.00  0.00    -0.394 OA
ATOM     25  H   UNL     1       1.048   0.933   2.257  1.00  0.00     0.210 HD
ENDBRANCH  23  24
ENDBRANCH  17  23
BRANCH  18  26
ATOM     26  O   UNL     1       0.115   1.018   0.474  1.00  0.00    -0.387 OA
ATOM     27  H   UNL     1      -0.442   0.597   1.181  1.00  0.00     0.211 HD
ENDBRANCH  18  26
ENDBRANCH  12  13
ENDBRANCH   7  12
BRANCH   4  28
ATOM     28  O   UNL     1       7.726   1.220  -5.783  1.00  0.00    -0.365 OA
ATOM     29  H   UNL     1       8.452   1.744  -5.354  1.00  0.00     0.214 HD
ENDBRANCH   4  28
BRANCH   8  30
ATOM     30  C   UNL     1       4.041  -1.604  -4.557  1.00  0.00     0.249 C 
BRANCH  30  31
ATOM     31  O   UNL     1       4.417  -2.914  -4.132  1.00  0.00    -0.461 OA
BRANCH  31  32
ATOM     32  C   UNL     1       4.218  -4.076  -4.890  1.00  0.00     0.338 C 
ATOM     33  O   UNL     1       5.061  -5.014  -4.853  1.00  0.00    -0.246 OA
BRANCH  32  34
ATOM     34  C   UNL     1       3.012  -4.197  -5.737  1.00  0.00     0.060 A 
ATOM     35  C   UNL     1       3.119  -4.534  -7.099  1.00  0.00     0.015 A 
ATOM     36  C   UNL     1       1.738  -3.968  -5.189  1.00  0.00     0.015 A 
ATOM     37  C   UNL     1       1.972  -4.638  -7.893  1.00  0.00     0.001 A 
ATOM     38  C   UNL     1       0.594  -4.075  -5.986  1.00  0.00     0.001 A 
ATOM     39  C   UNL     1       0.711  -4.411  -7.336  1.00  0.00     0.000 A 
ENDBRANCH  32  34
ENDBRANCH  31  32
ENDBRANCH  30  31
ENDBRANCH   8  30
TORSDOF 12
ENDMDL
MODEL 6
REMARK VINA RESULT:    -7.157      2.449      4.726
REMARK INTER + INTRA:         -11.646
REMARK INTER:                 -11.213
REMARK INTRA:                  -0.433
REMARK UNBOUND:                -0.514
REMARK SMILES C[C@@]12C[C@@]3(O)O[C@@H](O1)[C@]1(COC(=O)c4ccccc4)[C@H]3C[C@@]12O[C@H]1O[C@H](CO)[C@@H](O)[C@@H](O)[C@@H]1O
REMARK SMILES IDX 1 1 2 2 3 3 4 4 20 5 21 6 22 7 9 8 7 9 8 10 6 11 23 12 24 13
REMARK SMILES IDX 33 14 25 15 31 16 26 17 29 18 34 19 32 21 27 23 28 24 30 26
REMARK SMILES IDX 5 28 10 30 11 31 12 32 13 33 14 34 15 35 19 36 16 37 18 38
REMARK SMILES IDX 17 39
REMARK H PARENT 34 20 32 22 28 25 30 27 5 29
REMARK Flexibility Score: inf
ROOT
ATOM      1  C   UNL     1       6.311   6.735  -1.736  1.00  0.00     0.046 C 
ATOM      2  C   UNL     1       6.287   6.034  -0.372  1.00  0.00     0.104 C 
ATOM      3  C   UNL     1       7.277   6.742   0.631  1.00  0.00     0.104 C 
ATOM      4  C   UNL     1       7.202   5.856   1.920  1.00  0.00     0.175 C 
ATOM      5  C   UNL     1       7.374   4.348   1.553  1.00  0.00     0.070 C 
ATOM      6  C   UNL     1       7.973   4.146   0.151  1.00  0.00     0.050 C 
ATOM      7  C   UNL     1       6.578   4.479  -0.400  1.00  0.00     0.115 C 
ATOM      8  C   UNL     1       5.987   4.103   0.964  1.00  0.00     0.096 C 
ATOM      9  C   UNL     1       5.128   5.290   1.388  1.00  0.00     0.267 C 
ATOM     10  O   UNL     1       5.016   6.132   0.244  1.00  0.00    -0.342 OA
ATOM     11  O   UNL     1       5.872   5.966   2.387  1.00  0.00    -0.320 OA
ENDROOT
BRANCH   7  12
ATOM     12  O   UNL     1       6.239   3.697  -1.543  1.00  0.00    -0.339 OA
BRANCH  12  13
ATOM     13  C   UNL     1       7.274   2.841  -2.013  1.00  0.00     0.282 C 
ATOM     14  C   UNL     1       8.051   3.512  -3.168  1.00  0.00     0.202 C 
ATOM     15  O   UNL     1       6.756   1.589  -2.436  1.00  0.00    -0.341 OA
ATOM     16  C   UNL     1       7.212   3.597  -4.463  1.00  0.00     0.179 C 
ATOM     17  C   UNL     1       5.801   1.723  -3.475  1.00  0.00     0.178 C 
ATOM     18  C   UNL     1       6.477   2.270  -4.754  1.00  0.00     0.177 C 
BRANCH  14  19
ATOM     19  O   UNL     1       9.217   2.766  -3.414  1.00  0.00    -0.385 OA
ATOM     20  H   UNL     1       9.812   2.891  -2.628  1.00  0.00     0.211 HD
ENDBRANCH  14  19
BRANCH  16  21
ATOM     21  O   UNL     1       6.333   4.697  -4.434  1.00  0.00    -0.387 OA
ATOM     22  H   UNL     1       5.557   4.469  -3.864  1.00  0.00     0.211 HD
ENDBRANCH  16  21
BRANCH  17  23
ATOM     23  C   UNL     1       5.184   0.338  -3.722  1.00  0.00     0.191 C 
BRANCH  23  24
ATOM     24  O   UNL     1       3.843   0.459  -4.108  1.00  0.00    -0.394 OA
ATOM     25  H   UNL     1       3.652  -0.325  -4.686  1.00  0.00     0.210 HD
ENDBRANCH  23  24
ENDBRANCH  17  23
BRANCH  18  26
ATOM     26  O   UNL     1       5.520   2.463  -5.765  1.00  0.00    -0.387 OA
ATOM     27  H   UNL     1       6.007   2.817  -6.555  1.00  0.00     0.211 HD
ENDBRANCH  18  26
ENDBRANCH  12  13
ENDBRANCH   7  12
BRANCH   4  28
ATOM     28  O   UNL     1       8.124   6.283   2.886  1.00  0.00    -0.365 OA
ATOM     29  H   UNL     1       8.188   5.558   3.562  1.00  0.00     0.214 HD
ENDBRANCH   4  28
BRANCH   8  30
ATOM     30  C   UNL     1       5.386   2.704   1.229  1.00  0.00     0.249 C 
BRANCH  30  31
ATOM     31  O   UNL     1       4.194   2.768   2.012  1.00  0.00    -0.461 OA
BRANCH  31  32
ATOM     32  C   UNL     1       3.376   1.666   2.295  1.00  0.00     0.338 C 
ATOM     33  O   UNL     1       3.325   1.193   3.464  1.00  0.00    -0.246 OA
BRANCH  32  34
ATOM     34  C   UNL     1       2.571   1.059   1.214  1.00  0.00     0.060 A 
ATOM     35  C   UNL     1       3.192   0.390   0.142  1.00  0.00     0.015 A 
ATOM     36  C   UNL     1       1.169   1.149   1.241  1.00  0.00     0.015 A 
ATOM     37  C   UNL     1       2.422  -0.175  -0.880  1.00  0.00     0.001 A 
ATOM     38  C   UNL     1       0.403   0.582   0.217  1.00  0.00     0.001 A 
ATOM     39  C   UNL     1       1.029  -0.080  -0.841  1.00  0.00     0.000 A 
ENDBRANCH  32  34
ENDBRANCH  31  32
ENDBRANCH  30  31
ENDBRANCH   8  30
TORSDOF 12
ENDMDL
MODEL 7
REMARK VINA RESULT:    -7.036      4.593      6.984
REMARK INTER + INTRA:         -11.458
REMARK INTER:                 -10.932
REMARK INTRA:                  -0.526
REMARK UNBOUND:                -0.514
REMARK SMILES C[C@@]12C[C@@]3(O)O[C@@H](O1)[C@]1(COC(=O)c4ccccc4)[C@H]3C[C@@]12O[C@H]1O[C@H](CO)[C@@H](O)[C@@H](O)[C@@H]1O
REMARK SMILES IDX 1 1 2 2 3 3 4 4 20 5 21 6 22 7 9 8 7 9 8 10 6 11 23 12 24 13
REMARK SMILES IDX 33 14 25 15 31 16 26 17 29 18 34 19 32 21 27 23 28 24 30 26
REMARK SMILES IDX 5 28 10 30 11 31 12 32 13 33 14 34 15 35 19 36 16 37 18 38
REMARK SMILES IDX 17 39
REMARK H PARENT 34 20 32 22 28 25 30 27 5 29
REMARK Flexibility Score: inf
ROOT
ATOM      1  C   UNL     1       8.673   4.079   3.082  1.00  0.00     0.046 C 
ATOM      2  C   UNL     1       7.647   3.729   1.997  1.00  0.00     0.104 C 
ATOM      3  C   UNL     1       8.180   4.152   0.574  1.00  0.00     0.104 C 
ATOM      4  C   UNL     1       6.990   3.818  -0.387  1.00  0.00     0.175 C 
ATOM      5  C   UNL     1       5.657   4.404   0.177  1.00  0.00     0.070 C 
ATOM      6  C   UNL     1       5.891   5.475   1.255  1.00  0.00     0.050 C 
ATOM      7  C   UNL     1       6.195   4.317   2.218  1.00  0.00     0.115 C 
ATOM      8  C   UNL     1       5.416   3.383   1.285  1.00  0.00     0.096 C 
ATOM      9  C   UNL     1       6.348   2.211   0.996  1.00  0.00     0.267 C 
ATOM     10  O   UNL     1       7.438   2.332   1.905  1.00  0.00    -0.342 OA
ATOM     11  O   UNL     1       6.824   2.416  -0.324  1.00  0.00    -0.320 OA
ENDROOT
BRANCH   7  12
ATOM     12  O   UNL     1       5.700   4.556   3.534  1.00  0.00    -0.339 OA
BRANCH  12  13
ATOM     13  C   UNL     1       6.265   5.684   4.192  1.00  0.00     0.282 C 
ATOM     14  C   UNL     1       6.583   5.348   5.668  1.00  0.00     0.202 C 
ATOM     15  O   UNL     1       5.401   6.808   4.124  1.00  0.00    -0.341 OA
ATOM     16  C   UNL     1       5.303   5.196   6.520  1.00  0.00     0.179 C 
ATOM     17  C   UNL     1       4.136   6.554   4.711  1.00  0.00     0.178 C 
ATOM     18  C   UNL     1       4.290   6.326   6.232  1.00  0.00     0.177 C 
BRANCH  14  19
ATOM     19  O   UNL     1       7.379   6.379   6.198  1.00  0.00    -0.385 OA
ATOM     20  H   UNL     1       7.880   5.994   6.964  1.00  0.00     0.211 HD
ENDBRANCH  14  19
BRANCH  16  21
ATOM     21  O   UNL     1       4.733   3.918   6.366  1.00  0.00    -0.387 OA
ATOM     22  H   UNL     1       3.858   4.011   5.915  1.00  0.00     0.211 HD
ENDBRANCH  16  21
BRANCH  17  23
ATOM     23  C   UNL     1       3.235   7.763   4.418  1.00  0.00     0.191 C 
BRANCH  23  24
ATOM     24  O   UNL     1       3.396   8.746   5.403  1.00  0.00    -0.394 OA
ATOM     25  H   UNL     1       4.320   8.639   5.751  1.00  0.00     0.210 HD
ENDBRANCH  23  24
ENDBRANCH  17  23
BRANCH  18  26
ATOM     26  O   UNL     1       3.045   6.011   6.805  1.00  0.00    -0.387 OA
ATOM     27  H   UNL     1       2.381   6.632   6.404  1.00  0.00     0.211 HD
ENDBRANCH  18  26
ENDBRANCH  12  13
ENDBRANCH   7  12
BRANCH   4  28
ATOM     28  O   UNL     1       7.255   4.247  -1.695  1.00  0.00    -0.365 OA
ATOM     29  H   UNL     1       6.968   3.515  -2.302  1.00  0.00     0.214 HD
ENDBRANCH   4  28
BRANCH   8  30
ATOM     30  C   UNL     1       3.937   3.021   1.551  1.00  0.00     0.249 C 
BRANCH  30  31
ATOM     31  O   UNL     1       3.799   2.027   2.567  1.00  0.00    -0.461 OA
BRANCH  31  32
ATOM     32  C   UNL     1       3.034   0.861   2.429  1.00  0.00     0.338 C 
ATOM     33  O   UNL     1       2.889   0.074   3.405  1.00  0.00    -0.246 OA
BRANCH  32  34
ATOM     34  C   UNL     1       2.396   0.556   1.131  1.00  0.00     0.060 A 
ATOM     35  C   UNL     1       3.170   0.168   0.021  1.00  0.00     0.015 A 
ATOM     36  C   UNL     1       1.002   0.658   0.988  1.00  0.00     0.015 A 
ATOM     37  C   UNL     1       2.557  -0.111  -1.205  1.00  0.00     0.001 A 
ATOM     38  C   UNL     1       0.393   0.377  -0.240  1.00  0.00     0.001 A 
ATOM     39  C   UNL     1       1.170  -0.008  -1.334  1.00  0.00     0.000 A 
ENDBRANCH  32  34
ENDBRANCH  31  32
ENDBRANCH  30  31
ENDBRANCH   8  30
TORSDOF 12
ENDMDL
MODEL 8
REMARK VINA RESULT:    -7.023      2.389      6.978
REMARK INTER + INTRA:         -11.438
REMARK INTER:                 -10.672
REMARK INTRA:                  -0.766
REMARK UNBOUND:                -0.514
REMARK SMILES C[C@@]12C[C@@]3(O)O[C@@H](O1)[C@]1(COC(=O)c4ccccc4)[C@H]3C[C@@]12O[C@H]1O[C@H](CO)[C@@H](O)[C@@H](O)[C@@H]1O
REMARK SMILES IDX 1 1 2 2 3 3 4 4 20 5 21 6 22 7 9 8 7 9 8 10 6 11 23 12 24 13
REMARK SMILES IDX 33 14 25 15 31 16 26 17 29 18 34 19 32 21 27 23 28 24 30 26
REMARK SMILES IDX 5 28 10 30 11 31 12 32 13 33 14 34 15 35 19 36 16 37 18 38
REMARK SMILES IDX 17 39
REMARK H PARENT 34 20 32 22 28 25 30 27 5 29
REMARK Flexibility Score: inf
ROOT
ATOM      1  C   UNL     1       4.470   0.324  -5.102  1.00  0.00     0.046 C 
ATOM      2  C   UNL     1       5.556   0.898  -4.183  1.00  0.00     0.104 C 
ATOM      3  C   UNL     1       6.959   0.264  -4.522  1.00  0.00     0.104 C 
ATOM      4  C   UNL     1       7.917   0.876  -3.446  1.00  0.00     0.175 C 
ATOM      5  C   UNL     1       7.295   0.732  -2.021  1.00  0.00     0.070 C 
ATOM      6  C   UNL     1       6.158  -0.302  -1.974  1.00  0.00     0.050 C 
ATOM      7  C   UNL     1       5.273   0.768  -2.632  1.00  0.00     0.115 C 
ATOM      8  C   UNL     1       6.247   1.837  -2.122  1.00  0.00     0.096 C 
ATOM      9  C   UNL     1       6.624   2.671  -3.342  1.00  0.00     0.267 C 
ATOM     10  O   UNL     1       5.728   2.289  -4.382  1.00  0.00    -0.342 OA
ATOM     11  O   UNL     1       7.937   2.268  -3.693  1.00  0.00    -0.320 OA
ENDROOT
BRANCH   7  12
ATOM     12  O   UNL     1       3.936   0.753  -2.135  1.00  0.00    -0.339 OA
BRANCH  12  13
ATOM     13  C   UNL     1       3.555  -0.447  -1.472  1.00  0.00     0.282 C 
ATOM     14  C   UNL     1       2.199  -0.958  -2.010  1.00  0.00     0.202 C 
ATOM     15  O   UNL     1       3.482  -0.260  -0.067  1.00  0.00    -0.341 OA
ATOM     16  C   UNL     1       1.021  -0.061  -1.567  1.00  0.00     0.179 C 
ATOM     17  C   UNL     1       2.554   0.748   0.297  1.00  0.00     0.178 C 
ATOM     18  C   UNL     1       1.118   0.308  -0.070  1.00  0.00     0.177 C 
BRANCH  14  19
ATOM     19  O   UNL     1       1.995  -2.266  -1.537  1.00  0.00    -0.385 OA
ATOM     20  H   UNL     1       1.890  -2.205  -0.551  1.00  0.00     0.211 HD
ENDBRANCH  14  19
BRANCH  16  21
ATOM     21  O   UNL     1       0.904   1.076  -2.390  1.00  0.00    -0.387 OA
ATOM     22  H   UNL     1       1.737   1.178  -2.913  1.00  0.00     0.211 HD
ENDBRANCH  16  21
BRANCH  17  23
ATOM     23  C   UNL     1       2.693   0.987   1.807  1.00  0.00     0.191 C 
BRANCH  23  24
ATOM     24  O   UNL     1       1.619   0.410   2.498  1.00  0.00    -0.394 OA
ATOM     25  H   UNL     1       1.333   1.082   3.171  1.00  0.00     0.210 HD
ENDBRANCH  23  24
ENDBRANCH  17  23
BRANCH  18  26
ATOM     26  O   UNL     1       0.204   1.333   0.231  1.00  0.00    -0.387 OA
ATOM     27  H   UNL     1      -0.614   1.153  -0.303  1.00  0.00     0.211 HD
ENDBRANCH  18  26
ENDBRANCH  12  13
ENDBRANCH   7  12
BRANCH   4  28
ATOM     28  O   UNL     1       9.201   0.320  -3.531  1.00  0.00    -0.365 OA
ATOM     29  H   UNL     1       9.726   0.691  -2.774  1.00  0.00     0.214 HD
ENDBRANCH   4  28
BRANCH   8  30
ATOM     30  C   UNL     1       5.977   2.625  -0.820  1.00  0.00     0.249 C 
BRANCH  30  31
ATOM     31  O   UNL     1       6.571   3.923  -0.843  1.00  0.00    -0.461 OA
BRANCH  31  32
ATOM     32  C   UNL     1       5.980   5.070  -0.296  1.00  0.00     0.338 C 
ATOM     33  O   UNL     1       5.772   5.150   0.946  1.00  0.00    -0.246 OA
BRANCH  32  34
ATOM     34  C   UNL     1       5.601   6.189  -1.184  1.00  0.00     0.060 A 
ATOM     35  C   UNL     1       4.921   7.312  -0.676  1.00  0.00     0.015 A 
ATOM     36  C   UNL     1       5.910   6.140  -2.554  1.00  0.00     0.015 A 
ATOM     37  C   UNL     1       4.560   8.363  -1.526  1.00  0.00     0.001 A 
ATOM     38  C   UNL     1       5.548   7.194  -3.400  1.00  0.00     0.001 A 
ATOM     39  C   UNL     1       4.875   8.304  -2.886  1.00  0.00     0.000 A 
ENDBRANCH  32  34
ENDBRANCH  31  32
ENDBRANCH  30  31
ENDBRANCH   8  30
TORSDOF 12
ENDMDL
