MODEL 1
REMARK VINA RESULT:    -5.690      0.000      0.000
REMARK INTER + INTRA:          -7.231
REMARK INTER:                  -6.854
REMARK INTRA:                  -0.376
REMARK UNBOUND:                -0.376
REMARK SMILES Oc1cc(O)c2c(c1)O[C@@H](c1ccc(O)c(O)c1)[C@H](O)C2
REMARK SMILES IDX 21 1 19 2 10 3 9 4 7 5 8 6 2 7 3 8 4 9 6 10 20 11 11 13
REMARK SMILES IDX 18 14 12 15 16 16 13 17 14 18 17 19 15 21 5 23 1 25
REMARK H PARENT 20 12 17 20 15 22 5 24 1 26
REMARK Flexibility Score: inf
ROOT
ATOM      1  C   UNL     1      72.007  37.563  18.816  1.00  0.00     0.079 C 
ATOM      2  C   UNL     1      73.183  38.192  19.584  1.00  0.00     0.164 C 
ATOM      3  C   UNL     1      72.855  39.656  19.950  1.00  0.00     0.232 C 
ATOM      4  O   UNL     1      71.633  39.712  20.690  1.00  0.00    -0.482 OA
ATOM      5  C   UNL     1      70.551  38.867  20.420  1.00  0.00     0.131 A 
ATOM      6  C   UNL     1      69.332  39.090  21.066  1.00  0.00     0.093 A 
ATOM      7  C   UNL     1      68.235  38.257  20.811  1.00  0.00     0.122 A 
ATOM      8  C   UNL     1      68.363  37.198  19.907  1.00  0.00     0.092 A 
ATOM      9  C   UNL     1      69.582  36.960  19.258  1.00  0.00     0.126 A 
ATOM     10  C   UNL     1      70.692  37.784  19.528  1.00  0.00     0.039 A 
ENDROOT
BRANCH   2  11
ATOM     11  O   UNL     1      74.369  38.104  18.832  1.00  0.00    -0.389 OA
ATOM     12  H   UNL     1      74.126  37.791  17.923  1.00  0.00     0.211 HD
ENDBRANCH   2  11
BRANCH   3  13
ATOM     13  C   UNL     1      73.969  40.277  20.759  1.00  0.00    -0.001 A 
ATOM     14  C   UNL     1      74.212  39.849  22.075  1.00  0.00     0.057 A 
ATOM     15  C   UNL     1      74.741  41.323  20.226  1.00  0.00     0.012 A 
ATOM     16  C   UNL     1      75.226  40.441  22.841  1.00  0.00     0.157 A 
ATOM     17  C   UNL     1      75.752  41.914  20.987  1.00  0.00     0.050 A 
ATOM     18  C   UNL     1      76.001  41.478  22.293  1.00  0.00     0.157 A 
BRANCH  16  19
ATOM     19  O   UNL     1      75.464  40.006  24.143  1.00  0.00    -0.504 OA
ATOM     20  H   UNL     1      75.333  39.039  24.413  1.00  0.00     0.293 HD
ENDBRANCH  16  19
BRANCH  18  21
ATOM     21  O   UNL     1      77.017  42.087  23.028  1.00  0.00    -0.504 OA
ATOM     22  H   UNL     1      77.600  42.817  22.638  1.00  0.00     0.293 HD
ENDBRANCH  18  21
ENDBRANCH   3  13
BRANCH   9  23
ATOM     23  O   UNL     1      69.694  35.910  18.347  1.00  0.00    -0.507 OA
ATOM     24  H   UNL     1      70.579  35.678  17.910  1.00  0.00     0.293 HD
ENDBRANCH   9  23
BRANCH   7  25
ATOM     25  O   UNL     1      67.016  38.474  21.449  1.00  0.00    -0.508 OA
ATOM     26  H   UNL     1      66.423  37.704  21.733  1.00  0.00     0.293 HD
ENDBRANCH   7  25
TORSDOF 6
ENDMDL
MODEL 2
REMARK VINA RESULT:    -5.655      1.745      7.290
REMARK INTER + INTRA:          -7.188
REMARK INTER:                  -6.889
REMARK INTRA:                  -0.299
REMARK UNBOUND:                -0.376
REMARK SMILES Oc1cc(O)c2c(c1)O[C@@H](c1ccc(O)c(O)c1)[C@H](O)C2
REMARK SMILES IDX 21 1 19 2 10 3 9 4 7 5 8 6 2 7 3 8 4 9 6 10 20 11 11 13
REMARK SMILES IDX 18 14 12 15 16 16 13 17 14 18 17 19 15 21 5 23 1 25
REMARK H PARENT 20 12 17 20 15 22 5 24 1 26
REMARK Flexibility Score: inf
ROOT
ATOM      1  C   UNL     1      72.033  40.840  22.377  1.00  0.00     0.079 C 
ATOM      2  C   UNL     1      70.990  39.757  22.046  1.00  0.00     0.164 C 
ATOM      3  C   UNL     1      70.539  39.888  20.575  1.00  0.00     0.232 C 
ATOM      4  O   UNL     1      71.675  39.828  19.709  1.00  0.00    -0.482 OA
ATOM      5  C   UNL     1      72.909  40.393  20.048  1.00  0.00     0.131 A 
ATOM      6  C   UNL     1      73.923  40.448  19.087  1.00  0.00     0.093 A 
ATOM      7  C   UNL     1      75.166  41.009  19.404  1.00  0.00     0.122 A 
ATOM      8  C   UNL     1      75.393  41.517  20.686  1.00  0.00     0.092 A 
ATOM      9  C   UNL     1      74.386  41.463  21.660  1.00  0.00     0.126 A 
ATOM     10  C   UNL     1      73.142  40.881  21.351  1.00  0.00     0.039 A 
ENDROOT
BRANCH   2  11
ATOM     11  O   UNL     1      69.896  39.838  22.928  1.00  0.00    -0.389 OA
ATOM     12  H   UNL     1      69.068  39.742  22.389  1.00  0.00     0.211 HD
ENDBRANCH   2  11
BRANCH   3  13
ATOM     13  C   UNL     1      69.560  38.799  20.207  1.00  0.00    -0.001 A 
ATOM     14  C   UNL     1      68.180  39.059  20.203  1.00  0.00     0.057 A 
ATOM     15  C   UNL     1      70.013  37.501  19.916  1.00  0.00     0.012 A 
ATOM     16  C   UNL     1      67.264  38.044  19.889  1.00  0.00     0.157 A 
ATOM     17  C   UNL     1      69.103  36.489  19.603  1.00  0.00     0.050 A 
ATOM     18  C   UNL     1      67.729  36.753  19.587  1.00  0.00     0.157 A 
BRANCH  16  19
ATOM     19  O   UNL     1      65.897  38.313  19.881  1.00  0.00    -0.504 OA
ATOM     20  H   UNL     1      65.388  38.454  19.016  1.00  0.00     0.293 HD
ENDBRANCH  16  19
BRANCH  18  21
ATOM     21  O   UNL     1      66.845  35.722  19.271  1.00  0.00    -0.504 OA
ATOM     22  H   UNL     1      66.472  35.600  18.337  1.00  0.00     0.293 HD
ENDBRANCH  18  21
ENDBRANCH   3  13
BRANCH   9  23
ATOM     23  O   UNL     1      74.618  41.986  22.933  1.00  0.00    -0.507 OA
ATOM     24  H   UNL     1      75.530  41.929  23.372  1.00  0.00     0.293 HD
ENDBRANCH   9  23
BRANCH   7  25
ATOM     25  O   UNL     1      76.181  41.068  18.451  1.00  0.00    -0.508 OA
ATOM     26  H   UNL     1      76.254  40.380  17.711  1.00  0.00     0.293 HD
ENDBRANCH   7  25
TORSDOF 6
ENDMDL
MODEL 3
REMARK VINA RESULT:    -5.517      1.785      3.250
REMARK INTER + INTRA:          -7.023
REMARK INTER:                  -6.693
REMARK INTRA:                  -0.329
REMARK UNBOUND:                -0.376
REMARK SMILES Oc1cc(O)c2c(c1)O[C@@H](c1ccc(O)c(O)c1)[C@H](O)C2
REMARK SMILES IDX 21 1 19 2 10 3 9 4 7 5 8 6 2 7 3 8 4 9 6 10 20 11 11 13
REMARK SMILES IDX 18 14 12 15 16 16 13 17 14 18 17 19 15 21 5 23 1 25
REMARK H PARENT 20 12 17 20 15 22 5 24 1 26
REMARK Flexibility Score: inf
ROOT
ATOM      1  C   UNL     1      68.182  39.467  21.155  1.00  0.00     0.079 C 
ATOM      2  C   UNL     1      69.572  40.129  21.124  1.00  0.00     0.164 C 
ATOM      3  C   UNL     1      70.669  39.069  21.367  1.00  0.00     0.232 C 
ATOM      4  O   UNL     1      70.550  38.015  20.409  1.00  0.00    -0.482 OA
ATOM      5  C   UNL     1      69.312  37.554  19.949  1.00  0.00     0.131 A 
ATOM      6  C   UNL     1      69.263  36.410  19.146  1.00  0.00     0.093 A 
ATOM      7  C   UNL     1      68.036  35.931  18.674  1.00  0.00     0.122 A 
ATOM      8  C   UNL     1      66.854  36.599  19.008  1.00  0.00     0.092 A 
ATOM      9  C   UNL     1      66.890  37.750  19.808  1.00  0.00     0.126 A 
ATOM     10  C   UNL     1      68.125  38.246  20.267  1.00  0.00     0.039 A 
ENDROOT
BRANCH   2  11
ATOM     11  O   UNL     1      69.646  41.170  22.067  1.00  0.00    -0.389 OA
ATOM     12  H   UNL     1      69.087  40.911  22.846  1.00  0.00     0.211 HD
ENDBRANCH   2  11
BRANCH   3  13
ATOM     13  C   UNL     1      72.047  39.682  21.281  1.00  0.00    -0.001 A 
ATOM     14  C   UNL     1      72.974  39.487  22.318  1.00  0.00     0.057 A 
ATOM     15  C   UNL     1      72.399  40.494  20.190  1.00  0.00     0.012 A 
ATOM     16  C   UNL     1      74.245  40.077  22.256  1.00  0.00     0.157 A 
ATOM     17  C   UNL     1      73.664  41.082  20.127  1.00  0.00     0.050 A 
ATOM     18  C   UNL     1      74.592  40.877  21.154  1.00  0.00     0.157 A 
BRANCH  16  19
ATOM     19  O   UNL     1      75.162  39.874  23.287  1.00  0.00    -0.504 OA
ATOM     20  H   UNL     1      75.178  39.013  23.821  1.00  0.00     0.293 HD
ENDBRANCH  16  19
BRANCH  18  21
ATOM     21  O   UNL     1      75.847  41.477  21.064  1.00  0.00    -0.504 OA
ATOM     22  H   UNL     1      76.246  41.759  20.177  1.00  0.00     0.293 HD
ENDBRANCH  18  21
ENDBRANCH   3  13
BRANCH   9  23
ATOM     23  O   UNL     1      65.703  38.400  20.147  1.00  0.00    -0.507 OA
ATOM     24  H   UNL     1      65.013  37.966  20.750  1.00  0.00     0.293 HD
ENDBRANCH   9  23
BRANCH   7  25
ATOM     25  O   UNL     1      67.979  34.791  17.875  1.00  0.00    -0.508 OA
ATOM     26  H   UNL     1      67.947  34.853  16.864  1.00  0.00     0.293 HD
ENDBRANCH   7  25
TORSDOF 6
ENDMDL
MODEL 4
REMARK VINA RESULT:    -5.264      1.892      2.725
REMARK INTER + INTRA:          -6.717
REMARK INTER:                  -6.415
REMARK INTRA:                  -0.302
REMARK UNBOUND:                -0.376
REMARK SMILES Oc1cc(O)c2c(c1)O[C@@H](c1ccc(O)c(O)c1)[C@H](O)C2
REMARK SMILES IDX 21 1 19 2 10 3 9 4 7 5 8 6 2 7 3 8 4 9 6 10 20 11 11 13
REMARK SMILES IDX 18 14 12 15 16 16 13 17 14 18 17 19 15 21 5 23 1 25
REMARK H PARENT 20 12 17 20 15 22 5 24 1 26
REMARK Flexibility Score: inf
ROOT
ATOM      1  C   UNL     1      69.790  36.311  19.375  1.00  0.00     0.079 C 
ATOM      2  C   UNL     1      70.963  36.944  20.147  1.00  0.00     0.164 C 
ATOM      3  C   UNL     1      71.276  38.345  19.579  1.00  0.00     0.232 C 
ATOM      4  O   UNL     1      70.102  39.160  19.614  1.00  0.00    -0.482 OA
ATOM      5  C   UNL     1      68.822  38.646  19.371  1.00  0.00     0.131 A 
ATOM      6  C   UNL     1      67.744  39.527  19.253  1.00  0.00     0.093 A 
ATOM      7  C   UNL     1      66.455  39.036  19.010  1.00  0.00     0.122 A 
ATOM      8  C   UNL     1      66.249  37.659  18.883  1.00  0.00     0.092 A 
ATOM      9  C   UNL     1      67.322  36.765  19.005  1.00  0.00     0.126 A 
ATOM     10  C   UNL     1      68.615  37.255  19.270  1.00  0.00     0.039 A 
ENDROOT
BRANCH   2  11
ATOM     11  O   UNL     1      72.093  36.108  20.103  1.00  0.00    -0.389 OA
ATOM     12  H   UNL     1      72.514  36.122  21.002  1.00  0.00     0.211 HD
ENDBRANCH   2  11
BRANCH   3  13
ATOM     13  C   UNL     1      72.382  39.014  20.359  1.00  0.00    -0.001 A 
ATOM     14  C   UNL     1      73.458  39.616  19.686  1.00  0.00     0.057 A 
ATOM     15  C   UNL     1      72.377  38.996  21.764  1.00  0.00     0.012 A 
ATOM     16  C   UNL     1      74.503  40.214  20.405  1.00  0.00     0.157 A 
ATOM     17  C   UNL     1      73.416  39.591  22.482  1.00  0.00     0.050 A 
ATOM     18  C   UNL     1      74.481  40.202  21.810  1.00  0.00     0.157 A 
BRANCH  16  19
ATOM     19  O   UNL     1      75.564  40.815  19.729  1.00  0.00    -0.504 OA
ATOM     20  H   UNL     1      76.354  40.277  19.394  1.00  0.00     0.293 HD
ENDBRANCH  16  19
BRANCH  18  21
ATOM     21  O   UNL     1      75.505  40.788  22.554  1.00  0.00    -0.504 OA
ATOM     22  H   UNL     1      75.624  40.604  23.543  1.00  0.00     0.293 HD
ENDBRANCH  18  21
ENDBRANCH   3  13
BRANCH   9  23
ATOM     23  O   UNL     1      67.107  35.394  18.863  1.00  0.00    -0.507 OA
ATOM     24  H   UNL     1      67.879  34.740  18.800  1.00  0.00     0.293 HD
ENDBRANCH   9  23
BRANCH   7  25
ATOM     25  O   UNL     1      65.375  39.907  18.889  1.00  0.00    -0.508 OA
ATOM     26  H   UNL     1      64.529  39.638  18.400  1.00  0.00     0.293 HD
ENDBRANCH   7  25
TORSDOF 6
ENDMDL
MODEL 5
REMARK VINA RESULT:    -4.970      2.450      7.164
REMARK INTER + INTRA:          -6.364
REMARK INTER:                  -5.988
REMARK INTRA:                  -0.376
REMARK UNBOUND:                -0.376
REMARK SMILES Oc1cc(O)c2c(c1)O[C@@H](c1ccc(O)c(O)c1)[C@H](O)C2
REMARK SMILES IDX 21 1 19 2 10 3 9 4 7 5 8 6 2 7 3 8 4 9 6 10 20 11 11 13
REMARK SMILES IDX 18 14 12 15 16 16 13 17 14 18 17 19 15 21 5 23 1 25
REMARK H PARENT 20 12 17 20 15 22 5 24 1 26
REMARK Flexibility Score: inf
ROOT
ATOM      1  C   UNL     1      71.598  40.244  22.090  1.00  0.00     0.079 C 
ATOM      2  C   UNL     1      70.137  40.186  21.608  1.00  0.00     0.164 C 
ATOM      3  C   UNL     1      70.032  40.740  20.169  1.00  0.00     0.232 C 
ATOM      4  O   UNL     1      70.916  40.023  19.305  1.00  0.00    -0.482 OA
ATOM      5  C   UNL     1      72.174  39.572  19.722  1.00  0.00     0.131 A 
ATOM      6  C   UNL     1      73.053  39.032  18.779  1.00  0.00     0.093 A 
ATOM      7  C   UNL     1      74.316  38.574  19.173  1.00  0.00     0.122 A 
ATOM      8  C   UNL     1      74.698  38.659  20.515  1.00  0.00     0.092 A 
ATOM      9  C   UNL     1      73.823  39.194  21.471  1.00  0.00     0.126 A 
ATOM     10  C   UNL     1      72.545  39.636  21.080  1.00  0.00     0.039 A 
ENDROOT
BRANCH   2  11
ATOM     11  O   UNL     1      69.296  40.888  22.491  1.00  0.00    -0.389 OA
ATOM     12  H   UNL     1      68.696  40.227  22.924  1.00  0.00     0.211 HD
ENDBRANCH   2  11
BRANCH   3  13
ATOM     13  C   UNL     1      68.618  40.637  19.650  1.00  0.00    -0.001 A 
ATOM     14  C   UNL     1      67.993  39.384  19.540  1.00  0.00     0.057 A 
ATOM     15  C   UNL     1      67.929  41.785  19.222  1.00  0.00     0.012 A 
ATOM     16  C   UNL     1      66.690  39.279  19.032  1.00  0.00     0.157 A 
ATOM     17  C   UNL     1      66.632  41.683  18.716  1.00  0.00     0.050 A 
ATOM     18  C   UNL     1      66.006  40.436  18.619  1.00  0.00     0.157 A 
BRANCH  16  19
ATOM     19  O   UNL     1      66.076  38.032  18.932  1.00  0.00    -0.504 OA
ATOM     20  H   UNL     1      65.769  37.524  19.753  1.00  0.00     0.293 HD
ENDBRANCH  16  19
BRANCH  18  21
ATOM     21  O   UNL     1      64.710  40.365  18.110  1.00  0.00    -0.504 OA
ATOM     22  H   UNL     1      63.897  40.329  18.713  1.00  0.00     0.293 HD
ENDBRANCH  18  21
ENDBRANCH   3  13
BRANCH   9  23
ATOM     23  O   UNL     1      74.220  39.288  22.805  1.00  0.00    -0.507 OA
ATOM     24  H   UNL     1      75.191  39.184  23.078  1.00  0.00     0.293 HD
ENDBRANCH   9  23
BRANCH   7  25
ATOM     25  O   UNL     1      75.198  38.035  18.239  1.00  0.00    -0.508 OA
ATOM     26  H   UNL     1      75.721  38.625  17.603  1.00  0.00     0.293 HD
ENDBRANCH   7  25
TORSDOF 6
ENDMDL
MODEL 6
REMARK VINA RESULT:    -4.900      1.683      7.145
REMARK INTER + INTRA:          -6.279
REMARK INTER:                  -5.907
REMARK INTRA:                  -0.373
REMARK UNBOUND:                -0.376
REMARK SMILES Oc1cc(O)c2c(c1)O[C@@H](c1ccc(O)c(O)c1)[C@H](O)C2
REMARK SMILES IDX 21 1 19 2 10 3 9 4 7 5 8 6 2 7 3 8 4 9 6 10 20 11 11 13
REMARK SMILES IDX 18 14 12 15 16 16 13 17 14 18 17 19 15 21 5 23 1 25
REMARK H PARENT 20 12 17 20 15 22 5 24 1 26
REMARK Flexibility Score: inf
ROOT
ATOM      1  C   UNL     1      73.541  40.797  22.059  1.00  0.00     0.079 C 
ATOM      2  C   UNL     1      72.564  39.686  21.634  1.00  0.00     0.164 C 
ATOM      3  C   UNL     1      71.945  40.022  20.259  1.00  0.00     0.232 C 
ATOM      4  O   UNL     1      72.981  40.229  19.296  1.00  0.00    -0.482 OA
ATOM      5  C   UNL     1      74.193  40.851  19.617  1.00  0.00     0.131 A 
ATOM      6  C   UNL     1      75.088  41.174  18.592  1.00  0.00     0.093 A 
ATOM      7  C   UNL     1      76.306  41.797  18.890  1.00  0.00     0.122 A 
ATOM      8  C   UNL     1      76.627  42.097  20.217  1.00  0.00     0.092 A 
ATOM      9  C   UNL     1      75.740  41.773  21.254  1.00  0.00     0.126 A 
ATOM     10  C   UNL     1      74.524  41.128  20.959  1.00  0.00     0.039 A 
ENDROOT
BRANCH   2  11
ATOM     11  O   UNL     1      71.570  39.501  22.612  1.00  0.00    -0.389 OA
ATOM     12  H   UNL     1      70.940  38.811  22.275  1.00  0.00     0.211 HD
ENDBRANCH   2  11
BRANCH   3  13
ATOM     13  C   UNL     1      71.029  38.917  19.791  1.00  0.00    -0.001 A 
ATOM     14  C   UNL     1      71.560  37.683  19.378  1.00  0.00     0.057 A 
ATOM     15  C   UNL     1      69.641  39.126  19.713  1.00  0.00     0.012 A 
ATOM     16  C   UNL     1      70.716  36.663  18.916  1.00  0.00     0.157 A 
ATOM     17  C   UNL     1      68.799  38.111  19.253  1.00  0.00     0.050 A 
ATOM     18  C   UNL     1      69.329  36.878  18.855  1.00  0.00     0.157 A 
BRANCH  16  19
ATOM     19  O   UNL     1      71.251  35.440  18.515  1.00  0.00    -0.504 OA
ATOM     20  H   UNL     1      70.907  34.563  18.886  1.00  0.00     0.293 HD
ENDBRANCH  16  19
BRANCH  18  21
ATOM     21  O   UNL     1      68.463  35.884  18.400  1.00  0.00    -0.504 OA
ATOM     22  H   UNL     1      68.641  35.364  17.549  1.00  0.00     0.293 HD
ENDBRANCH  18  21
ENDBRANCH   3  13
BRANCH   9  23
ATOM     23  O   UNL     1      76.064  42.089  22.573  1.00  0.00    -0.507 OA
ATOM     24  H   UNL     1      75.489  41.783  23.349  1.00  0.00     0.293 HD
ENDBRANCH   9  23
BRANCH   7  25
ATOM     25  O   UNL     1      77.202  42.123  17.875  1.00  0.00    -0.508 OA
ATOM     26  H   UNL     1      78.185  42.282  18.066  1.00  0.00     0.293 HD
ENDBRANCH   7  25
TORSDOF 6
ENDMDL
MODEL 7
REMARK VINA RESULT:    -4.805      1.392      6.782
REMARK INTER + INTRA:          -6.164
REMARK INTER:                  -5.784
REMARK INTRA:                  -0.380
REMARK UNBOUND:                -0.376
REMARK SMILES Oc1cc(O)c2c(c1)O[C@@H](c1ccc(O)c(O)c1)[C@H](O)C2
REMARK SMILES IDX 21 1 19 2 10 3 9 4 7 5 8 6 2 7 3 8 4 9 6 10 20 11 11 13
REMARK SMILES IDX 18 14 12 15 16 16 13 17 14 18 17 19 15 21 5 23 1 25
REMARK H PARENT 20 12 17 20 15 22 5 24 1 26
REMARK Flexibility Score: inf
ROOT
ATOM      1  C   UNL     1      74.036  40.531  19.267  1.00  0.00     0.079 C 
ATOM      2  C   UNL     1      72.570  40.065  19.209  1.00  0.00     0.164 C 
ATOM      3  C   UNL     1      72.393  38.770  20.032  1.00  0.00     0.232 C 
ATOM      4  O   UNL     1      72.841  38.979  21.373  1.00  0.00    -0.482 OA
ATOM      5  C   UNL     1      73.947  39.781  21.680  1.00  0.00     0.131 A 
ATOM      6  C   UNL     1      74.432  39.803  22.990  1.00  0.00     0.093 A 
ATOM      7  C   UNL     1      75.537  40.598  23.320  1.00  0.00     0.122 A 
ATOM      8  C   UNL     1      76.156  41.371  22.333  1.00  0.00     0.092 A 
ATOM      9  C   UNL     1      75.675  41.361  21.017  1.00  0.00     0.126 A 
ATOM     10  C   UNL     1      74.552  40.579  20.687  1.00  0.00     0.039 A 
ENDROOT
BRANCH   2  11
ATOM     11  O   UNL     1      72.161  39.885  17.875  1.00  0.00    -0.389 OA
ATOM     12  H   UNL     1      71.528  39.120  17.855  1.00  0.00     0.211 HD
ENDBRANCH   2  11
BRANCH   3  13
ATOM     13  C   UNL     1      70.950  38.325  20.042  1.00  0.00    -0.001 A 
ATOM     14  C   UNL     1      69.966  39.127  20.645  1.00  0.00     0.057 A 
ATOM     15  C   UNL     1      70.582  37.084  19.496  1.00  0.00     0.012 A 
ATOM     16  C   UNL     1      68.629  38.706  20.682  1.00  0.00     0.157 A 
ATOM     17  C   UNL     1      69.250  36.663  19.532  1.00  0.00     0.050 A 
ATOM     18  C   UNL     1      68.270  37.469  20.121  1.00  0.00     0.157 A 
BRANCH  16  19
ATOM     19  O   UNL     1      67.658  39.511  21.276  1.00  0.00    -0.504 OA
ATOM     20  H   UNL     1      67.715  39.779  22.251  1.00  0.00     0.293 HD
ENDBRANCH  16  19
BRANCH  18  21
ATOM     21  O   UNL     1      66.949  37.023  20.141  1.00  0.00    -0.504 OA
ATOM     22  H   UNL     1      66.315  37.182  19.368  1.00  0.00     0.293 HD
ENDBRANCH  18  21
ENDBRANCH   3  13
BRANCH   9  23
ATOM     23  O   UNL     1      76.309  42.125  20.037  1.00  0.00    -0.507 OA
ATOM     24  H   UNL     1      76.497  43.112  20.172  1.00  0.00     0.293 HD
ENDBRANCH   9  23
BRANCH   7  25
ATOM     25  O   UNL     1      76.028  40.625  24.623  1.00  0.00    -0.508 OA
ATOM     26  H   UNL     1      75.409  40.709  25.421  1.00  0.00     0.293 HD
ENDBRANCH   7  25
TORSDOF 6
ENDMDL
