MODEL 1
REMARK VINA RESULT:    -4.864      0.000      0.000
REMARK INTER + INTRA:          -5.240
REMARK INTER:                  -5.148
REMARK INTRA:                  -0.092
REMARK UNBOUND:                -0.092
REMARK SMILES C=C(C)[C@H]1CC=C(C)C(=O)C1
REMARK SMILES IDX 8 1 7 2 6 3 5 4 4 5 11 6 9 7 10 8 2 9 1 10 3 11
REMARK H PARENT
REMARK Flexibility Score: inf
ROOT
ATOM      1  C   UNL     1     -23.267  13.625 -30.499  1.00  0.00     0.048 C 
ATOM      2  C   UNL     1     -24.670  13.087 -30.432  1.00  0.00    -0.012 C 
ATOM      3  C   UNL     1     -24.876  11.796 -30.117  1.00  0.00    -0.019 C 
ATOM      4  C   UNL     1     -26.259  11.201 -30.052  1.00  0.00     0.036 C 
ATOM      5  C   UNL     1     -27.291  12.245 -29.585  1.00  0.00     0.025 C 
ATOM      6  C   UNL     1     -27.234  13.493 -30.486  1.00  0.00     0.089 C 
ATOM      7  C   UNL     1     -25.824  14.007 -30.589  1.00  0.00     0.158 C 
ATOM      8  O   UNL     1     -25.632  15.226 -30.848  1.00  0.00    -0.295 OA
ENDROOT
BRANCH   5   9
ATOM      9  C   UNL     1     -28.695  11.659 -29.525  1.00  0.00    -0.077 C 
ATOM     10  C   UNL     1     -29.584  12.069 -28.603  1.00  0.00     0.008 C 
ATOM     11  C   UNL     1     -29.115  10.599 -30.510  1.00  0.00     0.039 C 
ENDBRANCH   5   9
TORSDOF 1
ENDMDL
MODEL 2
REMARK VINA RESULT:    -4.833      1.555      2.156
REMARK INTER + INTRA:          -5.207
REMARK INTER:                  -5.113
REMARK INTRA:                  -0.094
REMARK UNBOUND:                -0.092
REMARK SMILES C=C(C)[C@H]1CC=C(C)C(=O)C1
REMARK SMILES IDX 8 1 7 2 6 3 5 4 4 5 11 6 9 7 10 8 2 9 1 10 3 11
REMARK H PARENT
REMARK Flexibility Score: inf
ROOT
ATOM      1  C   UNL     1     -23.653  13.475 -30.530  1.00  0.00     0.048 C 
ATOM      2  C   UNL     1     -25.032  12.976 -30.198  1.00  0.00    -0.012 C 
ATOM      3  C   UNL     1     -26.104  13.738 -30.478  1.00  0.00    -0.019 C 
ATOM      4  C   UNL     1     -27.505  13.294 -30.151  1.00  0.00     0.036 C 
ATOM      5  C   UNL     1     -27.643  11.763 -30.261  1.00  0.00     0.025 C 
ATOM      6  C   UNL     1     -26.590  11.068 -29.378  1.00  0.00     0.089 C 
ATOM      7  C   UNL     1     -25.214  11.597 -29.680  1.00  0.00     0.158 C 
ATOM      8  O   UNL     1     -24.212  10.868 -29.451  1.00  0.00    -0.295 OA
ENDROOT
BRANCH   5   9
ATOM      9  C   UNL     1     -29.054  11.300 -29.923  1.00  0.00    -0.077 C 
ATOM     10  C   UNL     1     -29.757  11.869 -28.929  1.00  0.00     0.008 C 
ATOM     11  C   UNL     1     -29.690  10.182 -30.708  1.00  0.00     0.039 C 
ENDBRANCH   5   9
TORSDOF 1
ENDMDL
MODEL 3
REMARK VINA RESULT:    -4.647      2.088      3.128
REMARK INTER + INTRA:          -5.010
REMARK INTER:                  -4.914
REMARK INTRA:                  -0.096
REMARK UNBOUND:                -0.092
REMARK SMILES C=C(C)[C@H]1CC=C(C)C(=O)C1
REMARK SMILES IDX 8 1 7 2 6 3 5 4 4 5 11 6 9 7 10 8 2 9 1 10 3 11
REMARK H PARENT
REMARK Flexibility Score: inf
ROOT
ATOM      1  C   UNL     1     -25.073   9.988 -27.503  1.00  0.00     0.048 C 
ATOM      2  C   UNL     1     -26.068  10.662 -28.407  1.00  0.00    -0.012 C 
ATOM      3  C   UNL     1     -27.358  10.742 -28.038  1.00  0.00    -0.019 C 
ATOM      4  C   UNL     1     -28.400  11.391 -28.912  1.00  0.00     0.036 C 
ATOM      5  C   UNL     1     -27.796  12.548 -29.730  1.00  0.00     0.025 C 
ATOM      6  C   UNL     1     -26.581  12.055 -30.537  1.00  0.00     0.089 C 
ATOM      7  C   UNL     1     -25.604  11.343 -29.641  1.00  0.00     0.158 C 
ATOM      8  O   UNL     1     -24.388  11.299 -29.970  1.00  0.00    -0.295 OA
ENDROOT
BRANCH   5   9
ATOM      9  C   UNL     1     -28.836  13.206 -30.626  1.00  0.00    -0.077 C 
ATOM     10  C   UNL     1     -30.115  12.792 -30.634  1.00  0.00     0.008 C 
ATOM     11  C   UNL     1     -28.443  14.347 -31.529  1.00  0.00     0.039 C 
ENDBRANCH   5   9
TORSDOF 1
ENDMDL
MODEL 4
REMARK VINA RESULT:    -4.588      8.972     11.274
REMARK INTER + INTRA:          -4.948
REMARK INTER:                  -4.854
REMARK INTRA:                  -0.094
REMARK UNBOUND:                -0.092
REMARK SMILES C=C(C)[C@H]1CC=C(C)C(=O)C1
REMARK SMILES IDX 8 1 7 2 6 3 5 4 4 5 11 6 9 7 10 8 2 9 1 10 3 11
REMARK H PARENT
REMARK Flexibility Score: inf
ROOT
ATOM      1  C   UNL     1     -12.126  14.019 -31.608  1.00  0.00     0.048 C 
ATOM      2  C   UNL     1     -13.535  13.520 -31.445  1.00  0.00    -0.012 C 
ATOM      3  C   UNL     1     -13.800  12.209 -31.583  1.00  0.00    -0.019 C 
ATOM      4  C   UNL     1     -15.195  11.657 -31.446  1.00  0.00     0.036 C 
ATOM      5  C   UNL     1     -16.016  12.469 -30.427  1.00  0.00     0.025 C 
ATOM      6  C   UNL     1     -16.012  13.962 -30.805  1.00  0.00     0.089 C 
ATOM      7  C   UNL     1     -14.605  14.452 -31.010  1.00  0.00     0.158 C 
ATOM      8  O   UNL     1     -14.351  15.676 -30.846  1.00  0.00    -0.295 OA
ENDROOT
BRANCH   5   9
ATOM      9  C   UNL     1     -17.432  11.928 -30.287  1.00  0.00    -0.077 C 
ATOM     10  C   UNL     1     -18.375  12.191 -31.208  1.00  0.00     0.008 C 
ATOM     11  C   UNL     1     -17.803  11.080 -29.098  1.00  0.00     0.039 C 
ENDBRANCH   5   9
TORSDOF 1
ENDMDL
MODEL 5
REMARK VINA RESULT:    -4.560      9.108     11.709
REMARK INTER + INTRA:          -4.919
REMARK INTER:                  -4.825
REMARK INTRA:                  -0.094
REMARK UNBOUND:                -0.092
REMARK SMILES C=C(C)[C@H]1CC=C(C)C(=O)C1
REMARK SMILES IDX 8 1 7 2 6 3 5 4 4 5 11 6 9 7 10 8 2 9 1 10 3 11
REMARK H PARENT
REMARK Flexibility Score: inf
ROOT
ATOM      1  C   UNL     1     -11.957  13.998 -32.006  1.00  0.00     0.048 C 
ATOM      2  C   UNL     1     -13.292  13.713 -31.376  1.00  0.00    -0.012 C 
ATOM      3  C   UNL     1     -14.179  14.710 -31.209  1.00  0.00    -0.019 C 
ATOM      4  C   UNL     1     -15.524  14.483 -30.569  1.00  0.00     0.036 C 
ATOM      5  C   UNL     1     -16.056  13.071 -30.879  1.00  0.00     0.025 C 
ATOM      6  C   UNL     1     -15.023  12.008 -30.461  1.00  0.00     0.089 C 
ATOM      7  C   UNL     1     -13.676  12.315 -31.056  1.00  0.00     0.158 C 
ATOM      8  O   UNL     1     -12.858  11.375 -31.246  1.00  0.00    -0.295 OA
ENDROOT
BRANCH   5   9
ATOM      9  C   UNL     1     -17.410  12.825 -30.229  1.00  0.00    -0.077 C 
ATOM     10  C   UNL     1     -17.671  13.240 -28.977  1.00  0.00     0.008 C 
ATOM     11  C   UNL     1     -18.493  12.102 -30.989  1.00  0.00     0.039 C 
ENDBRANCH   5   9
TORSDOF 1
ENDMDL
MODEL 6
REMARK VINA RESULT:    -4.542      6.754      9.018
REMARK INTER + INTRA:          -4.899
REMARK INTER:                  -4.806
REMARK INTRA:                  -0.093
REMARK UNBOUND:                -0.092
REMARK SMILES C=C(C)[C@H]1CC=C(C)C(=O)C1
REMARK SMILES IDX 8 1 7 2 6 3 5 4 4 5 11 6 9 7 10 8 2 9 1 10 3 11
REMARK H PARENT
REMARK Flexibility Score: inf
ROOT
ATOM      1  C   UNL     1     -29.520  18.967 -33.811  1.00  0.00     0.048 C 
ATOM      2  C   UNL     1     -28.031  19.144 -33.918  1.00  0.00    -0.012 C 
ATOM      3  C   UNL     1     -27.528  20.113 -34.703  1.00  0.00    -0.019 C 
ATOM      4  C   UNL     1     -26.044  20.323 -34.861  1.00  0.00     0.036 C 
ATOM      5  C   UNL     1     -25.292  19.962 -33.566  1.00  0.00     0.025 C 
ATOM      6  C   UNL     1     -25.635  18.525 -33.131  1.00  0.00     0.089 C 
ATOM      7  C   UNL     1     -27.126  18.334 -33.064  1.00  0.00     0.158 C 
ATOM      8  O   UNL     1     -27.599  17.450 -32.301  1.00  0.00    -0.295 OA
ENDROOT
BRANCH   5   9
ATOM      9  C   UNL     1     -23.790  20.160 -33.714  1.00  0.00    -0.077 C 
ATOM     10  C   UNL     1     -23.082  19.482 -34.635  1.00  0.00     0.008 C 
ATOM     11  C   UNL     1     -23.063  21.132 -32.820  1.00  0.00     0.039 C 
ENDBRANCH   5   9
TORSDOF 1
ENDMDL
MODEL 7
REMARK VINA RESULT:    -4.513     10.464     13.877
REMARK INTER + INTRA:          -4.869
REMARK INTER:                  -4.774
REMARK INTRA:                  -0.095
REMARK UNBOUND:                -0.092
REMARK SMILES C=C(C)[C@H]1CC=C(C)C(=O)C1
REMARK SMILES IDX 8 1 7 2 6 3 5 4 4 5 11 6 9 7 10 8 2 9 1 10 3 11
REMARK H PARENT
REMARK Flexibility Score: inf
ROOT
ATOM      1  C   UNL     1     -16.639  13.622 -29.667  1.00  0.00     0.048 C 
ATOM      2  C   UNL     1     -15.396  13.585 -30.514  1.00  0.00    -0.012 C 
ATOM      3  C   UNL     1     -14.847  14.733 -30.946  1.00  0.00    -0.019 C 
ATOM      4  C   UNL     1     -13.614  14.753 -31.810  1.00  0.00     0.036 C 
ATOM      5  C   UNL     1     -12.680  13.575 -31.472  1.00  0.00     0.025 C 
ATOM      6  C   UNL     1     -13.445  12.241 -31.576  1.00  0.00     0.089 C 
ATOM      7  C   UNL     1     -14.710  12.292 -30.764  1.00  0.00     0.158 C 
ATOM      8  O   UNL     1     -15.204  11.218 -30.328  1.00  0.00    -0.295 OA
ENDROOT
BRANCH   5   9
ATOM      9  C   UNL     1     -11.433  13.577 -32.346  1.00  0.00    -0.077 C 
ATOM     10  C   UNL     1     -11.381  12.874 -33.491  1.00  0.00     0.008 C 
ATOM     11  C   UNL     1     -10.224  14.376 -31.935  1.00  0.00     0.039 C 
ENDBRANCH   5   9
TORSDOF 1
ENDMDL
MODEL 8
REMARK VINA RESULT:    -4.501      7.812     11.102
REMARK INTER + INTRA:          -4.856
REMARK INTER:                  -4.767
REMARK INTRA:                  -0.089
REMARK UNBOUND:                -0.092
REMARK SMILES C=C(C)[C@H]1CC=C(C)C(=O)C1
REMARK SMILES IDX 8 1 7 2 6 3 5 4 4 5 11 6 9 7 10 8 2 9 1 10 3 11
REMARK H PARENT
REMARK Flexibility Score: inf
ROOT
ATOM      1  C   UNL     1     -19.544  11.177 -30.060  1.00  0.00     0.048 C 
ATOM      2  C   UNL     1     -18.217  11.775 -30.438  1.00  0.00    -0.012 C 
ATOM      3  C   UNL     1     -18.087  12.432 -31.604  1.00  0.00    -0.019 C 
ATOM      4  C   UNL     1     -16.778  13.035 -32.039  1.00  0.00     0.036 C 
ATOM      5  C   UNL     1     -15.960  13.522 -30.828  1.00  0.00     0.025 C 
ATOM      6  C   UNL     1     -15.768  12.375 -29.817  1.00  0.00     0.089 C 
ATOM      7  C   UNL     1     -17.091  11.748 -29.471  1.00  0.00     0.158 C 
ATOM      8  O   UNL     1     -17.222  11.164 -28.362  1.00  0.00    -0.295 OA
ENDROOT
BRANCH   5   9
ATOM      9  C   UNL     1     -14.628  14.125 -31.253  1.00  0.00    -0.077 C 
ATOM     10  C   UNL     1     -14.281  15.374 -30.898  1.00  0.00     0.008 C 
ATOM     11  C   UNL     1     -13.667  13.320 -32.089  1.00  0.00     0.039 C 
ENDBRANCH   5   9
TORSDOF 1
ENDMDL
MODEL 9
REMARK VINA RESULT:    -4.358      9.044     11.627
REMARK INTER + INTRA:          -4.705
REMARK INTER:                  -4.616
REMARK INTRA:                  -0.089
REMARK UNBOUND:                -0.092
REMARK SMILES C=C(C)[C@H]1CC=C(C)C(=O)C1
REMARK SMILES IDX 8 1 7 2 6 3 5 4 4 5 11 6 9 7 10 8 2 9 1 10 3 11
REMARK H PARENT
REMARK Flexibility Score: inf
ROOT
ATOM      1  C   UNL     1     -18.091  10.157 -29.698  1.00  0.00     0.048 C 
ATOM      2  C   UNL     1     -17.100  11.263 -29.939  1.00  0.00    -0.012 C 
ATOM      3  C   UNL     1     -15.922  11.256 -29.292  1.00  0.00    -0.019 C 
ATOM      4  C   UNL     1     -14.901  12.347 -29.482  1.00  0.00     0.036 C 
ATOM      5  C   UNL     1     -14.948  12.908 -30.916  1.00  0.00     0.025 C 
ATOM      6  C   UNL     1     -16.374  13.376 -31.260  1.00  0.00     0.089 C 
ATOM      7  C   UNL     1     -17.371  12.286 -30.979  1.00  0.00     0.158 C 
ATOM      8  O   UNL     1     -18.461  12.272 -31.613  1.00  0.00    -0.295 OA
ENDROOT
BRANCH   5   9
ATOM      9  C   UNL     1     -13.927  14.019 -31.120  1.00  0.00    -0.077 C 
ATOM     10  C   UNL     1     -12.675  13.752 -31.531  1.00  0.00     0.008 C 
ATOM     11  C   UNL     1     -14.309  15.453 -30.861  1.00  0.00     0.039 C 
ENDBRANCH   5   9
TORSDOF 1
ENDMDL
