MODEL 1
REMARK VINA RESULT:    -5.603      0.000      0.000
REMARK INTER + INTRA:          -8.263
REMARK INTER:                  -6.913
REMARK INTRA:                  -1.350
REMARK UNBOUND:                -1.350
REMARK SMILES CC(C)=CCC[C@@H](C)c1ccc(C)cc1
REMARK SMILES IDX 6 1 7 2 8 3 9 4 13 5 12 6 11 7 14 8 10 9 15 10 5 11 4 12
REMARK SMILES IDX 2 13 1 14 3 15
REMARK H PARENT
REMARK Flexibility Score: inf
ROOT
ATOM      1  C   UNL     1     -29.296  -5.760 -20.623  1.00  0.00     0.012 C 
ENDROOT
BRANCH   1   2
ATOM      2  C   UNL     1     -29.641  -4.467 -21.398  1.00  0.00     0.016 C 
ATOM      3  C   UNL     1     -31.034  -4.530 -22.044  1.00  0.00     0.013 C 
BRANCH   2   4
ATOM      4  C   UNL     1     -29.540  -3.260 -20.483  1.00  0.00    -0.045 A 
ATOM      5  C   UNL     1     -29.242   0.151 -17.849  1.00  0.00     0.044 C 
ATOM      6  C   UNL     1     -29.373  -1.024 -18.771  1.00  0.00    -0.051 A 
ATOM      7  C   UNL     1     -28.986  -0.917 -20.114  1.00  0.00     0.004 A 
ATOM      8  C   UNL     1     -29.822  -2.260 -18.281  1.00  0.00     0.004 A 
ATOM      9  C   UNL     1     -29.074  -2.022 -20.965  1.00  0.00     0.004 A 
ATOM     10  C   UNL     1     -29.911  -3.366 -19.131  1.00  0.00     0.004 A 
ENDBRANCH   2   4
ENDBRANCH   1   2
BRANCH   1  11
ATOM     11  C   UNL     1     -27.808  -6.127 -20.716  1.00  0.00     0.028 C 
BRANCH  11  12
ATOM     12  C   UNL     1     -27.054  -5.603 -19.520  1.00  0.00    -0.028 C 
ATOM     13  C   UNL     1     -26.184  -4.568 -19.557  1.00  0.00    -0.080 C 
ATOM     14  C   UNL     1     -25.474  -4.182 -18.287  1.00  0.00     0.039 C 
ATOM     15  C   UNL     1     -25.925  -3.786 -20.824  1.00  0.00     0.039 C 
ENDBRANCH  11  12
ENDBRANCH   1  11
TORSDOF 4
ENDMDL
MODEL 2
REMARK VINA RESULT:    -5.510      1.553      3.200
REMARK INTER + INTRA:          -8.148
REMARK INTER:                  -7.024
REMARK INTRA:                  -1.124
REMARK UNBOUND:                -1.350
REMARK SMILES CC(C)=CCC[C@@H](C)c1ccc(C)cc1
REMARK SMILES IDX 6 1 7 2 8 3 9 4 13 5 12 6 11 7 14 8 10 9 15 10 5 11 4 12
REMARK SMILES IDX 2 13 1 14 3 15
REMARK H PARENT
REMARK Flexibility Score: inf
ROOT
ATOM      1  C   UNL     1     -27.394  -3.766 -21.602  1.00  0.00     0.012 C 
ENDROOT
BRANCH   1   2
ATOM      2  C   UNL     1     -28.128  -2.816 -20.627  1.00  0.00     0.016 C 
ATOM      3  C   UNL     1     -28.678  -1.567 -21.333  1.00  0.00     0.013 C 
BRANCH   2   4
ATOM      4  C   UNL     1     -29.249  -3.553 -19.915  1.00  0.00    -0.045 A 
ATOM      5  C   UNL     1     -32.462  -5.615 -17.893  1.00  0.00     0.044 C 
ATOM      6  C   UNL     1     -31.328  -4.906 -18.572  1.00  0.00    -0.051 A 
ATOM      7  C   UNL     1     -30.491  -5.599 -19.459  1.00  0.00     0.004 A 
ATOM      8  C   UNL     1     -31.137  -3.530 -18.378  1.00  0.00     0.004 A 
ATOM      9  C   UNL     1     -29.456  -4.930 -20.120  1.00  0.00     0.004 A 
ATOM     10  C   UNL     1     -30.103  -2.861 -19.038  1.00  0.00     0.004 A 
ENDBRANCH   2   4
ENDBRANCH   1   2
BRANCH   1  11
ATOM     11  C   UNL     1     -25.953  -4.066 -21.164  1.00  0.00     0.028 C 
BRANCH  11  12
ATOM     12  C   UNL     1     -25.755  -3.718 -19.710  1.00  0.00    -0.028 C 
ATOM     13  C   UNL     1     -25.853  -4.601 -18.691  1.00  0.00    -0.080 C 
ATOM     14  C   UNL     1     -25.667  -4.097 -17.284  1.00  0.00     0.039 C 
ATOM     15  C   UNL     1     -26.122  -6.069 -18.927  1.00  0.00     0.039 C 
ENDBRANCH  11  12
ENDBRANCH   1  11
TORSDOF 4
ENDMDL
MODEL 3
REMARK VINA RESULT:    -5.440      1.149      2.310
REMARK INTER + INTRA:          -8.062
REMARK INTER:                  -6.658
REMARK INTRA:                  -1.404
REMARK UNBOUND:                -1.350
REMARK SMILES CC(C)=CCC[C@@H](C)c1ccc(C)cc1
REMARK SMILES IDX 6 1 7 2 8 3 9 4 13 5 12 6 11 7 14 8 10 9 15 10 5 11 4 12
REMARK SMILES IDX 2 13 1 14 3 15
REMARK H PARENT
REMARK Flexibility Score: inf
ROOT
ATOM      1  C   UNL     1     -26.878  -2.609 -21.738  1.00  0.00     0.012 C 
ENDROOT
BRANCH   1   2
ATOM      2  C   UNL     1     -28.409  -2.821 -21.776  1.00  0.00     0.016 C 
ATOM      3  C   UNL     1     -28.787  -4.269 -22.125  1.00  0.00     0.013 C 
BRANCH   2   4
ATOM      4  C   UNL     1     -29.031  -2.421 -20.450  1.00  0.00    -0.045 A 
ATOM      5  C   UNL     1     -30.811  -1.244 -16.694  1.00  0.00     0.044 C 
ATOM      6  C   UNL     1     -30.168  -1.660 -17.984  1.00  0.00    -0.051 A 
ATOM      7  C   UNL     1     -30.282  -2.982 -18.437  1.00  0.00     0.004 A 
ATOM      8  C   UNL     1     -29.504  -0.714 -18.779  1.00  0.00     0.004 A 
ATOM      9  C   UNL     1     -29.714  -3.362 -19.656  1.00  0.00     0.004 A 
ATOM     10  C   UNL     1     -28.935  -1.093 -19.999  1.00  0.00     0.004 A 
ENDBRANCH   2   4
ENDBRANCH   1   2
BRANCH   1  11
ATOM     11  C   UNL     1     -26.118  -3.858 -21.267  1.00  0.00     0.028 C 
BRANCH  11  12
ATOM     12  C   UNL     1     -25.795  -3.761 -19.797  1.00  0.00    -0.028 C 
ATOM     13  C   UNL     1     -26.203  -4.650 -18.864  1.00  0.00    -0.080 C 
ATOM     14  C   UNL     1     -25.835  -4.400 -17.425  1.00  0.00     0.039 C 
ATOM     15  C   UNL     1     -26.996  -5.884 -19.226  1.00  0.00     0.039 C 
ENDBRANCH  11  12
ENDBRANCH   1  11
TORSDOF 4
ENDMDL
MODEL 4
REMARK VINA RESULT:    -5.299     12.790     15.202
REMARK INTER + INTRA:          -7.888
REMARK INTER:                  -6.891
REMARK INTRA:                  -0.998
REMARK UNBOUND:                -1.350
REMARK SMILES CC(C)=CCC[C@@H](C)c1ccc(C)cc1
REMARK SMILES IDX 6 1 7 2 8 3 9 4 13 5 12 6 11 7 14 8 10 9 15 10 5 11 4 12
REMARK SMILES IDX 2 13 1 14 3 15
REMARK H PARENT
REMARK Flexibility Score: inf
ROOT
ATOM      1  C   UNL     1     -27.894  -2.275  -7.612  1.00  0.00     0.012 C 
ENDROOT
BRANCH   1   2
ATOM      2  C   UNL     1     -26.895  -2.653  -6.494  1.00  0.00     0.016 C 
ATOM      3  C   UNL     1     -26.564  -1.461  -5.582  1.00  0.00     0.013 C 
BRANCH   2   4
ATOM      4  C   UNL     1     -27.434  -3.810  -5.673  1.00  0.00    -0.045 A 
ATOM      5  C   UNL     1     -29.003  -7.103  -3.357  1.00  0.00     0.044 C 
ATOM      6  C   UNL     1     -28.452  -5.944  -4.135  1.00  0.00    -0.051 A 
ATOM      7  C   UNL     1     -27.087  -5.889  -4.451  1.00  0.00     0.004 A 
ATOM      8  C   UNL     1     -29.310  -4.942  -4.611  1.00  0.00     0.004 A 
ATOM      9  C   UNL     1     -26.580  -4.829  -5.207  1.00  0.00     0.004 A 
ATOM     10  C   UNL     1     -28.805  -3.881  -5.367  1.00  0.00     0.004 A 
ENDBRANCH   2   4
ENDBRANCH   1   2
BRANCH   1  11
ATOM     11  C   UNL     1     -28.433  -0.844  -7.465  1.00  0.00     0.028 C 
BRANCH  11  12
ATOM     12  C   UNL     1     -29.893  -0.861  -7.088  1.00  0.00    -0.028 C 
ATOM     13  C   UNL     1     -30.413  -0.229  -6.012  1.00  0.00    -0.080 C 
ATOM     14  C   UNL     1     -31.888  -0.369  -5.740  1.00  0.00     0.039 C 
ATOM     15  C   UNL     1     -29.565   0.622  -5.097  1.00  0.00     0.039 C 
ENDBRANCH  11  12
ENDBRANCH   1  11
TORSDOF 4
ENDMDL
MODEL 5
REMARK VINA RESULT:    -4.857     12.724     14.932
REMARK INTER + INTRA:          -7.343
REMARK INTER:                  -6.227
REMARK INTRA:                  -1.116
REMARK UNBOUND:                -1.350
REMARK SMILES CC(C)=CCC[C@@H](C)c1ccc(C)cc1
REMARK SMILES IDX 6 1 7 2 8 3 9 4 13 5 12 6 11 7 14 8 10 9 15 10 5 11 4 12
REMARK SMILES IDX 2 13 1 14 3 15
REMARK H PARENT
REMARK Flexibility Score: inf
ROOT
ATOM      1  C   UNL     1     -30.673  -3.878  -6.948  1.00  0.00     0.012 C 
ENDROOT
BRANCH   1   2
ATOM      2  C   UNL     1     -30.286  -4.006  -5.456  1.00  0.00     0.016 C 
ATOM      3  C   UNL     1     -31.411  -4.632  -4.616  1.00  0.00     0.013 C 
BRANCH   2   4
ATOM      4  C   UNL     1     -29.009  -4.813  -5.308  1.00  0.00    -0.045 A 
ATOM      5  C   UNL     1     -25.360  -7.082  -4.860  1.00  0.00     0.044 C 
ATOM      6  C   UNL     1     -26.623  -6.295  -5.045  1.00  0.00    -0.051 A 
ATOM      7  C   UNL     1     -27.850  -6.954  -5.212  1.00  0.00     0.004 A 
ATOM      8  C   UNL     1     -26.597  -4.893  -4.987  1.00  0.00     0.004 A 
ATOM      9  C   UNL     1     -29.032  -6.221  -5.348  1.00  0.00     0.004 A 
ATOM     10  C   UNL     1     -27.778  -4.159  -5.123  1.00  0.00     0.004 A 
ENDBRANCH   2   4
ENDBRANCH   1   2
BRANCH   1  11
ATOM     11  C   UNL     1     -30.105  -2.608  -7.599  1.00  0.00     0.028 C 
BRANCH  11  12
ATOM     12  C   UNL     1     -30.079  -1.469  -6.611  1.00  0.00    -0.028 C 
ATOM     13  C   UNL     1     -28.987  -0.722  -6.332  1.00  0.00    -0.080 C 
ATOM     14  C   UNL     1     -29.103   0.359  -5.290  1.00  0.00     0.039 C 
ATOM     15  C   UNL     1     -27.671  -0.931  -7.045  1.00  0.00     0.039 C 
ENDBRANCH  11  12
ENDBRANCH   1  11
TORSDOF 4
ENDMDL
MODEL 6
REMARK VINA RESULT:    -4.838     12.627     14.527
REMARK INTER + INTRA:          -7.320
REMARK INTER:                  -5.863
REMARK INTRA:                  -1.458
REMARK UNBOUND:                -1.350
REMARK SMILES CC(C)=CCC[C@@H](C)c1ccc(C)cc1
REMARK SMILES IDX 6 1 7 2 8 3 9 4 13 5 12 6 11 7 14 8 10 9 15 10 5 11 4 12
REMARK SMILES IDX 2 13 1 14 3 15
REMARK H PARENT
REMARK Flexibility Score: inf
ROOT
ATOM      1  C   UNL     1     -29.042  -5.515  -5.161  1.00  0.00     0.012 C 
ENDROOT
BRANCH   1   2
ATOM      2  C   UNL     1     -27.779  -4.777  -4.662  1.00  0.00     0.016 C 
ATOM      3  C   UNL     1     -26.499  -5.599  -4.882  1.00  0.00     0.013 C 
BRANCH   2   4
ATOM      4  C   UNL     1     -27.656  -3.423  -5.339  1.00  0.00    -0.045 A 
ATOM      5  C   UNL     1     -27.329   0.414  -7.296  1.00  0.00     0.044 C 
ATOM      6  C   UNL     1     -27.413  -0.919  -6.614  1.00  0.00    -0.051 A 
ATOM      7  C   UNL     1     -27.538  -0.993  -5.219  1.00  0.00     0.004 A 
ATOM      8  C   UNL     1     -27.433  -2.100  -7.370  1.00  0.00     0.004 A 
ATOM      9  C   UNL     1     -27.653  -2.234  -4.586  1.00  0.00     0.004 A 
ATOM     10  C   UNL     1     -27.548  -3.341  -6.739  1.00  0.00     0.004 A 
ENDBRANCH   2   4
ENDBRANCH   1   2
BRANCH   1  11
ATOM     11  C   UNL     1     -30.334  -4.733  -4.883  1.00  0.00     0.028 C 
BRANCH  11  12
ATOM     12  C   UNL     1     -31.155  -4.594  -6.141  1.00  0.00    -0.028 C 
ATOM     13  C   UNL     1     -31.487  -3.415  -6.712  1.00  0.00    -0.080 C 
ATOM     14  C   UNL     1     -32.346  -3.433  -7.949  1.00  0.00     0.039 C 
ATOM     15  C   UNL     1     -31.006  -2.094  -6.158  1.00  0.00     0.039 C 
ENDBRANCH  11  12
ENDBRANCH   1  11
TORSDOF 4
ENDMDL
MODEL 7
REMARK VINA RESULT:    -4.829     12.474     14.488
REMARK INTER + INTRA:          -7.309
REMARK INTER:                  -6.237
REMARK INTRA:                  -1.072
REMARK UNBOUND:                -1.350
REMARK SMILES CC(C)=CCC[C@@H](C)c1ccc(C)cc1
REMARK SMILES IDX 6 1 7 2 8 3 9 4 13 5 12 6 11 7 14 8 10 9 15 10 5 11 4 12
REMARK SMILES IDX 2 13 1 14 3 15
REMARK H PARENT
REMARK Flexibility Score: inf
ROOT
ATOM      1  C   UNL     1     -29.245  -2.516  -8.143  1.00  0.00     0.012 C 
ENDROOT
BRANCH   1   2
ATOM      2  C   UNL     1     -30.326  -2.654  -7.047  1.00  0.00     0.016 C 
ATOM      3  C   UNL     1     -31.736  -2.811  -7.637  1.00  0.00     0.013 C 
BRANCH   2   4
ATOM      4  C   UNL     1     -30.006  -3.824  -6.133  1.00  0.00    -0.045 A 
ATOM      5  C   UNL     1     -29.076  -7.125  -3.506  1.00  0.00     0.044 C 
ATOM      6  C   UNL     1     -29.387  -5.994  -4.441  1.00  0.00    -0.051 A 
ATOM      7  C   UNL     1     -30.605  -5.963  -5.135  1.00  0.00     0.004 A 
ATOM      8  C   UNL     1     -28.490  -4.924  -4.578  1.00  0.00     0.004 A 
ATOM      9  C   UNL     1     -30.910  -4.892  -5.978  1.00  0.00     0.004 A 
ATOM     10  C   UNL     1     -28.794  -3.852  -5.421  1.00  0.00     0.004 A 
ENDBRANCH   2   4
ENDBRANCH   1   2
BRANCH   1  11
ATOM     11  C   UNL     1     -28.576  -1.133  -8.144  1.00  0.00     0.028 C 
BRANCH  11  12
ATOM     12  C   UNL     1     -27.326  -1.146  -7.300  1.00  0.00    -0.028 C 
ATOM     13  C   UNL     1     -27.239  -0.630  -6.053  1.00  0.00    -0.080 C 
ATOM     14  C   UNL     1     -25.910  -0.681  -5.346  1.00  0.00     0.039 C 
ATOM     15  C   UNL     1     -28.434  -0.028  -5.351  1.00  0.00     0.039 C 
ENDBRANCH  11  12
ENDBRANCH   1  11
TORSDOF 4
ENDMDL
MODEL 8
REMARK VINA RESULT:    -4.804     12.450     14.494
REMARK INTER + INTRA:          -7.277
REMARK INTER:                  -6.672
REMARK INTRA:                  -0.605
REMARK UNBOUND:                -1.350
REMARK SMILES CC(C)=CCC[C@@H](C)c1ccc(C)cc1
REMARK SMILES IDX 6 1 7 2 8 3 9 4 13 5 12 6 11 7 14 8 10 9 15 10 5 11 4 12
REMARK SMILES IDX 2 13 1 14 3 15
REMARK H PARENT
REMARK Flexibility Score: inf
ROOT
ATOM      1  C   UNL     1     -27.307  -2.866  -5.565  1.00  0.00     0.012 C 
ENDROOT
BRANCH   1   2
ATOM      2  C   UNL     1     -27.216  -1.361  -5.224  1.00  0.00     0.016 C 
ATOM      3  C   UNL     1     -25.764  -0.859  -5.188  1.00  0.00     0.013 C 
BRANCH   2   4
ATOM      4  C   UNL     1     -28.031  -0.545  -6.212  1.00  0.00    -0.045 A 
ATOM      5  C   UNL     1     -30.319   1.770  -9.052  1.00  0.00     0.044 C 
ATOM      6  C   UNL     1     -29.525   0.989  -8.047  1.00  0.00    -0.051 A 
ATOM      7  C   UNL     1     -30.177   0.177  -7.108  1.00  0.00     0.004 A 
ATOM      8  C   UNL     1     -28.123   1.012  -8.081  1.00  0.00     0.004 A 
ATOM      9  C   UNL     1     -29.438  -0.579  -6.194  1.00  0.00     0.004 A 
ATOM     10  C   UNL     1     -27.382   0.257  -7.167  1.00  0.00     0.004 A 
ENDBRANCH   2   4
ENDBRANCH   1   2
BRANCH   1  11
ATOM     11  C   UNL     1     -27.974  -3.687  -4.451  1.00  0.00     0.028 C 
BRANCH  11  12
ATOM     12  C   UNL     1     -29.184  -4.416  -4.978  1.00  0.00    -0.028 C 
ATOM     13  C   UNL     1     -29.468  -5.713  -4.723  1.00  0.00    -0.080 C 
ATOM     14  C   UNL     1     -30.696  -6.316  -5.352  1.00  0.00     0.039 C 
ATOM     15  C   UNL     1     -28.604  -6.558  -3.816  1.00  0.00     0.039 C 
ENDBRANCH  11  12
ENDBRANCH   1  11
TORSDOF 4
ENDMDL
MODEL 9
REMARK VINA RESULT:    -4.766     13.364     15.033
REMARK INTER + INTRA:          -7.231
REMARK INTER:                  -5.851
REMARK INTRA:                  -1.380
REMARK UNBOUND:                -1.350
REMARK SMILES CC(C)=CCC[C@@H](C)c1ccc(C)cc1
REMARK SMILES IDX 6 1 7 2 8 3 9 4 13 5 12 6 11 7 14 8 10 9 15 10 5 11 4 12
REMARK SMILES IDX 2 13 1 14 3 15
REMARK H PARENT
REMARK Flexibility Score: inf
ROOT
ATOM      1  C   UNL     1     -27.779  -4.957  -4.293  1.00  0.00     0.012 C 
ENDROOT
BRANCH   1   2
ATOM      2  C   UNL     1     -28.680  -6.158  -4.662  1.00  0.00     0.016 C 
ATOM      3  C   UNL     1     -28.875  -7.123  -3.482  1.00  0.00     0.013 C 
BRANCH   2   4
ATOM      4  C   UNL     1     -30.025  -5.673  -5.172  1.00  0.00    -0.045 A 
ATOM      5  C   UNL     1     -33.845  -4.255  -6.608  1.00  0.00     0.044 C 
ATOM      6  C   UNL     1     -32.532  -4.771  -6.097  1.00  0.00    -0.051 A 
ATOM      7  C   UNL     1     -31.765  -5.647  -6.877  1.00  0.00     0.004 A 
ATOM      8  C   UNL     1     -32.031  -4.328  -4.864  1.00  0.00     0.004 A 
ATOM      9  C   UNL     1     -30.525  -6.100  -6.417  1.00  0.00     0.004 A 
ATOM     10  C   UNL     1     -30.791  -4.780  -4.403  1.00  0.00     0.004 A 
ENDBRANCH   2   4
ENDBRANCH   1   2
BRANCH   1  11
ATOM     11  C   UNL     1     -27.368  -4.126  -5.518  1.00  0.00     0.028 C 
BRANCH  11  12
ATOM     12  C   UNL     1     -27.541  -2.653  -5.244  1.00  0.00    -0.028 C 
ATOM     13  C   UNL     1     -28.451  -1.862  -5.857  1.00  0.00    -0.080 C 
ATOM     14  C   UNL     1     -28.480  -0.397  -5.508  1.00  0.00     0.039 C 
ATOM     15  C   UNL     1     -29.442  -2.410  -6.858  1.00  0.00     0.039 C 
ENDBRANCH  11  12
ENDBRANCH   1  11
TORSDOF 4
ENDMDL
