MODEL 1
REMARK VINA RESULT:    -4.459      0.000      0.000
REMARK INTER + INTRA:         -12.412
REMARK INTER:                 -10.194
REMARK INTRA:                  -2.218
REMARK UNBOUND:                -2.218
REMARK SMILES CCCCCCCCCCCCCCCCCCCCCCCC(=O)[O-]
REMARK SMILES IDX 13 1 14 2 15 3 16 4 17 5 18 6 19 7 20 8 21 9 22 10 23 11
REMARK SMILES IDX 24 12 25 13 26 14 12 15 11 16 10 17 9 18 8 19 7 20 6 21 5 22
REMARK SMILES IDX 4 23 3 24 2 25 1 26
REMARK H PARENT
REMARK Flexibility Score: inf
ROOT
ATOM      1  C   UNL     1      13.833  22.413 -12.257  1.00  0.00     0.000 C 
ENDROOT
BRANCH   1   2
ATOM      2  C   UNL     1      12.577  22.459 -13.146  1.00  0.00     0.000 C 
BRANCH   2   3
ATOM      3  C   UNL     1      12.482  23.775 -13.946  1.00  0.00     0.000 C 
BRANCH   3   4
ATOM      4  C   UNL     1      11.643  24.862 -13.251  1.00  0.00     0.000 C 
BRANCH   4   5
ATOM      5  C   UNL     1      12.502  25.889 -12.495  1.00  0.00     0.000 C 
BRANCH   5   6
ATOM      6  C   UNL     1      12.551  25.624 -10.982  1.00  0.00     0.000 C 
BRANCH   6   7
ATOM      7  C   UNL     1      11.158  25.421 -10.365  1.00  0.00     0.000 C 
BRANCH   7   8
ATOM      8  C   UNL     1      10.663  26.708  -9.689  1.00  0.00     0.000 C 
BRANCH   8   9
ATOM      9  C   UNL     1      11.794  27.479  -8.986  1.00  0.00     0.000 C 
BRANCH   9  10
ATOM     10  C   UNL     1      11.626  27.510  -7.456  1.00  0.00     0.006 C 
BRANCH  10  11
ATOM     11  C   UNL     1      11.832  26.129  -6.821  1.00  0.00     0.053 C 
BRANCH  11  12
ATOM     12  C   UNL     1      13.278  25.862  -6.528  1.00  0.00     0.041 C 
ATOM     13  O   UNL     1      14.031  25.390  -7.423  1.00  0.00    -0.550 OA
ATOM     14  O   UNL     1      13.795  26.131  -5.266  1.00  0.00    -0.550 OA
ENDBRANCH  11  12
ENDBRANCH  10  11
ENDBRANCH   9  10
ENDBRANCH   8   9
ENDBRANCH   7   8
ENDBRANCH   6   7
ENDBRANCH   5   6
ENDBRANCH   4   5
ENDBRANCH   3   4
ENDBRANCH   2   3
ENDBRANCH   1   2
BRANCH   1  15
ATOM     15  C   UNL     1      15.072  23.008 -12.947  1.00  0.00     0.000 C 
BRANCH  15  16
ATOM     16  C   UNL     1      16.235  22.004 -13.035  1.00  0.00     0.000 C 
BRANCH  16  17
ATOM     17  C   UNL     1      16.150  20.900 -11.970  1.00  0.00     0.000 C 
BRANCH  17  18
ATOM     18  C   UNL     1      17.025  19.681 -12.311  1.00  0.00    -0.000 C 
BRANCH  18  19
ATOM     19  C   UNL     1      17.553  19.719 -13.755  1.00  0.00    -0.000 C 
BRANCH  19  20
ATOM     20  C   UNL     1      19.028  20.164 -13.859  1.00  0.00    -0.000 C 
BRANCH  20  21
ATOM     21  C   UNL     1      19.991  18.965 -13.913  1.00  0.00    -0.000 C 
BRANCH  21  22
ATOM     22  C   UNL     1      19.266  17.619 -14.093  1.00  0.00    -0.000 C 
BRANCH  22  23
ATOM     23  C   UNL     1      19.550  16.608 -12.961  1.00  0.00    -0.000 C 
BRANCH  23  24
ATOM     24  C   UNL     1      20.866  16.916 -12.223  1.00  0.00    -0.000 C 
BRANCH  24  25
ATOM     25  C   UNL     1      20.669  17.094 -10.710  1.00  0.00    -0.003 C 
ATOM     26  C   UNL     1      19.720  18.242 -10.367  1.00  0.00     0.004 C 
ENDBRANCH  24  25
ENDBRANCH  23  24
ENDBRANCH  22  23
ENDBRANCH  21  22
ENDBRANCH  20  21
ENDBRANCH  19  20
ENDBRANCH  18  19
ENDBRANCH  17  18
ENDBRANCH  16  17
ENDBRANCH  15  16
ENDBRANCH   1  15
TORSDOF 22
ENDMDL
MODEL 2
REMARK VINA RESULT:    -4.443      1.587      2.755
REMARK INTER + INTRA:         -12.376
REMARK INTER:                 -10.194
REMARK INTRA:                  -2.181
REMARK UNBOUND:                -2.218
REMARK SMILES CCCCCCCCCCCCCCCCCCCCCCCC(=O)[O-]
REMARK SMILES IDX 13 1 14 2 15 3 16 4 17 5 18 6 19 7 20 8 21 9 22 10 23 11
REMARK SMILES IDX 24 12 25 13 26 14 12 15 11 16 10 17 9 18 8 19 7 20 6 21 5 22
REMARK SMILES IDX 4 23 3 24 2 25 1 26
REMARK H PARENT
REMARK Flexibility Score: inf
ROOT
ATOM      1  C   UNL     1      14.821  21.258 -11.876  1.00  0.00     0.000 C 
ENDROOT
BRANCH   1   2
ATOM      2  C   UNL     1      14.949  22.734 -12.298  1.00  0.00     0.000 C 
BRANCH   2   3
ATOM      3  C   UNL     1      13.782  23.179 -13.205  1.00  0.00     0.000 C 
BRANCH   3   4
ATOM      4  C   UNL     1      12.484  22.383 -12.978  1.00  0.00     0.000 C 
BRANCH   4   5
ATOM      5  C   UNL     1      11.494  23.106 -12.050  1.00  0.00     0.000 C 
BRANCH   5   6
ATOM      6  C   UNL     1      11.339  24.597 -12.391  1.00  0.00     0.000 C 
BRANCH   6   7
ATOM      7  C   UNL     1      11.318  25.496 -11.144  1.00  0.00     0.000 C 
BRANCH   7   8
ATOM      8  C   UNL     1      11.941  26.867 -11.446  1.00  0.00     0.000 C 
BRANCH   8   9
ATOM      9  C   UNL     1      13.478  26.844 -11.389  1.00  0.00     0.000 C 
BRANCH   9  10
ATOM     10  C   UNL     1      14.013  26.058 -10.177  1.00  0.00     0.006 C 
BRANCH  10  11
ATOM     11  C   UNL     1      13.885  26.850  -8.869  1.00  0.00     0.053 C 
BRANCH  11  12
ATOM     12  C   UNL     1      14.500  26.119  -7.714  1.00  0.00     0.041 C 
ATOM     13  O   UNL     1      13.791  25.373  -6.984  1.00  0.00    -0.550 OA
ATOM     14  O   UNL     1      15.855  26.262  -7.440  1.00  0.00    -0.550 OA
ENDBRANCH  11  12
ENDBRANCH  10  11
ENDBRANCH   9  10
ENDBRANCH   8   9
ENDBRANCH   7   8
ENDBRANCH   6   7
ENDBRANCH   5   6
ENDBRANCH   4   5
ENDBRANCH   3   4
ENDBRANCH   2   3
ENDBRANCH   1   2
BRANCH   1  15
ATOM     15  C   UNL     1      16.080  20.435 -12.198  1.00  0.00     0.000 C 
BRANCH  15  16
ATOM     16  C   UNL     1      17.161  21.269 -12.908  1.00  0.00     0.000 C 
BRANCH  16  17
ATOM     17  C   UNL     1      18.266  20.402 -13.534  1.00  0.00     0.000 C 
BRANCH  17  18
ATOM     18  C   UNL     1      17.794  18.967 -13.830  1.00  0.00    -0.000 C 
BRANCH  18  19
ATOM     19  C   UNL     1      18.751  17.904 -13.265  1.00  0.00    -0.000 C 
BRANCH  19  20
ATOM     20  C   UNL     1      18.823  17.900 -11.722  1.00  0.00    -0.000 C 
BRANCH  20  21
ATOM     21  C   UNL     1      20.215  18.306 -11.208  1.00  0.00    -0.000 C 
BRANCH  21  22
ATOM     22  C   UNL     1      20.671  17.480  -9.991  1.00  0.00    -0.000 C 
BRANCH  22  23
ATOM     23  C   UNL     1      21.465  16.210 -10.369  1.00  0.00    -0.000 C 
BRANCH  23  24
ATOM     24  C   UNL     1      20.655  14.924 -10.120  1.00  0.00    -0.000 C 
BRANCH  24  25
ATOM     25  C   UNL     1      19.882  14.461 -11.365  1.00  0.00    -0.003 C 
ATOM     26  C   UNL     1      19.028  13.221 -11.105  1.00  0.00     0.004 C 
ENDBRANCH  24  25
ENDBRANCH  23  24
ENDBRANCH  22  23
ENDBRANCH  21  22
ENDBRANCH  20  21
ENDBRANCH  19  20
ENDBRANCH  18  19
ENDBRANCH  17  18
ENDBRANCH  16  17
ENDBRANCH  15  16
ENDBRANCH   1  15
TORSDOF 22
ENDMDL
MODEL 3
REMARK VINA RESULT:    -4.340     12.051     14.860
REMARK INTER + INTRA:         -12.140
REMARK INTER:                  -9.093
REMARK INTRA:                  -3.047
REMARK UNBOUND:                -2.218
REMARK SMILES CCCCCCCCCCCCCCCCCCCCCCCC(=O)[O-]
REMARK SMILES IDX 13 1 14 2 15 3 16 4 17 5 18 6 19 7 20 8 21 9 22 10 23 11
REMARK SMILES IDX 24 12 25 13 26 14 12 15 11 16 10 17 9 18 8 19 7 20 6 21 5 22
REMARK SMILES IDX 4 23 3 24 2 25 1 26
REMARK H PARENT
REMARK Flexibility Score: inf
ROOT
ATOM      1  C   UNL     1       7.663  11.853  -7.744  1.00  0.00     0.000 C 
ENDROOT
BRANCH   1   2
ATOM      2  C   UNL     1       7.254  11.105  -9.025  1.00  0.00     0.000 C 
BRANCH   2   3
ATOM      3  C   UNL     1       7.736   9.638  -9.018  1.00  0.00     0.000 C 
BRANCH   3   4
ATOM      4  C   UNL     1       8.428   9.222  -7.708  1.00  0.00     0.000 C 
BRANCH   4   5
ATOM      5  C   UNL     1       9.948   9.045  -7.865  1.00  0.00     0.000 C 
BRANCH   5   6
ATOM      6  C   UNL     1      10.750   9.860  -6.839  1.00  0.00     0.000 C 
BRANCH   6   7
ATOM      7  C   UNL     1       9.998  10.059  -5.513  1.00  0.00     0.000 C 
BRANCH   7   8
ATOM      8  C   UNL     1      10.347  11.416  -4.883  1.00  0.00     0.000 C 
BRANCH   8   9
ATOM      9  C   UNL     1      11.739  11.921  -5.298  1.00  0.00     0.000 C 
BRANCH   9  10
ATOM     10  C   UNL     1      12.646  12.217  -4.089  1.00  0.00     0.006 C 
BRANCH  10  11
ATOM     11  C   UNL     1      12.189  11.477  -2.825  1.00  0.00     0.053 C 
BRANCH  11  12
ATOM     12  C   UNL     1      12.112  12.392  -1.641  1.00  0.00     0.041 C 
ATOM     13  O   UNL     1      11.134  12.324  -0.847  1.00  0.00    -0.550 OA
ATOM     14  O   UNL     1      13.118  13.323  -1.414  1.00  0.00    -0.550 OA
ENDBRANCH  11  12
ENDBRANCH  10  11
ENDBRANCH   9  10
ENDBRANCH   8   9
ENDBRANCH   7   8
ENDBRANCH   6   7
ENDBRANCH   5   6
ENDBRANCH   4   5
ENDBRANCH   3   4
ENDBRANCH   2   3
ENDBRANCH   1   2
BRANCH   1  15
ATOM     15  C   UNL     1       8.403  13.170  -8.034  1.00  0.00     0.000 C 
BRANCH  15  16
ATOM     16  C   UNL     1       9.448  13.023  -9.153  1.00  0.00     0.000 C 
BRANCH  16  17
ATOM     17  C   UNL     1       9.265  14.054 -10.279  1.00  0.00     0.000 C 
BRANCH  17  18
ATOM     18  C   UNL     1       8.107  15.029 -10.004  1.00  0.00    -0.000 C 
BRANCH  18  19
ATOM     19  C   UNL     1       6.866  14.729 -10.862  1.00  0.00    -0.000 C 
BRANCH  19  20
ATOM     20  C   UNL     1       5.602  14.425 -10.029  1.00  0.00    -0.000 C 
BRANCH  20  21
ATOM     21  C   UNL     1       5.279  15.554  -9.036  1.00  0.00    -0.000 C 
BRANCH  21  22
ATOM     22  C   UNL     1       5.099  15.052  -7.592  1.00  0.00    -0.000 C 
BRANCH  22  23
ATOM     23  C   UNL     1       4.293  16.018  -6.697  1.00  0.00    -0.000 C 
BRANCH  23  24
ATOM     24  C   UNL     1       4.368  17.473  -7.198  1.00  0.00    -0.000 C 
BRANCH  24  25
ATOM     25  C   UNL     1       5.550  18.247  -6.595  1.00  0.00    -0.003 C 
ATOM     26  C   UNL     1       5.818  17.877  -5.136  1.00  0.00     0.004 C 
ENDBRANCH  24  25
ENDBRANCH  23  24
ENDBRANCH  22  23
ENDBRANCH  21  22
ENDBRANCH  20  21
ENDBRANCH  19  20
ENDBRANCH  18  19
ENDBRANCH  17  18
ENDBRANCH  16  17
ENDBRANCH  15  16
ENDBRANCH   1  15
TORSDOF 22
ENDMDL
MODEL 4
REMARK VINA RESULT:    -4.291      2.175      3.679
REMARK INTER + INTRA:         -12.028
REMARK INTER:                  -9.431
REMARK INTRA:                  -2.597
REMARK UNBOUND:                -2.218
REMARK SMILES CCCCCCCCCCCCCCCCCCCCCCCC(=O)[O-]
REMARK SMILES IDX 13 1 14 2 15 3 16 4 17 5 18 6 19 7 20 8 21 9 22 10 23 11
REMARK SMILES IDX 24 12 25 13 26 14 12 15 11 16 10 17 9 18 8 19 7 20 6 21 5 22
REMARK SMILES IDX 4 23 3 24 2 25 1 26
REMARK H PARENT
REMARK Flexibility Score: inf
ROOT
ATOM      1  C   UNL     1      11.922  24.739 -11.360  1.00  0.00     0.000 C 
ENDROOT
BRANCH   1   2
ATOM      2  C   UNL     1      12.131  26.092 -12.063  1.00  0.00     0.000 C 
BRANCH   2   3
ATOM      3  C   UNL     1      13.602  26.555 -12.000  1.00  0.00     0.000 C 
BRANCH   3   4
ATOM      4  C   UNL     1      14.448  25.790 -10.967  1.00  0.00     0.000 C 
BRANCH   4   5
ATOM      5  C   UNL     1      15.956  26.053 -11.115  1.00  0.00     0.000 C 
BRANCH   5   6
ATOM      6  C   UNL     1      16.283  27.542 -11.311  1.00  0.00     0.000 C 
BRANCH   6   7
ATOM      7  C   UNL     1      16.851  28.202 -10.045  1.00  0.00     0.000 C 
BRANCH   7   8
ATOM      8  C   UNL     1      17.069  27.163  -8.935  1.00  0.00     0.000 C 
BRANCH   8   9
ATOM      9  C   UNL     1      16.366  27.544  -7.621  1.00  0.00     0.000 C 
BRANCH   9  10
ATOM     10  C   UNL     1      14.845  27.306  -7.674  1.00  0.00     0.006 C 
BRANCH  10  11
ATOM     11  C   UNL     1      14.461  25.899  -7.199  1.00  0.00     0.053 C 
BRANCH  11  12
ATOM     12  C   UNL     1      13.260  25.923  -6.303  1.00  0.00     0.041 C 
ATOM     13  O   UNL     1      13.400  26.036  -5.055  1.00  0.00    -0.550 OA
ATOM     14  O   UNL     1      11.984  25.819  -6.844  1.00  0.00    -0.550 OA
ENDBRANCH  11  12
ENDBRANCH  10  11
ENDBRANCH   9  10
ENDBRANCH   8   9
ENDBRANCH   7   8
ENDBRANCH   6   7
ENDBRANCH   5   6
ENDBRANCH   4   5
ENDBRANCH   3   4
ENDBRANCH   2   3
ENDBRANCH   1   2
BRANCH   1  15
ATOM     15  C   UNL     1      11.444  23.636 -12.319  1.00  0.00     0.000 C 
BRANCH  15  16
ATOM     16  C   UNL     1      12.592  22.725 -12.786  1.00  0.00     0.000 C 
BRANCH  16  17
ATOM     17  C   UNL     1      13.298  23.253 -14.045  1.00  0.00     0.000 C 
BRANCH  17  18
ATOM     18  C   UNL     1      14.803  23.486 -13.824  1.00  0.00    -0.000 C 
BRANCH  18  19
ATOM     19  C   UNL     1      15.358  22.679 -12.638  1.00  0.00    -0.000 C 
BRANCH  19  20
ATOM     20  C   UNL     1      16.598  21.832 -12.997  1.00  0.00    -0.000 C 
BRANCH  20  21
ATOM     21  C   UNL     1      16.531  20.422 -12.386  1.00  0.00    -0.000 C 
BRANCH  21  22
ATOM     22  C   UNL     1      17.407  19.400 -13.134  1.00  0.00    -0.000 C 
BRANCH  22  23
ATOM     23  C   UNL     1      18.827  19.255 -12.545  1.00  0.00    -0.000 C 
BRANCH  23  24
ATOM     24  C   UNL     1      18.815  18.584 -11.158  1.00  0.00    -0.000 C 
BRANCH  24  25
ATOM     25  C   UNL     1      19.842  17.447 -11.041  1.00  0.00    -0.003 C 
ATOM     26  C   UNL     1      20.984  17.778 -10.081  1.00  0.00     0.004 C 
ENDBRANCH  24  25
ENDBRANCH  23  24
ENDBRANCH  22  23
ENDBRANCH  21  22
ENDBRANCH  20  21
ENDBRANCH  19  20
ENDBRANCH  18  19
ENDBRANCH  17  18
ENDBRANCH  16  17
ENDBRANCH  15  16
ENDBRANCH   1  15
TORSDOF 22
ENDMDL
MODEL 5
REMARK VINA RESULT:    -4.275      1.547      3.622
REMARK INTER + INTRA:         -11.991
REMARK INTER:                  -9.578
REMARK INTRA:                  -2.413
REMARK UNBOUND:                -2.218
REMARK SMILES CCCCCCCCCCCCCCCCCCCCCCCC(=O)[O-]
REMARK SMILES IDX 13 1 14 2 15 3 16 4 17 5 18 6 19 7 20 8 21 9 22 10 23 11
REMARK SMILES IDX 24 12 25 13 26 14 12 15 11 16 10 17 9 18 8 19 7 20 6 21 5 22
REMARK SMILES IDX 4 23 3 24 2 25 1 26
REMARK H PARENT
REMARK Flexibility Score: inf
ROOT
ATOM      1  C   UNL     1      17.374  20.821 -13.093  1.00  0.00     0.000 C 
ENDROOT
BRANCH   1   2
ATOM      2  C   UNL     1      16.189  20.192 -12.338  1.00  0.00     0.000 C 
BRANCH   2   3
ATOM      3  C   UNL     1      15.216  21.260 -11.797  1.00  0.00     0.000 C 
BRANCH   3   4
ATOM      4  C   UNL     1      15.171  22.543 -12.646  1.00  0.00     0.000 C 
BRANCH   4   5
ATOM      5  C   UNL     1      13.738  23.028 -12.923  1.00  0.00     0.000 C 
BRANCH   5   6
ATOM      6  C   UNL     1      13.585  24.549 -12.773  1.00  0.00     0.000 C 
BRANCH   6   7
ATOM      7  C   UNL     1      12.267  24.954 -12.093  1.00  0.00     0.000 C 
BRANCH   7   8
ATOM      8  C   UNL     1      12.534  25.748 -10.806  1.00  0.00     0.000 C 
BRANCH   8   9
ATOM      9  C   UNL     1      13.993  25.632 -10.332  1.00  0.00     0.000 C 
BRANCH   9  10
ATOM     10  C   UNL     1      14.356  26.690  -9.273  1.00  0.00     0.006 C 
BRANCH  10  11
ATOM     11  C   UNL     1      14.687  26.061  -7.913  1.00  0.00     0.053 C 
BRANCH  11  12
ATOM     12  C   UNL     1      13.568  26.236  -6.932  1.00  0.00     0.041 C 
ATOM     13  O   UNL     1      13.457  25.453  -5.949  1.00  0.00    -0.550 OA
ATOM     14  O   UNL     1      12.646  27.262  -7.101  1.00  0.00    -0.550 OA
ENDBRANCH  11  12
ENDBRANCH  10  11
ENDBRANCH   9  10
ENDBRANCH   8   9
ENDBRANCH   7   8
ENDBRANCH   6   7
ENDBRANCH   5   6
ENDBRANCH   4   5
ENDBRANCH   3   4
ENDBRANCH   2   3
ENDBRANCH   1   2
BRANCH   1  15
ATOM     15  C   UNL     1      18.043  19.843 -14.073  1.00  0.00     0.000 C 
BRANCH  15  16
ATOM     16  C   UNL     1      19.577  19.960 -14.065  1.00  0.00     0.000 C 
BRANCH  16  17
ATOM     17  C   UNL     1      20.270  18.685 -13.559  1.00  0.00     0.000 C 
BRANCH  17  18
ATOM     18  C   UNL     1      19.278  17.537 -13.300  1.00  0.00    -0.000 C 
BRANCH  18  19
ATOM     19  C   UNL     1      19.145  17.198 -11.806  1.00  0.00    -0.000 C 
BRANCH  19  20
ATOM     20  C   UNL     1      19.948  18.144 -10.887  1.00  0.00    -0.000 C 
BRANCH  20  21
ATOM     21  C   UNL     1      20.888  17.374  -9.944  1.00  0.00    -0.000 C 
BRANCH  21  22
ATOM     22  C   UNL     1      22.375  17.563 -10.292  1.00  0.00    -0.000 C 
BRANCH  22  23
ATOM     23  C   UNL     1      23.128  16.236 -10.530  1.00  0.00    -0.000 C 
BRANCH  23  24
ATOM     24  C   UNL     1      22.431  15.354 -11.583  1.00  0.00    -0.000 C 
BRANCH  24  25
ATOM     25  C   UNL     1      22.689  15.832 -13.020  1.00  0.00    -0.003 C 
ATOM     26  C   UNL     1      21.866  15.066 -14.055  1.00  0.00     0.004 C 
ENDBRANCH  24  25
ENDBRANCH  23  24
ENDBRANCH  22  23
ENDBRANCH  21  22
ENDBRANCH  20  21
ENDBRANCH  19  20
ENDBRANCH  18  19
ENDBRANCH  17  18
ENDBRANCH  16  17
ENDBRANCH  15  16
ENDBRANCH   1  15
TORSDOF 22
ENDMDL
MODEL 6
REMARK VINA RESULT:    -4.265      4.107     10.631
REMARK INTER + INTRA:         -11.969
REMARK INTER:                  -9.595
REMARK INTRA:                  -2.374
REMARK UNBOUND:                -2.218
REMARK SMILES CCCCCCCCCCCCCCCCCCCCCCCC(=O)[O-]
REMARK SMILES IDX 13 1 14 2 15 3 16 4 17 5 18 6 19 7 20 8 21 9 22 10 23 11
REMARK SMILES IDX 24 12 25 13 26 14 12 15 11 16 10 17 9 18 8 19 7 20 6 21 5 22
REMARK SMILES IDX 4 23 3 24 2 25 1 26
REMARK H PARENT
REMARK Flexibility Score: inf
ROOT
ATOM      1  C   UNL     1      15.306  23.446 -13.359  1.00  0.00     0.000 C 
ENDROOT
BRANCH   1   2
ATOM      2  C   UNL     1      16.274  22.275 -13.113  1.00  0.00     0.000 C 
BRANCH   2   3
ATOM      3  C   UNL     1      15.683  21.229 -12.144  1.00  0.00     0.000 C 
BRANCH   3   4
ATOM      4  C   UNL     1      16.429  19.883 -12.155  1.00  0.00     0.000 C 
BRANCH   4   5
ATOM      5  C   UNL     1      17.526  19.816 -13.231  1.00  0.00     0.000 C 
BRANCH   5   6
ATOM      6  C   UNL     1      18.733  18.972 -12.796  1.00  0.00     0.000 C 
BRANCH   6   7
ATOM      7  C   UNL     1      18.592  18.415 -11.371  1.00  0.00     0.000 C 
BRANCH   7   8
ATOM      8  C   UNL     1      19.969  18.233 -10.713  1.00  0.00     0.000 C 
BRANCH   8   9
ATOM      9  C   UNL     1      20.398  16.758 -10.638  1.00  0.00     0.000 C 
BRANCH   9  10
ATOM     10  C   UNL     1      21.901  16.593 -10.350  1.00  0.00     0.006 C 
BRANCH  10  11
ATOM     11  C   UNL     1      22.181  16.308  -8.869  1.00  0.00     0.053 C 
BRANCH  11  12
ATOM     12  C   UNL     1      22.086  14.846  -8.555  1.00  0.00     0.041 C 
ATOM     13  O   UNL     1      23.081  14.091  -8.734  1.00  0.00    -0.550 OA
ATOM     14  O   UNL     1      20.898  14.313  -8.067  1.00  0.00    -0.550 OA
ENDBRANCH  11  12
ENDBRANCH  10  11
ENDBRANCH   9  10
ENDBRANCH   8   9
ENDBRANCH   7   8
ENDBRANCH   6   7
ENDBRANCH   5   6
ENDBRANCH   4   5
ENDBRANCH   3   4
ENDBRANCH   2   3
ENDBRANCH   1   2
BRANCH   1  15
ATOM     15  C   UNL     1      13.863  23.125 -12.936  1.00  0.00     0.000 C 
BRANCH  15  16
ATOM     16  C   UNL     1      12.842  23.438 -14.044  1.00  0.00     0.000 C 
BRANCH  16  17
ATOM     17  C   UNL     1      11.402  23.074 -13.648  1.00  0.00     0.000 C 
BRANCH  17  18
ATOM     18  C   UNL     1      11.194  23.063 -12.123  1.00  0.00    -0.000 C 
BRANCH  18  19
ATOM     19  C   UNL     1       9.715  23.211 -11.728  1.00  0.00    -0.000 C 
BRANCH  19  20
ATOM     20  C   UNL     1       9.239  24.679 -11.665  1.00  0.00    -0.000 C 
BRANCH  20  21
ATOM     21  C   UNL     1       9.460  25.299 -10.275  1.00  0.00    -0.000 C 
BRANCH  21  22
ATOM     22  C   UNL     1      10.554  26.383 -10.267  1.00  0.00    -0.000 C 
BRANCH  22  23
ATOM     23  C   UNL     1      11.876  25.922  -9.617  1.00  0.00    -0.000 C 
BRANCH  23  24
ATOM     24  C   UNL     1      13.019  25.809 -10.643  1.00  0.00    -0.000 C 
BRANCH  24  25
ATOM     25  C   UNL     1      12.692  26.503 -11.974  1.00  0.00    -0.003 C 
ATOM     26  C   UNL     1      13.922  27.117 -12.641  1.00  0.00     0.004 C 
ENDBRANCH  24  25
ENDBRANCH  23  24
ENDBRANCH  22  23
ENDBRANCH  21  22
ENDBRANCH  20  21
ENDBRANCH  19  20
ENDBRANCH  18  19
ENDBRANCH  17  18
ENDBRANCH  16  17
ENDBRANCH  15  16
ENDBRANCH   1  15
TORSDOF 22
ENDMDL
MODEL 7
REMARK VINA RESULT:    -4.232      4.219     10.780
REMARK INTER + INTRA:         -11.892
REMARK INTER:                  -9.592
REMARK INTRA:                  -2.300
REMARK UNBOUND:                -2.218
REMARK SMILES CCCCCCCCCCCCCCCCCCCCCCCC(=O)[O-]
REMARK SMILES IDX 13 1 14 2 15 3 16 4 17 5 18 6 19 7 20 8 21 9 22 10 23 11
REMARK SMILES IDX 24 12 25 13 26 14 12 15 11 16 10 17 9 18 8 19 7 20 6 21 5 22
REMARK SMILES IDX 4 23 3 24 2 25 1 26
REMARK H PARENT
REMARK Flexibility Score: inf
ROOT
ATOM      1  C   UNL     1      17.325  19.891 -12.422  1.00  0.00     0.000 C 
ENDROOT
BRANCH   1   2
ATOM      2  C   UNL     1      18.377  20.442 -13.403  1.00  0.00     0.000 C 
BRANCH   2   3
ATOM      3  C   UNL     1      19.172  19.312 -14.092  1.00  0.00     0.000 C 
BRANCH   3   4
ATOM      4  C   UNL     1      18.542  17.919 -13.919  1.00  0.00     0.000 C 
BRANCH   4   5
ATOM      5  C   UNL     1      19.452  16.941 -13.157  1.00  0.00     0.000 C 
BRANCH   5   6
ATOM      6  C   UNL     1      20.474  17.657 -12.259  1.00  0.00     0.000 C 
BRANCH   6   7
ATOM      7  C   UNL     1      19.948  17.908 -10.837  1.00  0.00     0.000 C 
BRANCH   7   8
ATOM      8  C   UNL     1      21.070  17.745  -9.800  1.00  0.00     0.000 C 
BRANCH   8   9
ATOM      9  C   UNL     1      22.404  17.319 -10.435  1.00  0.00     0.000 C 
BRANCH   9  10
ATOM     10  C   UNL     1      23.054  16.130  -9.704  1.00  0.00     0.006 C 
BRANCH  10  11
ATOM     11  C   UNL     1      22.493  15.941  -8.289  1.00  0.00     0.053 C 
BRANCH  11  12
ATOM     12  C   UNL     1      21.938  14.563  -8.089  1.00  0.00     0.041 C 
ATOM     13  O   UNL     1      22.253  13.631  -8.877  1.00  0.00    -0.550 OA
ATOM     14  O   UNL     1      21.072  14.307  -7.033  1.00  0.00    -0.550 OA
ENDBRANCH  11  12
ENDBRANCH  10  11
ENDBRANCH   9  10
ENDBRANCH   8   9
ENDBRANCH   7   8
ENDBRANCH   6   7
ENDBRANCH   5   6
ENDBRANCH   4   5
ENDBRANCH   3   4
ENDBRANCH   2   3
ENDBRANCH   1   2
BRANCH   1  15
ATOM     15  C   UNL     1      16.145  20.855 -12.212  1.00  0.00     0.000 C 
BRANCH  15  16
ATOM     16  C   UNL     1      16.245  22.108 -13.100  1.00  0.00     0.000 C 
BRANCH  16  17
ATOM     17  C   UNL     1      15.002  23.008 -13.001  1.00  0.00     0.000 C 
BRANCH  17  18
ATOM     18  C   UNL     1      13.837  22.327 -12.261  1.00  0.00    -0.000 C 
BRANCH  18  19
ATOM     19  C   UNL     1      12.532  22.342 -13.074  1.00  0.00    -0.000 C 
BRANCH  19  20
ATOM     20  C   UNL     1      11.444  23.258 -12.472  1.00  0.00    -0.000 C 
BRANCH  20  21
ATOM     21  C   UNL     1      10.985  24.340 -13.465  1.00  0.00    -0.000 C 
BRANCH  21  22
ATOM     22  C   UNL     1      12.058  25.413 -13.723  1.00  0.00    -0.000 C 
BRANCH  22  23
ATOM     23  C   UNL     1      11.721  26.786 -13.103  1.00  0.00    -0.000 C 
BRANCH  23  24
ATOM     24  C   UNL     1      12.863  27.321 -12.219  1.00  0.00    -0.000 C 
BRANCH  24  25
ATOM     25  C   UNL     1      13.942  26.262 -11.940  1.00  0.00    -0.003 C 
ATOM     26  C   UNL     1      13.914  25.754 -10.498  1.00  0.00     0.004 C 
ENDBRANCH  24  25
ENDBRANCH  23  24
ENDBRANCH  22  23
ENDBRANCH  21  22
ENDBRANCH  20  21
ENDBRANCH  19  20
ENDBRANCH  18  19
ENDBRANCH  17  18
ENDBRANCH  16  17
ENDBRANCH  15  16
ENDBRANCH   1  15
TORSDOF 22
ENDMDL
MODEL 8
REMARK VINA RESULT:    -4.220     11.290     14.176
REMARK INTER + INTRA:         -11.865
REMARK INTER:                  -7.617
REMARK INTRA:                  -4.247
REMARK UNBOUND:                -2.218
REMARK SMILES CCCCCCCCCCCCCCCCCCCCCCCC(=O)[O-]
REMARK SMILES IDX 13 1 14 2 15 3 16 4 17 5 18 6 19 7 20 8 21 9 22 10 23 11
REMARK SMILES IDX 24 12 25 13 26 14 12 15 11 16 10 17 9 18 8 19 7 20 6 21 5 22
REMARK SMILES IDX 4 23 3 24 2 25 1 26
REMARK H PARENT
REMARK Flexibility Score: inf
ROOT
ATOM      1  C   UNL     1       7.983  16.575  -8.056  1.00  0.00     0.000 C 
ENDROOT
BRANCH   1   2
ATOM      2  C   UNL     1       7.959  16.012  -9.488  1.00  0.00     0.000 C 
BRANCH   2   3
ATOM      3  C   UNL     1       8.110  14.476  -9.508  1.00  0.00     0.000 C 
BRANCH   3   4
ATOM      4  C   UNL     1       8.023  13.828  -8.115  1.00  0.00     0.000 C 
BRANCH   4   5
ATOM      5  C   UNL     1       7.301  12.471  -8.130  1.00  0.00     0.000 C 
BRANCH   5   6
ATOM      6  C   UNL     1       7.048  11.948  -9.553  1.00  0.00     0.000 C 
BRANCH   6   7
ATOM      7  C   UNL     1       7.952  10.762  -9.924  1.00  0.00     0.000 C 
BRANCH   7   8
ATOM      8  C   UNL     1       8.729  10.258  -8.698  1.00  0.00     0.000 C 
BRANCH   8   9
ATOM      9  C   UNL     1      10.249  10.447  -8.843  1.00  0.00     0.000 C 
BRANCH   9  10
ATOM     10  C   UNL     1      10.630  11.218 -10.120  1.00  0.00     0.006 C 
BRANCH  10  11
ATOM     11  C   UNL     1      11.322  12.552  -9.809  1.00  0.00     0.053 C 
BRANCH  11  12
ATOM     12  C   UNL     1      12.557  12.358  -8.983  1.00  0.00     0.041 C 
ATOM     13  O   UNL     1      12.595  12.766  -7.790  1.00  0.00    -0.550 OA
ATOM     14  O   UNL     1      13.669  11.727  -9.529  1.00  0.00    -0.550 OA
ENDBRANCH  11  12
ENDBRANCH  10  11
ENDBRANCH   9  10
ENDBRANCH   8   9
ENDBRANCH   7   8
ENDBRANCH   6   7
ENDBRANCH   5   6
ENDBRANCH   4   5
ENDBRANCH   3   4
ENDBRANCH   2   3
ENDBRANCH   1   2
BRANCH   1  15
ATOM     15  C   UNL     1       6.783  17.490  -7.756  1.00  0.00     0.000 C 
BRANCH  15  16
ATOM     16  C   UNL     1       6.110  17.154  -6.414  1.00  0.00     0.000 C 
BRANCH  16  17
ATOM     17  C   UNL     1       4.648  16.706  -6.576  1.00  0.00     0.000 C 
BRANCH  17  18
ATOM     18  C   UNL     1       4.526  15.240  -7.025  1.00  0.00    -0.000 C 
BRANCH  18  19
ATOM     19  C   UNL     1       4.561  15.086  -8.555  1.00  0.00    -0.000 C 
BRANCH  19  20
ATOM     20  C   UNL     1       3.875  13.798  -9.059  1.00  0.00    -0.000 C 
BRANCH  20  21
ATOM     21  C   UNL     1       4.004  13.632 -10.583  1.00  0.00    -0.000 C 
BRANCH  21  22
ATOM     22  C   UNL     1       4.814  14.762 -11.244  1.00  0.00    -0.000 C 
BRANCH  22  23
ATOM     23  C   UNL     1       5.206  14.467 -12.708  1.00  0.00    -0.000 C 
BRANCH  23  24
ATOM     24  C   UNL     1       6.724  14.591 -12.939  1.00  0.00    -0.000 C 
BRANCH  24  25
ATOM     25  C   UNL     1       7.299  13.413 -13.740  1.00  0.00    -0.003 C 
ATOM     26  C   UNL     1       8.368  12.639 -12.969  1.00  0.00     0.004 C 
ENDBRANCH  24  25
ENDBRANCH  23  24
ENDBRANCH  22  23
ENDBRANCH  21  22
ENDBRANCH  20  21
ENDBRANCH  19  20
ENDBRANCH  18  19
ENDBRANCH  17  18
ENDBRANCH  16  17
ENDBRANCH  15  16
ENDBRANCH   1  15
TORSDOF 22
ENDMDL
MODEL 9
REMARK VINA RESULT:    -4.217      1.908      4.047
REMARK INTER + INTRA:         -11.858
REMARK INTER:                  -9.450
REMARK INTRA:                  -2.408
REMARK UNBOUND:                -2.218
REMARK SMILES CCCCCCCCCCCCCCCCCCCCCCCC(=O)[O-]
REMARK SMILES IDX 13 1 14 2 15 3 16 4 17 5 18 6 19 7 20 8 21 9 22 10 23 11
REMARK SMILES IDX 24 12 25 13 26 14 12 15 11 16 10 17 9 18 8 19 7 20 6 21 5 22
REMARK SMILES IDX 4 23 3 24 2 25 1 26
REMARK H PARENT
REMARK Flexibility Score: inf
ROOT
ATOM      1  C   UNL     1      10.419  25.152 -11.012  1.00  0.00     0.000 C 
ENDROOT
BRANCH   1   2
ATOM      2  C   UNL     1      11.854  25.403 -10.515  1.00  0.00     0.000 C 
BRANCH   2   3
ATOM      3  C   UNL     1      12.559  26.514 -11.321  1.00  0.00     0.000 C 
BRANCH   3   4
ATOM      4  C   UNL     1      13.942  26.899 -10.765  1.00  0.00     0.000 C 
BRANCH   4   5
ATOM      5  C   UNL     1      14.486  25.876  -9.754  1.00  0.00     0.000 C 
BRANCH   5   6
ATOM      6  C   UNL     1      15.172  26.538  -8.549  1.00  0.00     0.000 C 
BRANCH   6   7
ATOM      7  C   UNL     1      14.284  26.564  -7.294  1.00  0.00     0.000 C 
BRANCH   7   8
ATOM      8  C   UNL     1      13.338  27.774  -7.315  1.00  0.00     0.000 C 
BRANCH   8   9
ATOM      9  C   UNL     1      11.891  27.400  -6.952  1.00  0.00     0.000 C 
BRANCH   9  10
ATOM     10  C   UNL     1      11.787  26.010  -6.296  1.00  0.00     0.006 C 
BRANCH  10  11
ATOM     11  C   UNL     1      11.619  26.097  -4.774  1.00  0.00     0.053 C 
BRANCH  11  12
ATOM     12  C   UNL     1      10.253  25.659  -4.338  1.00  0.00     0.041 C 
ATOM     13  O   UNL     1      10.121  24.851  -3.379  1.00  0.00    -0.550 OA
ATOM     14  O   UNL     1       9.126  26.141  -4.992  1.00  0.00    -0.550 OA
ENDBRANCH  11  12
ENDBRANCH  10  11
ENDBRANCH   9  10
ENDBRANCH   8   9
ENDBRANCH   7   8
ENDBRANCH   6   7
ENDBRANCH   5   6
ENDBRANCH   4   5
ENDBRANCH   3   4
ENDBRANCH   2   3
ENDBRANCH   1   2
BRANCH   1  15
ATOM     15  C   UNL     1      10.370  24.267 -12.269  1.00  0.00     0.000 C 
BRANCH  15  16
ATOM     16  C   UNL     1      11.409  23.132 -12.229  1.00  0.00     0.000 C 
BRANCH  16  17
ATOM     17  C   UNL     1      12.119  22.927 -13.577  1.00  0.00     0.000 C 
BRANCH  17  18
ATOM     18  C   UNL     1      13.565  23.454 -13.569  1.00  0.00    -0.000 C 
BRANCH  18  19
ATOM     19  C   UNL     1      14.285  23.182 -12.237  1.00  0.00    -0.000 C 
BRANCH  19  20
ATOM     20  C   UNL     1      14.830  21.742 -12.116  1.00  0.00    -0.000 C 
BRANCH  20  21
ATOM     21  C   UNL     1      16.286  21.632 -12.600  1.00  0.00    -0.000 C 
BRANCH  21  22
ATOM     22  C   UNL     1      16.972  20.330 -12.150  1.00  0.00    -0.000 C 
BRANCH  22  23
ATOM     23  C   UNL     1      17.497  19.471 -13.322  1.00  0.00    -0.000 C 
BRANCH  23  24
ATOM     24  C   UNL     1      19.015  19.226 -13.227  1.00  0.00    -0.000 C 
BRANCH  24  25
ATOM     25  C   UNL     1      19.409  18.424 -11.977  1.00  0.00    -0.003 C 
ATOM     26  C   UNL     1      19.317  16.914 -12.189  1.00  0.00     0.004 C 
ENDBRANCH  24  25
ENDBRANCH  23  24
ENDBRANCH  22  23
ENDBRANCH  21  22
ENDBRANCH  20  21
ENDBRANCH  19  20
ENDBRANCH  18  19
ENDBRANCH  17  18
ENDBRANCH  16  17
ENDBRANCH  15  16
ENDBRANCH   1  15
TORSDOF 22
ENDMDL
