MODEL 1
REMARK VINA RESULT:    -4.155      0.000      0.000
REMARK INTER + INTRA:          -6.696
REMARK INTER:                  -6.099
REMARK INTRA:                  -0.597
REMARK UNBOUND:                -0.597
REMARK SMILES O=C([O-])CCCCCCCC(=O)[O-]
REMARK SMILES IDX 7 1 6 2 5 3 4 4 2 5 1 6 3 7 8 8 9 9 10 10 11 11 12 12 13 13
REMARK H PARENT
REMARK Flexibility Score: inf
ROOT
ATOM      1  C   UNL     1     -12.010  -3.031 -24.760  1.00  0.00     0.000 C 
ENDROOT
BRANCH   1   2
ATOM      2  C   UNL     1     -12.406  -2.970 -26.246  1.00  0.00     0.000 C 
BRANCH   2   3
ATOM      3  C   UNL     1     -11.983  -1.685 -26.988  1.00  0.00     0.006 C 
BRANCH   3   4
ATOM      4  C   UNL     1     -10.626  -1.113 -26.552  1.00  0.00     0.053 C 
BRANCH   4   5
ATOM      5  C   UNL     1     -10.768   0.213 -25.871  1.00  0.00     0.041 C 
ATOM      6  O   UNL     1     -11.911   0.705 -25.673  1.00  0.00    -0.550 OA
ATOM      7  O   UNL     1      -9.638   0.923 -25.486  1.00  0.00    -0.550 OA
ENDBRANCH   4   5
ENDBRANCH   3   4
ENDBRANCH   2   3
ENDBRANCH   1   2
BRANCH   1   8
ATOM      8  C   UNL     1     -12.960  -2.231 -23.853  1.00  0.00     0.000 C 
BRANCH   8   9
ATOM      9  C   UNL     1     -12.391  -2.015 -22.438  1.00  0.00     0.006 C 
BRANCH   9  10
ATOM     10  C   UNL     1     -11.090  -1.197 -22.395  1.00  0.00     0.053 C 
BRANCH  10  11
ATOM     11  C   UNL     1     -10.832  -0.624 -21.036  1.00  0.00     0.041 C 
ATOM     12  O   UNL     1      -9.663  -0.304 -20.694  1.00  0.00    -0.550 OA
ATOM     13  O   UNL     1     -11.878  -0.473 -20.135  1.00  0.00    -0.550 OA
ENDBRANCH  10  11
ENDBRANCH   9  10
ENDBRANCH   8   9
ENDBRANCH   1   8
TORSDOF 8
ENDMDL
MODEL 2
REMARK VINA RESULT:    -4.136      0.782      4.635
REMARK INTER + INTRA:          -6.668
REMARK INTER:                  -6.129
REMARK INTRA:                  -0.539
REMARK UNBOUND:                -0.597
REMARK SMILES O=C([O-])CCCCCCCC(=O)[O-]
REMARK SMILES IDX 7 1 6 2 5 3 4 4 2 5 1 6 3 7 8 8 9 9 10 10 11 11 12 12 13 13
REMARK H PARENT
REMARK Flexibility Score: inf
ROOT
ATOM      1  C   UNL     1     -13.115  -2.619 -24.955  1.00  0.00     0.000 C 
ENDROOT
BRANCH   1   2
ATOM      2  C   UNL     1     -12.219  -2.683 -23.705  1.00  0.00     0.000 C 
BRANCH   2   3
ATOM      3  C   UNL     1     -12.575  -1.681 -22.587  1.00  0.00     0.006 C 
BRANCH   3   4
ATOM      4  C   UNL     1     -11.368  -1.133 -21.811  1.00  0.00     0.053 C 
BRANCH   4   5
ATOM      5  C   UNL     1     -11.784  -0.372 -20.590  1.00  0.00     0.041 C 
ATOM      6  O   UNL     1     -10.926  -0.032 -19.733  1.00  0.00    -0.550 OA
ATOM      7  O   UNL     1     -13.123  -0.068 -20.382  1.00  0.00    -0.550 OA
ENDBRANCH   4   5
ENDBRANCH   3   4
ENDBRANCH   2   3
ENDBRANCH   1   2
BRANCH   1   8
ATOM      8  C   UNL     1     -12.348  -2.902 -26.258  1.00  0.00     0.000 C 
BRANCH   8   9
ATOM      9  C   UNL     1     -11.897  -1.615 -26.974  1.00  0.00     0.006 C 
BRANCH   9  10
ATOM     10  C   UNL     1     -10.532  -1.078 -26.516  1.00  0.00     0.053 C 
BRANCH  10  11
ATOM     11  C   UNL     1     -10.651   0.247 -25.827  1.00  0.00     0.041 C 
ATOM     12  O   UNL     1      -9.651   1.006 -25.734  1.00  0.00    -0.550 OA
ATOM     13  O   UNL     1     -11.860   0.630 -25.262  1.00  0.00    -0.550 OA
ENDBRANCH  10  11
ENDBRANCH   9  10
ENDBRANCH   8   9
ENDBRANCH   1   8
TORSDOF 8
ENDMDL
MODEL 3
REMARK VINA RESULT:    -4.101      1.476      5.462
REMARK INTER + INTRA:          -6.616
REMARK INTER:                  -6.218
REMARK INTRA:                  -0.398
REMARK UNBOUND:                -0.597
REMARK SMILES O=C([O-])CCCCCCCC(=O)[O-]
REMARK SMILES IDX 7 1 6 2 5 3 4 4 2 5 1 6 3 7 8 8 9 9 10 10 11 11 12 12 13 13
REMARK H PARENT
REMARK Flexibility Score: inf
ROOT
ATOM      1  C   UNL     1     -13.072  -2.304 -23.054  1.00  0.00     0.000 C 
ENDROOT
BRANCH   1   2
ATOM      2  C   UNL     1     -12.742  -1.041 -22.238  1.00  0.00     0.000 C 
BRANCH   2   3
ATOM      3  C   UNL     1     -11.818  -1.264 -21.023  1.00  0.00     0.006 C 
BRANCH   3   4
ATOM      4  C   UNL     1     -11.141   0.008 -20.492  1.00  0.00     0.053 C 
BRANCH   4   5
ATOM      5  C   UNL     1     -11.689   0.423 -19.161  1.00  0.00     0.041 C 
ATOM      6  O   UNL     1     -11.055   0.161 -18.105  1.00  0.00    -0.550 OA
ATOM      7  O   UNL     1     -12.917   1.067 -19.085  1.00  0.00    -0.550 OA
ENDBRANCH   4   5
ENDBRANCH   3   4
ENDBRANCH   2   3
ENDBRANCH   1   2
BRANCH   1   8
ATOM      8  C   UNL     1     -11.965  -2.678 -24.053  1.00  0.00     0.000 C 
BRANCH   8   9
ATOM      9  C   UNL     1     -12.513  -2.982 -25.461  1.00  0.00     0.006 C 
BRANCH   9  10
ATOM     10  C   UNL     1     -11.958  -2.070 -26.568  1.00  0.00     0.053 C 
BRANCH  10  11
ATOM     11  C   UNL     1     -11.961  -0.629 -26.162  1.00  0.00     0.041 C 
ATOM     12  O   UNL     1     -13.050  -0.021 -25.984  1.00  0.00    -0.550 OA
ATOM     13  O   UNL     1     -10.760   0.053 -26.010  1.00  0.00    -0.550 OA
ENDBRANCH  10  11
ENDBRANCH   9  10
ENDBRANCH   8   9
ENDBRANCH   1   8
TORSDOF 8
ENDMDL
MODEL 4
REMARK VINA RESULT:    -4.082      0.615      4.552
REMARK INTER + INTRA:          -6.588
REMARK INTER:                  -5.917
REMARK INTRA:                  -0.671
REMARK UNBOUND:                -0.597
REMARK SMILES O=C([O-])CCCCCCCC(=O)[O-]
REMARK SMILES IDX 7 1 6 2 5 3 4 4 2 5 1 6 3 7 8 8 9 9 10 10 11 11 12 12 13 13
REMARK H PARENT
REMARK Flexibility Score: inf
ROOT
ATOM      1  C   UNL     1     -12.008  -2.981 -24.434  1.00  0.00     0.000 C 
ENDROOT
BRANCH   1   2
ATOM      2  C   UNL     1     -13.111  -2.529 -23.459  1.00  0.00     0.000 C 
BRANCH   2   3
ATOM      3  C   UNL     1     -12.723  -1.371 -22.517  1.00  0.00     0.006 C 
BRANCH   3   4
ATOM      4  C   UNL     1     -11.221  -1.276 -22.205  1.00  0.00     0.053 C 
BRANCH   4   5
ATOM      5  C   UNL     1     -10.945  -0.374 -21.042  1.00  0.00     0.041 C 
ATOM      6  O   UNL     1      -9.987   0.442 -21.087  1.00  0.00    -0.550 OA
ATOM      7  O   UNL     1     -11.723  -0.459 -19.894  1.00  0.00    -0.550 OA
ENDBRANCH   4   5
ENDBRANCH   3   4
ENDBRANCH   2   3
ENDBRANCH   1   2
BRANCH   1   8
ATOM      8  C   UNL     1     -12.507  -3.113 -25.883  1.00  0.00     0.000 C 
BRANCH   8   9
ATOM      9  C   UNL     1     -11.990  -1.984 -26.794  1.00  0.00     0.006 C 
BRANCH   9  10
ATOM     10  C   UNL     1     -10.930  -1.080 -26.145  1.00  0.00     0.053 C 
BRANCH  10  11
ATOM     11  C   UNL     1     -11.462   0.291 -25.857  1.00  0.00     0.041 C 
ATOM     12  O   UNL     1     -12.692   0.463 -25.645  1.00  0.00    -0.550 OA
ATOM     13  O   UNL     1     -10.604   1.383 -25.852  1.00  0.00    -0.550 OA
ENDBRANCH  10  11
ENDBRANCH   9  10
ENDBRANCH   8   9
ENDBRANCH   1   8
TORSDOF 8
ENDMDL
MODEL 5
REMARK VINA RESULT:    -4.072      0.892      1.530
REMARK INTER + INTRA:          -6.574
REMARK INTER:                  -5.989
REMARK INTRA:                  -0.585
REMARK UNBOUND:                -0.597
REMARK SMILES O=C([O-])CCCCCCCC(=O)[O-]
REMARK SMILES IDX 7 1 6 2 5 3 4 4 2 5 1 6 3 7 8 8 9 9 10 10 11 11 12 12 13 13
REMARK H PARENT
REMARK Flexibility Score: inf
ROOT
ATOM      1  C   UNL     1     -11.996  -2.854 -24.135  1.00  0.00     0.000 C 
ENDROOT
BRANCH   1   2
ATOM      2  C   UNL     1     -12.630  -2.993 -25.531  1.00  0.00     0.000 C 
BRANCH   2   3
ATOM      3  C   UNL     1     -11.992  -2.123 -26.634  1.00  0.00     0.006 C 
BRANCH   3   4
ATOM      4  C   UNL     1     -11.027  -1.044 -26.118  1.00  0.00     0.053 C 
BRANCH   4   5
ATOM      5  C   UNL     1     -11.723   0.260 -25.873  1.00  0.00     0.041 C 
ATOM      6  O   UNL     1     -11.118   1.201 -25.295  1.00  0.00    -0.550 OA
ATOM      7  O   UNL     1     -13.049   0.423 -26.252  1.00  0.00    -0.550 OA
ENDBRANCH   4   5
ENDBRANCH   3   4
ENDBRANCH   2   3
ENDBRANCH   1   2
BRANCH   1   8
ATOM      8  C   UNL     1     -12.959  -2.254 -23.097  1.00  0.00     0.000 C 
BRANCH   8   9
ATOM      9  C   UNL     1     -12.225  -1.506 -21.968  1.00  0.00     0.006 C 
BRANCH   9  10
ATOM     10  C   UNL     1     -10.796  -1.064 -22.324  1.00  0.00     0.053 C 
BRANCH  10  11
ATOM     11  C   UNL     1     -10.106  -0.410 -21.167  1.00  0.00     0.041 C 
ATOM     12  O   UNL     1     -10.779   0.137 -20.253  1.00  0.00    -0.550 OA
ATOM     13  O   UNL     1      -8.719  -0.375 -21.114  1.00  0.00    -0.550 OA
ENDBRANCH  10  11
ENDBRANCH   9  10
ENDBRANCH   8   9
ENDBRANCH   1   8
TORSDOF 8
ENDMDL
MODEL 6
REMARK VINA RESULT:    -3.995      1.750      2.876
REMARK INTER + INTRA:          -6.461
REMARK INTER:                  -6.134
REMARK INTRA:                  -0.327
REMARK UNBOUND:                -0.597
REMARK SMILES O=C([O-])CCCCCCCC(=O)[O-]
REMARK SMILES IDX 7 1 6 2 5 3 4 4 2 5 1 6 3 7 8 8 9 9 10 10 11 11 12 12 13 13
REMARK H PARENT
REMARK Flexibility Score: inf
ROOT
ATOM      1  C   UNL     1     -12.339  -1.877 -22.093  1.00  0.00     0.000 C 
ENDROOT
BRANCH   1   2
ATOM      2  C   UNL     1     -12.966  -2.209 -23.460  1.00  0.00     0.000 C 
BRANCH   2   3
ATOM      3  C   UNL     1     -12.046  -2.967 -24.440  1.00  0.00     0.006 C 
BRANCH   3   4
ATOM      4  C   UNL     1     -12.406  -2.788 -25.923  1.00  0.00     0.053 C 
BRANCH   4   5
ATOM      5  C   UNL     1     -11.571  -1.733 -26.579  1.00  0.00     0.041 C 
ATOM      6  O   UNL     1     -10.630  -1.184 -25.947  1.00  0.00    -0.550 OA
ATOM      7  O   UNL     1     -11.855  -1.328 -27.878  1.00  0.00    -0.550 OA
ENDBRANCH   4   5
ENDBRANCH   3   4
ENDBRANCH   2   3
ENDBRANCH   1   2
BRANCH   1   8
ATOM      8  C   UNL     1     -11.002  -1.127 -22.214  1.00  0.00     0.000 C 
BRANCH   8   9
ATOM      9  C   UNL     1     -10.638  -0.352 -20.934  1.00  0.00     0.006 C 
BRANCH   9  10
ATOM     10  C   UNL     1     -11.778  -0.249 -19.908  1.00  0.00     0.053 C 
BRANCH  10  11
ATOM     11  C   UNL     1     -11.403   0.605 -18.736  1.00  0.00     0.041 C 
ATOM     12  O   UNL     1     -11.070   0.072 -17.644  1.00  0.00    -0.550 OA
ATOM     13  O   UNL     1     -11.451   1.989 -18.839  1.00  0.00    -0.550 OA
ENDBRANCH  10  11
ENDBRANCH   9  10
ENDBRANCH   8   9
ENDBRANCH   1   8
TORSDOF 8
ENDMDL
MODEL 7
REMARK VINA RESULT:    -3.968      1.911      2.848
REMARK INTER + INTRA:          -6.421
REMARK INTER:                  -5.717
REMARK INTRA:                  -0.704
REMARK UNBOUND:                -0.597
REMARK SMILES O=C([O-])CCCCCCCC(=O)[O-]
REMARK SMILES IDX 7 1 6 2 5 3 4 4 2 5 1 6 3 7 8 8 9 9 10 10 11 11 12 12 13 13
REMARK H PARENT
REMARK Flexibility Score: inf
ROOT
ATOM      1  C   UNL     1     -12.686  -2.252 -22.733  1.00  0.00     0.000 C 
ENDROOT
BRANCH   1   2
ATOM      2  C   UNL     1     -12.082  -2.822 -24.030  1.00  0.00     0.000 C 
BRANCH   2   3
ATOM      3  C   UNL     1     -13.007  -2.770 -25.264  1.00  0.00     0.006 C 
BRANCH   3   4
ATOM      4  C   UNL     1     -12.277  -2.575 -26.602  1.00  0.00     0.053 C 
BRANCH   4   5
ATOM      5  C   UNL     1     -11.657  -1.217 -26.710  1.00  0.00     0.041 C 
ATOM      6  O   UNL     1     -12.381  -0.187 -26.702  1.00  0.00    -0.550 OA
ATOM      7  O   UNL     1     -10.281  -1.089 -26.855  1.00  0.00    -0.550 OA
ENDBRANCH   4   5
ENDBRANCH   3   4
ENDBRANCH   2   3
ENDBRANCH   1   2
BRANCH   1   8
ATOM      8  C   UNL     1     -11.659  -1.490 -21.879  1.00  0.00     0.000 C 
BRANCH   8   9
ATOM      9  C   UNL     1     -10.422  -1.053 -22.687  1.00  0.00     0.006 C 
BRANCH   9  10
ATOM     10  C   UNL     1     -10.155   0.461 -22.667  1.00  0.00     0.053 C 
BRANCH  10  11
ATOM     11  C   UNL     1     -10.867   1.172 -23.776  1.00  0.00     0.041 C 
ATOM     12  O   UNL     1     -12.120   1.293 -23.750  1.00  0.00    -0.550 OA
ATOM     13  O   UNL     1     -10.150   1.672 -24.855  1.00  0.00    -0.550 OA
ENDBRANCH  10  11
ENDBRANCH   9  10
ENDBRANCH   8   9
ENDBRANCH   1   8
TORSDOF 8
ENDMDL
MODEL 8
REMARK VINA RESULT:    -3.941      1.538      2.189
REMARK INTER + INTRA:          -6.381
REMARK INTER:                  -5.654
REMARK INTRA:                  -0.728
REMARK UNBOUND:                -0.597
REMARK SMILES O=C([O-])CCCCCCCC(=O)[O-]
REMARK SMILES IDX 7 1 6 2 5 3 4 4 2 5 1 6 3 7 8 8 9 9 10 10 11 11 12 12 13 13
REMARK H PARENT
REMARK Flexibility Score: inf
ROOT
ATOM      1  C   UNL     1     -12.379  -2.972 -26.314  1.00  0.00     0.000 C 
ENDROOT
BRANCH   1   2
ATOM      2  C   UNL     1     -11.990  -1.590 -26.872  1.00  0.00     0.000 C 
BRANCH   2   3
ATOM      3  C   UNL     1     -10.555  -1.128 -26.546  1.00  0.00     0.006 C 
BRANCH   3   4
ATOM      4  C   UNL     1     -10.472   0.117 -25.649  1.00  0.00     0.053 C 
BRANCH   4   5
ATOM      5  C   UNL     1      -9.437  -0.032 -24.577  1.00  0.00     0.041 C 
ATOM      6  O   UNL     1      -9.510  -0.981 -23.753  1.00  0.00    -0.550 OA
ATOM      7  O   UNL     1      -8.412   0.899 -24.465  1.00  0.00    -0.550 OA
ENDBRANCH   4   5
ENDBRANCH   3   4
ENDBRANCH   2   3
ENDBRANCH   1   2
BRANCH   1   8
ATOM      8  C   UNL     1     -12.081  -3.115 -24.812  1.00  0.00     0.000 C 
BRANCH   8   9
ATOM      9  C   UNL     1     -13.031  -2.278 -23.935  1.00  0.00     0.006 C 
BRANCH   9  10
ATOM     10  C   UNL     1     -12.539  -2.061 -22.495  1.00  0.00     0.053 C 
BRANCH  10  11
ATOM     11  C   UNL     1     -12.801  -0.667 -22.016  1.00  0.00     0.041 C 
ATOM     12  O   UNL     1     -13.122  -0.457 -20.816  1.00  0.00    -0.550 OA
ATOM     13  O   UNL     1     -12.720   0.400 -22.902  1.00  0.00    -0.550 OA
ENDBRANCH  10  11
ENDBRANCH   9  10
ENDBRANCH   8   9
ENDBRANCH   1   8
TORSDOF 8
ENDMDL
MODEL 9
REMARK VINA RESULT:    -3.859      1.787      4.395
REMARK INTER + INTRA:          -6.261
REMARK INTER:                  -5.531
REMARK INTRA:                  -0.730
REMARK UNBOUND:                -0.597
REMARK SMILES O=C([O-])CCCCCCCC(=O)[O-]
REMARK SMILES IDX 7 1 6 2 5 3 4 4 2 5 1 6 3 7 8 8 9 9 10 10 11 11 12 12 13 13
REMARK H PARENT
REMARK Flexibility Score: inf
ROOT
ATOM      1  C   UNL     1     -12.282  -1.931 -26.591  1.00  0.00     0.000 C 
ENDROOT
BRANCH   1   2
ATOM      2  C   UNL     1     -12.412  -3.189 -25.713  1.00  0.00     0.000 C 
BRANCH   2   3
ATOM      3  C   UNL     1     -12.057  -2.992 -24.224  1.00  0.00     0.006 C 
BRANCH   3   4
ATOM      4  C   UNL     1     -13.121  -2.244 -23.407  1.00  0.00     0.053 C 
BRANCH   4   5
ATOM      5  C   UNL     1     -12.513  -1.217 -22.501  1.00  0.00     0.041 C 
ATOM      6  O   UNL     1     -13.120  -0.139 -22.269  1.00  0.00    -0.550 OA
ATOM      7  O   UNL     1     -11.260  -1.436 -21.943  1.00  0.00    -0.550 OA
ENDBRANCH   4   5
ENDBRANCH   3   4
ENDBRANCH   2   3
ENDBRANCH   1   2
BRANCH   1   8
ATOM      8  C   UNL     1     -11.000  -1.131 -26.305  1.00  0.00     0.000 C 
BRANCH   8   9
ATOM      9  C   UNL     1     -11.288   0.323 -25.887  1.00  0.00     0.006 C 
BRANCH   9  10
ATOM     10  C   UNL     1     -12.768   0.729 -25.979  1.00  0.00     0.053 C 
BRANCH  10  11
ATOM     11  C   UNL     1     -12.975   2.175 -25.649  1.00  0.00     0.041 C 
ATOM     12  O   UNL     1     -13.115   3.023 -26.571  1.00  0.00    -0.550 OA
ATOM     13  O   UNL     1     -12.984   2.592 -24.325  1.00  0.00    -0.550 OA
ENDBRANCH  10  11
ENDBRANCH   9  10
ENDBRANCH   8   9
ENDBRANCH   1   8
TORSDOF 8
ENDMDL
