MODEL 1
REMARK VINA RESULT:    -1.224      0.000      0.000
REMARK INTER + INTRA:          -1.224
REMARK INTER:                  -1.224
REMARK INTRA:                   0.000
REMARK UNBOUND:                 0.000
REMARK SMILES C=C1CCC[C@]2(C)CC(=O)C(=C(C)C)C[C@@H]12
REMARK SMILES IDX 13 1 12 2 11 3 15 4 16 5 2 6 1 7 3 8 4 9 5 10 6 11 8 12 9 13
REMARK SMILES IDX 10 14 7 15 14 16
REMARK H PARENT
REMARK Flexibility Score: inf
ROOT
ATOM      1  C   UNL     1      28.840   7.700  23.902  1.00  0.00     0.039 C 
ATOM      2  C   UNL     1      28.236   8.786  24.764  1.00  0.00    -0.070 C 
ATOM      3  C   UNL     1      28.198  10.086  24.344  1.00  0.00    -0.006 C 
ATOM      4  C   UNL     1      28.783  10.493  22.998  1.00  0.00     0.047 C 
ATOM      5  C   UNL     1      29.282  11.962  22.960  1.00  0.00     0.025 C 
ATOM      6  C   UNL     1      29.769  12.437  21.587  1.00  0.00    -0.073 C 
ATOM      7  C   UNL     1      29.921  11.624  20.524  1.00  0.00     0.008 C 
ATOM      8  C   UNL     1      30.125  13.896  21.423  1.00  0.00     0.031 C 
ATOM      9  C   UNL     1      30.125  14.628  22.767  1.00  0.00     0.005 C 
ATOM     10  C   UNL     1      28.796  14.450  23.520  1.00  0.00     0.008 C 
ATOM     11  C   UNL     1      28.233  12.977  23.529  1.00  0.00    -0.018 C 
ATOM     12  C   UNL     1      27.912  12.578  24.990  1.00  0.00     0.088 C 
ATOM     13  C   UNL     1      27.479  11.147  25.105  1.00  0.00     0.159 C 
ATOM     14  O   UNL     1      26.492  10.871  25.839  1.00  0.00    -0.295 OA
ATOM     15  C   UNL     1      26.923  12.948  22.692  1.00  0.00     0.012 C 
ATOM     16  C   UNL     1      27.715   8.371  26.121  1.00  0.00     0.039 C 
ENDROOT
TORSDOF 0
ENDMDL
MODEL 2
REMARK VINA RESULT:     0.125      2.018      5.465
REMARK INTER + INTRA:           0.125
REMARK INTER:                   0.125
REMARK INTRA:                   0.000
REMARK UNBOUND:                 0.000
REMARK SMILES C=C1CCC[C@]2(C)CC(=O)C(=C(C)C)C[C@@H]12
REMARK SMILES IDX 13 1 12 2 11 3 15 4 16 5 2 6 1 7 3 8 4 9 5 10 6 11 8 12 9 13
REMARK SMILES IDX 10 14 7 15 14 16
REMARK H PARENT
REMARK Flexibility Score: inf
ROOT
ATOM      1  C   UNL     1      28.906  16.266  22.872  1.00  0.00     0.039 C 
ATOM      2  C   UNL     1      29.281  15.061  22.040  1.00  0.00    -0.070 C 
ATOM      3  C   UNL     1      28.901  13.800  22.406  1.00  0.00    -0.006 C 
ATOM      4  C   UNL     1      28.103  13.560  23.681  1.00  0.00     0.047 C 
ATOM      5  C   UNL     1      28.338  12.158  24.302  1.00  0.00     0.025 C 
ATOM      6  C   UNL     1      27.463  11.843  25.519  1.00  0.00    -0.073 C 
ATOM      7  C   UNL     1      26.668  12.747  26.124  1.00  0.00     0.008 C 
ATOM      8  C   UNL     1      27.514  10.445  26.091  1.00  0.00     0.031 C 
ATOM      9  C   UNL     1      28.627   9.616  25.447  1.00  0.00     0.005 C 
ATOM     10  C   UNL     1      28.517   9.597  23.913  1.00  0.00     0.008 C 
ATOM     11  C   UNL     1      28.223  10.999  23.254  1.00  0.00    -0.018 C 
ATOM     12  C   UNL     1      29.263  11.250  22.136  1.00  0.00     0.088 C 
ATOM     13  C   UNL     1      29.129  12.616  21.531  1.00  0.00     0.159 C 
ATOM     14  O   UNL     1      29.195  12.731  20.278  1.00  0.00    -0.295 OA
ATOM     15  C   UNL     1      26.800  10.958  22.628  1.00  0.00     0.012 C 
ATOM     16  C   UNL     1      30.124  15.315  20.811  1.00  0.00     0.039 C 
ENDROOT
TORSDOF 0
ENDMDL
MODEL 3
REMARK VINA RESULT:     0.613      1.820      4.760
REMARK INTER + INTRA:           0.613
REMARK INTER:                   0.613
REMARK INTRA:                   0.000
REMARK UNBOUND:                 0.000
REMARK SMILES C=C1CCC[C@]2(C)CC(=O)C(=C(C)C)C[C@@H]12
REMARK SMILES IDX 13 1 12 2 11 3 15 4 16 5 2 6 1 7 3 8 4 9 5 10 6 11 8 12 9 13
REMARK SMILES IDX 10 14 7 15 14 16
REMARK H PARENT
REMARK Flexibility Score: inf
ROOT
ATOM      1  C   UNL     1      30.125  11.241  20.053  1.00  0.00     0.039 C 
ATOM      2  C   UNL     1      29.896  12.454  20.927  1.00  0.00    -0.070 C 
ATOM      3  C   UNL     1      29.478  12.325  22.222  1.00  0.00    -0.006 C 
ATOM      4  C   UNL     1      29.205  10.954  22.826  1.00  0.00     0.047 C 
ATOM      5  C   UNL     1      28.145  10.978  23.958  1.00  0.00     0.025 C 
ATOM      6  C   UNL     1      27.933   9.635  24.665  1.00  0.00    -0.073 C 
ATOM      7  C   UNL     1      28.483   8.477  24.252  1.00  0.00     0.008 C 
ATOM      8  C   UNL     1      27.034   9.603  25.880  1.00  0.00     0.031 C 
ATOM      9  C   UNL     1      26.308  10.936  26.076  1.00  0.00     0.005 C 
ATOM     10  C   UNL     1      27.285  12.122  26.125  1.00  0.00     0.008 C 
ATOM     11  C   UNL     1      28.411  12.098  25.021  1.00  0.00    -0.018 C 
ATOM     12  C   UNL     1      28.422  13.465  24.294  1.00  0.00     0.088 C 
ATOM     13  C   UNL     1      29.388  13.490  23.147  1.00  0.00     0.159 C 
ATOM     14  O   UNL     1      30.124  14.502  22.999  1.00  0.00    -0.295 OA
ATOM     15  C   UNL     1      29.781  11.882  25.723  1.00  0.00     0.012 C 
ATOM     16  C   UNL     1      30.114  13.807  20.290  1.00  0.00     0.039 C 
ENDROOT
TORSDOF 0
ENDMDL
