MODEL 1
REMARK VINA RESULT:    -3.849      0.000      0.000
REMARK INTER + INTRA:          -4.779
REMARK INTER:                  -4.749
REMARK INTRA:                  -0.030
REMARK UNBOUND:                -0.030
REMARK SMILES CCCCCC=O
REMARK SMILES IDX 4 1 3 2 2 3 1 4 5 5 6 6 7 7
REMARK H PARENT
REMARK Flexibility Score: inf
ROOT
ATOM      1  C   UNL     1      24.327  56.519  -8.840  1.00  0.00     0.008 C 
ENDROOT
BRANCH   1   2
ATOM      2  C   UNL     1      25.779  57.043  -8.840  1.00  0.00     0.000 C 
BRANCH   2   3
ATOM      3  C   UNL     1      25.904  58.510  -9.284  1.00  0.00    -0.003 C 
ATOM      4  C   UNL     1      27.192  58.794 -10.055  1.00  0.00     0.004 C 
ENDBRANCH   2   3
ENDBRANCH   1   2
BRANCH   1   5
ATOM      5  C   UNL     1      24.206  55.142  -8.170  1.00  0.00     0.072 C 
BRANCH   5   6
ATOM      6  C   UNL     1      22.881  54.986  -7.484  1.00  0.00     0.224 C 
ATOM      7  O   UNL     1      22.838  54.787  -6.281  1.00  0.00    -0.303 OA
ENDBRANCH   5   6
ENDBRANCH   1   5
TORSDOF 4
ENDMDL
MODEL 2
REMARK VINA RESULT:    -3.667      2.731      4.723
REMARK INTER + INTRA:          -4.555
REMARK INTER:                  -4.500
REMARK INTRA:                  -0.055
REMARK UNBOUND:                -0.030
REMARK SMILES CCCCCC=O
REMARK SMILES IDX 4 1 3 2 2 3 1 4 5 5 6 6 7 7
REMARK H PARENT
REMARK Flexibility Score: inf
ROOT
ATOM      1  C   UNL     1      25.482  56.567  -9.059  1.00  0.00     0.008 C 
ENDROOT
BRANCH   1   2
ATOM      2  C   UNL     1      24.949  55.749  -7.864  1.00  0.00     0.000 C 
BRANCH   2   3
ATOM      3  C   UNL     1      23.458  55.389  -7.980  1.00  0.00    -0.003 C 
ATOM      4  C   UNL     1      22.889  54.775  -6.702  1.00  0.00     0.004 C 
ENDBRANCH   2   3
ENDBRANCH   1   2
BRANCH   1   5
ATOM      5  C   UNL     1      25.132  58.058  -8.946  1.00  0.00     0.072 C 
BRANCH   5   6
ATOM      6  C   UNL     1      26.276  58.920  -9.390  1.00  0.00     0.224 C 
ATOM      7  O   UNL     1      27.020  58.535 -10.278  1.00  0.00    -0.303 OA
ENDBRANCH   5   6
ENDBRANCH   1   5
TORSDOF 4
ENDMDL
MODEL 3
REMARK VINA RESULT:    -3.666      3.380      5.232
REMARK INTER + INTRA:          -4.553
REMARK INTER:                  -4.522
REMARK INTRA:                  -0.031
REMARK UNBOUND:                -0.030
REMARK SMILES CCCCCC=O
REMARK SMILES IDX 4 1 3 2 2 3 1 4 5 5 6 6 7 7
REMARK H PARENT
REMARK Flexibility Score: inf
ROOT
ATOM      1  C   UNL     1      25.641  58.189  -9.042  1.00  0.00     0.008 C 
ENDROOT
BRANCH   1   2
ATOM      2  C   UNL     1      25.579  56.722  -8.566  1.00  0.00     0.000 C 
BRANCH   2   3
ATOM      3  C   UNL     1      24.263  56.012  -8.926  1.00  0.00    -0.003 C 
ATOM      4  C   UNL     1      23.639  55.274  -7.744  1.00  0.00     0.004 C 
ENDBRANCH   2   3
ENDBRANCH   1   2
BRANCH   1   5
ATOM      5  C   UNL     1      26.842  58.452  -9.963  1.00  0.00     0.072 C 
BRANCH   5   6
ATOM      6  C   UNL     1      27.351  59.854  -9.805  1.00  0.00     0.224 C 
ATOM      7  O   UNL     1      27.956  60.389 -10.721  1.00  0.00    -0.303 OA
ENDBRANCH   5   6
ENDBRANCH   1   5
TORSDOF 4
ENDMDL
MODEL 4
REMARK VINA RESULT:    -3.666      0.708      1.325
REMARK INTER + INTRA:          -4.553
REMARK INTER:                  -4.522
REMARK INTRA:                  -0.031
REMARK UNBOUND:                -0.030
REMARK SMILES CCCCCC=O
REMARK SMILES IDX 4 1 3 2 2 3 1 4 5 5 6 6 7 7
REMARK H PARENT
REMARK Flexibility Score: inf
ROOT
ATOM      1  C   UNL     1      25.701  56.892  -8.712  1.00  0.00     0.008 C 
ENDROOT
BRANCH   1   2
ATOM      2  C   UNL     1      25.811  58.371  -9.140  1.00  0.00     0.000 C 
BRANCH   2   3
ATOM      3  C   UNL     1      26.898  58.627 -10.198  1.00  0.00    -0.003 C 
ATOM      4  C   UNL     1      27.817  59.794  -9.841  1.00  0.00     0.004 C 
ENDBRANCH   2   3
ENDBRANCH   1   2
BRANCH   1   5
ATOM      5  C   UNL     1      24.270  56.351  -8.853  1.00  0.00     0.072 C 
BRANCH   5   6
ATOM      6  C   UNL     1      24.052  55.157  -7.972  1.00  0.00     0.224 C 
ATOM      7  O   UNL     1      22.944  54.937  -7.509  1.00  0.00    -0.303 OA
ENDBRANCH   5   6
ENDBRANCH   1   5
TORSDOF 4
ENDMDL
MODEL 5
REMARK VINA RESULT:    -3.259     16.104     17.269
REMARK INTER + INTRA:          -4.051
REMARK INTER:                  -3.911
REMARK INTRA:                  -0.140
REMARK UNBOUND:                -0.030
REMARK SMILES CCCCCC=O
REMARK SMILES IDX 4 1 3 2 2 3 1 4 5 5 6 6 7 7
REMARK H PARENT
REMARK Flexibility Score: inf
ROOT
ATOM      1  C   UNL     1      19.218  44.537   0.134  1.00  0.00     0.008 C 
ENDROOT
BRANCH   1   2
ATOM      2  C   UNL     1      17.697  44.294   0.044  1.00  0.00     0.000 C 
BRANCH   2   3
ATOM      3  C   UNL     1      17.043  43.970   1.398  1.00  0.00    -0.003 C 
ATOM      4  C   UNL     1      15.691  44.654   1.587  1.00  0.00     0.004 C 
ENDBRANCH   2   3
ENDBRANCH   1   2
BRANCH   1   5
ATOM      5  C   UNL     1      19.803  44.074   1.476  1.00  0.00     0.072 C 
BRANCH   5   6
ATOM      6  C   UNL     1      20.821  42.990   1.280  1.00  0.00     0.224 C 
ATOM      7  O   UNL     1      20.898  42.414   0.207  1.00  0.00    -0.303 OA
ENDBRANCH   5   6
ENDBRANCH   1   5
TORSDOF 4
ENDMDL
MODEL 6
REMARK VINA RESULT:    -3.206     14.506     15.580
REMARK INTER + INTRA:          -3.985
REMARK INTER:                  -3.939
REMARK INTRA:                  -0.046
REMARK UNBOUND:                -0.030
REMARK SMILES CCCCCC=O
REMARK SMILES IDX 4 1 3 2 2 3 1 4 5 5 6 6 7 7
REMARK H PARENT
REMARK Flexibility Score: inf
ROOT
ATOM      1  C   UNL     1      30.190  45.364   1.092  1.00  0.00     0.008 C 
ENDROOT
BRANCH   1   2
ATOM      2  C   UNL     1      31.601  44.787   1.331  1.00  0.00     0.000 C 
BRANCH   2   3
ATOM      3  C   UNL     1      32.683  45.863   1.522  1.00  0.00    -0.003 C 
ATOM      4  C   UNL     1      32.573  46.591   2.860  1.00  0.00     0.004 C 
ENDBRANCH   2   3
ENDBRANCH   1   2
BRANCH   1   5
ATOM      5  C   UNL     1      29.639  44.997  -0.294  1.00  0.00     0.072 C 
BRANCH   5   6
ATOM      6  C   UNL     1      28.210  45.427  -0.442  1.00  0.00     0.224 C 
ATOM      7  O   UNL     1      27.925  46.347  -1.192  1.00  0.00    -0.303 OA
ENDBRANCH   5   6
ENDBRANCH   1   5
TORSDOF 4
ENDMDL
MODEL 7
REMARK VINA RESULT:    -3.193      3.729      5.742
REMARK INTER + INTRA:          -3.970
REMARK INTER:                  -3.910
REMARK INTRA:                  -0.059
REMARK UNBOUND:                -0.030
REMARK SMILES CCCCCC=O
REMARK SMILES IDX 4 1 3 2 2 3 1 4 5 5 6 6 7 7
REMARK H PARENT
REMARK Flexibility Score: inf
ROOT
ATOM      1  C   UNL     1      26.938  59.779  -9.513  1.00  0.00     0.008 C 
ENDROOT
BRANCH   1   2
ATOM      2  C   UNL     1      26.547  58.306  -9.755  1.00  0.00     0.000 C 
BRANCH   2   3
ATOM      3  C   UNL     1      25.376  57.827  -8.880  1.00  0.00    -0.003 C 
ATOM      4  C   UNL     1      25.465  56.346  -8.519  1.00  0.00     0.004 C 
ENDBRANCH   2   3
ENDBRANCH   1   2
BRANCH   1   5
ATOM      5  C   UNL     1      27.963  60.285 -10.539  1.00  0.00     0.072 C 
BRANCH   5   6
ATOM      6  C   UNL     1      29.277  59.577 -10.389  1.00  0.00     0.224 C 
ATOM      7  O   UNL     1      29.842  59.564  -9.306  1.00  0.00    -0.303 OA
ENDBRANCH   5   6
ENDBRANCH   1   5
TORSDOF 4
ENDMDL
MODEL 8
REMARK VINA RESULT:    -3.101     14.931     16.165
REMARK INTER + INTRA:          -3.856
REMARK INTER:                  -3.794
REMARK INTRA:                  -0.061
REMARK UNBOUND:                -0.030
REMARK SMILES CCCCCC=O
REMARK SMILES IDX 4 1 3 2 2 3 1 4 5 5 6 6 7 7
REMARK H PARENT
REMARK Flexibility Score: inf
ROOT
ATOM      1  C   UNL     1      31.401  45.223   0.637  1.00  0.00     0.008 C 
ENDROOT
BRANCH   1   2
ATOM      2  C   UNL     1      29.893  45.383   0.925  1.00  0.00     0.000 C 
BRANCH   2   3
ATOM      3  C   UNL     1      28.993  44.946  -0.243  1.00  0.00    -0.003 C 
ATOM      4  C   UNL     1      28.078  46.062  -0.743  1.00  0.00     0.004 C 
ENDBRANCH   2   3
ENDBRANCH   1   2
BRANCH   1   5
ATOM      5  C   UNL     1      32.204  44.901   1.906  1.00  0.00     0.072 C 
BRANCH   5   6
ATOM      6  C   UNL     1      32.903  46.120   2.430  1.00  0.00     0.224 C 
ATOM      7  O   UNL     1      32.305  46.902   3.152  1.00  0.00    -0.303 OA
ENDBRANCH   5   6
ENDBRANCH   1   5
TORSDOF 4
ENDMDL
MODEL 9
REMARK VINA RESULT:    -3.058     17.087     17.947
REMARK INTER + INTRA:          -3.803
REMARK INTER:                  -3.580
REMARK INTRA:                  -0.223
REMARK UNBOUND:                -0.030
REMARK SMILES CCCCCC=O
REMARK SMILES IDX 4 1 3 2 2 3 1 4 5 5 6 6 7 7
REMARK H PARENT
REMARK Flexibility Score: inf
ROOT
ATOM      1  C   UNL     1      14.553  43.521 -12.901  1.00  0.00     0.008 C 
ENDROOT
BRANCH   1   2
ATOM      2  C   UNL     1      14.125  42.055 -13.127  1.00  0.00     0.000 C 
BRANCH   2   3
ATOM      3  C   UNL     1      14.991  41.036 -12.366  1.00  0.00    -0.003 C 
ATOM      4  C   UNL     1      16.463  41.437 -12.296  1.00  0.00     0.004 C 
ENDBRANCH   2   3
ENDBRANCH   1   2
BRANCH   1   5
ATOM      5  C   UNL     1      14.631  44.313 -14.214  1.00  0.00     0.072 C 
BRANCH   5   6
ATOM      6  C   UNL     1      15.369  43.545 -15.269  1.00  0.00     0.224 C 
ATOM      7  O   UNL     1      16.590  43.571 -15.299  1.00  0.00    -0.303 OA
ENDBRANCH   5   6
ENDBRANCH   1   5
TORSDOF 4
ENDMDL
