MODEL 1
REMARK VINA RESULT:    -5.234      0.000      0.000
REMARK INTER + INTRA:          -6.831
REMARK INTER:                  -6.304
REMARK INTRA:                  -0.527
REMARK UNBOUND:                -0.527
REMARK SMILES CCCCc1oc(O)c2ccccc12
REMARK SMILES IDX 4 1 5 2 7 3 6 4 9 5 14 6 10 7 13 8 11 9 12 10 8 11 3 13 2 14
REMARK SMILES IDX 1 15
REMARK H PARENT 8 12
REMARK Flexibility Score: inf
ROOT
ATOM      1  C   UNL     1       9.102 -16.045  -4.701  1.00  0.00     0.076 C 
ENDROOT
BRANCH   1   2
ATOM      2  C   UNL     1       7.957 -15.562  -5.537  1.00  0.00     0.116 A 
ATOM      3  C   UNL     1       6.819 -15.034  -7.278  1.00  0.00     0.290 A 
ATOM      4  O   UNL     1       7.963 -15.539  -6.858  1.00  0.00    -0.430 OA
ATOM      5  C   UNL     1       6.031 -14.707  -6.193  1.00  0.00     0.066 A 
ATOM      6  C   UNL     1       6.758 -15.042  -5.082  1.00  0.00     0.027 A 
ATOM      7  C   UNL     1       4.759 -14.146  -6.101  1.00  0.00     0.016 A 
ATOM      8  C   UNL     1       6.266 -14.835  -3.793  1.00  0.00     0.012 A 
ATOM      9  C   UNL     1       4.233 -13.927  -4.813  1.00  0.00     0.001 A 
ATOM     10  C   UNL     1       4.984 -14.269  -3.665  1.00  0.00     0.001 A 
BRANCH   3  11
ATOM     11  O   UNL     1       6.491 -14.867  -8.619  1.00  0.00    -0.480 OA
ATOM     12  H   UNL     1       6.161 -15.642  -9.180  1.00  0.00     0.297 HD
ENDBRANCH   3  11
ENDBRANCH   1   2
BRANCH   1  13
ATOM     13  C   UNL     1      10.300 -15.096  -4.832  1.00  0.00     0.008 C 
BRANCH  13  14
ATOM     14  C   UNL     1      10.161 -13.846  -3.949  1.00  0.00    -0.003 C 
ATOM     15  C   UNL     1       9.805 -14.184  -2.501  1.00  0.00     0.004 C 
ENDBRANCH  13  14
ENDBRANCH   1  13
TORSDOF 4
ENDMDL
MODEL 2
REMARK VINA RESULT:    -5.181      1.494      4.756
REMARK INTER + INTRA:          -6.767
REMARK INTER:                  -6.506
REMARK INTRA:                  -0.261
REMARK UNBOUND:                -0.527
REMARK SMILES CCCCc1oc(O)c2ccccc12
REMARK SMILES IDX 4 1 5 2 7 3 6 4 9 5 14 6 10 7 13 8 11 9 12 10 8 11 3 13 2 14
REMARK SMILES IDX 1 15
REMARK H PARENT 8 12
REMARK Flexibility Score: inf
ROOT
ATOM      1  C   UNL     1       5.486 -13.049  -3.528  1.00  0.00     0.076 C 
ENDROOT
BRANCH   1   2
ATOM      2  C   UNL     1       6.428 -14.045  -4.132  1.00  0.00     0.116 A 
ATOM      3  C   UNL     1       7.140 -15.650  -5.364  1.00  0.00     0.290 A 
ATOM      4  O   UNL     1       6.090 -14.904  -5.077  1.00  0.00    -0.430 OA
ATOM      5  C   UNL     1       8.207 -15.272  -4.577  1.00  0.00     0.066 A 
ATOM      6  C   UNL     1       7.752 -14.248  -3.788  1.00  0.00     0.027 A 
ATOM      7  C   UNL     1       9.516 -15.745  -4.490  1.00  0.00     0.016 A 
ATOM      8  C   UNL     1       8.574 -13.624  -2.850  1.00  0.00     0.012 A 
ATOM      9  C   UNL     1      10.370 -15.133  -3.553  1.00  0.00     0.001 A 
ATOM     10  C   UNL     1       9.901 -14.079  -2.737  1.00  0.00     0.001 A 
BRANCH   3  11
ATOM     11  O   UNL     1       7.134 -16.660  -6.321  1.00  0.00    -0.480 OA
ATOM     12  H   UNL     1       6.947 -16.461  -7.295  1.00  0.00     0.297 HD
ENDBRANCH   3  11
ENDBRANCH   1   2
BRANCH   1  13
ATOM     13  C   UNL     1       4.047 -13.580  -3.567  1.00  0.00     0.008 C 
BRANCH  13  14
ATOM     14  C   UNL     1       3.215 -12.947  -4.692  1.00  0.00    -0.003 C 
ATOM     15  C   UNL     1       2.599 -13.987  -5.628  1.00  0.00     0.004 C 
ENDBRANCH  13  14
ENDBRANCH   1  13
TORSDOF 4
ENDMDL
MODEL 3
REMARK VINA RESULT:    -5.168      1.443      1.921
REMARK INTER + INTRA:          -6.752
REMARK INTER:                  -6.500
REMARK INTRA:                  -0.252
REMARK UNBOUND:                -0.527
REMARK SMILES CCCCc1oc(O)c2ccccc12
REMARK SMILES IDX 4 1 5 2 7 3 6 4 9 5 14 6 10 7 13 8 11 9 12 10 8 11 3 13 2 14
REMARK SMILES IDX 1 15
REMARK H PARENT 8 12
REMARK Flexibility Score: inf
ROOT
ATOM      1  C   UNL     1       7.891 -13.620  -3.451  1.00  0.00     0.076 C 
ENDROOT
BRANCH   1   2
ATOM      2  C   UNL     1       6.807 -14.222  -4.292  1.00  0.00     0.116 A 
ATOM      3  C   UNL     1       5.865 -15.388  -5.827  1.00  0.00     0.290 A 
ATOM      4  O   UNL     1       7.023 -15.076  -5.277  1.00  0.00    -0.430 OA
ATOM      5  C   UNL     1       4.849 -14.711  -5.184  1.00  0.00     0.066 A 
ATOM      6  C   UNL     1       5.450 -13.964  -4.206  1.00  0.00     0.027 A 
ATOM      7  C   UNL     1       3.470 -14.689  -5.385  1.00  0.00     0.016 A 
ATOM      8  C   UNL     1       4.714 -13.137  -3.358  1.00  0.00     0.012 A 
ATOM      9  C   UNL     1       2.699 -13.865  -4.543  1.00  0.00     0.001 A 
ATOM     10  C   UNL     1       3.319 -13.092  -3.535  1.00  0.00     0.001 A 
BRANCH   3  11
ATOM     11  O   UNL     1       5.726 -16.267  -6.895  1.00  0.00    -0.480 OA
ATOM     12  H   UNL     1       4.834 -16.690  -7.116  1.00  0.00     0.297 HD
ENDBRANCH   3  11
ENDBRANCH   1   2
BRANCH   1  13
ATOM     13  C   UNL     1       9.205 -13.553  -4.238  1.00  0.00     0.008 C 
BRANCH  13  14
ATOM     14  C   UNL     1      10.214 -14.623  -3.793  1.00  0.00    -0.003 C 
ATOM     15  C   UNL     1      10.203 -14.851  -2.282  1.00  0.00     0.004 C 
ENDBRANCH  13  14
ENDBRANCH   1  13
TORSDOF 4
ENDMDL
MODEL 4
REMARK VINA RESULT:    -5.158      2.435      5.139
REMARK INTER + INTRA:          -6.740
REMARK INTER:                  -6.226
REMARK INTRA:                  -0.514
REMARK UNBOUND:                -0.527
REMARK SMILES CCCCc1oc(O)c2ccccc12
REMARK SMILES IDX 4 1 5 2 7 3 6 4 9 5 14 6 10 7 13 8 11 9 12 10 8 11 3 13 2 14
REMARK SMILES IDX 1 15
REMARK H PARENT 8 12
REMARK Flexibility Score: inf
ROOT
ATOM      1  C   UNL     1       6.015 -12.875  -4.449  1.00  0.00     0.076 C 
ENDROOT
BRANCH   1   2
ATOM      2  C   UNL     1       7.400 -13.355  -4.141  1.00  0.00     0.116 A 
ATOM      3  C   UNL     1       9.158 -13.832  -3.008  1.00  0.00     0.290 A 
ATOM      4  O   UNL     1       7.920 -13.384  -2.927  1.00  0.00    -0.430 OA
ATOM      5  C   UNL     1       9.468 -14.104  -4.324  1.00  0.00     0.066 A 
ATOM      6  C   UNL     1       8.346 -13.797  -5.049  1.00  0.00     0.027 A 
ATOM      7  C   UNL     1      10.629 -14.581  -4.930  1.00  0.00     0.016 A 
ATOM      8  C   UNL     1       8.306 -13.941  -6.436  1.00  0.00     0.012 A 
ATOM      9  C   UNL     1      10.619 -14.740  -6.329  1.00  0.00     0.001 A 
ATOM     10  C   UNL     1       9.463 -14.421  -7.078  1.00  0.00     0.001 A 
BRANCH   3  11
ATOM     11  O   UNL     1       9.999 -13.991  -1.911  1.00  0.00    -0.480 OA
ATOM     12  H   UNL     1      10.195 -13.222  -1.283  1.00  0.00     0.297 HD
ENDBRANCH   3  11
ENDBRANCH   1   2
BRANCH   1  13
ATOM     13  C   UNL     1       4.976 -13.726  -3.710  1.00  0.00     0.008 C 
BRANCH  13  14
ATOM     14  C   UNL     1       5.069 -15.216  -4.071  1.00  0.00    -0.003 C 
ATOM     15  C   UNL     1       4.682 -15.497  -5.523  1.00  0.00     0.004 C 
ENDBRANCH  13  14
ENDBRANCH   1  13
TORSDOF 4
ENDMDL
MODEL 5
REMARK VINA RESULT:    -5.086      2.039      4.691
REMARK INTER + INTRA:          -6.653
REMARK INTER:                  -6.175
REMARK INTRA:                  -0.478
REMARK UNBOUND:                -0.527
REMARK SMILES CCCCc1oc(O)c2ccccc12
REMARK SMILES IDX 4 1 5 2 7 3 6 4 9 5 14 6 10 7 13 8 11 9 12 10 8 11 3 13 2 14
REMARK SMILES IDX 1 15
REMARK H PARENT 8 12
REMARK Flexibility Score: inf
ROOT
ATOM      1  C   UNL     1       6.089 -14.249  -3.888  1.00  0.00     0.076 C 
ENDROOT
BRANCH   1   2
ATOM      2  C   UNL     1       7.402 -14.696  -4.453  1.00  0.00     0.116 A 
ATOM      3  C   UNL     1       9.400 -15.474  -4.527  1.00  0.00     0.290 A 
ATOM      4  O   UNL     1       8.380 -15.216  -3.731  1.00  0.00    -0.430 OA
ATOM      5  C   UNL     1       9.086 -15.108  -5.819  1.00  0.00     0.066 A 
ATOM      6  C   UNL     1       7.811 -14.608  -5.772  1.00  0.00     0.027 A 
ATOM      7  C   UNL     1       9.811 -15.166  -7.008  1.00  0.00     0.016 A 
ATOM      8  C   UNL     1       7.169 -14.126  -6.912  1.00  0.00     0.012 A 
ATOM      9  C   UNL     1       9.189 -14.690  -8.177  1.00  0.00     0.001 A 
ATOM     10  C   UNL     1       7.875 -14.171  -8.129  1.00  0.00     0.001 A 
BRANCH   3  11
ATOM     11  O   UNL     1      10.599 -16.031  -4.093  1.00  0.00    -0.480 OA
ATOM     12  H   UNL     1      11.123 -15.621  -3.331  1.00  0.00     0.297 HD
ENDBRANCH   3  11
ENDBRANCH   1   2
BRANCH   1  13
ATOM     13  C   UNL     1       5.082 -15.406  -3.890  1.00  0.00     0.008 C 
BRANCH  13  14
ATOM     14  C   UNL     1       4.292 -15.497  -5.204  1.00  0.00    -0.003 C 
ATOM     15  C   UNL     1       3.567 -14.196  -5.548  1.00  0.00     0.004 C 
ENDBRANCH  13  14
ENDBRANCH   1  13
TORSDOF 4
ENDMDL
MODEL 6
REMARK VINA RESULT:    -5.023      1.364      1.805
REMARK INTER + INTRA:          -6.577
REMARK INTER:                  -6.303
REMARK INTRA:                  -0.275
REMARK UNBOUND:                -0.527
REMARK SMILES CCCCc1oc(O)c2ccccc12
REMARK SMILES IDX 4 1 5 2 7 3 6 4 9 5 14 6 10 7 13 8 11 9 12 10 8 11 3 13 2 14
REMARK SMILES IDX 1 15
REMARK H PARENT 8 12
REMARK Flexibility Score: inf
ROOT
ATOM      1  C   UNL     1       9.625 -15.436  -4.325  1.00  0.00     0.076 C 
ENDROOT
BRANCH   1   2
ATOM      2  C   UNL     1       8.219 -15.441  -4.840  1.00  0.00     0.116 A 
ATOM      3  C   UNL     1       6.529 -15.922  -6.072  1.00  0.00     0.290 A 
ATOM      4  O   UNL     1       7.808 -16.172  -5.862  1.00  0.00    -0.430 OA
ATOM      5  C   UNL     1       6.083 -14.990  -5.159  1.00  0.00     0.066 A 
ATOM      6  C   UNL     1       7.162 -14.680  -4.374  1.00  0.00     0.027 A 
ATOM      7  C   UNL     1       4.836 -14.395  -4.967  1.00  0.00     0.016 A 
ATOM      8  C   UNL     1       7.073 -13.748  -3.340  1.00  0.00     0.012 A 
ATOM      9  C   UNL     1       4.715 -13.452  -3.929  1.00  0.00     0.001 A 
ATOM     10  C   UNL     1       5.828 -13.130  -3.120  1.00  0.00     0.001 A 
BRANCH   3  11
ATOM     11  O   UNL     1       5.777 -16.525  -7.075  1.00  0.00    -0.480 OA
ATOM     12  H   UNL     1       6.024 -16.423  -8.051  1.00  0.00     0.297 HD
ENDBRANCH   3  11
ENDBRANCH   1   2
BRANCH   1  13
ATOM     13  C   UNL     1      10.250 -14.044  -4.485  1.00  0.00     0.008 C 
BRANCH  13  14
ATOM     14  C   UNL     1      10.259 -13.567  -5.945  1.00  0.00    -0.003 C 
ATOM     15  C   UNL     1      10.975 -14.541  -6.880  1.00  0.00     0.004 C 
ENDBRANCH  13  14
ENDBRANCH   1  13
TORSDOF 4
ENDMDL
MODEL 7
REMARK VINA RESULT:    -4.976     10.832     11.901
REMARK INTER + INTRA:          -6.520
REMARK INTER:                  -6.285
REMARK INTRA:                  -0.236
REMARK UNBOUND:                -0.527
REMARK SMILES CCCCc1oc(O)c2ccccc12
REMARK SMILES IDX 4 1 5 2 7 3 6 4 9 5 14 6 10 7 13 8 11 9 12 10 8 11 3 13 2 14
REMARK SMILES IDX 1 15
REMARK H PARENT 8 12
REMARK Flexibility Score: inf
ROOT
ATOM      1  C   UNL     1       2.637 -22.992   1.948  1.00  0.00     0.076 C 
ENDROOT
BRANCH   1   2
ATOM      2  C   UNL     1       2.401 -23.831   0.729  1.00  0.00     0.116 A 
ATOM      3  C   UNL     1       2.070 -25.570  -0.483  1.00  0.00     0.290 A 
ATOM      4  O   UNL     1       2.222 -25.140   0.755  1.00  0.00    -0.430 OA
ATOM      5  C   UNL     1       2.156 -24.506  -1.357  1.00  0.00     0.066 A 
ATOM      6  C   UNL     1       2.371 -23.396  -0.584  1.00  0.00     0.027 A 
ATOM      7  C   UNL     1       2.072 -24.432  -2.747  1.00  0.00     0.016 A 
ATOM      8  C   UNL     1       2.521 -22.128  -1.146  1.00  0.00     0.012 A 
ATOM      9  C   UNL     1       2.218 -23.165  -3.344  1.00  0.00     0.001 A 
ATOM     10  C   UNL     1       2.442 -22.019  -2.547  1.00  0.00     0.001 A 
BRANCH   3  11
ATOM     11  O   UNL     1       1.858 -26.902  -0.820  1.00  0.00    -0.480 OA
ATOM     12  H   UNL     1       2.579 -27.451  -1.271  1.00  0.00     0.297 HD
ENDBRANCH   3  11
ENDBRANCH   1   2
BRANCH   1  13
ATOM     13  C   UNL     1       1.354 -22.253   2.346  1.00  0.00     0.008 C 
BRANCH  13  14
ATOM     14  C   UNL     1       1.503 -21.484   3.668  1.00  0.00    -0.003 C 
ATOM     15  C   UNL     1       1.175 -19.997   3.525  1.00  0.00     0.004 C 
ENDBRANCH  13  14
ENDBRANCH   1  13
TORSDOF 4
ENDMDL
MODEL 8
REMARK VINA RESULT:    -4.895      2.661      4.116
REMARK INTER + INTRA:          -6.423
REMARK INTER:                  -5.953
REMARK INTRA:                  -0.470
REMARK UNBOUND:                -0.527
REMARK SMILES CCCCc1oc(O)c2ccccc12
REMARK SMILES IDX 4 1 5 2 7 3 6 4 9 5 14 6 10 7 13 8 11 9 12 10 8 11 3 13 2 14
REMARK SMILES IDX 1 15
REMARK H PARENT 8 12
REMARK Flexibility Score: inf
ROOT
ATOM      1  C   UNL     1      10.869 -14.736  -6.633  1.00  0.00     0.076 C 
ENDROOT
BRANCH   1   2
ATOM      2  C   UNL     1      10.070 -14.566  -5.377  1.00  0.00     0.116 A 
ATOM      3  C   UNL     1       9.623 -14.186  -3.314  1.00  0.00     0.290 A 
ATOM      4  O   UNL     1      10.588 -14.218  -4.212  1.00  0.00    -0.430 OA
ATOM      5  C   UNL     1       8.426 -14.529  -3.906  1.00  0.00     0.066 A 
ATOM      6  C   UNL     1       8.712 -14.775  -5.223  1.00  0.00     0.027 A 
ATOM      7  C   UNL     1       7.134 -14.650  -3.397  1.00  0.00     0.016 A 
ATOM      8  C   UNL     1       7.724 -15.164  -6.128  1.00  0.00     0.012 A 
ATOM      9  C   UNL     1       6.114 -15.039  -4.287  1.00  0.00     0.001 A 
ATOM     10  C   UNL     1       6.408 -15.295  -5.646  1.00  0.00     0.001 A 
BRANCH   3  11
ATOM     11  O   UNL     1       9.819 -13.854  -1.977  1.00  0.00    -0.480 OA
ATOM     12  H   UNL     1      10.514 -13.172  -1.702  1.00  0.00     0.297 HD
ENDBRANCH   3  11
ENDBRANCH   1   2
BRANCH   1  13
ATOM     13  C   UNL     1      10.971 -13.404  -7.388  1.00  0.00     0.008 C 
BRANCH  13  14
ATOM     14  C   UNL     1      10.530 -13.523  -8.854  1.00  0.00    -0.003 C 
ATOM     15  C   UNL     1       9.881 -14.871  -9.168  1.00  0.00     0.004 C 
ENDBRANCH  13  14
ENDBRANCH   1  13
TORSDOF 4
ENDMDL
MODEL 9
REMARK VINA RESULT:    -4.767      1.314      4.183
REMARK INTER + INTRA:          -6.269
REMARK INTER:                  -5.786
REMARK INTRA:                  -0.483
REMARK UNBOUND:                -0.527
REMARK SMILES CCCCc1oc(O)c2ccccc12
REMARK SMILES IDX 4 1 5 2 7 3 6 4 9 5 14 6 10 7 13 8 11 9 12 10 8 11 3 13 2 14
REMARK SMILES IDX 1 15
REMARK H PARENT 8 12
REMARK Flexibility Score: inf
ROOT
ATOM      1  C   UNL     1       5.504 -14.219  -5.873  1.00  0.00     0.076 C 
ENDROOT
BRANCH   1   2
ATOM      2  C   UNL     1       6.976 -14.450  -6.031  1.00  0.00     0.116 A 
ATOM      3  C   UNL     1       8.841 -14.988  -6.946  1.00  0.00     0.290 A 
ATOM      4  O   UNL     1       7.544 -14.859  -7.153  1.00  0.00    -0.430 OA
ATOM      5  C   UNL     1       9.138 -14.658  -5.641  1.00  0.00     0.066 A 
ATOM      6  C   UNL     1       7.947 -14.317  -5.055  1.00  0.00     0.027 A 
ATOM      7  C   UNL     1      10.339 -14.638  -4.934  1.00  0.00     0.016 A 
ATOM      8  C   UNL     1       7.871 -13.935  -3.716  1.00  0.00     0.012 A 
ATOM      9  C   UNL     1      10.295 -14.254  -3.580  1.00  0.00     0.001 A 
ATOM     10  C   UNL     1       9.066 -13.905  -2.974  1.00  0.00     0.001 A 
BRANCH   3  11
ATOM     11  O   UNL     1       9.743 -15.401  -7.921  1.00  0.00    -0.480 OA
ATOM     12  H   UNL     1      10.048 -16.364  -7.980  1.00  0.00     0.297 HD
ENDBRANCH   3  11
ENDBRANCH   1   2
BRANCH   1  13
ATOM     13  C   UNL     1       4.801 -15.514  -5.447  1.00  0.00     0.008 C 
BRANCH  13  14
ATOM     14  C   UNL     1       4.227 -15.432  -4.024  1.00  0.00    -0.003 C 
ATOM     15  C   UNL     1       3.872 -14.003  -3.612  1.00  0.00     0.004 C 
ENDBRANCH  13  14
ENDBRANCH   1  13
TORSDOF 4
ENDMDL
