MODEL 1
REMARK VINA RESULT:    -4.423      0.000      0.000
REMARK INTER + INTRA:          -7.101
REMARK INTER:                  -5.974
REMARK INTRA:                  -1.126
REMARK UNBOUND:                -1.126
REMARK SMILES CC(=O)CCC=C(C)CCC=C(C)C
REMARK SMILES IDX 7 1 6 2 8 3 9 4 10 5 11 6 13 7 12 8 14 9 5 10 4 11 2 12 3 13
REMARK SMILES IDX 1 14
REMARK H PARENT
REMARK Flexibility Score: inf
ROOT
ATOM      1  C   UNL     1      14.369  17.406  27.859  1.00  0.00    -0.077 C 
ATOM      2  C   UNL     1      14.656  16.086  27.926  1.00  0.00    -0.028 C 
ATOM      3  C   UNL     1      12.948  17.917  27.886  1.00  0.00     0.039 C 
ENDROOT
BRANCH   1   4
ATOM      4  C   UNL     1      15.506  18.402  27.735  1.00  0.00     0.034 C 
BRANCH   4   5
ATOM      5  C   UNL     1      16.463  18.038  26.591  1.00  0.00     0.032 C 
BRANCH   5   6
ATOM      6  C   UNL     1      16.193  18.861  25.352  1.00  0.00    -0.028 C 
ATOM      7  C   UNL     1      15.250  19.394  23.148  1.00  0.00     0.039 C 
ATOM      8  C   UNL     1      15.378  18.485  24.344  1.00  0.00    -0.080 C 
ATOM      9  C   UNL     1      14.582  17.201  24.391  1.00  0.00     0.039 C 
ENDBRANCH   5   6
ENDBRANCH   4   5
ENDBRANCH   1   4
BRANCH   2  10
ATOM     10  C   UNL     1      13.626  14.994  28.083  1.00  0.00     0.035 C 
BRANCH  10  11
ATOM     11  C   UNL     1      13.204  14.446  26.713  1.00  0.00     0.079 C 
BRANCH  11  12
ATOM     12  C   UNL     1      11.796  14.811  26.300  1.00  0.00     0.130 C 
ATOM     13  O   UNL     1      10.916  14.780  27.147  1.00  0.00    -0.300 OA
ATOM     14  C   UNL     1      11.432  15.215  24.897  1.00  0.00     0.087 C 
ENDBRANCH  11  12
ENDBRANCH  10  11
ENDBRANCH   2  10
TORSDOF 6
ENDMDL
MODEL 2
REMARK VINA RESULT:    -4.276      2.560      5.474
REMARK INTER + INTRA:          -6.903
REMARK INTER:                  -6.160
REMARK INTRA:                  -0.742
REMARK UNBOUND:                -1.126
REMARK SMILES CC(=O)CCC=C(C)CCC=C(C)C
REMARK SMILES IDX 7 1 6 2 8 3 9 4 10 5 11 6 13 7 12 8 14 9 5 10 4 11 2 12 3 13
REMARK SMILES IDX 1 14
REMARK H PARENT
REMARK Flexibility Score: inf
ROOT
ATOM      1  C   UNL     1      12.097  15.105  25.987  1.00  0.00    -0.077 C 
ATOM      2  C   UNL     1      12.887  16.124  26.394  1.00  0.00    -0.028 C 
ATOM      3  C   UNL     1      11.279  15.185  24.719  1.00  0.00     0.039 C 
ENDROOT
BRANCH   1   4
ATOM      4  C   UNL     1      12.014  13.852  26.837  1.00  0.00     0.034 C 
BRANCH   4   5
ATOM      5  C   UNL     1      12.870  13.964  28.106  1.00  0.00     0.032 C 
BRANCH   5   6
ATOM      6  C   UNL     1      13.981  12.940  28.125  1.00  0.00    -0.028 C 
ATOM      7  C   UNL     1      16.236  12.037  27.759  1.00  0.00     0.039 C 
ATOM      8  C   UNL     1      15.251  13.177  27.730  1.00  0.00    -0.080 C 
ATOM      9  C   UNL     1      15.710  14.546  27.285  1.00  0.00     0.039 C 
ENDBRANCH   5   6
ENDBRANCH   4   5
ENDBRANCH   1   4
BRANCH   2  10
ATOM     10  C   UNL     1      13.087  17.409  25.629  1.00  0.00     0.035 C 
BRANCH  10  11
ATOM     11  C   UNL     1      14.437  17.402  24.899  1.00  0.00     0.079 C 
BRANCH  11  12
ATOM     12  C   UNL     1      15.525  18.195  25.587  1.00  0.00     0.130 C 
ATOM     13  O   UNL     1      16.106  19.059  24.948  1.00  0.00    -0.300 OA
ATOM     14  C   UNL     1      15.918  17.972  27.023  1.00  0.00     0.087 C 
ENDBRANCH  11  12
ENDBRANCH  10  11
ENDBRANCH   2  10
TORSDOF 6
ENDMDL
MODEL 3
REMARK VINA RESULT:    -4.187      2.657      5.394
REMARK INTER + INTRA:          -6.782
REMARK INTER:                  -6.086
REMARK INTRA:                  -0.696
REMARK UNBOUND:                -1.126
REMARK SMILES CC(=O)CCC=C(C)CCC=C(C)C
REMARK SMILES IDX 7 1 6 2 8 3 9 4 10 5 11 6 13 7 12 8 14 9 5 10 4 11 2 12 3 13
REMARK SMILES IDX 1 14
REMARK H PARENT
REMARK Flexibility Score: inf
ROOT
ATOM      1  C   UNL     1      15.677  17.968  27.236  1.00  0.00    -0.077 C 
ATOM      2  C   UNL     1      15.367  18.076  25.924  1.00  0.00    -0.028 C 
ATOM      3  C   UNL     1      16.857  18.692  27.839  1.00  0.00     0.039 C 
ENDROOT
BRANCH   1   4
ATOM      4  C   UNL     1      14.826  17.081  28.124  1.00  0.00     0.034 C 
BRANCH   4   5
ATOM      5  C   UNL     1      13.335  17.178  27.770  1.00  0.00     0.032 C 
BRANCH   5   6
ATOM      6  C   UNL     1      12.706  15.813  27.613  1.00  0.00    -0.028 C 
ATOM      7  C   UNL     1      11.632  13.934  26.453  1.00  0.00     0.039 C 
ATOM      8  C   UNL     1      12.289  15.290  26.440  1.00  0.00    -0.080 C 
ATOM      9  C   UNL     1      12.479  16.013  25.127  1.00  0.00     0.039 C 
ENDBRANCH   5   6
ENDBRANCH   4   5
ENDBRANCH   1   4
BRANCH   2  10
ATOM     10  C   UNL     1      16.107  18.947  24.939  1.00  0.00     0.035 C 
BRANCH  10  11
ATOM     11  C   UNL     1      15.372  18.986  23.592  1.00  0.00     0.079 C 
BRANCH  11  12
ATOM     12  C   UNL     1      15.437  20.320  22.883  1.00  0.00     0.130 C 
ATOM     13  O   UNL     1      16.177  21.181  23.334  1.00  0.00    -0.300 OA
ATOM     14  C   UNL     1      14.636  20.632  21.648  1.00  0.00     0.087 C 
ENDBRANCH  11  12
ENDBRANCH  10  11
ENDBRANCH   2  10
TORSDOF 6
ENDMDL
MODEL 4
REMARK VINA RESULT:    -4.032      2.784      5.479
REMARK INTER + INTRA:          -6.573
REMARK INTER:                  -5.819
REMARK INTRA:                  -0.754
REMARK UNBOUND:                -1.126
REMARK SMILES CC(=O)CCC=C(C)CCC=C(C)C
REMARK SMILES IDX 7 1 6 2 8 3 9 4 10 5 11 6 13 7 12 8 14 9 5 10 4 11 2 12 3 13
REMARK SMILES IDX 1 14
REMARK H PARENT
REMARK Flexibility Score: inf
ROOT
ATOM      1  C   UNL     1      14.462  17.689  25.516  1.00  0.00    -0.077 C 
ATOM      2  C   UNL     1      15.456  18.605  25.470  1.00  0.00    -0.028 C 
ATOM      3  C   UNL     1      14.241  16.693  24.402  1.00  0.00     0.039 C 
ENDROOT
BRANCH   1   4
ATOM      4  C   UNL     1      13.530  17.672  26.712  1.00  0.00     0.034 C 
BRANCH   4   5
ATOM      5  C   UNL     1      14.229  17.147  27.974  1.00  0.00     0.032 C 
BRANCH   5   6
ATOM      6  C   UNL     1      15.110  15.957  27.673  1.00  0.00    -0.028 C 
ATOM      7  C   UNL     1      15.686  13.595  27.323  1.00  0.00     0.039 C 
ATOM      8  C   UNL     1      14.674  14.682  27.580  1.00  0.00    -0.080 C 
ATOM      9  C   UNL     1      13.212  14.324  27.704  1.00  0.00     0.039 C 
ENDBRANCH   5   6
ENDBRANCH   4   5
ENDBRANCH   1   4
BRANCH   2  10
ATOM     10  C   UNL     1      16.471  18.710  24.359  1.00  0.00     0.035 C 
BRANCH  10  11
ATOM     11  C   UNL     1      16.422  20.101  23.710  1.00  0.00     0.079 C 
BRANCH  11  12
ATOM     12  C   UNL     1      15.359  20.257  22.646  1.00  0.00     0.130 C 
ATOM     13  O   UNL     1      14.876  21.364  22.466  1.00  0.00    -0.300 OA
ATOM     14  C   UNL     1      14.874  19.112  21.797  1.00  0.00     0.087 C 
ENDBRANCH  11  12
ENDBRANCH  10  11
ENDBRANCH   2  10
TORSDOF 6
ENDMDL
MODEL 5
REMARK VINA RESULT:    -3.565      1.244      1.889
REMARK INTER + INTRA:          -5.942
REMARK INTER:                  -5.530
REMARK INTRA:                  -0.412
REMARK UNBOUND:                -1.126
REMARK SMILES CC(=O)CCC=C(C)CCC=C(C)C
REMARK SMILES IDX 7 1 6 2 8 3 9 4 10 5 11 6 13 7 12 8 14 9 5 10 4 11 2 12 3 13
REMARK SMILES IDX 1 14
REMARK H PARENT
REMARK Flexibility Score: inf
ROOT
ATOM      1  C   UNL     1      14.610  17.102  27.755  1.00  0.00    -0.077 C 
ATOM      2  C   UNL     1      13.261  17.113  27.679  1.00  0.00    -0.028 C 
ATOM      3  C   UNL     1      15.391  15.818  27.916  1.00  0.00     0.039 C 
ENDROOT
BRANCH   1   4
ATOM      4  C   UNL     1      15.363  18.416  27.695  1.00  0.00     0.034 C 
BRANCH   4   5
ATOM      5  C   UNL     1      16.323  18.472  26.498  1.00  0.00     0.032 C 
BRANCH   5   6
ATOM      6  C   UNL     1      15.598  18.799  25.213  1.00  0.00    -0.028 C 
ATOM      7  C   UNL     1      15.324  19.605  22.909  1.00  0.00     0.039 C 
ATOM      8  C   UNL     1      16.191  19.276  24.097  1.00  0.00    -0.080 C 
ATOM      9  C   UNL     1      17.687  19.467  24.003  1.00  0.00     0.039 C 
ENDBRANCH   5   6
ENDBRANCH   4   5
ENDBRANCH   1   4
BRANCH   2  10
ATOM     10  C   UNL     1      12.393  15.879  27.692  1.00  0.00     0.035 C 
BRANCH  10  11
ATOM     11  C   UNL     1      12.680  15.001  26.466  1.00  0.00     0.079 C 
BRANCH  11  12
ATOM     12  C   UNL     1      12.500  15.703  25.139  1.00  0.00     0.130 C 
ATOM     13  O   UNL     1      11.368  15.828  24.697  1.00  0.00    -0.300 OA
ATOM     14  C   UNL     1      13.650  16.257  24.342  1.00  0.00     0.087 C 
ENDBRANCH  11  12
ENDBRANCH  10  11
ENDBRANCH   2  10
TORSDOF 6
ENDMDL
MODEL 6
REMARK VINA RESULT:    -3.431      2.159      5.749
REMARK INTER + INTRA:          -5.760
REMARK INTER:                  -4.785
REMARK INTRA:                  -0.976
REMARK UNBOUND:                -1.126
REMARK SMILES CC(=O)CCC=C(C)CCC=C(C)C
REMARK SMILES IDX 7 1 6 2 8 3 9 4 10 5 11 6 13 7 12 8 14 9 5 10 4 11 2 12 3 13
REMARK SMILES IDX 1 14
REMARK H PARENT
REMARK Flexibility Score: inf
ROOT
ATOM      1  C   UNL     1      13.127  16.312  24.971  1.00  0.00    -0.077 C 
ATOM      2  C   UNL     1      12.693  17.116  25.967  1.00  0.00    -0.028 C 
ATOM      3  C   UNL     1      14.471  16.515  24.310  1.00  0.00     0.039 C 
ENDROOT
BRANCH   1   4
ATOM      4  C   UNL     1      12.234  15.186  24.490  1.00  0.00     0.034 C 
BRANCH   4   5
ATOM      5  C   UNL     1      10.986  15.029  25.370  1.00  0.00     0.032 C 
BRANCH   5   6
ATOM      6  C   UNL     1      10.897  13.648  25.976  1.00  0.00    -0.028 C 
ATOM      7  C   UNL     1      11.253  11.877  27.641  1.00  0.00     0.039 C 
ATOM      8  C   UNL     1      11.370  13.312  27.196  1.00  0.00    -0.080 C 
ATOM      9  C   UNL     1      11.988  14.331  28.124  1.00  0.00     0.039 C 
ENDBRANCH   5   6
ENDBRANCH   4   5
ENDBRANCH   1   4
BRANCH   2  10
ATOM     10  C   UNL     1      13.492  18.250  26.562  1.00  0.00     0.035 C 
BRANCH  10  11
ATOM     11  C   UNL     1      14.077  17.845  27.922  1.00  0.00     0.079 C 
BRANCH  11  12
ATOM     12  C   UNL     1      15.558  17.540  27.900  1.00  0.00     0.130 C 
ATOM     13  O   UNL     1      15.913  16.376  28.006  1.00  0.00    -0.300 OA
ATOM     14  C   UNL     1      16.611  18.605  27.750  1.00  0.00     0.087 C 
ENDBRANCH  11  12
ENDBRANCH  10  11
ENDBRANCH   2  10
TORSDOF 6
ENDMDL
