MODEL 1
REMARK VINA RESULT:    -3.565      0.000      0.000
REMARK INTER + INTRA:          -5.559
REMARK INTER:                  -5.232
REMARK INTRA:                  -0.327
REMARK UNBOUND:                -0.327
REMARK SMILES O=C([O-])CCCCCCCC(=O)[O-]
REMARK SMILES IDX 7 1 6 2 5 3 4 4 2 5 1 6 3 7 8 8 9 9 10 10 11 11 12 12 13 13
REMARK H PARENT
REMARK Flexibility Score: inf
ROOT
ATOM      1  C   UNL     1      15.701  45.892   0.263  1.00  0.00     0.000 C 
ENDROOT
BRANCH   1   2
ATOM      2  C   UNL     1      16.832  46.193  -0.738  1.00  0.00     0.000 C 
BRANCH   2   3
ATOM      3  C   UNL     1      17.020  47.698  -0.993  1.00  0.00     0.006 C 
BRANCH   3   4
ATOM      4  C   UNL     1      17.027  48.033  -2.491  1.00  0.00     0.053 C 
BRANCH   4   5
ATOM      5  C   UNL     1      15.638  48.104  -3.048  1.00  0.00     0.041 C 
ATOM      6  O   UNL     1      15.454  48.115  -4.293  1.00  0.00    -0.550 OA
ATOM      7  O   UNL     1      14.545  48.121  -2.191  1.00  0.00    -0.550 OA
ENDBRANCH   4   5
ENDBRANCH   3   4
ENDBRANCH   2   3
ENDBRANCH   1   2
BRANCH   1   8
ATOM      8  C   UNL     1      15.547  44.408   0.643  1.00  0.00     0.000 C 
BRANCH   8   9
ATOM      9  C   UNL     1      14.092  44.007   0.923  1.00  0.00     0.006 C 
BRANCH   9  10
ATOM     10  C   UNL     1      13.117  44.928   0.184  1.00  0.00     0.053 C 
BRANCH  10  11
ATOM     11  C   UNL     1      12.182  44.128  -0.666  1.00  0.00     0.041 C 
ATOM     12  O   UNL     1      12.324  42.880  -0.763  1.00  0.00    -0.550 OA
ATOM     13  O   UNL     1      11.122  44.752  -1.312  1.00  0.00    -0.550 OA
ENDBRANCH  10  11
ENDBRANCH   9  10
ENDBRANCH   8   9
ENDBRANCH   1   8
TORSDOF 8
ENDMDL
MODEL 2
REMARK VINA RESULT:    -3.512     10.386     13.027
REMARK INTER + INTRA:          -5.481
REMARK INTER:                  -4.897
REMARK INTRA:                  -0.584
REMARK UNBOUND:                -0.327
REMARK SMILES O=C([O-])CCCCCCCC(=O)[O-]
REMARK SMILES IDX 7 1 6 2 5 3 4 4 2 5 1 6 3 7 8 8 9 9 10 10 11 11 12 12 13 13
REMARK H PARENT
REMARK Flexibility Score: inf
ROOT
ATOM      1  C   UNL     1      14.906  38.769   6.697  1.00  0.00     0.000 C 
ENDROOT
BRANCH   1   2
ATOM      2  C   UNL     1      13.887  38.378   7.782  1.00  0.00     0.000 C 
BRANCH   2   3
ATOM      3  C   UNL     1      14.264  38.908   9.176  1.00  0.00     0.006 C 
BRANCH   3   4
ATOM      4  C   UNL     1      14.176  37.818  10.252  1.00  0.00     0.053 C 
BRANCH   4   5
ATOM      5  C   UNL     1      15.424  37.753  11.078  1.00  0.00     0.041 C 
ATOM      6  O   UNL     1      15.425  37.145  12.180  1.00  0.00    -0.550 OA
ATOM      7  O   UNL     1      16.597  38.335  10.612  1.00  0.00    -0.550 OA
ENDBRANCH   4   5
ENDBRANCH   3   4
ENDBRANCH   2   3
ENDBRANCH   1   2
BRANCH   1   8
ATOM      8  C   UNL     1      16.313  39.114   7.220  1.00  0.00     0.000 C 
BRANCH   8   9
ATOM      9  C   UNL     1      16.675  40.595   7.038  1.00  0.00     0.006 C 
BRANCH   9  10
ATOM     10  C   UNL     1      16.880  41.280   8.391  1.00  0.00     0.053 C 
BRANCH  10  11
ATOM     11  C   UNL     1      16.062  42.529   8.475  1.00  0.00     0.041 C 
ATOM     12  O   UNL     1      14.804  42.467   8.438  1.00  0.00    -0.550 OA
ATOM     13  O   UNL     1      16.685  43.759   8.645  1.00  0.00    -0.550 OA
ENDBRANCH  10  11
ENDBRANCH   9  10
ENDBRANCH   8   9
ENDBRANCH   1   8
TORSDOF 8
ENDMDL
MODEL 3
REMARK VINA RESULT:    -3.487     10.409     12.517
REMARK INTER + INTRA:          -5.445
REMARK INTER:                  -4.931
REMARK INTRA:                  -0.514
REMARK UNBOUND:                -0.327
REMARK SMILES O=C([O-])CCCCCCCC(=O)[O-]
REMARK SMILES IDX 7 1 6 2 5 3 4 4 2 5 1 6 3 7 8 8 9 9 10 10 11 11 12 12 13 13
REMARK H PARENT
REMARK Flexibility Score: inf
ROOT
ATOM      1  C   UNL     1      14.769  38.886   6.758  1.00  0.00     0.000 C 
ENDROOT
BRANCH   1   2
ATOM      2  C   UNL     1      16.241  39.142   7.130  1.00  0.00     0.000 C 
BRANCH   2   3
ATOM      3  C   UNL     1      16.627  40.629   7.058  1.00  0.00     0.006 C 
BRANCH   3   4
ATOM      4  C   UNL     1      17.062  41.179   8.423  1.00  0.00     0.053 C 
BRANCH   4   5
ATOM      5  C   UNL     1      16.069  42.161   8.966  1.00  0.00     0.041 C 
ATOM      6  O   UNL     1      16.321  42.801  10.020  1.00  0.00    -0.550 OA
ATOM      7  O   UNL     1      14.880  42.396   8.286  1.00  0.00    -0.550 OA
ENDBRANCH   4   5
ENDBRANCH   3   4
ENDBRANCH   2   3
ENDBRANCH   1   2
BRANCH   1   8
ATOM      8  C   UNL     1      13.882  38.393   7.917  1.00  0.00     0.000 C 
BRANCH   8   9
ATOM      9  C   UNL     1      14.446  38.753   9.300  1.00  0.00     0.006 C 
BRANCH   9  10
ATOM     10  C   UNL     1      14.073  37.692  10.338  1.00  0.00     0.053 C 
BRANCH  10  11
ATOM     11  C   UNL     1      15.119  37.610  11.403  1.00  0.00     0.041 C 
ATOM     12  O   UNL     1      15.262  38.554  12.224  1.00  0.00    -0.550 OA
ATOM     13  O   UNL     1      15.902  36.469  11.523  1.00  0.00    -0.550 OA
ENDBRANCH  10  11
ENDBRANCH   9  10
ENDBRANCH   8   9
ENDBRANCH   1   8
TORSDOF 8
ENDMDL
MODEL 4
REMARK VINA RESULT:    -3.475     10.722     13.577
REMARK INTER + INTRA:          -5.427
REMARK INTER:                  -5.000
REMARK INTRA:                  -0.427
REMARK UNBOUND:                -0.327
REMARK SMILES O=C([O-])CCCCCCCC(=O)[O-]
REMARK SMILES IDX 7 1 6 2 5 3 4 4 2 5 1 6 3 7 8 8 9 9 10 10 11 11 12 12 13 13
REMARK H PARENT
REMARK Flexibility Score: inf
ROOT
ATOM      1  C   UNL     1      13.924  38.443   7.839  1.00  0.00     0.000 C 
ENDROOT
BRANCH   1   2
ATOM      2  C   UNL     1      14.398  38.713   9.278  1.00  0.00     0.000 C 
BRANCH   2   3
ATOM      3  C   UNL     1      14.011  37.591  10.257  1.00  0.00     0.006 C 
BRANCH   3   4
ATOM      4  C   UNL     1      14.993  37.485  11.431  1.00  0.00     0.053 C 
BRANCH   4   5
ATOM      5  C   UNL     1      14.686  38.488  12.501  1.00  0.00     0.041 C 
ATOM      6  O   UNL     1      15.512  39.399  12.771  1.00  0.00    -0.550 OA
ATOM      7  O   UNL     1      13.472  38.438  13.175  1.00  0.00    -0.550 OA
ENDBRANCH   4   5
ENDBRANCH   3   4
ENDBRANCH   2   3
ENDBRANCH   1   2
BRANCH   1   8
ATOM      8  C   UNL     1      14.920  38.853   6.738  1.00  0.00     0.000 C 
BRANCH   8   9
ATOM      9  C   UNL     1      16.174  39.547   7.291  1.00  0.00     0.006 C 
BRANCH   9  10
ATOM     10  C   UNL     1      16.134  41.053   7.016  1.00  0.00     0.053 C 
BRANCH  10  11
ATOM     11  C   UNL     1      15.938  41.813   8.289  1.00  0.00     0.041 C 
ATOM     12  O   UNL     1      16.805  41.756   9.201  1.00  0.00    -0.550 OA
ATOM     13  O   UNL     1      14.823  42.626   8.450  1.00  0.00    -0.550 OA
ENDBRANCH  10  11
ENDBRANCH   9  10
ENDBRANCH   8   9
ENDBRANCH   1   8
TORSDOF 8
ENDMDL
MODEL 5
REMARK VINA RESULT:    -3.463      0.872      4.992
REMARK INTER + INTRA:          -5.409
REMARK INTER:                  -5.046
REMARK INTRA:                  -0.363
REMARK UNBOUND:                -0.327
REMARK SMILES O=C([O-])CCCCCCCC(=O)[O-]
REMARK SMILES IDX 7 1 6 2 5 3 4 4 2 5 1 6 3 7 8 8 9 9 10 10 11 11 12 12 13 13
REMARK H PARENT
REMARK Flexibility Score: inf
ROOT
ATOM      1  C   UNL     1      16.188  44.791   0.474  1.00  0.00     0.000 C 
ENDROOT
BRANCH   1   2
ATOM      2  C   UNL     1      14.659  44.852   0.298  1.00  0.00     0.000 C 
BRANCH   2   3
ATOM      3  C   UNL     1      13.940  43.624   0.882  1.00  0.00     0.006 C 
BRANCH   3   4
ATOM      4  C   UNL     1      12.422  43.689   0.670  1.00  0.00     0.053 C 
BRANCH   4   5
ATOM      5  C   UNL     1      12.071  43.830  -0.780  1.00  0.00     0.041 C 
ATOM      6  O   UNL     1      12.250  42.867  -1.571  1.00  0.00    -0.550 OA
ATOM      7  O   UNL     1      11.514  45.013  -1.250  1.00  0.00    -0.550 OA
ENDBRANCH   4   5
ENDBRANCH   3   4
ENDBRANCH   2   3
ENDBRANCH   1   2
BRANCH   1   8
ATOM      8  C   UNL     1      16.980  45.804  -0.375  1.00  0.00     0.000 C 
BRANCH   8   9
ATOM      9  C   UNL     1      16.531  47.255  -0.153  1.00  0.00     0.006 C 
BRANCH   9  10
ATOM     10  C   UNL     1      16.602  48.057  -1.455  1.00  0.00     0.053 C 
BRANCH  10  11
ATOM     11  C   UNL     1      15.350  47.873  -2.252  1.00  0.00     0.041 C 
ATOM     12  O   UNL     1      15.363  48.041  -3.500  1.00  0.00    -0.550 OA
ATOM     13  O   UNL     1      14.178  47.467  -1.625  1.00  0.00    -0.550 OA
ENDBRANCH  10  11
ENDBRANCH   9  10
ENDBRANCH   8   9
ENDBRANCH   1   8
TORSDOF 8
ENDMDL
MODEL 6
REMARK VINA RESULT:    -3.372     11.271     14.219
REMARK INTER + INTRA:          -5.276
REMARK INTER:                  -4.888
REMARK INTRA:                  -0.388
REMARK UNBOUND:                -0.327
REMARK SMILES O=C([O-])CCCCCCCC(=O)[O-]
REMARK SMILES IDX 7 1 6 2 5 3 4 4 2 5 1 6 3 7 8 8 9 9 10 10 11 11 12 12 13 13
REMARK H PARENT
REMARK Flexibility Score: inf
ROOT
ATOM      1  C   UNL     1      14.533  38.849   9.360  1.00  0.00     0.000 C 
ENDROOT
BRANCH   1   2
ATOM      2  C   UNL     1      14.122  37.723  10.326  1.00  0.00     0.000 C 
BRANCH   2   3
ATOM      3  C   UNL     1      14.698  37.909  11.741  1.00  0.00     0.006 C 
BRANCH   3   4
ATOM      4  C   UNL     1      16.194  37.572  11.804  1.00  0.00     0.053 C 
BRANCH   4   5
ATOM      5  C   UNL     1      16.428  36.190  12.330  1.00  0.00     0.041 C 
ATOM      6  O   UNL     1      16.599  36.000  13.563  1.00  0.00    -0.550 OA
ATOM      7  O   UNL     1      16.421  35.104  11.462  1.00  0.00    -0.550 OA
ENDBRANCH   4   5
ENDBRANCH   3   4
ENDBRANCH   2   3
ENDBRANCH   1   2
BRANCH   1   8
ATOM      8  C   UNL     1      14.161  38.606   7.885  1.00  0.00     0.000 C 
BRANCH   8   9
ATOM      9  C   UNL     1      15.279  39.006   6.911  1.00  0.00     0.006 C 
BRANCH   9  10
ATOM     10  C   UNL     1      16.325  39.882   7.605  1.00  0.00     0.053 C 
BRANCH  10  11
ATOM     11  C   UNL     1      16.152  41.315   7.215  1.00  0.00     0.041 C 
ATOM     12  O   UNL     1      15.210  41.995   7.703  1.00  0.00    -0.550 OA
ATOM     13  O   UNL     1      17.059  41.916   6.352  1.00  0.00    -0.550 OA
ENDBRANCH  10  11
ENDBRANCH   9  10
ENDBRANCH   8   9
ENDBRANCH   1   8
TORSDOF 8
ENDMDL
MODEL 7
REMARK VINA RESULT:    -3.236     10.565     12.772
REMARK INTER + INTRA:          -5.076
REMARK INTER:                  -4.432
REMARK INTRA:                  -0.644
REMARK UNBOUND:                -0.327
REMARK SMILES O=C([O-])CCCCCCCC(=O)[O-]
REMARK SMILES IDX 7 1 6 2 5 3 4 4 2 5 1 6 3 7 8 8 9 9 10 10 11 11 12 12 13 13
REMARK H PARENT
REMARK Flexibility Score: inf
ROOT
ATOM      1  C   UNL     1      14.158  38.785   9.204  1.00  0.00     0.000 C 
ENDROOT
BRANCH   1   2
ATOM      2  C   UNL     1      13.906  38.401   7.735  1.00  0.00     0.000 C 
BRANCH   2   3
ATOM      3  C   UNL     1      14.989  38.936   6.782  1.00  0.00     0.006 C 
BRANCH   3   4
ATOM      4  C   UNL     1      16.116  39.655   7.536  1.00  0.00     0.053 C 
BRANCH   4   5
ATOM      5  C   UNL     1      16.118  41.127   7.256  1.00  0.00     0.041 C 
ATOM      6  O   UNL     1      15.231  41.868   7.753  1.00  0.00    -0.550 OA
ATOM      7  O   UNL     1      17.122  41.685   6.473  1.00  0.00    -0.550 OA
ENDBRANCH   4   5
ENDBRANCH   3   4
ENDBRANCH   2   3
ENDBRANCH   1   2
BRANCH   1   8
ATOM      8  C   UNL     1      14.142  37.606  10.196  1.00  0.00     0.000 C 
BRANCH   8   9
ATOM      9  C   UNL     1      15.005  37.856  11.441  1.00  0.00     0.006 C 
BRANCH   9  10
ATOM     10  C   UNL     1      16.418  38.298  11.049  1.00  0.00     0.053 C 
BRANCH  10  11
ATOM     11  C   UNL     1      16.749  39.613  11.678  1.00  0.00     0.041 C 
ATOM     12  O   UNL     1      17.122  39.665  12.880  1.00  0.00    -0.550 OA
ATOM     13  O   UNL     1      16.695  40.779  10.923  1.00  0.00    -0.550 OA
ENDBRANCH  10  11
ENDBRANCH   9  10
ENDBRANCH   8   9
ENDBRANCH   1   8
TORSDOF 8
ENDMDL
MODEL 8
REMARK VINA RESULT:    -3.139     11.555     14.362
REMARK INTER + INTRA:          -4.934
REMARK INTER:                  -4.481
REMARK INTRA:                  -0.453
REMARK UNBOUND:                -0.327
REMARK SMILES O=C([O-])CCCCCCCC(=O)[O-]
REMARK SMILES IDX 7 1 6 2 5 3 4 4 2 5 1 6 3 7 8 8 9 9 10 10 11 11 12 12 13 13
REMARK H PARENT
REMARK Flexibility Score: inf
ROOT
ATOM      1  C   UNL     1      14.493  38.380  10.025  1.00  0.00     0.000 C 
ENDROOT
BRANCH   1   2
ATOM      2  C   UNL     1      14.848  37.247  11.005  1.00  0.00     0.000 C 
BRANCH   2   3
ATOM      3  C   UNL     1      15.796  37.701  12.128  1.00  0.00     0.006 C 
BRANCH   3   4
ATOM      4  C   UNL     1      15.113  37.687  13.502  1.00  0.00     0.053 C 
BRANCH   4   5
ATOM      5  C   UNL     1      14.211  38.869  13.683  1.00  0.00     0.041 C 
ATOM      6  O   UNL     1      14.695  40.008  13.913  1.00  0.00    -0.550 OA
ATOM      7  O   UNL     1      12.834  38.718  13.562  1.00  0.00    -0.550 OA
ENDBRANCH   4   5
ENDBRANCH   3   4
ENDBRANCH   2   3
ENDBRANCH   1   2
BRANCH   1   8
ATOM      8  C   UNL     1      15.685  39.243   9.570  1.00  0.00     0.000 C 
BRANCH   8   9
ATOM      9  C   UNL     1      15.293  40.314   8.542  1.00  0.00     0.006 C 
BRANCH   9  10
ATOM     10  C   UNL     1      16.179  40.230   7.296  1.00  0.00     0.053 C 
BRANCH  10  11
ATOM     11  C   UNL     1      15.999  38.912   6.613  1.00  0.00     0.041 C 
ATOM     12  O   UNL     1      17.004  38.222   6.293  1.00  0.00    -0.550 OA
ATOM     13  O   UNL     1      14.722  38.420   6.375  1.00  0.00    -0.550 OA
ENDBRANCH  10  11
ENDBRANCH   9  10
ENDBRANCH   8   9
ENDBRANCH   1   8
TORSDOF 8
ENDMDL
MODEL 9
REMARK VINA RESULT:    -2.889     11.352     13.545
REMARK INTER + INTRA:          -4.567
REMARK INTER:                  -4.074
REMARK INTRA:                  -0.493
REMARK UNBOUND:                -0.327
REMARK SMILES O=C([O-])CCCCCCCC(=O)[O-]
REMARK SMILES IDX 7 1 6 2 5 3 4 4 2 5 1 6 3 7 8 8 9 9 10 10 11 11 12 12 13 13
REMARK H PARENT
REMARK Flexibility Score: inf
ROOT
ATOM      1  C   UNL     1      16.651  38.922  10.292  1.00  0.00     0.000 C 
ENDROOT
BRANCH   1   2
ATOM      2  C   UNL     1      16.771  40.361   9.757  1.00  0.00     0.000 C 
BRANCH   2   3
ATOM      3  C   UNL     1      16.958  40.418   8.231  1.00  0.00     0.006 C 
BRANCH   3   4
ATOM      4  C   UNL     1      15.617  40.432   7.486  1.00  0.00     0.053 C 
BRANCH   4   5
ATOM      5  C   UNL     1      15.318  39.105   6.859  1.00  0.00     0.041 C 
ATOM      6  O   UNL     1      14.141  38.659   6.847  1.00  0.00    -0.550 OA
ATOM      7  O   UNL     1      16.336  38.375   6.257  1.00  0.00    -0.550 OA
ENDBRANCH   4   5
ENDBRANCH   3   4
ENDBRANCH   2   3
ENDBRANCH   1   2
BRANCH   1   8
ATOM      8  C   UNL     1      15.209  38.432  10.520  1.00  0.00     0.000 C 
BRANCH   8   9
ATOM      9  C   UNL     1      15.122  37.251  11.497  1.00  0.00     0.006 C 
BRANCH   9  10
ATOM     10  C   UNL     1      15.444  37.696  12.926  1.00  0.00     0.053 C 
BRANCH  10  11
ATOM     11  C   UNL     1      14.463  38.726  13.388  1.00  0.00     0.041 C 
ATOM     12  O   UNL     1      14.862  39.868  13.738  1.00  0.00    -0.550 OA
ATOM     13  O   UNL     1      13.103  38.443  13.384  1.00  0.00    -0.550 OA
ENDBRANCH  10  11
ENDBRANCH   9  10
ENDBRANCH   8   9
ENDBRANCH   1   8
TORSDOF 8
ENDMDL
