MODEL 1
REMARK VINA RESULT:    -1.907      0.000      0.000
REMARK INTER + INTRA:          -1.907
REMARK INTER:                  -1.907
REMARK INTRA:                   0.000
REMARK UNBOUND:                 0.000
REMARK SMILES CC(=O)[O-]
REMARK SMILES IDX 1 1 2 2 3 3 4 4
REMARK H PARENT
REMARK Flexibility Score: inf
ROOT
ATOM      1  C   UNL     1       4.671 112.928 185.068  1.00  0.00     0.063 C 
ATOM      2  C   UNL     1       3.274 112.811 184.559  1.00  0.00     0.038 C 
ATOM      3  O   UNL     1       2.449 113.740 184.756  1.00  0.00    -0.550 OA
ATOM      4  O   UNL     1       2.864 111.652 183.911  1.00  0.00    -0.550 OA
ENDROOT
TORSDOF 0
ENDMDL
MODEL 2
REMARK VINA RESULT:    -1.869      3.716      4.314
REMARK INTER + INTRA:          -1.869
REMARK INTER:                  -1.869
REMARK INTRA:                   0.000
REMARK UNBOUND:                 0.000
REMARK SMILES CC(=O)[O-]
REMARK SMILES IDX 1 1 2 2 3 3 4 4
REMARK H PARENT
REMARK Flexibility Score: inf
ROOT
ATOM      1  C   UNL     1       2.428 108.600 181.844  1.00  0.00     0.063 C 
ATOM      2  C   UNL     1       2.045 109.301 183.103  1.00  0.00     0.038 C 
ATOM      3  O   UNL     1       2.465 110.465 183.332  1.00  0.00    -0.550 OA
ATOM      4  O   UNL     1       1.266 108.651 184.053  1.00  0.00    -0.550 OA
ENDROOT
TORSDOF 0
ENDMDL
MODEL 3
REMARK VINA RESULT:    -1.761      3.771      4.376
REMARK INTER + INTRA:          -1.761
REMARK INTER:                  -1.761
REMARK INTRA:                   0.000
REMARK UNBOUND:                 0.000
REMARK SMILES CC(=O)[O-]
REMARK SMILES IDX 1 1 2 2 3 3 4 4
REMARK H PARENT
REMARK Flexibility Score: inf
ROOT
ATOM      1  C   UNL     1       3.262 110.326 182.926  1.00  0.00     0.063 C 
ATOM      2  C   UNL     1       2.290 109.206 182.771  1.00  0.00     0.038 C 
ATOM      3  O   UNL     1       2.277 108.521 181.715  1.00  0.00    -0.550 OA
ATOM      4  O   UNL     1       1.358 108.950 183.769  1.00  0.00    -0.550 OA
ENDROOT
TORSDOF 0
ENDMDL
MODEL 4
REMARK VINA RESULT:    -1.753      1.633      1.991
REMARK INTER + INTRA:          -1.753
REMARK INTER:                  -1.753
REMARK INTRA:                   0.000
REMARK UNBOUND:                 0.000
REMARK SMILES CC(=O)[O-]
REMARK SMILES IDX 1 1 2 2 3 3 4 4
REMARK H PARENT
REMARK Flexibility Score: inf
ROOT
ATOM      1  C   UNL     1       2.855 113.427 184.764  1.00  0.00     0.063 C 
ATOM      2  C   UNL     1       3.512 112.253 184.121  1.00  0.00     0.038 C 
ATOM      3  O   UNL     1       2.814 111.323 183.639  1.00  0.00    -0.550 OA
ATOM      4  O   UNL     1       4.898 112.156 184.101  1.00  0.00    -0.550 OA
ENDROOT
TORSDOF 0
ENDMDL
MODEL 5
REMARK VINA RESULT:    -1.709     14.787     15.126
REMARK INTER + INTRA:          -1.709
REMARK INTER:                  -1.709
REMARK INTRA:                   0.000
REMARK UNBOUND:                 0.000
REMARK SMILES CC(=O)[O-]
REMARK SMILES IDX 1 1 2 2 3 3 4 4
REMARK H PARENT
REMARK Flexibility Score: inf
ROOT
ATOM      1  C   UNL     1       5.904 102.049 176.490  1.00  0.00     0.063 C 
ATOM      2  C   UNL     1       6.010 101.215 175.259  1.00  0.00     0.038 C 
ATOM      3  O   UNL     1       7.034 101.288 174.532  1.00  0.00    -0.550 OA
ATOM      4  O   UNL     1       4.955 100.394 174.881  1.00  0.00    -0.550 OA
ENDROOT
TORSDOF 0
ENDMDL
MODEL 6
REMARK VINA RESULT:    -1.684     14.434     15.058
REMARK INTER + INTRA:          -1.684
REMARK INTER:                  -1.684
REMARK INTRA:                   0.000
REMARK UNBOUND:                 0.000
REMARK SMILES CC(=O)[O-]
REMARK SMILES IDX 1 1 2 2 3 3 4 4
REMARK H PARENT
REMARK Flexibility Score: inf
ROOT
ATOM      1  C   UNL     1       7.079 101.512 174.620  1.00  0.00     0.063 C 
ATOM      2  C   UNL     1       5.795 101.261 175.334  1.00  0.00     0.038 C 
ATOM      3  O   UNL     1       4.984 100.405 174.895  1.00  0.00    -0.550 OA
ATOM      4  O   UNL     1       5.464 102.010 176.457  1.00  0.00    -0.550 OA
ENDROOT
TORSDOF 0
ENDMDL
MODEL 7
REMARK VINA RESULT:    -1.677      4.531      4.936
REMARK INTER + INTRA:          -1.677
REMARK INTER:                  -1.677
REMARK INTRA:                   0.000
REMARK UNBOUND:                 0.000
REMARK SMILES CC(=O)[O-]
REMARK SMILES IDX 1 1 2 2 3 3 4 4
REMARK H PARENT
REMARK Flexibility Score: inf
ROOT
ATOM      1  C   UNL     1       1.559 109.136 183.425  1.00  0.00     0.063 C 
ATOM      2  C   UNL     1       2.496 108.925 182.284  1.00  0.00     0.038 C 
ATOM      3  O   UNL     1       2.067 108.487 181.185  1.00  0.00    -0.550 OA
ATOM      4  O   UNL     1       3.856 109.159 182.448  1.00  0.00    -0.550 OA
ENDROOT
TORSDOF 0
ENDMDL
MODEL 8
REMARK VINA RESULT:    -1.571      6.058      6.770
REMARK INTER + INTRA:          -1.571
REMARK INTER:                  -1.571
REMARK INTRA:                   0.000
REMARK UNBOUND:                 0.000
REMARK SMILES CC(=O)[O-]
REMARK SMILES IDX 1 1 2 2 3 3 4 4
REMARK H PARENT
REMARK Flexibility Score: inf
ROOT
ATOM      1  C   UNL     1       3.676 106.203 180.897  1.00  0.00     0.063 C 
ATOM      2  C   UNL     1       4.050 106.891 182.165  1.00  0.00     0.038 C 
ATOM      3  O   UNL     1       5.127 106.602 182.748  1.00  0.00    -0.550 OA
ATOM      4  O   UNL     1       3.185 107.816 182.737  1.00  0.00    -0.550 OA
ENDROOT
TORSDOF 0
ENDMDL
MODEL 9
REMARK VINA RESULT:    -1.536      5.587      6.041
REMARK INTER + INTRA:          -1.536
REMARK INTER:                  -1.536
REMARK INTRA:                   0.000
REMARK UNBOUND:                 0.000
REMARK SMILES CC(=O)[O-]
REMARK SMILES IDX 1 1 2 2 3 3 4 4
REMARK H PARENT
REMARK Flexibility Score: inf
ROOT
ATOM      1  C   UNL     1       6.039 106.523 183.310  1.00  0.00     0.063 C 
ATOM      2  C   UNL     1       4.804 107.260 182.917  1.00  0.00     0.038 C 
ATOM      3  O   UNL     1       4.574 108.404 183.388  1.00  0.00    -0.550 OA
ATOM      4  O   UNL     1       3.876 106.664 182.072  1.00  0.00    -0.550 OA
ENDROOT
TORSDOF 0
ENDMDL
