MODEL 1
REMARK VINA RESULT:    30.191      0.000      0.000
REMARK INTER + INTRA:          36.169
REMARK INTER:                  36.368
REMARK INTRA:                  -0.199
REMARK UNBOUND:                -0.199
REMARK SMILES O=c1c(O)c(-c2ccc(O)c(O)c2)oc2cc(O)cc(O)c12
REMARK SMILES IDX 5 1 3 2 2 3 1 4 22 5 20 6 19 7 17 8 16 9 15 10 14 11 6 12
REMARK SMILES IDX 7 13 8 14 9 15 13 16 11 17 10 18 12 20 4 22 21 24 18 26
REMARK H PARENT 10 19 12 21 4 23 21 25 18 27
REMARK Flexibility Score: inf
ROOT
ATOM      1  C   UNL     1       9.449   2.155   8.465  1.00  0.00     0.180 A 
ATOM      2  C   UNL     1       9.492   3.491   8.019  1.00  0.00     0.208 A 
ATOM      3  C   UNL     1      10.510   3.878   7.136  1.00  0.00     0.238 A 
ATOM      4  O   UNL     1      10.552   5.068   6.721  1.00  0.00    -0.285 OA
ATOM      5  C   UNL     1      11.478   2.935   6.729  1.00  0.00     0.111 A 
ATOM      6  C   UNL     1      12.539   3.246   5.846  1.00  0.00     0.134 A 
ATOM      7  C   UNL     1      13.466   2.253   5.497  1.00  0.00     0.093 A 
ATOM      8  C   UNL     1      13.353   0.958   6.016  1.00  0.00     0.123 A 
ATOM      9  C   UNL     1      12.309   0.648   6.887  1.00  0.00     0.094 A 
ATOM     10  C   UNL     1      11.372   1.622   7.246  1.00  0.00     0.146 A 
ATOM     11  O   UNL     1      10.386   1.297   8.074  1.00  0.00    -0.452 OA
ENDROOT
BRANCH   1  12
ATOM     12  C   UNL     1       8.394   1.665   9.383  1.00  0.00     0.025 A 
ATOM     13  C   UNL     1       8.683   1.328  10.716  1.00  0.00     0.016 A 
ATOM     14  C   UNL     1       7.666   0.892  11.570  1.00  0.00     0.051 A 
ATOM     15  C   UNL     1       6.346   0.799  11.109  1.00  0.00     0.157 A 
ATOM     16  C   UNL     1       7.066   1.591   8.931  1.00  0.00     0.062 A 
ATOM     17  C   UNL     1       6.045   1.154   9.783  1.00  0.00     0.158 A 
BRANCH  15  18
ATOM     18  O   UNL     1       5.334   0.361  11.962  1.00  0.00    -0.504 OA
ATOM     19  H   UNL     1       5.316   0.624  12.941  1.00  0.00     0.293 HD
ENDBRANCH  15  18
BRANCH  17  20
ATOM     20  O   UNL     1       4.741   1.079   9.295  1.00  0.00    -0.504 OA
ATOM     21  H   UNL     1       4.401   1.700   8.571  1.00  0.00     0.293 HD
ENDBRANCH  17  20
ENDBRANCH   1  12
BRANCH   2  22
ATOM     22  O   UNL     1       8.550   4.417   8.475  1.00  0.00    -0.502 OA
ATOM     23  H   UNL     1       7.886   4.865   7.855  1.00  0.00     0.293 HD
ENDBRANCH   2  22
BRANCH   6  24
ATOM     24  O   UNL     1      12.678   4.527   5.313  1.00  0.00    -0.507 OA
ATOM     25  H   UNL     1      12.854   4.679   4.326  1.00  0.00     0.293 HD
ENDBRANCH   6  24
BRANCH   8  26
ATOM     26  O   UNL     1      14.275  -0.028   5.670  1.00  0.00    -0.508 OA
ATOM     27  H   UNL     1      15.114  -0.184   6.217  1.00  0.00     0.293 HD
ENDBRANCH   8  26
TORSDOF 6
ENDMDL
MODEL 2
REMARK VINA RESULT:    30.702      4.445      7.963
REMARK INTER + INTRA:          36.785
REMARK INTER:                  36.970
REMARK INTRA:                  -0.186
REMARK UNBOUND:                -0.199
REMARK SMILES O=c1c(O)c(-c2ccc(O)c(O)c2)oc2cc(O)cc(O)c12
REMARK SMILES IDX 5 1 3 2 2 3 1 4 22 5 20 6 19 7 17 8 16 9 15 10 14 11 6 12
REMARK SMILES IDX 7 13 8 14 9 15 13 16 11 17 10 18 12 20 4 22 21 24 18 26
REMARK H PARENT 10 19 12 21 4 23 21 25 18 27
REMARK Flexibility Score: inf
ROOT
ATOM      1  C   UNL     1      14.954   3.021   8.355  1.00  0.00     0.180 A 
ATOM      2  C   UNL     1      14.899   1.702   7.862  1.00  0.00     0.208 A 
ATOM      3  C   UNL     1      13.847   1.340   7.007  1.00  0.00     0.238 A 
ATOM      4  O   UNL     1      13.793   0.166   6.551  1.00  0.00    -0.285 OA
ATOM      5  C   UNL     1      12.858   2.291   6.677  1.00  0.00     0.111 A 
ATOM      6  C   UNL     1      11.762   2.006   5.828  1.00  0.00     0.134 A 
ATOM      7  C   UNL     1      10.816   3.005   5.555  1.00  0.00     0.093 A 
ATOM      8  C   UNL     1      10.944   4.281   6.116  1.00  0.00     0.123 A 
ATOM      9  C   UNL     1      12.022   4.566   6.954  1.00  0.00     0.094 A 
ATOM     10  C   UNL     1      12.978   3.585   7.238  1.00  0.00     0.146 A 
ATOM     11  O   UNL     1      13.996   3.886   8.035  1.00  0.00    -0.452 OA
ENDROOT
BRANCH   1  12
ATOM     12  C   UNL     1      16.044   3.483   9.245  1.00  0.00     0.025 A 
ATOM     13  C   UNL     1      15.804   3.794  10.594  1.00  0.00     0.016 A 
ATOM     14  C   UNL     1      16.853   4.205  11.421  1.00  0.00     0.051 A 
ATOM     15  C   UNL     1      18.157   4.298  10.917  1.00  0.00     0.157 A 
ATOM     16  C   UNL     1      17.355   3.557   8.750  1.00  0.00     0.062 A 
ATOM     17  C   UNL     1      18.409   3.969   9.574  1.00  0.00     0.158 A 
BRANCH  15  18
ATOM     18  O   UNL     1      19.201   4.710  11.743  1.00  0.00    -0.504 OA
ATOM     19  H   UNL     1      19.296   4.362  12.690  1.00  0.00     0.293 HD
ENDBRANCH  15  18
BRANCH  17  20
ATOM     20  O   UNL     1      19.696   4.043   9.043  1.00  0.00    -0.504 OA
ATOM     21  H   UNL     1      19.895   3.805   8.079  1.00  0.00     0.293 HD
ENDBRANCH  17  20
ENDBRANCH   1  12
BRANCH   2  22
ATOM     22  O   UNL     1      15.863   0.766   8.243  1.00  0.00    -0.502 OA
ATOM     23  H   UNL     1      16.844   1.004   8.334  1.00  0.00     0.293 HD
ENDBRANCH   2  22
BRANCH   6  24
ATOM     24  O   UNL     1      11.608   0.744   5.254  1.00  0.00    -0.507 OA
ATOM     25  H   UNL     1      10.702   0.401   4.956  1.00  0.00     0.293 HD
ENDBRANCH   6  24
BRANCH   8  26
ATOM     26  O   UNL     1      10.004   5.272   5.846  1.00  0.00    -0.508 OA
ATOM     27  H   UNL     1       9.181   5.396   6.426  1.00  0.00     0.293 HD
ENDBRANCH   8  26
TORSDOF 6
ENDMDL
MODEL 3
REMARK VINA RESULT:    31.219      1.177      2.830
REMARK INTER + INTRA:          37.408
REMARK INTER:                  37.702
REMARK INTRA:                  -0.295
REMARK UNBOUND:                -0.199
REMARK SMILES O=c1c(O)c(-c2ccc(O)c(O)c2)oc2cc(O)cc(O)c12
REMARK SMILES IDX 5 1 3 2 2 3 1 4 22 5 20 6 19 7 17 8 16 9 15 10 14 11 6 12
REMARK SMILES IDX 7 13 8 14 9 15 13 16 11 17 10 18 12 20 4 22 21 24 18 26
REMARK H PARENT 10 19 12 21 4 23 21 25 18 27
REMARK Flexibility Score: inf
ROOT
ATOM      1  C   UNL     1       9.482   1.493   8.580  1.00  0.00     0.180 A 
ATOM      2  C   UNL     1      10.273   0.422   8.119  1.00  0.00     0.208 A 
ATOM      3  C   UNL     1      11.319   0.687   7.223  1.00  0.00     0.238 A 
ATOM      4  O   UNL     1      12.040  -0.262   6.811  1.00  0.00    -0.285 OA
ATOM      5  C   UNL     1      11.545   2.010   6.787  1.00  0.00     0.111 A 
ATOM      6  C   UNL     1      12.575   2.361   5.881  1.00  0.00     0.134 A 
ATOM      7  C   UNL     1      12.729   3.700   5.490  1.00  0.00     0.093 A 
ATOM      8  C   UNL     1      11.873   4.690   5.984  1.00  0.00     0.123 A 
ATOM      9  C   UNL     1      10.857   4.348   6.877  1.00  0.00     0.094 A 
ATOM     10  C   UNL     1      10.687   3.020   7.282  1.00  0.00     0.146 A 
ATOM     11  O   UNL     1       9.715   2.724   8.136  1.00  0.00    -0.452 OA
ENDROOT
BRANCH   1  12
ATOM     12  C   UNL     1       8.373   1.295   9.542  1.00  0.00     0.025 A 
ATOM     13  C   UNL     1       8.618   1.107  10.912  1.00  0.00     0.016 A 
ATOM     14  C   UNL     1       7.553   0.947  11.804  1.00  0.00     0.051 A 
ATOM     15  C   UNL     1       6.231   0.986  11.342  1.00  0.00     0.157 A 
ATOM     16  C   UNL     1       7.046   1.355   9.086  1.00  0.00     0.062 A 
ATOM     17  C   UNL     1       5.978   1.194   9.976  1.00  0.00     0.158 A 
BRANCH  15  18
ATOM     18  O   UNL     1       5.172   0.824  12.233  1.00  0.00    -0.504 OA
ATOM     19  H   UNL     1       4.518   0.055  12.144  1.00  0.00     0.293 HD
ENDBRANCH  15  18
BRANCH  17  20
ATOM     20  O   UNL     1       4.674   1.245   9.485  1.00  0.00    -0.504 OA
ATOM     21  H   UNL     1       4.237   2.116   9.207  1.00  0.00     0.293 HD
ENDBRANCH  17  20
ENDBRANCH   1  12
BRANCH   2  22
ATOM     22  O   UNL     1       9.997  -0.886   8.528  1.00  0.00    -0.502 OA
ATOM     23  H   UNL     1      10.221  -1.691   7.956  1.00  0.00     0.293 HD
ENDBRANCH   2  22
BRANCH   6  24
ATOM     24  O   UNL     1      13.443   1.396   5.371  1.00  0.00    -0.507 OA
ATOM     25  H   UNL     1      14.421   1.365   5.635  1.00  0.00     0.293 HD
ENDBRANCH   6  24
BRANCH   8  26
ATOM     26  O   UNL     1      12.026   6.019   5.594  1.00  0.00    -0.508 OA
ATOM     27  H   UNL     1      12.798   6.584   5.929  1.00  0.00     0.293 HD
ENDBRANCH   8  26
TORSDOF 6
ENDMDL
MODEL 4
REMARK VINA RESULT:    31.763      4.638      7.540
REMARK INTER + INTRA:          38.063
REMARK INTER:                  38.334
REMARK INTRA:                  -0.272
REMARK UNBOUND:                -0.199
REMARK SMILES O=c1c(O)c(-c2ccc(O)c(O)c2)oc2cc(O)cc(O)c12
REMARK SMILES IDX 5 1 3 2 2 3 1 4 22 5 20 6 19 7 17 8 16 9 15 10 14 11 6 12
REMARK SMILES IDX 7 13 8 14 9 15 13 16 11 17 10 18 12 20 4 22 21 24 18 26
REMARK H PARENT 10 19 12 21 4 23 21 25 18 27
REMARK Flexibility Score: inf
ROOT
ATOM      1  C   UNL     1      14.974   3.667   8.488  1.00  0.00     0.180 A 
ATOM      2  C   UNL     1      14.133   4.736   8.120  1.00  0.00     0.208 A 
ATOM      3  C   UNL     1      13.049   4.484   7.267  1.00  0.00     0.238 A 
ATOM      4  O   UNL     1      12.283   5.431   6.940  1.00  0.00    -0.285 OA
ATOM      5  C   UNL     1      12.833   3.178   6.779  1.00  0.00     0.111 A 
ATOM      6  C   UNL     1      11.767   2.841   5.911  1.00  0.00     0.134 A 
ATOM      7  C   UNL     1      11.627   1.519   5.463  1.00  0.00     0.093 A 
ATOM      8  C   UNL     1      12.532   0.530   5.865  1.00  0.00     0.123 A 
ATOM      9  C   UNL     1      13.584   0.858   6.720  1.00  0.00     0.094 A 
ATOM     10  C   UNL     1      13.742   2.169   7.180  1.00  0.00     0.146 A 
ATOM     11  O   UNL     1      14.749   2.451   7.997  1.00  0.00    -0.452 OA
ENDROOT
BRANCH   1  12
ATOM     12  C   UNL     1      16.127   3.849   9.400  1.00  0.00     0.025 A 
ATOM     13  C   UNL     1      15.945   4.031  10.781  1.00  0.00     0.016 A 
ATOM     14  C   UNL     1      17.049   4.176  11.625  1.00  0.00     0.051 A 
ATOM     15  C   UNL     1      18.349   4.130  11.105  1.00  0.00     0.157 A 
ATOM     16  C   UNL     1      17.431   3.782   8.885  1.00  0.00     0.062 A 
ATOM     17  C   UNL     1      18.540   3.928   9.727  1.00  0.00     0.158 A 
BRANCH  15  18
ATOM     18  O   UNL     1      19.449   4.277  11.949  1.00  0.00    -0.504 OA
ATOM     19  H   UNL     1      19.978   3.477  12.275  1.00  0.00     0.293 HD
ENDBRANCH  15  18
BRANCH  17  20
ATOM     20  O   UNL     1      19.820   3.870   9.178  1.00  0.00    -0.504 OA
ATOM     21  H   UNL     1      20.222   3.003   8.840  1.00  0.00     0.293 HD
ENDBRANCH  17  20
ENDBRANCH   1  12
BRANCH   2  22
ATOM     22  O   UNL     1      14.397   6.029   8.578  1.00  0.00    -0.502 OA
ATOM     23  H   UNL     1      14.115   6.855   8.063  1.00  0.00     0.293 HD
ENDBRANCH   2  22
BRANCH   6  24
ATOM     24  O   UNL     1      10.850   3.805   5.494  1.00  0.00    -0.507 OA
ATOM     25  H   UNL     1      10.020   4.022   6.034  1.00  0.00     0.293 HD
ENDBRANCH   6  24
BRANCH   8  26
ATOM     26  O   UNL     1      12.393  -0.782   5.419  1.00  0.00    -0.508 OA
ATOM     27  H   UNL     1      11.964  -1.496   5.997  1.00  0.00     0.293 HD
ENDBRANCH   8  26
TORSDOF 6
ENDMDL
