MODEL 1
REMARK VINA RESULT:    -3.535      0.000      0.000
REMARK INTER + INTRA:          -5.592
REMARK INTER:                  -5.395
REMARK INTRA:                  -0.197
REMARK UNBOUND:                -0.197
REMARK SMILES CC1=CCC[C@H](C)C(=O)C[C@@H](C(C)C)C(=O)C1
REMARK SMILES IDX 8 1 9 2 6 3 7 4 5 5 4 6 3 7 2 8 1 9 10 11 11 12 15 13 16 14
REMARK SMILES IDX 17 15 12 17 13 18 14 19
REMARK H PARENT
REMARK Flexibility Score: 70.00
ROOT
ATOM      1  C   UNL     1      57.836  70.668  32.017  1.00  0.00     0.136 C 
ATOM      2  O   UNL     1      57.607  70.841  30.829  1.00  0.00    -0.299 OA
ENDROOT
BRANCH   1   3
ATOM      3  C   UNL     1      56.700  70.362  32.972  1.00  0.00     0.053 C 
ATOM      4  C   UNL     1      56.563  68.843  33.119  1.00  0.00     0.016 C 
BRANCH   3   5
ATOM      5  C   UNL     1      56.887  71.018  34.362  1.00  0.00     0.015 C 
BRANCH   5   6
ATOM      6  C   UNL     1      57.033  70.007  35.512  1.00  0.00     0.028 C 
BRANCH   6   7
ATOM      7  C   UNL     1      58.047  70.471  36.530  1.00  0.00    -0.028 C 
ATOM      8  C   UNL     1      59.332  70.056  36.606  1.00  0.00    -0.070 CG0
ATOM      9  C   UNL     1      60.193  70.614  37.711  1.00  0.00     0.039 C 
ATOM     10  G   UNL     1      59.939  69.071  35.627  1.00  0.00     0.000 G0
ENDBRANCH   6   7
ENDBRANCH   5   6
ENDBRANCH   3   5
ENDBRANCH   1   3
BRANCH   1  11
ATOM     11  C   UNL     1      59.245  70.849  32.529  1.00  0.00     0.087 C 
BRANCH  11  12
ATOM     12  C   UNL     1      59.865  69.523  33.037  1.00  0.00     0.066 C 
BRANCH  12  13
ATOM     13  C   UNL     1      60.504  69.750  34.398  1.00  0.00     0.140 C 
ATOM     14  O   UNL     1      61.505  70.448  34.484  1.00  0.00    -0.299 OA
BRANCH  13  15
ATOM     15  C   UNL     1      59.976  69.074  35.640  1.00  0.00     0.106 CG0
ATOM     16  G   UNL     1      59.337  70.056  36.602  1.00  0.00     0.000 G0
ENDBRANCH  13  15
ENDBRANCH  12  13
BRANCH  12  17
ATOM     17  C   UNL     1      60.913  68.942  32.034  1.00  0.00    -0.006 C 
ATOM     18  C   UNL     1      61.319  69.965  30.957  1.00  0.00     0.008 C 
ATOM     19  C   UNL     1      60.381  67.675  31.339  1.00  0.00     0.008 C 
ENDBRANCH  12  17
ENDBRANCH  11  12
ENDBRANCH   1  11
TORSDOF 1
ENDMDL
MODEL 2
REMARK VINA RESULT:    -3.528     18.610     20.431
REMARK INTER + INTRA:          -5.581
REMARK INTER:                  -5.809
REMARK INTRA:                   0.228
REMARK UNBOUND:                -0.197
REMARK SMILES CC1=CCC[C@H](C)C(=O)C[C@@H](C(C)C)C(=O)C1
REMARK SMILES IDX 8 1 9 2 6 3 7 4 5 5 4 6 3 7 2 8 1 9 10 11 11 12 15 13 16 14
REMARK SMILES IDX 17 15 12 17 13 18 14 19
REMARK H PARENT
REMARK Flexibility Score: 70.00
ROOT
ATOM      1  C   UNL     1      43.608  59.208  30.218  1.00  0.00     0.136 C 
ATOM      2  O   UNL     1      43.946  59.904  31.165  1.00  0.00    -0.299 OA
ENDROOT
BRANCH   1   3
ATOM      3  C   UNL     1      43.304  59.847  28.878  1.00  0.00     0.053 C 
ATOM      4  C   UNL     1      44.578  60.497  28.330  1.00  0.00     0.016 C 
BRANCH   3   5
ATOM      5  C   UNL     1      42.731  58.843  27.848  1.00  0.00     0.015 C 
BRANCH   5   6
ATOM      6  C   UNL     1      43.801  58.188  26.958  1.00  0.00     0.028 C 
BRANCH   6   7
ATOM      7  C   UNL     1      43.791  56.684  27.098  1.00  0.00    -0.028 C 
ATOM      8  C   UNL     1      44.589  55.966  27.919  1.00  0.00    -0.070 CG0
ATOM      9  C   UNL     1      44.454  54.464  27.905  1.00  0.00     0.039 C 
ATOM     10  G   UNL     1      45.599  56.605  28.853  1.00  0.00     0.000 G0
ENDBRANCH   6   7
ENDBRANCH   5   6
ENDBRANCH   3   5
ENDBRANCH   1   3
BRANCH   1  11
ATOM     11  C   UNL     1      43.416  57.725  30.426  1.00  0.00     0.087 C 
BRANCH  11  12
ATOM     12  C   UNL     1      44.578  57.084  31.226  1.00  0.00     0.066 C 
BRANCH  12  13
ATOM     13  C   UNL     1      45.421  56.226  30.296  1.00  0.00     0.140 C 
ATOM     14  O   UNL     1      46.001  55.246  30.742  1.00  0.00    -0.299 OA
BRANCH  13  15
ATOM     15  C   UNL     1      45.620  56.594  28.846  1.00  0.00     0.106 CG0
ATOM     16  G   UNL     1      44.590  55.946  27.940  1.00  0.00     0.000 G0
ENDBRANCH  13  15
ENDBRANCH  12  13
BRANCH  12  17
ATOM     17  C   UNL     1      44.064  56.236  32.433  1.00  0.00    -0.006 C 
ATOM     18  C   UNL     1      42.596  56.545  32.779  1.00  0.00     0.008 C 
ATOM     19  C   UNL     1      44.929  56.464  33.687  1.00  0.00     0.008 C 
ENDBRANCH  12  17
ENDBRANCH  11  12
ENDBRANCH   1  11
TORSDOF 1
ENDMDL
MODEL 3
REMARK VINA RESULT:    -3.496     17.858     19.532
REMARK INTER + INTRA:          -5.532
REMARK INTER:                  -5.656
REMARK INTRA:                   0.123
REMARK UNBOUND:                -0.197
REMARK SMILES CC1=CCC[C@H](C)C(=O)C[C@@H](C(C)C)C(=O)C1
REMARK SMILES IDX 8 1 9 2 6 3 7 4 5 5 4 6 3 7 2 8 1 9 10 11 11 12 15 13 16 14
REMARK SMILES IDX 17 15 12 17 13 18 14 19
REMARK H PARENT
REMARK Flexibility Score: 70.00
ROOT
ATOM      1  C   UNL     1      46.010  56.484  28.360  1.00  0.00     0.136 C 
ATOM      2  O   UNL     1      46.135  55.299  28.631  1.00  0.00    -0.299 OA
ENDROOT
BRANCH   1   3
ATOM      3  C   UNL     1      47.227  57.386  28.325  1.00  0.00     0.053 C 
ATOM      4  C   UNL     1      47.023  58.465  27.258  1.00  0.00     0.016 C 
BRANCH   3   5
ATOM      5  C   UNL     1      47.533  58.039  29.694  1.00  0.00     0.015 C 
BRANCH   5   6
ATOM      6  C   UNL     1      47.366  57.085  30.890  1.00  0.00     0.028 C 
BRANCH   6   7
ATOM      7  C   UNL     1      46.532  57.711  31.983  1.00  0.00    -0.028 C 
ATOM      8  C   UNL     1      45.238  57.420  32.248  1.00  0.00    -0.070 CG0
ATOM      9  C   UNL     1      44.558  58.168  33.367  1.00  0.00     0.039 C 
ATOM     10  G   UNL     1      44.453  56.375  31.478  1.00  0.00     0.000 G0
ENDBRANCH   6   7
ENDBRANCH   5   6
ENDBRANCH   3   5
ENDBRANCH   1   3
BRANCH   1  11
ATOM     11  C   UNL     1      44.627  57.050  28.148  1.00  0.00     0.087 C 
BRANCH  11  12
ATOM     12  C   UNL     1      44.141  57.893  29.354  1.00  0.00     0.066 C 
BRANCH  12  13
ATOM     13  C   UNL     1      43.564  56.971  30.417  1.00  0.00     0.140 C 
ATOM     14  O   UNL     1      42.360  56.758  30.439  1.00  0.00    -0.299 OA
BRANCH  13  15
ATOM     15  C   UNL     1      44.432  56.368  31.495  1.00  0.00     0.106 CG0
ATOM     16  G   UNL     1      45.248  57.414  32.229  1.00  0.00     0.000 G0
ENDBRANCH  13  15
ENDBRANCH  12  13
BRANCH  12  17
ATOM     17  C   UNL     1      43.087  58.967  28.935  1.00  0.00    -0.006 C 
ATOM     18  C   UNL     1      42.428  58.641  27.582  1.00  0.00     0.008 C 
ATOM     19  C   UNL     1      43.719  60.370  28.854  1.00  0.00     0.008 C 
ENDBRANCH  12  17
ENDBRANCH  11  12
ENDBRANCH   1  11
TORSDOF 1
ENDMDL
MODEL 4
REMARK VINA RESULT:    -3.472     18.032     20.084
REMARK INTER + INTRA:          -5.495
REMARK INTER:                  -5.286
REMARK INTRA:                  -0.208
REMARK UNBOUND:                -0.197
REMARK SMILES CC1=CCC[C@H](C)C(=O)C[C@@H](C(C)C)C(=O)C1
REMARK SMILES IDX 8 1 9 2 6 3 7 4 5 5 4 6 3 7 2 8 1 9 10 11 11 12 15 13 16 14
REMARK SMILES IDX 17 15 12 17 13 18 14 19
REMARK H PARENT
REMARK Flexibility Score: 70.00
ROOT
ATOM      1  C   UNL     1      46.468  56.506  30.199  1.00  0.00     0.136 C 
ATOM      2  O   UNL     1      47.137  55.484  30.246  1.00  0.00    -0.299 OA
ENDROOT
BRANCH   1   3
ATOM      3  C   UNL     1      46.529  57.396  28.974  1.00  0.00     0.053 C 
ATOM      4  C   UNL     1      47.993  57.708  28.651  1.00  0.00     0.016 C 
BRANCH   3   5
ATOM      5  C   UNL     1      45.831  56.772  27.741  1.00  0.00     0.015 C 
BRANCH   5   6
ATOM      6  C   UNL     1      44.445  57.369  27.442  1.00  0.00     0.028 C 
BRANCH   6   7
ATOM      7  C   UNL     1      44.361  58.814  27.874  1.00  0.00    -0.028 C 
ATOM      8  C   UNL     1      43.601  59.289  28.886  1.00  0.00    -0.070 CG0
ATOM      9  C   UNL     1      43.626  60.772  29.156  1.00  0.00     0.039 C 
ATOM     10  G   UNL     1      42.741  58.396  29.759  1.00  0.00     0.000 G0
ENDBRANCH   6   7
ENDBRANCH   5   6
ENDBRANCH   3   5
ENDBRANCH   1   3
BRANCH   1  11
ATOM     11  C   UNL     1      45.654  56.911  31.405  1.00  0.00     0.087 C 
BRANCH  11  12
ATOM     12  C   UNL     1      44.137  56.675  31.201  1.00  0.00     0.066 C 
BRANCH  12  13
ATOM     13  C   UNL     1      43.432  58.014  31.051  1.00  0.00     0.140 C 
ATOM     14  O   UNL     1      43.367  58.771  32.009  1.00  0.00    -0.299 OA
BRANCH  13  15
ATOM     15  C   UNL     1      42.743  58.404  29.765  1.00  0.00     0.106 CG0
ATOM     16  G   UNL     1      43.613  59.284  28.889  1.00  0.00     0.000 G0
ENDBRANCH  13  15
ENDBRANCH  12  13
BRANCH  12  17
ATOM     17  C   UNL     1      43.505  55.856  32.372  1.00  0.00    -0.006 C 
ATOM     18  C   UNL     1      44.456  55.735  33.577  1.00  0.00     0.008 C 
ATOM     19  C   UNL     1      43.102  54.442  31.913  1.00  0.00     0.008 C 
ENDBRANCH  12  17
ENDBRANCH  11  12
ENDBRANCH   1  11
TORSDOF 1
ENDMDL
MODEL 5
REMARK VINA RESULT:    -3.402      1.921      3.299
REMARK INTER + INTRA:          -5.389
REMARK INTER:                  -5.176
REMARK INTRA:                  -0.212
REMARK UNBOUND:                -0.197
REMARK SMILES CC1=CCC[C@H](C)C(=O)C[C@@H](C(C)C)C(=O)C1
REMARK SMILES IDX 8 1 9 2 6 3 7 4 5 5 4 6 3 7 2 8 1 9 10 11 11 12 15 13 16 14
REMARK SMILES IDX 17 15 12 17 13 18 14 19
REMARK H PARENT
REMARK Flexibility Score: 70.00
ROOT
ATOM      1  C   UNL     1      58.519  68.033  32.288  1.00  0.00     0.136 C 
ATOM      2  O   UNL     1      57.807  68.370  31.353  1.00  0.00    -0.299 OA
ENDROOT
BRANCH   1   3
ATOM      3  C   UNL     1      59.148  66.655  32.303  1.00  0.00     0.053 C 
ATOM      4  C   UNL     1      60.595  66.757  31.812  1.00  0.00     0.016 C 
BRANCH   3   5
ATOM      5  C   UNL     1      59.104  65.988  33.700  1.00  0.00     0.015 C 
BRANCH   5   6
ATOM      6  C   UNL     1      60.438  66.057  34.464  1.00  0.00     0.028 C 
BRANCH   6   7
ATOM      7  C   UNL     1      60.278  66.757  35.793  1.00  0.00    -0.028 C 
ATOM      8  C   UNL     1      60.747  67.989  36.093  1.00  0.00    -0.070 CG0
ATOM      9  C   UNL     1      60.513  68.516  37.486  1.00  0.00     0.039 C 
ATOM     10  G   UNL     1      61.484  68.858  35.092  1.00  0.00     0.000 G0
ENDBRANCH   6   7
ENDBRANCH   5   6
ENDBRANCH   3   5
ENDBRANCH   1   3
BRANCH   1  11
ATOM     11  C   UNL     1      58.689  68.971  33.459  1.00  0.00     0.087 C 
BRANCH  11  12
ATOM     12  C   UNL     1      59.895  69.928  33.280  1.00  0.00     0.066 C 
BRANCH  12  13
ATOM     13  C   UNL     1      60.665  70.022  34.588  1.00  0.00     0.140 C 
ATOM     14  O   UNL     1      60.661  71.073  35.214  1.00  0.00    -0.299 OA
BRANCH  13  15
ATOM     15  C   UNL     1      61.498  68.872  35.098  1.00  0.00     0.106 CG0
ATOM     16  G   UNL     1      60.736  67.997  36.074  1.00  0.00     0.000 G0
ENDBRANCH  13  15
ENDBRANCH  12  13
BRANCH  12  17
ATOM     17  C   UNL     1      59.453  71.349  32.805  1.00  0.00    -0.006 C 
ATOM     18  C   UNL     1      57.966  71.625  33.097  1.00  0.00     0.008 C 
ATOM     19  C   UNL     1      59.707  71.540  31.298  1.00  0.00     0.008 C 
ENDBRANCH  12  17
ENDBRANCH  11  12
ENDBRANCH   1  11
TORSDOF 1
ENDMDL
MODEL 6
REMARK VINA RESULT:    -3.387     17.670     19.935
REMARK INTER + INTRA:          -5.366
REMARK INTER:                  -5.217
REMARK INTRA:                  -0.148
REMARK UNBOUND:                -0.197
REMARK SMILES CC1=CCC[C@H](C)C(=O)C[C@@H](C(C)C)C(=O)C1
REMARK SMILES IDX 8 1 9 2 6 3 7 4 5 5 4 6 3 7 2 8 1 9 10 11 11 12 15 13 16 14
REMARK SMILES IDX 17 15 12 17 13 18 14 19
REMARK H PARENT
REMARK Flexibility Score: 70.00
ROOT
ATOM      1  C   UNL     1      45.301  59.053  31.045  1.00  0.00     0.136 C 
ATOM      2  O   UNL     1      46.082  59.869  31.514  1.00  0.00    -0.299 OA
ENDROOT
BRANCH   1   3
ATOM      3  C   UNL     1      43.841  59.418  30.869  1.00  0.00     0.053 C 
ATOM      4  C   UNL     1      43.659  60.126  29.523  1.00  0.00     0.016 C 
BRANCH   3   5
ATOM      5  C   UNL     1      42.899  58.192  30.959  1.00  0.00     0.015 C 
BRANCH   5   6
ATOM      6  C   UNL     1      42.173  57.867  29.642  1.00  0.00     0.028 C 
BRANCH   6   7
ATOM      7  C   UNL     1      42.171  56.382  29.365  1.00  0.00    -0.028 C 
ATOM      8  C   UNL     1      43.056  55.727  28.580  1.00  0.00    -0.070 CG0
ATOM      9  C   UNL     1      42.879  54.241  28.399  1.00  0.00     0.039 C 
ATOM     10  G   UNL     1      44.215  56.420  27.890  1.00  0.00     0.000 G0
ENDBRANCH   6   7
ENDBRANCH   5   6
ENDBRANCH   3   5
ENDBRANCH   1   3
BRANCH   1  11
ATOM     11  C   UNL     1      45.791  57.661  30.728  1.00  0.00     0.087 C 
BRANCH  11  12
ATOM     12  C   UNL     1      46.205  57.503  29.244  1.00  0.00     0.066 C 
BRANCH  12  13
ATOM     13  C   UNL     1      45.515  56.284  28.652  1.00  0.00     0.140 C 
ATOM     14  O   UNL     1      46.049  55.188  28.742  1.00  0.00    -0.299 OA
BRANCH  13  15
ATOM     15  C   UNL     1      44.218  56.404  27.889  1.00  0.00     0.106 CG0
ATOM     16  G   UNL     1      43.067  55.719  28.598  1.00  0.00     0.000 G0
ENDBRANCH  13  15
ENDBRANCH  12  13
BRANCH  12  17
ATOM     17  C   UNL     1      47.754  57.387  29.073  1.00  0.00    -0.006 C 
ATOM     18  C   UNL     1      48.511  57.751  30.364  1.00  0.00     0.008 C 
ATOM     19  C   UNL     1      48.261  58.287  27.930  1.00  0.00     0.008 C 
ENDBRANCH  12  17
ENDBRANCH  11  12
ENDBRANCH   1  11
TORSDOF 1
ENDMDL
MODEL 7
REMARK VINA RESULT:    -3.356     17.072     19.124
REMARK INTER + INTRA:          -5.319
REMARK INTER:                  -5.367
REMARK INTRA:                   0.048
REMARK UNBOUND:                -0.197
REMARK SMILES CC1=CCC[C@H](C)C(=O)C[C@@H](C(C)C)C(=O)C1
REMARK SMILES IDX 8 1 9 2 6 3 7 4 5 5 4 6 3 7 2 8 1 9 10 11 11 12 15 13 16 14
REMARK SMILES IDX 17 15 12 17 13 18 14 19
REMARK H PARENT
REMARK Flexibility Score: 70.00
ROOT
ATOM      1  C   UNL     1      44.766  60.445  30.567  1.00  0.00     0.136 C 
ATOM      2  O   UNL     1      44.191  61.187  29.785  1.00  0.00    -0.299 OA
ENDROOT
BRANCH   1   3
ATOM      3  C   UNL     1      45.052  60.909  31.981  1.00  0.00     0.053 C 
ATOM      4  C   UNL     1      44.691  62.392  32.106  1.00  0.00     0.016 C 
BRANCH   3   5
ATOM      5  C   UNL     1      44.295  60.084  33.051  1.00  0.00     0.015 C 
BRANCH   5   6
ATOM      6  C   UNL     1      45.152  58.990  33.713  1.00  0.00     0.028 C 
BRANCH   6   7
ATOM      7  C   UNL     1      44.374  57.706  33.880  1.00  0.00    -0.028 C 
ATOM      8  C   UNL     1      44.311  56.702  32.977  1.00  0.00    -0.070 CG0
ATOM      9  C   UNL     1      43.460  55.502  33.308  1.00  0.00     0.039 C 
ATOM     10  G   UNL     1      45.063  56.729  31.660  1.00  0.00     0.000 G0
ENDBRANCH   6   7
ENDBRANCH   5   6
ENDBRANCH   3   5
ENDBRANCH   1   3
BRANCH   1  11
ATOM     11  C   UNL     1      45.260  59.103  30.083  1.00  0.00     0.087 C 
BRANCH  11  12
ATOM     12  C   UNL     1      44.104  58.172  29.637  1.00  0.00     0.066 C 
BRANCH  12  13
ATOM     13  C   UNL     1      44.136  56.894  30.460  1.00  0.00     0.140 C 
ATOM     14  O   UNL     1      43.360  55.988  30.194  1.00  0.00    -0.299 OA
BRANCH  13  15
ATOM     15  C   UNL     1      45.055  56.743  31.648  1.00  0.00     0.106 CG0
ATOM     16  G   UNL     1      44.297  56.701  32.960  1.00  0.00     0.000 G0
ENDBRANCH  13  15
ENDBRANCH  12  13
BRANCH  12  17
ATOM     17  C   UNL     1      44.171  57.840  28.112  1.00  0.00    -0.006 C 
ATOM     18  C   UNL     1      45.618  57.803  27.586  1.00  0.00     0.008 C 
ATOM     19  C   UNL     1      43.367  58.857  27.280  1.00  0.00     0.008 C 
ENDBRANCH  12  17
ENDBRANCH  11  12
ENDBRANCH   1  11
TORSDOF 1
ENDMDL
MODEL 8
REMARK VINA RESULT:    -3.352      2.272      3.910
REMARK INTER + INTRA:          -5.313
REMARK INTER:                  -4.974
REMARK INTRA:                  -0.338
REMARK UNBOUND:                -0.197
REMARK SMILES CC1=CCC[C@H](C)C(=O)C[C@@H](C(C)C)C(=O)C1
REMARK SMILES IDX 8 1 9 2 6 3 7 4 5 5 4 6 3 7 2 8 1 9 10 11 11 12 15 13 16 14
REMARK SMILES IDX 17 15 12 17 13 18 14 19
REMARK H PARENT
REMARK Flexibility Score: 70.00
ROOT
ATOM      1  C   UNL     1      60.418  70.180  34.655  1.00  0.00     0.136 C 
ATOM      2  O   UNL     1      60.502  71.393  34.789  1.00  0.00    -0.299 OA
ENDROOT
BRANCH   1   3
ATOM      3  C   UNL     1      59.978  69.318  35.820  1.00  0.00     0.053 C 
ATOM      4  C   UNL     1      60.775  69.713  37.068  1.00  0.00     0.016 C 
BRANCH   3   5
ATOM      5  C   UNL     1      58.459  69.416  36.104  1.00  0.00     0.015 C 
BRANCH   5   6
ATOM      6  C   UNL     1      57.615  68.385  35.335  1.00  0.00     0.028 C 
BRANCH   6   7
ATOM      7  C   UNL     1      58.373  67.096  35.125  1.00  0.00    -0.028 C 
ATOM      8  C   UNL     1      58.667  66.543  33.927  1.00  0.00    -0.070 CG0
ATOM      9  C   UNL     1      59.412  65.232  33.915  1.00  0.00     0.039 C 
ATOM     10  G   UNL     1      58.290  67.186  32.607  1.00  0.00     0.000 G0
ENDBRANCH   6   7
ENDBRANCH   5   6
ENDBRANCH   3   5
ENDBRANCH   1   3
BRANCH   1  11
ATOM     11  C   UNL     1      60.839  69.553  33.348  1.00  0.00     0.087 C 
BRANCH  11  12
ATOM     12  C   UNL     1      59.667  69.440  32.341  1.00  0.00     0.066 C 
BRANCH  12  13
ATOM     13  C   UNL     1      59.439  67.978  31.989  1.00  0.00     0.140 C 
ATOM     14  O   UNL     1      60.156  67.441  31.157  1.00  0.00    -0.299 OA
BRANCH  13  15
ATOM     15  C   UNL     1      58.299  67.191  32.589  1.00  0.00     0.106 CG0
ATOM     16  G   UNL     1      58.679  66.539  33.904  1.00  0.00     0.000 G0
ENDBRANCH  13  15
ENDBRANCH  12  13
BRANCH  12  17
ATOM     17  C   UNL     1      59.920  70.278  31.047  1.00  0.00    -0.006 C 
ATOM     18  C   UNL     1      61.384  70.740  30.929  1.00  0.00     0.008 C 
ATOM     19  C   UNL     1      59.003  71.515  30.991  1.00  0.00     0.008 C 
ENDBRANCH  12  17
ENDBRANCH  11  12
ENDBRANCH   1  11
TORSDOF 1
ENDMDL
MODEL 9
REMARK VINA RESULT:    -3.351     17.114     19.647
REMARK INTER + INTRA:          -5.311
REMARK INTER:                  -4.988
REMARK INTRA:                  -0.323
REMARK UNBOUND:                -0.197
REMARK SMILES CC1=CCC[C@H](C)C(=O)C[C@@H](C(C)C)C(=O)C1
REMARK SMILES IDX 8 1 9 2 6 3 7 4 5 5 4 6 3 7 2 8 1 9 10 11 11 12 15 13 16 14
REMARK SMILES IDX 17 15 12 17 13 18 14 19
REMARK H PARENT
REMARK Flexibility Score: 70.00
ROOT
ATOM      1  C   UNL     1      47.519  57.553  30.916  1.00  0.00     0.136 C 
ATOM      2  O   UNL     1      48.225  57.178  31.841  1.00  0.00    -0.299 OA
ENDROOT
BRANCH   1   3
ATOM      3  C   UNL     1      47.935  57.275  29.485  1.00  0.00     0.053 C 
ATOM      4  C   UNL     1      49.379  57.743  29.282  1.00  0.00     0.016 C 
BRANCH   3   5
ATOM      5  C   UNL     1      47.797  55.783  29.097  1.00  0.00     0.015 C 
BRANCH   5   6
ATOM      6  C   UNL     1      46.358  55.360  28.752  1.00  0.00     0.028 C 
BRANCH   6   7
ATOM      7  C   UNL     1      45.687  56.370  27.852  1.00  0.00    -0.028 C 
ATOM      8  C   UNL     1      44.500  56.972  28.094  1.00  0.00    -0.070 CG0
ATOM      9  C   UNL     1      43.973  57.938  27.063  1.00  0.00     0.039 C 
ATOM     10  G   UNL     1      43.693  56.726  29.353  1.00  0.00     0.000 G0
ENDBRANCH   6   7
ENDBRANCH   5   6
ENDBRANCH   3   5
ENDBRANCH   1   3
BRANCH   1  11
ATOM     11  C   UNL     1      46.282  58.365  31.215  1.00  0.00     0.087 C 
BRANCH  11  12
ATOM     12  C   UNL     1      45.042  57.477  31.487  1.00  0.00     0.066 C 
BRANCH  12  13
ATOM     13  C   UNL     1      43.983  57.748  30.430  1.00  0.00     0.140 C 
ATOM     14  O   UNL     1      43.319  58.773  30.492  1.00  0.00    -0.299 OA
BRANCH  13  15
ATOM     15  C   UNL     1      43.678  56.745  29.344  1.00  0.00     0.106 CG0
ATOM     16  G   UNL     1      44.501  56.984  28.092  1.00  0.00     0.000 G0
ENDBRANCH  13  15
ENDBRANCH  12  13
BRANCH  12  17
ATOM     17  C   UNL     1      44.456  57.707  32.917  1.00  0.00    -0.006 C 
ATOM     18  C   UNL     1      45.517  58.222  33.906  1.00  0.00     0.008 C 
ATOM     19  C   UNL     1      43.835  56.416  33.482  1.00  0.00     0.008 C 
ENDBRANCH  12  17
ENDBRANCH  11  12
ENDBRANCH   1  11
TORSDOF 1
ENDMDL
