MODEL 1
REMARK VINA RESULT:    -7.731      0.000      0.000
REMARK INTER + INTRA:          -9.913
REMARK INTER:                  -9.538
REMARK INTRA:                  -0.375
REMARK UNBOUND:                -0.375
REMARK SMILES Oc1cc(O)c2cc(O)c(-c3cc(O)c(O)c(O)c3)[o+]c2c1
REMARK SMILES IDX 10 1 20 2 21 3 22 4 2 5 3 6 4 7 6 8 7 9 8 10 11 11 12 12
REMARK SMILES IDX 13 13 19 14 15 15 17 16 14 17 16 19 18 21 9 23 1 25 5 27
REMARK H PARENT 14 18 16 20 18 22 9 24 1 26 5 28
REMARK Flexibility Score: inf
ROOT
ATOM      1  C   UNL     1     -13.491 -30.174 -12.816  1.00  0.00     0.402 A 
ATOM      2  O   UNL     1     -13.369 -29.227 -13.742  1.00  0.00    -0.202 OA
ATOM      3  C   UNL     1     -13.645 -27.946 -13.517  1.00  0.00     0.368 A 
ATOM      4  C   UNL     1     -13.488 -27.025 -14.557  1.00  0.00     0.162 A 
ATOM      5  C   UNL     1     -13.775 -25.672 -14.349  1.00  0.00     0.128 A 
ATOM      6  C   UNL     1     -14.220 -25.240 -13.098  1.00  0.00     0.093 A 
ATOM      7  C   UNL     1     -14.385 -26.143 -12.041  1.00  0.00     0.136 A 
ATOM      8  C   UNL     1     -14.094 -27.518 -12.245  1.00  0.00     0.125 A 
ATOM      9  C   UNL     1     -14.217 -28.491 -11.241  1.00  0.00     0.078 A 
ATOM     10  C   UNL     1     -13.906 -29.826 -11.516  1.00  0.00     0.223 A 
ENDROOT
BRANCH   1  11
ATOM     11  C   UNL     1     -13.162 -31.568 -13.190  1.00  0.00     0.091 A 
ATOM     12  C   UNL     1     -14.165 -32.394 -13.721  1.00  0.00     0.068 A 
ATOM     13  C   UNL     1     -13.889 -33.722 -14.064  1.00  0.00     0.162 A 
ATOM     14  C   UNL     1     -11.880 -32.102 -12.975  1.00  0.00     0.068 A 
ATOM     15  C   UNL     1     -12.600 -34.244 -13.866  1.00  0.00     0.200 A 
ATOM     16  C   UNL     1     -11.596 -33.431 -13.315  1.00  0.00     0.162 A 
BRANCH  13  17
ATOM     17  O   UNL     1     -14.911 -34.505 -14.601  1.00  0.00    -0.504 OA
ATOM     18  H   UNL     1     -15.613 -34.949 -14.019  1.00  0.00     0.293 HD
ENDBRANCH  13  17
BRANCH  15  19
ATOM     19  O   UNL     1     -12.333 -35.569 -14.215  1.00  0.00    -0.502 OA
ATOM     20  H   UNL     1     -11.398 -35.959 -14.181  1.00  0.00     0.293 HD
ENDBRANCH  15  19
BRANCH  16  21
ATOM     21  O   UNL     1     -10.319 -33.948 -13.102  1.00  0.00    -0.504 OA
ATOM     22  H   UNL     1     -10.062 -34.390 -12.227  1.00  0.00     0.293 HD
ENDBRANCH  16  21
ENDBRANCH   1  11
BRANCH  10  23
ATOM     23  O   UNL     1     -13.981 -30.784 -10.506  1.00  0.00    -0.500 OA
ATOM     24  H   UNL     1     -14.182 -31.757 -10.708  1.00  0.00     0.294 HD
ENDBRANCH  10  23
BRANCH   5  25
ATOM     25  O   UNL     1     -13.621 -24.749 -15.381  1.00  0.00    -0.507 OA
ATOM     26  H   UNL     1     -13.784 -23.759 -15.236  1.00  0.00     0.293 HD
ENDBRANCH   5  25
BRANCH   7  27
ATOM     27  O   UNL     1     -14.838 -25.632 -10.822  1.00  0.00    -0.507 OA
ATOM     28  H   UNL     1     -15.319 -24.751 -10.716  1.00  0.00     0.293 HD
ENDBRANCH   7  27
TORSDOF 7
ENDMDL
MODEL 2
REMARK VINA RESULT:    -7.314      1.595      7.059
REMARK INTER + INTRA:          -9.399
REMARK INTER:                  -9.272
REMARK INTRA:                  -0.127
REMARK UNBOUND:                -0.375
REMARK SMILES Oc1cc(O)c2cc(O)c(-c3cc(O)c(O)c(O)c3)[o+]c2c1
REMARK SMILES IDX 10 1 20 2 21 3 22 4 2 5 3 6 4 7 6 8 7 9 8 10 11 11 12 12
REMARK SMILES IDX 13 13 19 14 15 15 17 16 14 17 16 19 18 21 9 23 1 25 5 27
REMARK H PARENT 14 18 16 20 18 22 9 24 1 26 5 28
REMARK Flexibility Score: inf
ROOT
ATOM      1  C   UNL     1     -13.699 -29.887 -12.312  1.00  0.00     0.402 A 
ATOM      2  O   UNL     1     -14.389 -30.734 -13.070  1.00  0.00    -0.202 OA
ATOM      3  C   UNL     1     -14.316 -32.055 -12.940  1.00  0.00     0.368 A 
ATOM      4  C   UNL     1     -15.078 -32.865 -13.787  1.00  0.00     0.162 A 
ATOM      5  C   UNL     1     -15.019 -34.257 -13.674  1.00  0.00     0.128 A 
ATOM      6  C   UNL     1     -14.193 -34.841 -12.711  1.00  0.00     0.093 A 
ATOM      7  C   UNL     1     -13.419 -34.052 -11.851  1.00  0.00     0.136 A 
ATOM      8  C   UNL     1     -13.478 -32.638 -11.959  1.00  0.00     0.125 A 
ATOM      9  C   UNL     1     -12.749 -31.769 -11.131  1.00  0.00     0.078 A 
ATOM     10  C   UNL     1     -12.863 -30.385 -11.295  1.00  0.00     0.223 A 
ENDROOT
BRANCH   1  11
ATOM     11  C   UNL     1     -13.858 -28.435 -12.560  1.00  0.00     0.091 A 
ATOM     12  C   UNL     1     -14.326 -27.607 -11.528  1.00  0.00     0.068 A 
ATOM     13  C   UNL     1     -14.505 -26.236 -11.739  1.00  0.00     0.162 A 
ATOM     14  C   UNL     1     -13.603 -27.876 -13.823  1.00  0.00     0.068 A 
ATOM     15  C   UNL     1     -14.229 -25.678 -12.998  1.00  0.00     0.200 A 
ATOM     16  C   UNL     1     -13.781 -26.504 -14.043  1.00  0.00     0.162 A 
BRANCH  13  17
ATOM     17  O   UNL     1     -14.959 -25.445 -10.684  1.00  0.00    -0.504 OA
ATOM     18  H   UNL     1     -14.356 -24.786 -10.205  1.00  0.00     0.293 HD
ENDBRANCH  13  17
BRANCH  15  19
ATOM     19  O   UNL     1     -14.407 -24.308 -13.199  1.00  0.00    -0.502 OA
ATOM     20  H   UNL     1     -13.633 -23.654 -13.179  1.00  0.00     0.293 HD
ENDBRANCH  15  19
BRANCH  16  21
ATOM     21  O   UNL     1     -13.519 -25.959 -15.299  1.00  0.00    -0.504 OA
ATOM     22  H   UNL     1     -13.100 -25.042 -15.405  1.00  0.00     0.293 HD
ENDBRANCH  16  21
ENDBRANCH   1  11
BRANCH  10  23
ATOM     23  O   UNL     1     -12.177 -29.521 -10.442  1.00  0.00    -0.500 OA
ATOM     24  H   UNL     1     -12.382 -28.530 -10.411  1.00  0.00     0.294 HD
ENDBRANCH  10  23
BRANCH   5  25
ATOM     25  O   UNL     1     -15.776 -35.070 -14.515  1.00  0.00    -0.507 OA
ATOM     26  H   UNL     1     -16.200 -34.708 -15.361  1.00  0.00     0.293 HD
ENDBRANCH   5  25
BRANCH   7  27
ATOM     27  O   UNL     1     -12.617 -34.714 -10.917  1.00  0.00    -0.507 OA
ATOM     28  H   UNL     1     -12.922 -34.987  -9.994  1.00  0.00     0.293 HD
ENDBRANCH   7  27
TORSDOF 7
ENDMDL
MODEL 3
REMARK VINA RESULT:    -7.214      1.518      7.071
REMARK INTER + INTRA:          -9.276
REMARK INTER:                  -9.082
REMARK INTRA:                  -0.194
REMARK UNBOUND:                -0.375
REMARK SMILES Oc1cc(O)c2cc(O)c(-c3cc(O)c(O)c(O)c3)[o+]c2c1
REMARK SMILES IDX 10 1 20 2 21 3 22 4 2 5 3 6 4 7 6 8 7 9 8 10 11 11 12 12
REMARK SMILES IDX 13 13 19 14 15 15 17 16 14 17 16 19 18 21 9 23 1 25 5 27
REMARK H PARENT 14 18 16 20 18 22 9 24 1 26 5 28
REMARK Flexibility Score: inf
ROOT
ATOM      1  C   UNL     1     -13.599 -29.945 -12.328  1.00  0.00     0.402 A 
ATOM      2  O   UNL     1     -14.315 -30.813 -13.036  1.00  0.00    -0.202 OA
ATOM      3  C   UNL     1     -14.182 -32.131 -12.926  1.00  0.00     0.368 A 
ATOM      4  C   UNL     1     -14.979 -32.964 -13.716  1.00  0.00     0.162 A 
ATOM      5  C   UNL     1     -14.857 -34.353 -13.623  1.00  0.00     0.128 A 
ATOM      6  C   UNL     1     -13.934 -34.912 -12.735  1.00  0.00     0.093 A 
ATOM      7  C   UNL     1     -13.123 -34.099 -11.933  1.00  0.00     0.136 A 
ATOM      8  C   UNL     1     -13.245 -32.688 -12.023  1.00  0.00     0.125 A 
ATOM      9  C   UNL     1     -12.484 -31.797 -11.248  1.00  0.00     0.078 A 
ATOM     10  C   UNL     1     -12.663 -30.417 -11.388  1.00  0.00     0.223 A 
ENDROOT
BRANCH   1  11
ATOM     11  C   UNL     1     -13.832 -28.499 -12.548  1.00  0.00     0.091 A 
ATOM     12  C   UNL     1     -13.519 -27.932 -13.793  1.00  0.00     0.068 A 
ATOM     13  C   UNL     1     -13.709 -26.565 -14.023  1.00  0.00     0.162 A 
ATOM     14  C   UNL     1     -14.308 -27.669 -11.519  1.00  0.00     0.068 A 
ATOM     15  C   UNL     1     -14.205 -25.743 -12.998  1.00  0.00     0.200 A 
ATOM     16  C   UNL     1     -14.500 -26.299 -11.741  1.00  0.00     0.162 A 
BRANCH  13  17
ATOM     17  O   UNL     1     -13.398 -26.044 -15.278  1.00  0.00    -0.504 OA
ATOM     18  H   UNL     1     -13.628 -25.091 -15.539  1.00  0.00     0.293 HD
ENDBRANCH  13  17
BRANCH  15  19
ATOM     19  O   UNL     1     -14.395 -24.381 -13.237  1.00  0.00    -0.502 OA
ATOM     20  H   UNL     1     -14.673 -23.738 -12.505  1.00  0.00     0.293 HD
ENDBRANCH  15  19
BRANCH  16  21
ATOM     21  O   UNL     1     -14.979 -25.486 -10.714  1.00  0.00    -0.504 OA
ATOM     22  H   UNL     1     -15.059 -24.482 -10.824  1.00  0.00     0.293 HD
ENDBRANCH  16  21
ENDBRANCH   1  11
BRANCH  10  23
ATOM     23  O   UNL     1     -11.944 -29.534 -10.584  1.00  0.00    -0.500 OA
ATOM     24  H   UNL     1     -12.016 -29.553  -9.574  1.00  0.00     0.294 HD
ENDBRANCH  10  23
BRANCH   5  25
ATOM     25  O   UNL     1     -15.649 -35.189 -14.407  1.00  0.00    -0.507 OA
ATOM     26  H   UNL     1     -16.259 -34.819 -15.127  1.00  0.00     0.293 HD
ENDBRANCH   5  25
BRANCH   7  27
ATOM     27  O   UNL     1     -12.223 -34.736 -11.075  1.00  0.00    -0.507 OA
ATOM     28  H   UNL     1     -12.071 -34.475 -10.111  1.00  0.00     0.293 HD
ENDBRANCH   7  27
TORSDOF 7
ENDMDL
MODEL 4
REMARK VINA RESULT:    -7.129      2.272      7.235
REMARK INTER + INTRA:          -9.172
REMARK INTER:                  -9.011
REMARK INTRA:                  -0.161
REMARK UNBOUND:                -0.375
REMARK SMILES Oc1cc(O)c2cc(O)c(-c3cc(O)c(O)c(O)c3)[o+]c2c1
REMARK SMILES IDX 10 1 20 2 21 3 22 4 2 5 3 6 4 7 6 8 7 9 8 10 11 11 12 12
REMARK SMILES IDX 13 13 19 14 15 15 17 16 14 17 16 19 18 21 9 23 1 25 5 27
REMARK H PARENT 14 18 16 20 18 22 9 24 1 26 5 28
REMARK Flexibility Score: inf
ROOT
ATOM      1  C   UNL     1     -13.407 -29.915 -12.025  1.00  0.00     0.402 A 
ATOM      2  O   UNL     1     -12.532 -30.178 -11.059  1.00  0.00    -0.202 OA
ATOM      3  C   UNL     1     -12.241 -31.411 -10.654  1.00  0.00     0.368 A 
ATOM      4  C   UNL     1     -11.309 -31.586  -9.628  1.00  0.00     0.162 A 
ATOM      5  C   UNL     1     -10.986 -32.871  -9.180  1.00  0.00     0.128 A 
ATOM      6  C   UNL     1     -11.599 -33.984  -9.761  1.00  0.00     0.093 A 
ATOM      7  C   UNL     1     -12.537 -33.834 -10.790  1.00  0.00     0.136 A 
ATOM      8  C   UNL     1     -12.866 -32.532 -11.250  1.00  0.00     0.125 A 
ATOM      9  C   UNL     1     -13.783 -32.288 -12.285  1.00  0.00     0.078 A 
ATOM     10  C   UNL     1     -14.053 -30.976 -12.687  1.00  0.00     0.223 A 
ENDROOT
BRANCH   1  11
ATOM     11  C   UNL     1     -13.654 -28.499 -12.381  1.00  0.00     0.091 A 
ATOM     12  C   UNL     1     -14.193 -27.630 -11.419  1.00  0.00     0.068 A 
ATOM     13  C   UNL     1     -14.457 -26.293 -11.732  1.00  0.00     0.162 A 
ATOM     14  C   UNL     1     -13.413 -28.016 -13.678  1.00  0.00     0.068 A 
ATOM     15  C   UNL     1     -14.194 -25.810 -13.024  1.00  0.00     0.200 A 
ATOM     16  C   UNL     1     -13.675 -26.678 -14.000  1.00  0.00     0.162 A 
BRANCH  13  17
ATOM     17  O   UNL     1     -14.980 -25.460 -10.743  1.00  0.00    -0.504 OA
ATOM     18  H   UNL     1     -14.566 -24.561 -10.521  1.00  0.00     0.293 HD
ENDBRANCH  13  17
BRANCH  15  19
ATOM     19  O   UNL     1     -14.457 -24.473 -13.327  1.00  0.00    -0.502 OA
ATOM     20  H   UNL     1     -14.242 -24.072 -14.233  1.00  0.00     0.293 HD
ENDBRANCH  15  19
BRANCH  16  21
ATOM     21  O   UNL     1     -13.426 -26.209 -15.289  1.00  0.00    -0.504 OA
ATOM     22  H   UNL     1     -13.191 -25.239 -15.467  1.00  0.00     0.293 HD
ENDBRANCH  16  21
ENDBRANCH   1  11
BRANCH  10  23
ATOM     23  O   UNL     1     -14.926 -30.735 -13.748  1.00  0.00    -0.500 OA
ATOM     24  H   UNL     1     -15.801 -30.242 -13.616  1.00  0.00     0.294 HD
ENDBRANCH  10  23
BRANCH   5  25
ATOM     25  O   UNL     1     -10.058 -33.053  -8.158  1.00  0.00    -0.507 OA
ATOM     26  H   UNL     1      -9.940 -32.369  -7.420  1.00  0.00     0.293 HD
ENDBRANCH   5  25
BRANCH   7  27
ATOM     27  O   UNL     1     -13.107 -34.997 -11.315  1.00  0.00    -0.507 OA
ATOM     28  H   UNL     1     -13.989 -35.028 -11.805  1.00  0.00     0.293 HD
ENDBRANCH   7  27
TORSDOF 7
ENDMDL
MODEL 5
REMARK VINA RESULT:    -7.100      2.164      7.238
REMARK INTER + INTRA:          -9.135
REMARK INTER:                  -8.946
REMARK INTRA:                  -0.189
REMARK UNBOUND:                -0.375
REMARK SMILES Oc1cc(O)c2cc(O)c(-c3cc(O)c(O)c(O)c3)[o+]c2c1
REMARK SMILES IDX 10 1 20 2 21 3 22 4 2 5 3 6 4 7 6 8 7 9 8 10 11 11 12 12
REMARK SMILES IDX 13 13 19 14 15 15 17 16 14 17 16 19 18 21 9 23 1 25 5 27
REMARK H PARENT 14 18 16 20 18 22 9 24 1 26 5 28
REMARK Flexibility Score: inf
ROOT
ATOM      1  C   UNL     1     -13.485 -30.400 -12.205  1.00  0.00     0.402 A 
ATOM      2  O   UNL     1     -12.602 -30.706 -11.259  1.00  0.00    -0.202 OA
ATOM      3  C   UNL     1     -12.307 -31.955 -10.912  1.00  0.00     0.368 A 
ATOM      4  C   UNL     1     -11.365 -32.176  -9.903  1.00  0.00     0.162 A 
ATOM      5  C   UNL     1     -11.039 -33.479  -9.515  1.00  0.00     0.128 A 
ATOM      6  C   UNL     1     -11.657 -34.565 -10.140  1.00  0.00     0.093 A 
ATOM      7  C   UNL     1     -12.604 -34.370 -11.153  1.00  0.00     0.136 A 
ATOM      8  C   UNL     1     -12.937 -33.049 -11.551  1.00  0.00     0.125 A 
ATOM      9  C   UNL     1     -13.863 -32.760 -12.566  1.00  0.00     0.078 A 
ATOM     10  C   UNL     1     -14.137 -31.431 -12.908  1.00  0.00     0.223 A 
ENDROOT
BRANCH   1  11
ATOM     11  C   UNL     1     -13.735 -28.970 -12.495  1.00  0.00     0.091 A 
ATOM     12  C   UNL     1     -13.403 -28.454 -13.757  1.00  0.00     0.068 A 
ATOM     13  C   UNL     1     -13.609 -27.103 -14.053  1.00  0.00     0.162 A 
ATOM     14  C   UNL     1     -14.247 -28.102 -11.515  1.00  0.00     0.068 A 
ATOM     15  C   UNL     1     -14.140 -26.244 -13.077  1.00  0.00     0.200 A 
ATOM     16  C   UNL     1     -14.455 -26.747 -11.803  1.00  0.00     0.162 A 
BRANCH  13  17
ATOM     17  O   UNL     1     -13.278 -26.633 -15.324  1.00  0.00    -0.504 OA
ATOM     18  H   UNL     1     -12.383 -26.201 -15.523  1.00  0.00     0.293 HD
ENDBRANCH  13  17
BRANCH  15  19
ATOM     19  O   UNL     1     -14.345 -24.897 -13.382  1.00  0.00    -0.502 OA
ATOM     20  H   UNL     1     -14.649 -24.226 -12.686  1.00  0.00     0.293 HD
ENDBRANCH  15  19
BRANCH  16  21
ATOM     21  O   UNL     1     -14.969 -25.897 -10.825  1.00  0.00    -0.504 OA
ATOM     22  H   UNL     1     -15.850 -26.088 -10.362  1.00  0.00     0.293 HD
ENDBRANCH  16  21
ENDBRANCH   1  11
BRANCH  10  23
ATOM     23  O   UNL     1     -15.019 -31.144 -13.948  1.00  0.00    -0.500 OA
ATOM     24  H   UNL     1     -15.089 -30.215 -14.347  1.00  0.00     0.294 HD
ENDBRANCH  10  23
BRANCH   5  25
ATOM     25  O   UNL     1     -10.101 -33.706  -8.510  1.00  0.00    -0.507 OA
ATOM     26  H   UNL     1     -10.075 -33.139  -7.671  1.00  0.00     0.293 HD
ENDBRANCH   5  25
BRANCH   7  27
ATOM     27  O   UNL     1     -13.179 -35.509 -11.724  1.00  0.00    -0.507 OA
ATOM     28  H   UNL     1     -14.145 -35.579 -12.008  1.00  0.00     0.293 HD
ENDBRANCH   7  27
TORSDOF 7
ENDMDL
MODEL 6
REMARK VINA RESULT:    -6.638      2.282      6.845
REMARK INTER + INTRA:          -8.565
REMARK INTER:                  -8.933
REMARK INTRA:                   0.367
REMARK UNBOUND:                -0.375
REMARK SMILES Oc1cc(O)c2cc(O)c(-c3cc(O)c(O)c(O)c3)[o+]c2c1
REMARK SMILES IDX 10 1 20 2 21 3 22 4 2 5 3 6 4 7 6 8 7 9 8 10 11 11 12 12
REMARK SMILES IDX 13 13 19 14 15 15 17 16 14 17 16 19 18 21 9 23 1 25 5 27
REMARK H PARENT 14 18 16 20 18 22 9 24 1 26 5 28
REMARK Flexibility Score: inf
ROOT
ATOM      1  C   UNL     1     -13.172 -30.945 -12.348  1.00  0.00     0.402 A 
ATOM      2  O   UNL     1     -14.088 -31.569 -13.083  1.00  0.00    -0.202 OA
ATOM      3  C   UNL     1     -14.399 -32.852 -12.927  1.00  0.00     0.368 A 
ATOM      4  C   UNL     1     -15.375 -33.420 -13.752  1.00  0.00     0.162 A 
ATOM      5  C   UNL     1     -15.719 -34.768 -13.612  1.00  0.00     0.128 A 
ATOM      6  C   UNL     1     -15.084 -35.550 -12.645  1.00  0.00     0.093 A 
ATOM      7  C   UNL     1     -14.103 -35.005 -11.807  1.00  0.00     0.136 A 
ATOM      8  C   UNL     1     -13.752 -33.637 -11.943  1.00  0.00     0.125 A 
ATOM      9  C   UNL     1     -12.791 -33.003 -11.139  1.00  0.00     0.078 A 
ATOM     10  C   UNL     1     -12.501 -31.648 -11.329  1.00  0.00     0.223 A 
ENDROOT
BRANCH   1  11
ATOM     11  C   UNL     1     -12.907 -29.515 -12.623  1.00  0.00     0.091 A 
ATOM     12  C   UNL     1     -13.379 -28.943 -13.815  1.00  0.00     0.068 A 
ATOM     13  C   UNL     1     -13.126 -27.600 -14.111  1.00  0.00     0.162 A 
ATOM     14  C   UNL     1     -12.145 -28.728 -11.743  1.00  0.00     0.068 A 
ATOM     15  C   UNL     1     -12.381 -26.812 -13.218  1.00  0.00     0.200 A 
ATOM     16  C   UNL     1     -11.886 -27.382 -12.033  1.00  0.00     0.162 A 
BRANCH  13  17
ATOM     17  O   UNL     1     -13.625 -27.066 -15.300  1.00  0.00    -0.504 OA
ATOM     18  H   UNL     1     -13.439 -26.111 -15.582  1.00  0.00     0.293 HD
ENDBRANCH  13  17
BRANCH  15  19
ATOM     19  O   UNL     1     -12.137 -25.472 -13.521  1.00  0.00    -0.502 OA
ATOM     20  H   UNL     1     -11.903 -25.164 -14.458  1.00  0.00     0.293 HD
ENDBRANCH  15  19
BRANCH  16  21
ATOM     21  O   UNL     1     -11.133 -26.610 -11.149  1.00  0.00    -0.504 OA
ATOM     22  H   UNL     1     -10.127 -26.712 -11.078  1.00  0.00     0.293 HD
ENDBRANCH  16  21
ENDBRANCH   1  11
BRANCH  10  23
ATOM     23  O   UNL     1     -11.583 -31.006 -10.499  1.00  0.00    -0.500 OA
ATOM     24  H   UNL     1     -11.849 -30.642  -9.592  1.00  0.00     0.294 HD
ENDBRANCH  10  23
BRANCH   5  25
ATOM     25  O   UNL     1     -16.691 -35.340 -14.430  1.00  0.00    -0.507 OA
ATOM     26  H   UNL     1     -16.528 -35.495 -15.418  1.00  0.00     0.293 HD
ENDBRANCH   5  25
BRANCH   7  27
ATOM     27  O   UNL     1     -13.513 -35.856 -10.868  1.00  0.00    -0.507 OA
ATOM     28  H   UNL     1     -13.646 -35.784  -9.870  1.00  0.00     0.293 HD
ENDBRANCH   7  27
TORSDOF 7
ENDMDL
MODEL 7
REMARK VINA RESULT:    -6.458      1.718      2.523
REMARK INTER + INTRA:          -8.344
REMARK INTER:                  -8.078
REMARK INTRA:                  -0.266
REMARK UNBOUND:                -0.375
REMARK SMILES Oc1cc(O)c2cc(O)c(-c3cc(O)c(O)c(O)c3)[o+]c2c1
REMARK SMILES IDX 10 1 20 2 21 3 22 4 2 5 3 6 4 7 6 8 7 9 8 10 11 11 12 12
REMARK SMILES IDX 13 13 19 14 15 15 17 16 14 17 16 19 18 21 9 23 1 25 5 27
REMARK H PARENT 14 18 16 20 18 22 9 24 1 26 5 28
REMARK Flexibility Score: inf
ROOT
ATOM      1  C   UNL     1     -13.052 -30.892 -13.007  1.00  0.00     0.402 A 
ATOM      2  O   UNL     1     -13.350 -29.868 -13.802  1.00  0.00    -0.202 OA
ATOM      3  C   UNL     1     -12.968 -28.619 -13.557  1.00  0.00     0.368 A 
ATOM      4  C   UNL     1     -13.334 -27.609 -14.451  1.00  0.00     0.162 A 
ATOM      5  C   UNL     1     -12.949 -26.285 -14.215  1.00  0.00     0.128 A 
ATOM      6  C   UNL     1     -12.196 -25.972 -13.081  1.00  0.00     0.093 A 
ATOM      7  C   UNL     1     -11.818 -26.966 -12.170  1.00  0.00     0.136 A 
ATOM      8  C   UNL     1     -12.204 -28.311 -12.406  1.00  0.00     0.125 A 
ATOM      9  C   UNL     1     -11.859 -29.374 -11.555  1.00  0.00     0.078 A 
ATOM     10  C   UNL     1     -12.272 -30.675 -11.855  1.00  0.00     0.223 A 
ENDROOT
BRANCH   1  11
ATOM     11  C   UNL     1     -13.543 -32.238 -13.383  1.00  0.00     0.091 A 
ATOM     12  C   UNL     1     -12.632 -33.199 -13.848  1.00  0.00     0.068 A 
ATOM     13  C   UNL     1     -13.070 -34.472 -14.229  1.00  0.00     0.162 A 
ATOM     14  C   UNL     1     -14.910 -32.558 -13.338  1.00  0.00     0.068 A 
ATOM     15  C   UNL     1     -14.436 -34.793 -14.162  1.00  0.00     0.200 A 
ATOM     16  C   UNL     1     -15.358 -33.830 -13.719  1.00  0.00     0.162 A 
BRANCH  13  17
ATOM     17  O   UNL     1     -12.131 -35.403 -14.672  1.00  0.00    -0.504 OA
ATOM     18  H   UNL     1     -12.361 -36.119 -15.352  1.00  0.00     0.293 HD
ENDBRANCH  13  17
BRANCH  15  19
ATOM     19  O   UNL     1     -14.863 -36.067 -14.542  1.00  0.00    -0.502 OA
ATOM     20  H   UNL     1     -14.693 -36.439 -15.469  1.00  0.00     0.293 HD
ENDBRANCH  15  19
BRANCH  16  21
ATOM     21  O   UNL     1     -16.716 -34.137 -13.665  1.00  0.00    -0.504 OA
ATOM     22  H   UNL     1     -17.419 -33.422 -13.518  1.00  0.00     0.293 HD
ENDBRANCH  16  21
ENDBRANCH   1  11
BRANCH  10  23
ATOM     23  O   UNL     1     -11.888 -31.737 -11.038  1.00  0.00    -0.500 OA
ATOM     24  H   UNL     1     -11.801 -31.633 -10.034  1.00  0.00     0.294 HD
ENDBRANCH  10  23
BRANCH   5  25
ATOM     25  O   UNL     1     -13.310 -25.274 -15.103  1.00  0.00    -0.507 OA
ATOM     26  H   UNL     1     -14.239 -25.226 -15.503  1.00  0.00     0.293 HD
ENDBRANCH   5  25
BRANCH   7  27
ATOM     27  O   UNL     1     -11.069 -26.569 -11.059  1.00  0.00    -0.507 OA
ATOM     28  H   UNL     1     -11.006 -27.091 -10.198  1.00  0.00     0.293 HD
ENDBRANCH   7  27
TORSDOF 7
ENDMDL
MODEL 8
REMARK VINA RESULT:    -5.727      2.166      7.538
REMARK INTER + INTRA:          -7.441
REMARK INTER:                  -7.178
REMARK INTRA:                  -0.263
REMARK UNBOUND:                -0.375
REMARK SMILES Oc1cc(O)c2cc(O)c(-c3cc(O)c(O)c(O)c3)[o+]c2c1
REMARK SMILES IDX 10 1 20 2 21 3 22 4 2 5 3 6 4 7 6 8 7 9 8 10 11 11 12 12
REMARK SMILES IDX 13 13 19 14 15 15 17 16 14 17 16 19 18 21 9 23 1 25 5 27
REMARK H PARENT 14 18 16 20 18 22 9 24 1 26 5 28
REMARK Flexibility Score: inf
ROOT
ATOM      1  C   UNL     1     -13.466 -32.324 -13.349  1.00  0.00     0.402 A 
ATOM      2  O   UNL     1     -14.673 -32.843 -13.143  1.00  0.00    -0.202 OA
ATOM      3  C   UNL     1     -15.010 -34.076 -13.508  1.00  0.00     0.368 A 
ATOM      4  C   UNL     1     -16.306 -34.531 -13.250  1.00  0.00     0.162 A 
ATOM      5  C   UNL     1     -16.689 -35.821 -13.627  1.00  0.00     0.128 A 
ATOM      6  C   UNL     1     -15.772 -36.659 -14.265  1.00  0.00     0.093 A 
ATOM      7  C   UNL     1     -14.468 -36.227 -14.536  1.00  0.00     0.136 A 
ATOM      8  C   UNL     1     -14.073 -34.918 -14.153  1.00  0.00     0.125 A 
ATOM      9  C   UNL     1     -12.784 -34.406 -14.371  1.00  0.00     0.078 A 
ATOM     10  C   UNL     1     -12.468 -33.107 -13.961  1.00  0.00     0.223 A 
ENDROOT
BRANCH   1  11
ATOM     11  C   UNL     1     -13.214 -30.934 -12.905  1.00  0.00     0.091 A 
ATOM     12  C   UNL     1     -12.383 -30.705 -11.797  1.00  0.00     0.068 A 
ATOM     13  C   UNL     1     -12.143 -29.405 -11.341  1.00  0.00     0.162 A 
ATOM     14  C   UNL     1     -13.833 -29.841 -13.533  1.00  0.00     0.068 A 
ATOM     15  C   UNL     1     -12.748 -28.313 -11.986  1.00  0.00     0.200 A 
ATOM     16  C   UNL     1     -13.599 -28.535 -13.082  1.00  0.00     0.162 A 
BRANCH  13  17
ATOM     17  O   UNL     1     -11.300 -29.219 -10.246  1.00  0.00    -0.504 OA
ATOM     18  H   UNL     1     -11.585 -29.450  -9.301  1.00  0.00     0.293 HD
ENDBRANCH  13  17
BRANCH  15  19
ATOM     19  O   UNL     1     -12.500 -27.018 -11.527  1.00  0.00    -0.502 OA
ATOM     20  H   UNL     1     -12.070 -26.838 -10.627  1.00  0.00     0.293 HD
ENDBRANCH  15  19
BRANCH  16  21
ATOM     21  O   UNL     1     -14.214 -27.457 -13.717  1.00  0.00    -0.504 OA
ATOM     22  H   UNL     1     -14.409 -27.465 -14.712  1.00  0.00     0.293 HD
ENDBRANCH  16  21
ENDBRANCH   1  11
BRANCH  10  23
ATOM     23  O   UNL     1     -11.175 -32.615 -14.133  1.00  0.00    -0.500 OA
ATOM     24  H   UNL     1     -10.924 -32.041 -14.929  1.00  0.00     0.294 HD
ENDBRANCH  10  23
BRANCH   5  25
ATOM     25  O   UNL     1     -17.979 -36.281 -13.372  1.00  0.00    -0.507 OA
ATOM     26  H   UNL     1     -18.396 -37.022 -13.923  1.00  0.00     0.293 HD
ENDBRANCH   5  25
BRANCH   7  27
ATOM     27  O   UNL     1     -13.612 -37.125 -15.181  1.00  0.00    -0.507 OA
ATOM     28  H   UNL     1     -12.606 -37.055 -15.178  1.00  0.00     0.293 HD
ENDBRANCH   7  27
TORSDOF 7
ENDMDL
