MODEL 1
REMARK VINA RESULT:    -3.620      0.000      0.000
REMARK INTER + INTRA:          -5.800
REMARK INTER:                  -5.102
REMARK INTRA:                  -0.698
REMARK UNBOUND:                -0.698
REMARK SMILES CCCCCCCCC(=O)[O-]
REMARK SMILES IDX 6 1 7 2 8 3 9 4 10 5 11 6 5 7 4 8 3 9 2 10 1 11
REMARK H PARENT
REMARK Flexibility Score: inf
ROOT
ATOM      1  C   UNL     1     155.833 154.873 163.528  1.00  0.00     0.000 C 
ENDROOT
BRANCH   1   2
ATOM      2  C   UNL     1     156.142 154.475 164.977  1.00  0.00     0.006 C 
BRANCH   2   3
ATOM      3  C   UNL     1     155.947 155.661 165.926  1.00  0.00     0.053 C 
BRANCH   3   4
ATOM      4  C   UNL     1     155.083 155.270 167.083  1.00  0.00     0.041 C 
ATOM      5  O   UNL     1     153.935 155.768 167.214  1.00  0.00    -0.550 OA
ATOM      6  O   UNL     1     155.566 154.391 168.045  1.00  0.00    -0.550 OA
ENDBRANCH   3   4
ENDBRANCH   2   3
ENDBRANCH   1   2
BRANCH   1   7
ATOM      7  C   UNL     1     154.438 155.499 163.415  1.00  0.00     0.000 C 
BRANCH   7   8
ATOM      8  C   UNL     1     154.415 156.606 162.353  1.00  0.00    -0.000 C 
BRANCH   8   9
ATOM      9  C   UNL     1     153.871 157.917 162.937  1.00  0.00    -0.000 C 
BRANCH   9  10
ATOM     10  C   UNL     1     153.398 157.766 164.391  1.00  0.00    -0.003 C 
ATOM     11  C   UNL     1     153.909 158.885 165.299  1.00  0.00     0.004 C 
ENDBRANCH   9  10
ENDBRANCH   8   9
ENDBRANCH   7   8
ENDBRANCH   1   7
TORSDOF 7
ENDMDL
MODEL 2
REMARK VINA RESULT:    -3.334      1.725      2.926
REMARK INTER + INTRA:          -5.396
REMARK INTER:                  -4.911
REMARK INTRA:                  -0.485
REMARK UNBOUND:                -0.698
REMARK SMILES CCCCCCCCC(=O)[O-]
REMARK SMILES IDX 6 1 7 2 8 3 9 4 10 5 11 6 5 7 4 8 3 9 2 10 1 11
REMARK H PARENT
REMARK Flexibility Score: inf
ROOT
ATOM      1  C   UNL     1     156.049 154.750 166.635  1.00  0.00     0.000 C 
ENDROOT
BRANCH   1   2
ATOM      2  C   UNL     1     154.711 154.246 167.189  1.00  0.00     0.006 C 
BRANCH   2   3
ATOM      3  C   UNL     1     154.822 153.924 168.682  1.00  0.00     0.053 C 
BRANCH   3   4
ATOM      4  C   UNL     1     154.018 154.897 169.488  1.00  0.00     0.041 C 
ATOM      5  O   UNL     1     152.969 155.401 169.009  1.00  0.00    -0.550 OA
ATOM      6  O   UNL     1     154.456 155.283 170.748  1.00  0.00    -0.550 OA
ENDBRANCH   3   4
ENDBRANCH   2   3
ENDBRANCH   1   2
BRANCH   1   7
ATOM      7  C   UNL     1     155.889 156.122 165.971  1.00  0.00     0.000 C 
BRANCH   7   8
ATOM      8  C   UNL     1     154.419 156.559 165.956  1.00  0.00    -0.000 C 
BRANCH   8   9
ATOM      9  C   UNL     1     154.030 157.137 164.587  1.00  0.00    -0.000 C 
BRANCH   9  10
ATOM     10  C   UNL     1     154.428 156.218 163.422  1.00  0.00    -0.003 C 
ATOM     11  C   UNL     1     153.866 156.688 162.080  1.00  0.00     0.004 C 
ENDBRANCH   9  10
ENDBRANCH   8   9
ENDBRANCH   7   8
ENDBRANCH   1   7
TORSDOF 7
ENDMDL
MODEL 3
REMARK VINA RESULT:    -3.302      1.942      3.023
REMARK INTER + INTRA:          -5.351
REMARK INTER:                  -4.785
REMARK INTRA:                  -0.567
REMARK UNBOUND:                -0.698
REMARK SMILES CCCCCCCCC(=O)[O-]
REMARK SMILES IDX 6 1 7 2 8 3 9 4 10 5 11 6 5 7 4 8 3 9 2 10 1 11
REMARK H PARENT
REMARK Flexibility Score: inf
ROOT
ATOM      1  C   UNL     1     155.555 156.139 165.935  1.00  0.00     0.000 C 
ENDROOT
BRANCH   1   2
ATOM      2  C   UNL     1     155.755 155.173 164.760  1.00  0.00     0.006 C 
BRANCH   2   3
ATOM      3  C   UNL     1     156.625 153.982 165.170  1.00  0.00     0.053 C 
BRANCH   3   4
ATOM      4  C   UNL     1     155.849 152.707 165.068  1.00  0.00     0.041 C 
ATOM      5  O   UNL     1     156.320 151.728 164.432  1.00  0.00    -0.550 OA
ATOM      6  O   UNL     1     154.583 152.617 165.633  1.00  0.00    -0.550 OA
ENDBRANCH   3   4
ENDBRANCH   2   3
ENDBRANCH   1   2
BRANCH   1   7
ATOM      7  C   UNL     1     154.126 156.051 166.483  1.00  0.00     0.000 C 
BRANCH   7   8
ATOM      8  C   UNL     1     153.202 157.050 165.777  1.00  0.00    -0.000 C 
BRANCH   8   9
ATOM      9  C   UNL     1     153.977 158.297 165.331  1.00  0.00    -0.000 C 
BRANCH   9  10
ATOM     10  C   UNL     1     153.535 158.807 163.951  1.00  0.00    -0.003 C 
ATOM     11  C   UNL     1     153.947 157.870 162.815  1.00  0.00     0.004 C 
ENDBRANCH   9  10
ENDBRANCH   8   9
ENDBRANCH   7   8
ENDBRANCH   1   7
TORSDOF 7
ENDMDL
MODEL 4
REMARK VINA RESULT:    -3.295      2.702      4.788
REMARK INTER + INTRA:          -5.341
REMARK INTER:                  -4.791
REMARK INTRA:                  -0.550
REMARK UNBOUND:                -0.698
REMARK SMILES CCCCCCCCC(=O)[O-]
REMARK SMILES IDX 6 1 7 2 8 3 9 4 10 5 11 6 5 7 4 8 3 9 2 10 1 11
REMARK H PARENT
REMARK Flexibility Score: inf
ROOT
ATOM      1  C   UNL     1     156.029 155.837 166.376  1.00  0.00     0.000 C 
ENDROOT
BRANCH   1   2
ATOM      2  C   UNL     1     154.969 156.132 165.307  1.00  0.00     0.006 C 
BRANCH   2   3
ATOM      3  C   UNL     1     153.892 157.077 165.847  1.00  0.00     0.053 C 
BRANCH   3   4
ATOM      4  C   UNL     1     153.819 158.318 165.013  1.00  0.00     0.041 C 
ATOM      5  O   UNL     1     153.861 159.451 165.558  1.00  0.00    -0.550 OA
ATOM      6  O   UNL     1     153.653 158.220 163.637  1.00  0.00    -0.550 OA
ENDBRANCH   3   4
ENDBRANCH   2   3
ENDBRANCH   1   2
BRANCH   1   7
ATOM      7  C   UNL     1     156.198 154.328 166.583  1.00  0.00     0.000 C 
BRANCH   7   8
ATOM      8  C   UNL     1     154.840 153.641 166.770  1.00  0.00    -0.000 C 
BRANCH   8   9
ATOM      9  C   UNL     1     154.562 153.367 168.255  1.00  0.00    -0.000 C 
BRANCH   9  10
ATOM     10  C   UNL     1     153.716 154.469 168.911  1.00  0.00    -0.003 C 
ATOM     11  C   UNL     1     154.328 154.987 170.214  1.00  0.00     0.004 C 
ENDBRANCH   9  10
ENDBRANCH   8   9
ENDBRANCH   7   8
ENDBRANCH   1   7
TORSDOF 7
ENDMDL
MODEL 5
REMARK VINA RESULT:    -3.287      1.550      2.942
REMARK INTER + INTRA:          -5.330
REMARK INTER:                  -4.720
REMARK INTRA:                  -0.610
REMARK UNBOUND:                -0.698
REMARK SMILES CCCCCCCCC(=O)[O-]
REMARK SMILES IDX 6 1 7 2 8 3 9 4 10 5 11 6 5 7 4 8 3 9 2 10 1 11
REMARK H PARENT
REMARK Flexibility Score: inf
ROOT
ATOM      1  C   UNL     1     156.047 155.764 166.245  1.00  0.00     0.000 C 
ENDROOT
BRANCH   1   2
ATOM      2  C   UNL     1     154.795 155.434 167.067  1.00  0.00     0.006 C 
BRANCH   2   3
ATOM      3  C   UNL     1     155.119 154.438 168.185  1.00  0.00     0.053 C 
BRANCH   3   4
ATOM      4  C   UNL     1     154.213 153.250 168.106  1.00  0.00     0.041 C 
ATOM      5  O   UNL     1     154.333 152.305 168.929  1.00  0.00    -0.550 OA
ATOM      6  O   UNL     1     153.267 153.164 167.092  1.00  0.00    -0.550 OA
ENDBRANCH   3   4
ENDBRANCH   2   3
ENDBRANCH   1   2
BRANCH   1   7
ATOM      7  C   UNL     1     156.536 154.535 165.470  1.00  0.00     0.000 C 
BRANCH   7   8
ATOM      8  C   UNL     1     155.504 154.095 164.424  1.00  0.00    -0.000 C 
BRANCH   8   9
ATOM      9  C   UNL     1     155.332 155.166 163.337  1.00  0.00    -0.000 C 
BRANCH   9  10
ATOM     10  C   UNL     1     153.917 155.764 163.314  1.00  0.00    -0.003 C 
ATOM     11  C   UNL     1     153.919 157.280 163.118  1.00  0.00     0.004 C 
ENDBRANCH   9  10
ENDBRANCH   8   9
ENDBRANCH   7   8
ENDBRANCH   1   7
TORSDOF 7
ENDMDL
MODEL 6
REMARK VINA RESULT:    -3.278      2.340      3.449
REMARK INTER + INTRA:          -5.318
REMARK INTER:                  -4.703
REMARK INTRA:                  -0.615
REMARK UNBOUND:                -0.698
REMARK SMILES CCCCCCCCC(=O)[O-]
REMARK SMILES IDX 6 1 7 2 8 3 9 4 10 5 11 6 5 7 4 8 3 9 2 10 1 11
REMARK H PARENT
REMARK Flexibility Score: inf
ROOT
ATOM      1  C   UNL     1     155.669 155.952 165.638  1.00  0.00     0.000 C 
ENDROOT
BRANCH   1   2
ATOM      2  C   UNL     1     155.463 154.541 165.073  1.00  0.00     0.006 C 
BRANCH   2   3
ATOM      3  C   UNL     1     156.168 154.383 163.722  1.00  0.00     0.053 C 
BRANCH   3   4
ATOM      4  C   UNL     1     157.570 153.895 163.917  1.00  0.00     0.041 C 
ATOM      5  O   UNL     1     157.857 153.176 164.910  1.00  0.00    -0.550 OA
ATOM      6  O   UNL     1     158.568 154.276 163.030  1.00  0.00    -0.550 OA
ENDBRANCH   3   4
ENDBRANCH   2   3
ENDBRANCH   1   2
BRANCH   1   7
ATOM      7  C   UNL     1     154.341 156.556 166.108  1.00  0.00     0.000 C 
BRANCH   7   8
ATOM      8  C   UNL     1     154.039 157.865 165.369  1.00  0.00    -0.000 C 
BRANCH   8   9
ATOM      9  C   UNL     1     153.198 157.606 164.111  1.00  0.00    -0.000 C 
BRANCH   9  10
ATOM     10  C   UNL     1     153.830 158.201 162.844  1.00  0.00    -0.003 C 
ATOM     11  C   UNL     1     154.456 157.138 161.940  1.00  0.00     0.004 C 
ENDBRANCH   9  10
ENDBRANCH   8   9
ENDBRANCH   7   8
ENDBRANCH   1   7
TORSDOF 7
ENDMDL
MODEL 7
REMARK VINA RESULT:    -3.207      1.389      2.394
REMARK INTER + INTRA:          -5.217
REMARK INTER:                  -4.808
REMARK INTRA:                  -0.409
REMARK UNBOUND:                -0.698
REMARK SMILES CCCCCCCCC(=O)[O-]
REMARK SMILES IDX 6 1 7 2 8 3 9 4 10 5 11 6 5 7 4 8 3 9 2 10 1 11
REMARK H PARENT
REMARK Flexibility Score: inf
ROOT
ATOM      1  C   UNL     1     153.765 155.856 165.822  1.00  0.00     0.000 C 
ENDROOT
BRANCH   1   2
ATOM      2  C   UNL     1     155.292 155.828 165.683  1.00  0.00     0.006 C 
BRANCH   2   3
ATOM      3  C   UNL     1     155.954 155.382 166.990  1.00  0.00     0.053 C 
BRANCH   3   4
ATOM      4  C   UNL     1     155.039 154.481 167.759  1.00  0.00     0.041 C 
ATOM      5  O   UNL     1     154.481 154.893 168.810  1.00  0.00    -0.550 OA
ATOM      6  O   UNL     1     154.842 153.171 167.342  1.00  0.00    -0.550 OA
ENDBRANCH   3   4
ENDBRANCH   2   3
ENDBRANCH   1   2
BRANCH   1   7
ATOM      7  C   UNL     1     153.256 157.288 166.023  1.00  0.00     0.000 C 
BRANCH   7   8
ATOM      8  C   UNL     1     153.979 158.267 165.089  1.00  0.00    -0.000 C 
BRANCH   8   9
ATOM      9  C   UNL     1     153.156 158.524 163.818  1.00  0.00    -0.000 C 
BRANCH   9  10
ATOM     10  C   UNL     1     153.991 158.389 162.536  1.00  0.00    -0.003 C 
ATOM     11  C   UNL     1     154.372 156.940 162.228  1.00  0.00     0.004 C 
ENDBRANCH   9  10
ENDBRANCH   8   9
ENDBRANCH   7   8
ENDBRANCH   1   7
TORSDOF 7
ENDMDL
MODEL 8
REMARK VINA RESULT:    -3.203      2.756      5.123
REMARK INTER + INTRA:          -5.212
REMARK INTER:                  -4.815
REMARK INTRA:                  -0.397
REMARK UNBOUND:                -0.698
REMARK SMILES CCCCCCCCC(=O)[O-]
REMARK SMILES IDX 6 1 7 2 8 3 9 4 10 5 11 6 5 7 4 8 3 9 2 10 1 11
REMARK H PARENT
REMARK Flexibility Score: inf
ROOT
ATOM      1  C   UNL     1     154.029 156.870 165.865  1.00  0.00     0.000 C 
ENDROOT
BRANCH   1   2
ATOM      2  C   UNL     1     153.913 158.243 165.192  1.00  0.00     0.006 C 
BRANCH   2   3
ATOM      3  C   UNL     1     152.990 158.180 163.971  1.00  0.00     0.053 C 
BRANCH   3   4
ATOM      4  C   UNL     1     153.772 157.836 162.742  1.00  0.00     0.041 C 
ATOM      5  O   UNL     1     153.897 156.635 162.387  1.00  0.00    -0.550 OA
ATOM      6  O   UNL     1     154.403 158.839 162.017  1.00  0.00    -0.550 OA
ENDBRANCH   3   4
ENDBRANCH   2   3
ENDBRANCH   1   2
BRANCH   1   7
ATOM      7  C   UNL     1     155.489 156.404 165.919  1.00  0.00     0.000 C 
BRANCH   7   8
ATOM      8  C   UNL     1     155.577 154.878 166.036  1.00  0.00    -0.000 C 
BRANCH   8   9
ATOM      9  C   UNL     1     156.017 154.459 167.446  1.00  0.00    -0.000 C 
BRANCH   9  10
ATOM     10  C   UNL     1     154.864 153.874 168.276  1.00  0.00    -0.003 C 
ATOM     11  C   UNL     1     154.420 154.803 169.407  1.00  0.00     0.004 C 
ENDBRANCH   9  10
ENDBRANCH   8   9
ENDBRANCH   7   8
ENDBRANCH   1   7
TORSDOF 7
ENDMDL
MODEL 9
REMARK VINA RESULT:    -3.169      2.233      3.949
REMARK INTER + INTRA:          -5.164
REMARK INTER:                  -4.512
REMARK INTRA:                  -0.652
REMARK UNBOUND:                -0.698
REMARK SMILES CCCCCCCCC(=O)[O-]
REMARK SMILES IDX 6 1 7 2 8 3 9 4 10 5 11 6 5 7 4 8 3 9 2 10 1 11
REMARK H PARENT
REMARK Flexibility Score: inf
ROOT
ATOM      1  C   UNL     1     155.998 155.976 166.047  1.00  0.00     0.000 C 
ENDROOT
BRANCH   1   2
ATOM      2  C   UNL     1     156.198 154.747 166.943  1.00  0.00     0.006 C 
BRANCH   2   3
ATOM      3  C   UNL     1     155.190 154.739 168.097  1.00  0.00     0.053 C 
BRANCH   3   4
ATOM      4  C   UNL     1     154.296 153.543 168.002  1.00  0.00     0.041 C 
ATOM      5  O   UNL     1     154.429 152.587 168.809  1.00  0.00    -0.550 OA
ATOM      6  O   UNL     1     153.348 153.463 166.989  1.00  0.00    -0.550 OA
ENDBRANCH   3   4
ENDBRANCH   2   3
ENDBRANCH   1   2
BRANCH   1   7
ATOM      7  C   UNL     1     155.141 155.631 164.824  1.00  0.00     0.000 C 
BRANCH   7   8
ATOM      8  C   UNL     1     155.486 154.238 164.283  1.00  0.00    -0.000 C 
BRANCH   8   9
ATOM      9  C   UNL     1     156.636 154.311 163.268  1.00  0.00    -0.000 C 
BRANCH   9  10
ATOM     10  C   UNL     1     157.539 153.069 163.307  1.00  0.00    -0.003 C 
ATOM     11  C   UNL     1     158.491 153.067 164.504  1.00  0.00     0.004 C 
ENDBRANCH   9  10
ENDBRANCH   8   9
ENDBRANCH   7   8
ENDBRANCH   1   7
TORSDOF 7
ENDMDL
