MODEL 1
REMARK VINA RESULT:    -3.697      0.000      0.000
REMARK INTER + INTRA:          -4.219
REMARK INTER:                  -4.021
REMARK INTRA:                  -0.197
REMARK UNBOUND:                -0.197
REMARK SMILES Cc1ccc(C(C)C)c(O)c1
REMARK SMILES IDX 1 1 2 2 11 3 9 4 5 5 4 6 3 7 10 8 6 10 7 11 8 12
REMARK H PARENT 10 9
REMARK Flexibility Score: inf
ROOT
ATOM      1  C   UNL     1    -100.979  -4.351 -64.863  1.00  0.00     0.044 C 
ATOM      2  C   UNL     1    -100.654  -5.012 -66.168  1.00  0.00    -0.047 A 
ATOM      3  C   UNL     1     -99.820  -6.138 -66.203  1.00  0.00     0.049 A 
ATOM      4  C   UNL     1     -99.541  -6.785 -67.416  1.00  0.00     0.119 A 
ATOM      5  C   UNL     1    -100.110  -6.310 -68.617  1.00  0.00    -0.004 A 
ATOM      6  C   UNL     1    -100.963  -5.190 -68.569  1.00  0.00     0.008 A 
ATOM      7  C   UNL     1    -101.236  -4.552 -67.356  1.00  0.00     0.004 A 
ENDROOT
BRANCH   4   8
ATOM      8  O   UNL     1     -98.700  -7.898 -67.421  1.00  0.00    -0.508 OA
ATOM      9  H   UNL     1     -98.515  -8.422 -68.269  1.00  0.00     0.293 HD
ENDBRANCH   4   8
BRANCH   5  10
ATOM     10  C   UNL     1     -99.823  -6.995 -69.946  1.00  0.00     0.017 C 
ATOM     11  C   UNL     1     -99.756  -5.977 -71.090  1.00  0.00     0.012 C 
ATOM     12  C   UNL     1    -100.859  -8.086 -70.239  1.00  0.00     0.012 C 
ENDBRANCH   5  10
TORSDOF 2
ENDMDL
MODEL 2
REMARK VINA RESULT:    -3.687     14.849     16.308
REMARK INTER + INTRA:          -4.208
REMARK INTER:                  -4.011
REMARK INTRA:                  -0.197
REMARK UNBOUND:                -0.197
REMARK SMILES Cc1ccc(C(C)C)c(O)c1
REMARK SMILES IDX 1 1 2 2 11 3 9 4 5 5 4 6 3 7 10 8 6 10 7 11 8 12
REMARK H PARENT 10 9
REMARK Flexibility Score: inf
ROOT
ATOM      1  C   UNL     1     -91.522 -22.509 -63.995  1.00  0.00     0.044 C 
ATOM      2  C   UNL     1     -92.080 -21.180 -63.583  1.00  0.00    -0.047 A 
ATOM      3  C   UNL     1     -91.229 -20.083 -63.395  1.00  0.00     0.049 A 
ATOM      4  C   UNL     1     -91.748 -18.827 -63.046  1.00  0.00     0.119 A 
ATOM      5  C   UNL     1     -93.140 -18.655 -62.891  1.00  0.00    -0.004 A 
ATOM      6  C   UNL     1     -93.989 -19.760 -63.102  1.00  0.00     0.008 A 
ATOM      7  C   UNL     1     -93.464 -21.007 -63.450  1.00  0.00     0.004 A 
ENDROOT
BRANCH   4   8
ATOM      8  O   UNL     1     -90.876 -17.754 -62.856  1.00  0.00    -0.508 OA
ATOM      9  H   UNL     1     -91.027 -16.859 -63.305  1.00  0.00     0.293 HD
ENDBRANCH   4   8
BRANCH   5  10
ATOM     10  C   UNL     1     -93.727 -17.302 -62.513  1.00  0.00     0.017 C 
ATOM     11  C   UNL     1     -94.468 -17.376 -61.173  1.00  0.00     0.012 C 
ATOM     12  C   UNL     1     -94.644 -16.770 -63.621  1.00  0.00     0.012 C 
ENDBRANCH   5  10
TORSDOF 2
ENDMDL
MODEL 3
REMARK VINA RESULT:    -3.673     13.074     14.476
REMARK INTER + INTRA:          -4.192
REMARK INTER:                  -3.992
REMARK INTRA:                  -0.200
REMARK UNBOUND:                -0.197
REMARK SMILES Cc1ccc(C(C)C)c(O)c1
REMARK SMILES IDX 1 1 2 2 11 3 9 4 5 5 4 6 3 7 10 8 6 10 7 11 8 12
REMARK H PARENT 10 9
REMARK Flexibility Score: inf
ROOT
ATOM      1  C   UNL     1     -91.293 -20.238 -63.629  1.00  0.00     0.044 C 
ATOM      2  C   UNL     1     -92.450 -19.286 -63.581  1.00  0.00    -0.047 A 
ATOM      3  C   UNL     1     -92.600 -18.407 -62.500  1.00  0.00     0.049 A 
ATOM      4  C   UNL     1     -93.659 -17.488 -62.466  1.00  0.00     0.119 A 
ATOM      5  C   UNL     1     -94.582 -17.434 -63.533  1.00  0.00    -0.004 A 
ATOM      6  C   UNL     1     -94.410 -18.307 -64.625  1.00  0.00     0.008 A 
ATOM      7  C   UNL     1     -93.353 -19.219 -64.650  1.00  0.00     0.004 A 
ENDROOT
BRANCH   4   8
ATOM      8  O   UNL     1     -93.789 -16.631 -61.372  1.00  0.00    -0.508 OA
ATOM      9  H   UNL     1     -94.631 -16.090 -61.217  1.00  0.00     0.293 HD
ENDBRANCH   4   8
BRANCH   5  10
ATOM     10  C   UNL     1     -95.739 -16.445 -63.520  1.00  0.00     0.017 C 
ATOM     11  C   UNL     1     -97.006 -17.084 -62.939  1.00  0.00     0.012 C 
ATOM     12  C   UNL     1     -96.000 -15.881 -64.922  1.00  0.00     0.012 C 
ENDBRANCH   5  10
TORSDOF 2
ENDMDL
MODEL 4
REMARK VINA RESULT:    -3.668     13.071     14.330
REMARK INTER + INTRA:          -4.187
REMARK INTER:                  -3.998
REMARK INTRA:                  -0.189
REMARK UNBOUND:                -0.197
REMARK SMILES Cc1ccc(C(C)C)c(O)c1
REMARK SMILES IDX 1 1 2 2 11 3 9 4 5 5 4 6 3 7 10 8 6 10 7 11 8 12
REMARK H PARENT 10 9
REMARK Flexibility Score: inf
ROOT
ATOM      1  C   UNL     1     -96.862 -15.852 -64.865  1.00  0.00     0.044 C 
ATOM      2  C   UNL     1     -95.706 -16.725 -64.476  1.00  0.00    -0.047 A 
ATOM      3  C   UNL     1     -94.815 -16.315 -63.476  1.00  0.00     0.049 A 
ATOM      4  C   UNL     1     -93.753 -17.142 -63.080  1.00  0.00     0.119 A 
ATOM      5  C   UNL     1     -93.580 -18.406 -63.684  1.00  0.00    -0.004 A 
ATOM      6  C   UNL     1     -94.493 -18.818 -64.674  1.00  0.00     0.008 A 
ATOM      7  C   UNL     1     -95.547 -17.988 -65.061  1.00  0.00     0.004 A 
ENDROOT
BRANCH   4   8
ATOM      8  O   UNL     1     -92.876 -16.704 -62.088  1.00  0.00    -0.508 OA
ATOM      9  H   UNL     1     -92.805 -17.175 -61.194  1.00  0.00     0.293 HD
ENDBRANCH   4   8
BRANCH   5  10
ATOM     10  C   UNL     1     -92.435 -19.322 -63.271  1.00  0.00     0.017 C 
ATOM     11  C   UNL     1     -91.954 -20.172 -64.453  1.00  0.00     0.012 C 
ATOM     12  C   UNL     1     -92.836 -20.205 -62.084  1.00  0.00     0.012 C 
ENDBRANCH   5  10
TORSDOF 2
ENDMDL
MODEL 5
REMARK VINA RESULT:    -3.552     13.261     14.522
REMARK INTER + INTRA:          -4.061
REMARK INTER:                  -3.861
REMARK INTRA:                  -0.200
REMARK UNBOUND:                -0.197
REMARK SMILES Cc1ccc(C(C)C)c(O)c1
REMARK SMILES IDX 1 1 2 2 11 3 9 4 5 5 4 6 3 7 10 8 6 10 7 11 8 12
REMARK H PARENT 10 9
REMARK Flexibility Score: inf
ROOT
ATOM      1  C   UNL     1     -96.643 -15.528 -64.357  1.00  0.00     0.044 C 
ATOM      2  C   UNL     1     -95.737 -16.709 -64.185  1.00  0.00    -0.047 A 
ATOM      3  C   UNL     1     -95.939 -17.872 -64.940  1.00  0.00     0.049 A 
ATOM      4  C   UNL     1     -95.073 -18.968 -64.813  1.00  0.00     0.119 A 
ATOM      5  C   UNL     1     -93.978 -18.904 -63.924  1.00  0.00    -0.004 A 
ATOM      6  C   UNL     1     -93.772 -17.723 -63.184  1.00  0.00     0.008 A 
ATOM      7  C   UNL     1     -94.639 -16.636 -63.318  1.00  0.00     0.004 A 
ENDROOT
BRANCH   4   8
ATOM      8  O   UNL     1     -95.304 -20.117 -65.571  1.00  0.00    -0.508 OA
ATOM      9  H   UNL     1     -96.212 -20.315 -65.974  1.00  0.00     0.293 HD
ENDBRANCH   4   8
BRANCH   5  10
ATOM     10  C   UNL     1     -93.024 -20.080 -63.769  1.00  0.00     0.017 C 
ATOM     11  C   UNL     1     -93.445 -20.982 -62.603  1.00  0.00     0.012 C 
ATOM     12  C   UNL     1     -91.578 -19.599 -63.598  1.00  0.00     0.012 C 
ENDBRANCH   5  10
TORSDOF 2
ENDMDL
MODEL 6
REMARK VINA RESULT:    -3.546     12.883     14.184
REMARK INTER + INTRA:          -4.054
REMARK INTER:                  -3.857
REMARK INTRA:                  -0.197
REMARK UNBOUND:                -0.197
REMARK SMILES Cc1ccc(C(C)C)c(O)c1
REMARK SMILES IDX 1 1 2 2 11 3 9 4 5 5 4 6 3 7 10 8 6 10 7 11 8 12
REMARK H PARENT 10 9
REMARK Flexibility Score: inf
ROOT
ATOM      1  C   UNL     1     -91.099 -18.962 -62.684  1.00  0.00     0.044 C 
ATOM      2  C   UNL     1     -92.449 -18.505 -63.149  1.00  0.00    -0.047 A 
ATOM      3  C   UNL     1     -93.096 -19.166 -64.201  1.00  0.00     0.049 A 
ATOM      4  C   UNL     1     -94.375 -18.769 -64.618  1.00  0.00     0.119 A 
ATOM      5  C   UNL     1     -95.029 -17.699 -63.968  1.00  0.00    -0.004 A 
ATOM      6  C   UNL     1     -94.379 -17.054 -62.898  1.00  0.00     0.008 A 
ATOM      7  C   UNL     1     -93.106 -17.457 -62.490  1.00  0.00     0.004 A 
ENDROOT
BRANCH   4   8
ATOM      8  O   UNL     1     -94.992 -19.440 -65.675  1.00  0.00    -0.508 OA
ATOM      9  H   UNL     1     -94.488 -20.104 -66.250  1.00  0.00     0.293 HD
ENDBRANCH   4   8
BRANCH   5  10
ATOM     10  C   UNL     1     -96.418 -17.250 -64.402  1.00  0.00     0.017 C 
ATOM     11  C   UNL     1     -96.406 -15.787 -64.863  1.00  0.00     0.012 C 
ATOM     12  C   UNL     1     -97.442 -17.466 -63.282  1.00  0.00     0.012 C 
ENDBRANCH   5  10
TORSDOF 2
ENDMDL
MODEL 7
REMARK VINA RESULT:    -3.543     11.518     12.748
REMARK INTER + INTRA:          -4.051
REMARK INTER:                  -3.853
REMARK INTRA:                  -0.198
REMARK UNBOUND:                -0.197
REMARK SMILES Cc1ccc(C(C)C)c(O)c1
REMARK SMILES IDX 1 1 2 2 11 3 9 4 5 5 4 6 3 7 10 8 6 10 7 11 8 12
REMARK H PARENT 10 9
REMARK Flexibility Score: inf
ROOT
ATOM      1  C   UNL     1     -93.590 -16.619 -62.358  1.00  0.00     0.044 C 
ATOM      2  C   UNL     1     -94.867 -16.946 -63.073  1.00  0.00    -0.047 A 
ATOM      3  C   UNL     1     -95.393 -16.058 -64.021  1.00  0.00     0.049 A 
ATOM      4  C   UNL     1     -96.567 -16.373 -64.722  1.00  0.00     0.119 A 
ATOM      5  C   UNL     1     -97.224 -17.599 -64.484  1.00  0.00    -0.004 A 
ATOM      6  C   UNL     1     -96.676 -18.493 -63.544  1.00  0.00     0.008 A 
ATOM      7  C   UNL     1     -95.507 -18.171 -62.851  1.00  0.00     0.004 A 
ENDROOT
BRANCH   4   8
ATOM      8  O   UNL     1     -97.073 -15.465 -65.654  1.00  0.00    -0.508 OA
ATOM      9  H   UNL     1     -98.060 -15.430 -65.879  1.00  0.00     0.293 HD
ENDBRANCH   4   8
BRANCH   5  10
ATOM     10  C   UNL     1     -98.499 -17.963 -65.233  1.00  0.00     0.017 C 
ATOM     11  C   UNL     1     -99.713 -17.947 -64.297  1.00  0.00     0.012 C 
ATOM     12  C   UNL     1     -98.360 -19.322 -65.930  1.00  0.00     0.012 C 
ENDBRANCH   5  10
TORSDOF 2
ENDMDL
MODEL 8
REMARK VINA RESULT:    -3.474     11.381     12.503
REMARK INTER + INTRA:          -3.976
REMARK INTER:                  -3.778
REMARK INTRA:                  -0.198
REMARK UNBOUND:                -0.197
REMARK SMILES Cc1ccc(C(C)C)c(O)c1
REMARK SMILES IDX 1 1 2 2 11 3 9 4 5 5 4 6 3 7 10 8 6 10 7 11 8 12
REMARK H PARENT 10 9
REMARK Flexibility Score: inf
ROOT
ATOM      1  C   UNL     1     -99.428 -15.673 -61.016  1.00  0.00     0.044 C 
ATOM      2  C   UNL     1     -98.353 -16.200 -61.918  1.00  0.00    -0.047 A 
ATOM      3  C   UNL     1     -98.161 -15.644 -63.190  1.00  0.00     0.049 A 
ATOM      4  C   UNL     1     -97.133 -16.106 -64.026  1.00  0.00     0.119 A 
ATOM      5  C   UNL     1     -96.272 -17.135 -63.584  1.00  0.00    -0.004 A 
ATOM      6  C   UNL     1     -96.462 -17.673 -62.296  1.00  0.00     0.008 A 
ATOM      7  C   UNL     1     -97.487 -17.206 -61.471  1.00  0.00     0.004 A 
ENDROOT
BRANCH   4   8
ATOM      8  O   UNL     1     -96.971 -15.540 -65.291  1.00  0.00    -0.508 OA
ATOM      9  H   UNL     1     -96.070 -15.211 -65.615  1.00  0.00     0.293 HD
ENDBRANCH   4   8
BRANCH   5  10
ATOM     10  C   UNL     1     -95.150 -17.653 -64.473  1.00  0.00     0.017 C 
ATOM     11  C   UNL     1     -95.619 -18.842 -65.319  1.00  0.00     0.012 C 
ATOM     12  C   UNL     1     -93.915 -18.021 -63.642  1.00  0.00     0.012 C 
ENDBRANCH   5  10
TORSDOF 2
ENDMDL
MODEL 9
REMARK VINA RESULT:    -3.462     11.233     12.676
REMARK INTER + INTRA:          -3.963
REMARK INTER:                  -3.765
REMARK INTRA:                  -0.199
REMARK UNBOUND:                -0.197
REMARK SMILES Cc1ccc(C(C)C)c(O)c1
REMARK SMILES IDX 1 1 2 2 11 3 9 4 5 5 4 6 3 7 10 8 6 10 7 11 8 12
REMARK H PARENT 10 9
REMARK Flexibility Score: inf
ROOT
ATOM      1  C   UNL     1     -93.589 -18.260 -63.472  1.00  0.00     0.044 C 
ATOM      2  C   UNL     1     -94.934 -17.612 -63.330  1.00  0.00    -0.047 A 
ATOM      3  C   UNL     1     -95.466 -16.848 -64.377  1.00  0.00     0.049 A 
ATOM      4  C   UNL     1     -96.739 -16.270 -64.267  1.00  0.00     0.119 A 
ATOM      5  C   UNL     1     -97.504 -16.464 -63.096  1.00  0.00    -0.004 A 
ATOM      6  C   UNL     1     -96.969 -17.251 -62.057  1.00  0.00     0.008 A 
ATOM      7  C   UNL     1     -95.701 -17.823 -62.177  1.00  0.00     0.004 A 
ENDROOT
BRANCH   4   8
ATOM      8  O   UNL     1     -97.240 -15.506 -65.322  1.00  0.00    -0.508 OA
ATOM      9  H   UNL     1     -98.224 -15.280 -65.396  1.00  0.00     0.293 HD
ENDBRANCH   4   8
BRANCH   5  10
ATOM     10  C   UNL     1     -98.889 -15.848 -62.953  1.00  0.00     0.017 C 
ATOM     11  C   UNL     1     -99.022 -15.091 -61.626  1.00  0.00     0.012 C 
ATOM     12  C   UNL     1     -99.984 -16.912 -63.093  1.00  0.00     0.012 C 
ENDBRANCH   5  10
TORSDOF 2
ENDMDL
