MODEL 1
REMARK VINA RESULT:    -4.040      0.000      0.000
REMARK INTER + INTRA:          -5.229
REMARK INTER:                  -4.985
REMARK INTRA:                  -0.244
REMARK UNBOUND:                -0.244
REMARK SMILES C=CC[C@@H](C)C(=O)CC
REMARK SMILES IDX 4 1 5 2 6 3 7 4 8 5 9 6 3 7 2 8 1 9
REMARK H PARENT
REMARK Flexibility Score: inf
ROOT
ATOM      1  C   UNL     1      15.375  18.339  57.730  1.00  0.00     0.057 C 
ATOM      2  C   UNL     1      16.495  19.382  57.802  1.00  0.00     0.016 C 
ENDROOT
BRANCH   1   3
ATOM      3  C   UNL     1      14.245  18.729  58.662  1.00  0.00     0.135 C 
ATOM      4  O   UNL     1      13.643  19.778  58.479  1.00  0.00    -0.299 OA
BRANCH   3   5
ATOM      5  C   UNL     1      13.858  17.854  59.826  1.00  0.00     0.072 C 
ATOM      6  C   UNL     1      12.360  17.563  59.817  1.00  0.00     0.012 C 
ENDBRANCH   3   5
ENDBRANCH   1   3
BRANCH   1   7
ATOM      7  C   UNL     1      14.875  18.183  56.279  1.00  0.00     0.038 C 
BRANCH   7   8
ATOM      8  C   UNL     1      14.691  16.739  55.892  1.00  0.00    -0.034 C 
ATOM      9  C   UNL     1      13.526  16.277  55.428  1.00  0.00     0.004 C 
ENDBRANCH   7   8
ENDBRANCH   1   7
TORSDOF 4
ENDMDL
MODEL 2
REMARK VINA RESULT:    -4.009      1.707      4.035
REMARK INTER + INTRA:          -5.190
REMARK INTER:                  -4.875
REMARK INTRA:                  -0.315
REMARK UNBOUND:                -0.244
REMARK SMILES C=CC[C@@H](C)C(=O)CC
REMARK SMILES IDX 4 1 5 2 6 3 7 4 8 5 9 6 3 7 2 8 1 9
REMARK H PARENT
REMARK Flexibility Score: inf
ROOT
ATOM      1  C   UNL     1      15.087  17.734  56.656  1.00  0.00     0.057 C 
ATOM      2  C   UNL     1      14.481  16.585  55.843  1.00  0.00     0.016 C 
ENDROOT
BRANCH   1   3
ATOM      3  C   UNL     1      15.704  18.757  55.723  1.00  0.00     0.135 C 
ATOM      4  O   UNL     1      15.158  19.014  54.659  1.00  0.00    -0.299 OA
BRANCH   3   5
ATOM      5  C   UNL     1      16.992  19.456  56.076  1.00  0.00     0.072 C 
ATOM      6  C   UNL     1      17.676  18.777  57.259  1.00  0.00     0.012 C 
ENDBRANCH   3   5
ENDBRANCH   1   3
BRANCH   1   7
ATOM      7  C   UNL     1      14.017  18.376  57.563  1.00  0.00     0.038 C 
BRANCH   7   8
ATOM      8  C   UNL     1      14.449  18.426  59.005  1.00  0.00    -0.034 C 
ATOM      9  C   UNL     1      13.729  17.857  59.976  1.00  0.00     0.004 C 
ENDBRANCH   7   8
ENDBRANCH   1   7
TORSDOF 4
ENDMDL
MODEL 3
REMARK VINA RESULT:    -3.971      1.299      3.524
REMARK INTER + INTRA:          -5.143
REMARK INTER:                  -4.740
REMARK INTRA:                  -0.403
REMARK UNBOUND:                -0.244
REMARK SMILES C=CC[C@@H](C)C(=O)CC
REMARK SMILES IDX 4 1 5 2 6 3 7 4 8 5 9 6 3 7 2 8 1 9
REMARK H PARENT
REMARK Flexibility Score: inf
ROOT
ATOM      1  C   UNL     1      14.872  18.057  58.134  1.00  0.00     0.057 C 
ATOM      2  C   UNL     1      14.051  18.125  59.425  1.00  0.00     0.016 C 
ENDROOT
BRANCH   1   3
ATOM      3  C   UNL     1      13.947  17.969  56.937  1.00  0.00     0.135 C 
ATOM      4  O   UNL     1      12.910  18.617  56.923  1.00  0.00    -0.299 OA
BRANCH   3   5
ATOM      5  C   UNL     1      14.272  17.080  55.764  1.00  0.00     0.072 C 
ATOM      6  C   UNL     1      14.338  17.885  54.470  1.00  0.00     0.012 C 
ENDBRANCH   3   5
ENDBRANCH   1   3
BRANCH   1   7
ATOM      7  C   UNL     1      15.812  19.276  58.026  1.00  0.00     0.038 C 
BRANCH   7   8
ATOM      8  C   UNL     1      17.076  18.956  57.273  1.00  0.00    -0.034 C 
ATOM      9  C   UNL     1      17.357  19.521  56.095  1.00  0.00     0.004 C 
ENDBRANCH   7   8
ENDBRANCH   1   7
TORSDOF 4
ENDMDL
MODEL 4
REMARK VINA RESULT:    -3.914      3.289      5.090
REMARK INTER + INTRA:          -5.073
REMARK INTER:                  -4.614
REMARK INTRA:                  -0.459
REMARK UNBOUND:                -0.244
REMARK SMILES C=CC[C@@H](C)C(=O)CC
REMARK SMILES IDX 4 1 5 2 6 3 7 4 8 5 9 6 3 7 2 8 1 9
REMARK H PARENT
REMARK Flexibility Score: inf
ROOT
ATOM      1  C   UNL     1      11.868  18.552  59.981  1.00  0.00     0.057 C 
ATOM      2  C   UNL     1      13.143  17.703  59.963  1.00  0.00     0.016 C 
ENDROOT
BRANCH   1   3
ATOM      3  C   UNL     1      11.818  19.436  58.751  1.00  0.00     0.135 C 
ATOM      4  O   UNL     1      12.120  18.974  57.660  1.00  0.00    -0.299 OA
BRANCH   3   5
ATOM      5  C   UNL     1      11.418  20.886  58.849  1.00  0.00     0.072 C 
ATOM      6  C   UNL     1       9.941  21.069  58.513  1.00  0.00     0.012 C 
ENDBRANCH   3   5
ENDBRANCH   1   3
BRANCH   1   7
ATOM      7  C   UNL     1      10.620  17.649  60.073  1.00  0.00     0.038 C 
BRANCH   7   8
ATOM      8  C   UNL     1       9.697  18.065  61.189  1.00  0.00    -0.034 C 
ATOM      9  C   UNL     1       9.977  19.100  61.985  1.00  0.00     0.004 C 
ENDBRANCH   7   8
ENDBRANCH   1   7
TORSDOF 4
ENDMDL
MODEL 5
REMARK VINA RESULT:    -3.854      2.764      5.588
REMARK INTER + INTRA:          -5.000
REMARK INTER:                  -4.687
REMARK INTRA:                  -0.312
REMARK UNBOUND:                -0.244
REMARK SMILES C=CC[C@@H](C)C(=O)CC
REMARK SMILES IDX 4 1 5 2 6 3 7 4 8 5 9 6 3 7 2 8 1 9
REMARK H PARENT
REMARK Flexibility Score: inf
ROOT
ATOM      1  C   UNL     1      10.175  17.913  59.406  1.00  0.00     0.057 C 
ATOM      2  C   UNL     1       9.673  19.299  58.988  1.00  0.00     0.016 C 
ENDROOT
BRANCH   1   3
ATOM      3  C   UNL     1      11.630  17.751  59.015  1.00  0.00     0.135 C 
ATOM      4  O   UNL     1      11.929  17.610  57.838  1.00  0.00    -0.299 OA
BRANCH   3   5
ATOM      5  C   UNL     1      12.721  17.743  60.055  1.00  0.00     0.072 C 
ATOM      6  C   UNL     1      14.059  18.151  59.447  1.00  0.00     0.012 C 
ENDBRANCH   3   5
ENDBRANCH   1   3
BRANCH   1   7
ATOM      7  C   UNL     1       9.974  17.699  60.921  1.00  0.00     0.038 C 
BRANCH   7   8
ATOM      8  C   UNL     1       9.660  18.984  61.641  1.00  0.00    -0.034 C 
ATOM      9  C   UNL     1      10.325  19.357  62.738  1.00  0.00     0.004 C 
ENDBRANCH   7   8
ENDBRANCH   1   7
TORSDOF 4
ENDMDL
MODEL 6
REMARK VINA RESULT:    -3.845      2.044      4.123
REMARK INTER + INTRA:          -4.989
REMARK INTER:                  -4.831
REMARK INTRA:                  -0.158
REMARK UNBOUND:                -0.244
REMARK SMILES C=CC[C@@H](C)C(=O)CC
REMARK SMILES IDX 4 1 5 2 6 3 7 4 8 5 9 6 3 7 2 8 1 9
REMARK H PARENT
REMARK Flexibility Score: inf
ROOT
ATOM      1  C   UNL     1      14.058  19.033  58.913  1.00  0.00     0.057 C 
ATOM      2  C   UNL     1      13.836  17.914  59.935  1.00  0.00     0.016 C 
ENDROOT
BRANCH   1   3
ATOM      3  C   UNL     1      15.203  18.669  57.988  1.00  0.00     0.135 C 
ATOM      4  O   UNL     1      15.133  17.654  57.309  1.00  0.00    -0.299 OA
BRANCH   3   5
ATOM      5  C   UNL     1      16.438  19.527  57.900  1.00  0.00     0.072 C 
ATOM      6  C   UNL     1      17.442  18.941  56.912  1.00  0.00     0.012 C 
ENDBRANCH   3   5
ENDBRANCH   1   3
BRANCH   1   7
ATOM      7  C   UNL     1      12.762  19.306  58.120  1.00  0.00     0.038 C 
BRANCH   7   8
ATOM      8  C   UNL     1      12.050  20.542  58.602  1.00  0.00    -0.034 C 
ATOM      9  C   UNL     1      10.846  20.482  59.177  1.00  0.00     0.004 C 
ENDBRANCH   7   8
ENDBRANCH   1   7
TORSDOF 4
ENDMDL
MODEL 7
REMARK VINA RESULT:    -3.832      9.564     10.438
REMARK INTER + INTRA:          -4.972
REMARK INTER:                  -4.482
REMARK INTRA:                  -0.491
REMARK UNBOUND:                -0.244
REMARK SMILES C=CC[C@@H](C)C(=O)CC
REMARK SMILES IDX 4 1 5 2 6 3 7 4 8 5 9 6 3 7 2 8 1 9
REMARK H PARENT
REMARK Flexibility Score: inf
ROOT
ATOM      1  C   UNL     1       8.082  24.100  56.027  1.00  0.00     0.057 C 
ATOM      2  C   UNL     1       8.455  23.274  57.262  1.00  0.00     0.016 C 
ENDROOT
BRANCH   1   3
ATOM      3  C   UNL     1       7.037  23.366  55.211  1.00  0.00     0.135 C 
ATOM      4  O   UNL     1       6.914  22.155  55.332  1.00  0.00    -0.299 OA
BRANCH   3   5
ATOM      5  C   UNL     1       6.153  24.099  54.235  1.00  0.00     0.072 C 
ATOM      6  C   UNL     1       4.679  23.895  54.573  1.00  0.00     0.012 C 
ENDBRANCH   3   5
ENDBRANCH   1   3
BRANCH   1   7
ATOM      7  C   UNL     1       7.585  25.501  56.444  1.00  0.00     0.038 C 
BRANCH   7   8
ATOM      8  C   UNL     1       6.781  25.464  57.718  1.00  0.00    -0.034 C 
ATOM      9  C   UNL     1       5.480  25.766  57.738  1.00  0.00     0.004 C 
ENDBRANCH   7   8
ENDBRANCH   1   7
TORSDOF 4
ENDMDL
MODEL 8
REMARK VINA RESULT:    -3.827      1.977      4.569
REMARK INTER + INTRA:          -4.966
REMARK INTER:                  -4.728
REMARK INTRA:                  -0.238
REMARK UNBOUND:                -0.244
REMARK SMILES C=CC[C@@H](C)C(=O)CC
REMARK SMILES IDX 4 1 5 2 6 3 7 4 8 5 9 6 3 7 2 8 1 9
REMARK H PARENT
REMARK Flexibility Score: inf
ROOT
ATOM      1  C   UNL     1      12.354  18.408  58.927  1.00  0.00     0.057 C 
ATOM      2  C   UNL     1      12.007  19.869  58.621  1.00  0.00     0.016 C 
ENDROOT
BRANCH   1   3
ATOM      3  C   UNL     1      13.801  18.302  59.366  1.00  0.00     0.135 C 
ATOM      4  O   UNL     1      14.069  17.805  60.451  1.00  0.00    -0.299 OA
BRANCH   3   5
ATOM      5  C   UNL     1      14.920  18.813  58.496  1.00  0.00     0.072 C 
ATOM      6  C   UNL     1      15.127  17.910  57.284  1.00  0.00     0.012 C 
ENDBRANCH   3   5
ENDBRANCH   1   3
BRANCH   1   7
ATOM      7  C   UNL     1      11.400  17.839  59.998  1.00  0.00     0.038 C 
BRANCH   7   8
ATOM      8  C   UNL     1      10.433  18.875  60.507  1.00  0.00    -0.034 C 
ATOM      9  C   UNL     1       9.987  18.863  61.767  1.00  0.00     0.004 C 
ENDBRANCH   7   8
ENDBRANCH   1   7
TORSDOF 4
ENDMDL
MODEL 9
REMARK VINA RESULT:    -3.810      1.912      2.769
REMARK INTER + INTRA:          -4.945
REMARK INTER:                  -4.644
REMARK INTRA:                  -0.301
REMARK UNBOUND:                -0.244
REMARK SMILES C=CC[C@@H](C)C(=O)CC
REMARK SMILES IDX 4 1 5 2 6 3 7 4 8 5 9 6 3 7 2 8 1 9
REMARK H PARENT
REMARK Flexibility Score: inf
ROOT
ATOM      1  C   UNL     1      13.733  18.069  58.922  1.00  0.00     0.057 C 
ATOM      2  C   UNL     1      14.050  17.762  60.389  1.00  0.00     0.016 C 
ENDROOT
BRANCH   1   3
ATOM      3  C   UNL     1      12.383  18.752  58.817  1.00  0.00     0.135 C 
ATOM      4  O   UNL     1      11.382  18.179  59.223  1.00  0.00    -0.299 OA
BRANCH   3   5
ATOM      5  C   UNL     1      12.247  20.121  58.204  1.00  0.00     0.072 C 
ATOM      6  C   UNL     1      11.142  20.920  58.889  1.00  0.00     0.012 C 
ENDBRANCH   3   5
ENDBRANCH   1   3
BRANCH   1   7
ATOM      7  C   UNL     1      14.847  18.934  58.297  1.00  0.00     0.038 C 
BRANCH   7   8
ATOM      8  C   UNL     1      15.624  18.189  57.244  1.00  0.00    -0.034 C 
ATOM      9  C   UNL     1      15.015  17.475  56.293  1.00  0.00     0.004 C 
ENDBRANCH   7   8
ENDBRANCH   1   7
TORSDOF 4
ENDMDL
