MODEL 1
REMARK VINA RESULT:    -3.274      0.000      0.000
REMARK INTER + INTRA:          -3.665
REMARK INTER:                  -3.657
REMARK INTRA:                  -0.008
REMARK UNBOUND:                -0.008
REMARK SMILES CCCC(=O)[O-]
REMARK SMILES IDX 3 1 4 2 5 3 6 4 2 5 1 6
REMARK H PARENT
REMARK Flexibility Score: inf
ROOT
ATOM      1  C   UNL     1       5.619  -7.646   1.045  1.00  0.00     0.052 C 
ENDROOT
BRANCH   1   2
ATOM      2  C   UNL     1       4.436  -6.727   1.022  1.00  0.00     0.041 C 
ATOM      3  O   UNL     1       4.017  -6.259  -0.069  1.00  0.00    -0.550 OA
ATOM      4  O   UNL     1       3.818  -6.361   2.211  1.00  0.00    -0.550 OA
ENDBRANCH   1   2
BRANCH   1   5
ATOM      5  C   UNL     1       5.557  -8.681  -0.086  1.00  0.00     0.003 C 
ATOM      6  C   UNL     1       6.775  -9.603  -0.097  1.00  0.00     0.004 C 
ENDBRANCH   1   5
TORSDOF 2
ENDMDL
MODEL 2
REMARK VINA RESULT:    -2.936     18.585     19.127
REMARK INTER + INTRA:          -3.288
REMARK INTER:                  -3.268
REMARK INTRA:                  -0.020
REMARK UNBOUND:                -0.008
REMARK SMILES CCCC(=O)[O-]
REMARK SMILES IDX 3 1 4 2 5 3 6 4 2 5 1 6
REMARK H PARENT
REMARK Flexibility Score: inf
ROOT
ATOM      1  C   UNL     1      -4.864   8.521   2.510  1.00  0.00     0.052 C 
ENDROOT
BRANCH   1   2
ATOM      2  C   UNL     1      -5.534   7.857   1.346  1.00  0.00     0.041 C 
ATOM      3  O   UNL     1      -6.010   6.698   1.465  1.00  0.00    -0.550 OA
ATOM      4  O   UNL     1      -5.602   8.507   0.121  1.00  0.00    -0.550 OA
ENDBRANCH   1   2
BRANCH   1   5
ATOM      5  C   UNL     1      -5.214   7.834   3.836  1.00  0.00     0.003 C 
ATOM      6  C   UNL     1      -5.709   8.823   4.891  1.00  0.00     0.004 C 
ENDBRANCH   1   5
TORSDOF 2
ENDMDL
MODEL 3
REMARK VINA RESULT:    -2.897     18.593     19.005
REMARK INTER + INTRA:          -3.244
REMARK INTER:                  -3.227
REMARK INTRA:                  -0.018
REMARK UNBOUND:                -0.008
REMARK SMILES CCCC(=O)[O-]
REMARK SMILES IDX 3 1 4 2 5 3 6 4 2 5 1 6
REMARK H PARENT
REMARK Flexibility Score: inf
ROOT
ATOM      1  C   UNL     1      -5.308   7.815   4.245  1.00  0.00     0.052 C 
ENDROOT
BRANCH   1   2
ATOM      2  C   UNL     1      -4.874   8.116   2.843  1.00  0.00     0.041 C 
ATOM      3  O   UNL     1      -4.125   9.100   2.608  1.00  0.00    -0.550 OA
ATOM      4  O   UNL     1      -5.326   7.329   1.793  1.00  0.00    -0.550 OA
ENDBRANCH   1   2
BRANCH   1   5
ATOM      5  C   UNL     1      -4.174   8.043   5.252  1.00  0.00     0.003 C 
ATOM      6  C   UNL     1      -4.689   8.515   6.611  1.00  0.00     0.004 C 
ENDBRANCH   1   5
TORSDOF 2
ENDMDL
MODEL 4
REMARK VINA RESULT:    -2.896     18.438     18.788
REMARK INTER + INTRA:          -3.243
REMARK INTER:                  -3.222
REMARK INTRA:                  -0.021
REMARK UNBOUND:                -0.008
REMARK SMILES CCCC(=O)[O-]
REMARK SMILES IDX 3 1 4 2 5 3 6 4 2 5 1 6
REMARK H PARENT
REMARK Flexibility Score: inf
ROOT
ATOM      1  C   UNL     1      -5.426   7.955   3.959  1.00  0.00     0.052 C 
ENDROOT
BRANCH   1   2
ATOM      2  C   UNL     1      -4.403   7.943   5.053  1.00  0.00     0.041 C 
ATOM      3  O   UNL     1      -3.182   7.807   4.779  1.00  0.00    -0.550 OA
ATOM      4  O   UNL     1      -4.803   8.048   6.378  1.00  0.00    -0.550 OA
ENDBRANCH   1   2
BRANCH   1   5
ATOM      5  C   UNL     1      -4.841   8.479   2.641  1.00  0.00     0.003 C 
ATOM      6  C   UNL     1      -5.410   7.752   1.423  1.00  0.00     0.004 C 
ENDBRANCH   1   5
TORSDOF 2
ENDMDL
MODEL 5
REMARK VINA RESULT:    -2.864     18.392     19.040
REMARK INTER + INTRA:          -3.207
REMARK INTER:                  -3.202
REMARK INTRA:                  -0.005
REMARK UNBOUND:                -0.008
REMARK SMILES CCCC(=O)[O-]
REMARK SMILES IDX 3 1 4 2 5 3 6 4 2 5 1 6
REMARK H PARENT
REMARK Flexibility Score: inf
ROOT
ATOM      1  C   UNL     1      -4.895   8.781   2.051  1.00  0.00     0.052 C 
ENDROOT
BRANCH   1   2
ATOM      2  C   UNL     1      -4.834   8.475   3.516  1.00  0.00     0.041 C 
ATOM      3  O   UNL     1      -5.583   9.084   4.323  1.00  0.00    -0.550 OA
ATOM      4  O   UNL     1      -3.923   7.542   3.993  1.00  0.00    -0.550 OA
ENDBRANCH   1   2
BRANCH   1   5
ATOM      5  C   UNL     1      -5.522   7.628   1.256  1.00  0.00     0.003 C 
ATOM      6  C   UNL     1      -6.034   8.076  -0.113  1.00  0.00     0.004 C 
ENDBRANCH   1   5
TORSDOF 2
ENDMDL
MODEL 6
REMARK VINA RESULT:    -2.859     18.524     18.921
REMARK INTER + INTRA:          -3.201
REMARK INTER:                  -3.162
REMARK INTRA:                  -0.039
REMARK UNBOUND:                -0.008
REMARK SMILES CCCC(=O)[O-]
REMARK SMILES IDX 3 1 4 2 5 3 6 4 2 5 1 6
REMARK H PARENT
REMARK Flexibility Score: inf
ROOT
ATOM      1  C   UNL     1      -5.275   7.810   3.979  1.00  0.00     0.052 C 
ENDROOT
BRANCH   1   2
ATOM      2  C   UNL     1      -4.897   8.111   2.562  1.00  0.00     0.041 C 
ATOM      3  O   UNL     1      -5.197   7.308   1.640  1.00  0.00    -0.550 OA
ATOM      4  O   UNL     1      -4.183   9.264   2.264  1.00  0.00    -0.550 OA
ENDBRANCH   1   2
BRANCH   1   5
ATOM      5  C   UNL     1      -4.654   8.814   4.959  1.00  0.00     0.003 C 
ATOM      6  C   UNL     1      -3.441   8.239   5.690  1.00  0.00     0.004 C 
ENDBRANCH   1   5
TORSDOF 2
ENDMDL
MODEL 7
REMARK VINA RESULT:    -2.704      9.575     10.892
REMARK INTER + INTRA:          -3.029
REMARK INTER:                  -2.991
REMARK INTRA:                  -0.038
REMARK UNBOUND:                -0.008
REMARK SMILES CCCC(=O)[O-]
REMARK SMILES IDX 3 1 4 2 5 3 6 4 2 5 1 6
REMARK H PARENT
REMARK Flexibility Score: inf
ROOT
ATOM      1  C   UNL     1      -3.830  -7.487   7.327  1.00  0.00     0.052 C 
ENDROOT
BRANCH   1   2
ATOM      2  C   UNL     1      -2.671  -7.474   6.378  1.00  0.00     0.041 C 
ATOM      3  O   UNL     1      -2.779  -6.923   5.251  1.00  0.00    -0.550 OA
ATOM      4  O   UNL     1      -1.483  -8.104   6.725  1.00  0.00    -0.550 OA
ENDBRANCH   1   2
BRANCH   1   5
ATOM      5  C   UNL     1      -3.893  -6.202   8.163  1.00  0.00     0.003 C 
ATOM      6  C   UNL     1      -4.843  -5.165   7.564  1.00  0.00     0.004 C 
ENDBRANCH   1   5
TORSDOF 2
ENDMDL
MODEL 8
REMARK VINA RESULT:    -2.622     12.336     13.633
REMARK INTER + INTRA:          -2.937
REMARK INTER:                  -2.921
REMARK INTRA:                  -0.016
REMARK UNBOUND:                -0.008
REMARK SMILES CCCC(=O)[O-]
REMARK SMILES IDX 3 1 4 2 5 3 6 4 2 5 1 6
REMARK H PARENT
REMARK Flexibility Score: inf
ROOT
ATOM      1  C   UNL     1      -5.451  -3.989   8.443  1.00  0.00     0.052 C 
ENDROOT
BRANCH   1   2
ATOM      2  C   UNL     1      -5.167  -4.561   7.088  1.00  0.00     0.041 C 
ATOM      3  O   UNL     1      -5.575  -3.972   6.052  1.00  0.00    -0.550 OA
ATOM      4  O   UNL     1      -4.481  -5.762   6.971  1.00  0.00    -0.550 OA
ENDBRANCH   1   2
BRANCH   1   5
ATOM      5  C   UNL     1      -6.297  -2.713   8.355  1.00  0.00     0.003 C 
ATOM      6  C   UNL     1      -5.991  -1.733   9.488  1.00  0.00     0.004 C 
ENDBRANCH   1   5
TORSDOF 2
ENDMDL
MODEL 9
REMARK VINA RESULT:    -2.611     16.426     17.227
REMARK INTER + INTRA:          -2.925
REMARK INTER:                  -2.887
REMARK INTRA:                  -0.038
REMARK UNBOUND:                -0.008
REMARK SMILES CCCC(=O)[O-]
REMARK SMILES IDX 3 1 4 2 5 3 6 4 2 5 1 6
REMARK H PARENT
REMARK Flexibility Score: inf
ROOT
ATOM      1  C   UNL     1      -8.887  -0.451  -5.559  1.00  0.00     0.052 C 
ENDROOT
BRANCH   1   2
ATOM      2  C   UNL     1      -9.237   0.938  -5.122  1.00  0.00     0.041 C 
ATOM      3  O   UNL     1      -9.770   1.743  -5.930  1.00  0.00    -0.550 OA
ATOM      4  O   UNL     1      -8.941   1.354  -3.831  1.00  0.00    -0.550 OA
ENDBRANCH   1   2
BRANCH   1   5
ATOM      5  C   UNL     1      -9.886  -1.484  -5.022  1.00  0.00     0.003 C 
ATOM      6  C   UNL     1      -9.375  -2.186  -3.764  1.00  0.00     0.004 C 
ENDBRANCH   1   5
TORSDOF 2
ENDMDL
