MODEL 1
REMARK VINA RESULT:    -4.030      0.000      0.000
REMARK INTER + INTRA:          -5.011
REMARK INTER:                  -4.737
REMARK INTRA:                  -0.274
REMARK UNBOUND:                -0.274
REMARK SMILES O=c1cc(-c2ccc(O)c(O)c2)oc2cc(O)cc(O)c12
REMARK SMILES IDX 4 1 3 2 2 3 1 4 21 5 19 6 18 7 16 8 15 9 14 10 13 11 5 12
REMARK SMILES IDX 6 13 7 14 8 15 12 16 10 17 9 18 11 20 20 22 17 24
REMARK H PARENT 9 19 11 21 20 23 17 25
REMARK Flexibility Score: inf
ROOT
ATOM      1  C   UNL     1     -99.196  24.997 -42.108  1.00  0.00     0.138 A 
ATOM      2  C   UNL     1     -99.026  25.546 -40.830  1.00  0.00     0.100 A 
ATOM      3  C   UNL     1     -99.923  26.510 -40.368  1.00  0.00     0.197 A 
ATOM      4  O   UNL     1     -99.711  27.025 -39.240  1.00  0.00    -0.289 OA
ATOM      5  C   UNL     1    -101.017  26.899 -41.177  1.00  0.00     0.107 A 
ATOM      6  C   UNL     1    -102.015  27.847 -40.796  1.00  0.00     0.134 A 
ATOM      7  C   UNL     1    -102.996  28.224 -41.722  1.00  0.00     0.093 A 
ATOM      8  C   UNL     1    -103.050  27.646 -42.992  1.00  0.00     0.123 A 
ATOM      9  C   UNL     1    -102.111  26.684 -43.355  1.00  0.00     0.094 A 
ATOM     10  C   UNL     1    -101.099  26.311 -42.467  1.00  0.00     0.146 A 
ATOM     11  O   UNL     1    -100.214  25.402 -42.861  1.00  0.00    -0.456 OA
ENDROOT
BRANCH   1  12
ATOM     12  C   UNL     1     -98.274  23.967 -42.649  1.00  0.00     0.021 A 
ATOM     13  C   UNL     1     -98.752  22.791 -43.258  1.00  0.00     0.016 A 
ATOM     14  C   UNL     1     -97.861  21.834 -43.748  1.00  0.00     0.051 A 
ATOM     15  C   UNL     1     -96.478  22.029 -43.633  1.00  0.00     0.157 A 
ATOM     16  C   UNL     1     -96.885  24.148 -42.524  1.00  0.00     0.062 A 
ATOM     17  C   UNL     1     -95.989  23.191 -43.016  1.00  0.00     0.158 A 
BRANCH  15  18
ATOM     18  O   UNL     1     -95.592  21.072 -44.125  1.00  0.00    -0.504 OA
ATOM     19  H   UNL     1     -94.767  20.796 -43.605  1.00  0.00     0.293 HD
ENDBRANCH  15  18
BRANCH  17  20
ATOM     20  O   UNL     1     -94.619  23.413 -42.881  1.00  0.00    -0.504 OA
ATOM     21  H   UNL     1     -93.944  22.661 -42.942  1.00  0.00     0.293 HD
ENDBRANCH  17  20
ENDBRANCH   1  12
BRANCH   6  22
ATOM     22  O   UNL     1    -102.103  28.426 -39.528  1.00  0.00    -0.507 OA
ATOM     23  H   UNL     1    -101.557  29.212 -39.210  1.00  0.00     0.293 HD
ENDBRANCH   6  22
BRANCH   8  24
ATOM     24  O   UNL     1    -104.040  28.017 -43.901  1.00  0.00    -0.508 OA
ATOM     25  H   UNL     1    -104.729  28.725 -43.674  1.00  0.00     0.293 HD
ENDBRANCH   8  24
TORSDOF 5
ENDMDL
MODEL 2
REMARK VINA RESULT:    -4.018     11.605     13.097
REMARK INTER + INTRA:          -4.997
REMARK INTER:                  -4.691
REMARK INTRA:                  -0.306
REMARK UNBOUND:                -0.274
REMARK SMILES O=c1cc(-c2ccc(O)c(O)c2)oc2cc(O)cc(O)c12
REMARK SMILES IDX 4 1 3 2 2 3 1 4 21 5 19 6 18 7 16 8 15 9 14 10 13 11 5 12
REMARK SMILES IDX 6 13 7 14 8 15 12 16 10 17 9 18 11 20 20 22 17 24
REMARK H PARENT 9 19 11 21 20 23 17 25
REMARK Flexibility Score: inf
ROOT
ATOM      1  C   UNL     1    -100.613  34.608 -35.659  1.00  0.00     0.138 A 
ATOM      2  C   UNL     1    -100.635  33.703 -34.589  1.00  0.00     0.100 A 
ATOM      3  C   UNL     1     -99.446  33.382 -33.932  1.00  0.00     0.197 A 
ATOM      4  O   UNL     1     -99.489  32.525 -33.012  1.00  0.00    -0.289 OA
ATOM      5  C   UNL     1     -98.235  34.000 -34.326  1.00  0.00     0.107 A 
ATOM      6  C   UNL     1     -96.967  33.776 -33.707  1.00  0.00     0.134 A 
ATOM      7  C   UNL     1     -95.821  34.371 -34.250  1.00  0.00     0.093 A 
ATOM      8  C   UNL     1     -95.904  35.225 -35.351  1.00  0.00     0.123 A 
ATOM      9  C   UNL     1     -97.142  35.489 -35.931  1.00  0.00     0.094 A 
ATOM     10  C   UNL     1     -98.300  34.885 -35.436  1.00  0.00     0.146 A 
ATOM     11  O   UNL     1     -99.458  35.150 -36.030  1.00  0.00    -0.456 OA
ENDROOT
BRANCH   1  12
ATOM     12  C   UNL     1    -101.848  34.987 -36.391  1.00  0.00     0.021 A 
ATOM     13  C   UNL     1    -103.106  35.010 -35.760  1.00  0.00     0.016 A 
ATOM     14  C   UNL     1    -104.252  35.360 -36.477  1.00  0.00     0.051 A 
ATOM     15  C   UNL     1    -104.165  35.687 -37.836  1.00  0.00     0.157 A 
ATOM     16  C   UNL     1    -101.771  35.303 -37.759  1.00  0.00     0.062 A 
ATOM     17  C   UNL     1    -102.918  35.656 -38.480  1.00  0.00     0.158 A 
BRANCH  15  18
ATOM     18  O   UNL     1    -105.311  36.038 -38.549  1.00  0.00    -0.504 OA
ATOM     19  H   UNL     1    -105.274  36.261 -39.537  1.00  0.00     0.293 HD
ENDBRANCH  15  18
BRANCH  17  20
ATOM     20  O   UNL     1    -102.797  35.971 -39.834  1.00  0.00    -0.504 OA
ATOM     21  H   UNL     1    -102.379  36.838 -40.149  1.00  0.00     0.293 HD
ENDBRANCH  17  20
ENDBRANCH   1  12
BRANCH   6  22
ATOM     22  O   UNL     1     -96.782  33.006 -32.556  1.00  0.00    -0.507 OA
ATOM     23  H   UNL     1     -95.890  32.702 -32.199  1.00  0.00     0.293 HD
ENDBRANCH   6  22
BRANCH   8  24
ATOM     24  O   UNL     1     -94.759  35.824 -35.874  1.00  0.00    -0.508 OA
ATOM     25  H   UNL     1     -94.792  36.738 -36.311  1.00  0.00     0.293 HD
ENDBRANCH   8  24
TORSDOF 5
ENDMDL
MODEL 3
REMARK VINA RESULT:    -3.937      3.006      4.101
REMARK INTER + INTRA:          -4.902
REMARK INTER:                  -4.609
REMARK INTRA:                  -0.293
REMARK UNBOUND:                -0.274
REMARK SMILES O=c1cc(-c2ccc(O)c(O)c2)oc2cc(O)cc(O)c12
REMARK SMILES IDX 4 1 3 2 2 3 1 4 21 5 19 6 18 7 16 8 15 9 14 10 13 11 5 12
REMARK SMILES IDX 6 13 7 14 8 15 12 16 10 17 9 18 11 20 20 22 17 24
REMARK H PARENT 9 19 11 21 20 23 17 25
REMARK Flexibility Score: inf
ROOT
ATOM      1  C   UNL     1     -99.594  27.561 -39.353  1.00  0.00     0.138 A 
ATOM      2  C   UNL     1    -100.342  27.931 -38.228  1.00  0.00     0.100 A 
ATOM      3  C   UNL     1    -101.677  28.308 -38.381  1.00  0.00     0.197 A 
ATOM      4  O   UNL     1    -102.306  28.688 -37.360  1.00  0.00    -0.289 OA
ATOM      5  C   UNL     1    -102.275  28.278 -39.663  1.00  0.00     0.107 A 
ATOM      6  C   UNL     1    -103.638  28.607 -39.934  1.00  0.00     0.134 A 
ATOM      7  C   UNL     1    -104.090  28.635 -41.260  1.00  0.00     0.093 A 
ATOM      8  C   UNL     1    -103.245  28.291 -42.317  1.00  0.00     0.123 A 
ATOM      9  C   UNL     1    -101.928  27.920 -42.059  1.00  0.00     0.094 A 
ATOM     10  C   UNL     1    -101.437  27.915 -40.751  1.00  0.00     0.146 A 
ATOM     11  O   UNL     1    -100.169  27.571 -40.551  1.00  0.00    -0.456 OA
ENDROOT
BRANCH   1  12
ATOM     12  C   UNL     1     -98.171  27.149 -39.249  1.00  0.00     0.021 A 
ATOM     13  C   UNL     1     -97.243  27.878 -38.481  1.00  0.00     0.016 A 
ATOM     14  C   UNL     1     -95.908  27.472 -38.409  1.00  0.00     0.051 A 
ATOM     15  C   UNL     1     -95.474  26.338 -39.108  1.00  0.00     0.157 A 
ATOM     16  C   UNL     1     -97.724  26.020 -39.958  1.00  0.00     0.062 A 
ATOM     17  C   UNL     1     -96.387  25.610 -39.888  1.00  0.00     0.158 A 
BRANCH  15  18
ATOM     18  O   UNL     1     -94.142  25.936 -39.033  1.00  0.00    -0.504 OA
ATOM     19  H   UNL     1     -93.664  25.845 -38.144  1.00  0.00     0.293 HD
ENDBRANCH  15  18
BRANCH  17  20
ATOM     20  O   UNL     1     -95.986  24.480 -40.600  1.00  0.00    -0.504 OA
ATOM     21  H   UNL     1     -95.030  24.346 -40.902  1.00  0.00     0.293 HD
ENDBRANCH  17  20
ENDBRANCH   1  12
BRANCH   6  22
ATOM     22  O   UNL     1    -104.587  28.889 -38.948  1.00  0.00    -0.507 OA
ATOM     23  H   UNL     1    -105.215  28.215 -38.538  1.00  0.00     0.293 HD
ENDBRANCH   6  22
BRANCH   8  24
ATOM     24  O   UNL     1    -103.708  28.307 -43.632  1.00  0.00    -0.508 OA
ATOM     25  H   UNL     1    -103.358  28.976 -44.309  1.00  0.00     0.293 HD
ENDBRANCH   8  24
TORSDOF 5
ENDMDL
MODEL 4
REMARK VINA RESULT:    -3.873      6.094      8.875
REMARK INTER + INTRA:          -4.827
REMARK INTER:                  -4.547
REMARK INTRA:                  -0.280
REMARK UNBOUND:                -0.274
REMARK SMILES O=c1cc(-c2ccc(O)c(O)c2)oc2cc(O)cc(O)c12
REMARK SMILES IDX 4 1 3 2 2 3 1 4 21 5 19 6 18 7 16 8 15 9 14 10 13 11 5 12
REMARK SMILES IDX 6 13 7 14 8 15 12 16 10 17 9 18 11 20 20 22 17 24
REMARK H PARENT 9 19 11 21 20 23 17 25
REMARK Flexibility Score: inf
ROOT
ATOM      1  C   UNL     1     -96.479  24.210 -37.534  1.00  0.00     0.138 A 
ATOM      2  C   UNL     1     -97.666  23.525 -37.823  1.00  0.00     0.100 A 
ATOM      3  C   UNL     1     -97.946  22.324 -37.171  1.00  0.00     0.197 A 
ATOM      4  O   UNL     1     -98.993  21.705 -37.493  1.00  0.00    -0.289 OA
ATOM      5  C   UNL     1     -97.049  21.826 -36.196  1.00  0.00     0.107 A 
ATOM      6  C   UNL     1     -97.248  20.629 -35.442  1.00  0.00     0.134 A 
ATOM      7  C   UNL     1     -96.240  20.186 -34.575  1.00  0.00     0.093 A 
ATOM      8  C   UNL     1     -95.069  20.924 -34.393  1.00  0.00     0.123 A 
ATOM      9  C   UNL     1     -94.888  22.118 -35.086  1.00  0.00     0.094 A 
ATOM     10  C   UNL     1     -95.858  22.571 -35.984  1.00  0.00     0.146 A 
ATOM     11  O   UNL     1     -95.637  23.706 -36.638  1.00  0.00    -0.456 OA
ENDROOT
BRANCH   1  12
ATOM     12  C   UNL     1     -96.132  25.493 -38.195  1.00  0.00     0.021 A 
ATOM     13  C   UNL     1     -94.812  25.794 -38.583  1.00  0.00     0.016 A 
ATOM     14  C   UNL     1     -94.513  27.014 -39.194  1.00  0.00     0.051 A 
ATOM     15  C   UNL     1     -95.523  27.958 -39.423  1.00  0.00     0.157 A 
ATOM     16  C   UNL     1     -97.137  26.452 -38.416  1.00  0.00     0.062 A 
ATOM     17  C   UNL     1     -96.841  27.675 -39.029  1.00  0.00     0.158 A 
BRANCH  15  18
ATOM     18  O   UNL     1     -95.221  29.174 -40.034  1.00  0.00    -0.504 OA
ATOM     19  H   UNL     1     -94.531  29.239 -40.773  1.00  0.00     0.293 HD
ENDBRANCH  15  18
BRANCH  17  20
ATOM     20  O   UNL     1     -97.868  28.595 -39.238  1.00  0.00    -0.504 OA
ATOM     21  H   UNL     1     -98.336  28.685 -40.131  1.00  0.00     0.293 HD
ENDBRANCH  17  20
ENDBRANCH   1  12
BRANCH   6  22
ATOM     22  O   UNL     1     -98.412  19.858 -35.487  1.00  0.00    -0.507 OA
ATOM     23  H   UNL     1     -98.804  19.449 -36.321  1.00  0.00     0.293 HD
ENDBRANCH   6  22
BRANCH   8  24
ATOM     24  O   UNL     1     -94.079  20.482 -33.516  1.00  0.00    -0.508 OA
ATOM     25  H   UNL     1     -93.666  21.102 -32.828  1.00  0.00     0.293 HD
ENDBRANCH   8  24
TORSDOF 5
ENDMDL
MODEL 5
REMARK VINA RESULT:    -3.871     11.578     11.807
REMARK INTER + INTRA:          -4.825
REMARK INTER:                  -4.514
REMARK INTRA:                  -0.311
REMARK UNBOUND:                -0.274
REMARK SMILES O=c1cc(-c2ccc(O)c(O)c2)oc2cc(O)cc(O)c12
REMARK SMILES IDX 4 1 3 2 2 3 1 4 21 5 19 6 18 7 16 8 15 9 14 10 13 11 5 12
REMARK SMILES IDX 6 13 7 14 8 15 12 16 10 17 9 18 11 20 20 22 17 24
REMARK H PARENT 9 19 11 21 20 23 17 25
REMARK Flexibility Score: inf
ROOT
ATOM      1  C   UNL     1     -99.926  34.132 -34.750  1.00  0.00     0.138 A 
ATOM      2  C   UNL     1    -100.923  33.867 -33.803  1.00  0.00     0.100 A 
ATOM      3  C   UNL     1    -102.261  34.091 -34.129  1.00  0.00     0.197 A 
ATOM      4  O   UNL     1    -103.129  33.898 -33.238  1.00  0.00    -0.289 OA
ATOM      5  C   UNL     1    -102.604  34.548 -35.424  1.00  0.00     0.107 A 
ATOM      6  C   UNL     1    -103.937  34.778 -35.881  1.00  0.00     0.134 A 
ATOM      7  C   UNL     1    -104.145  35.325 -37.153  1.00  0.00     0.093 A 
ATOM      8  C   UNL     1    -103.073  35.595 -38.006  1.00  0.00     0.123 A 
ATOM      9  C   UNL     1    -101.772  35.327 -37.589  1.00  0.00     0.094 A 
ATOM     10  C   UNL     1    -101.528  34.814 -36.313  1.00  0.00     0.146 A 
ATOM     11  O   UNL     1    -100.270  34.590 -35.949  1.00  0.00    -0.456 OA
ENDROOT
BRANCH   1  12
ATOM     12  C   UNL     1     -98.487  33.909 -34.458  1.00  0.00     0.021 A 
ATOM     13  C   UNL     1     -98.064  33.021 -33.451  1.00  0.00     0.016 A 
ATOM     14  C   UNL     1     -96.703  32.840 -33.191  1.00  0.00     0.051 A 
ATOM     15  C   UNL     1     -95.742  33.545 -33.927  1.00  0.00     0.157 A 
ATOM     16  C   UNL     1     -97.516  34.623 -35.182  1.00  0.00     0.062 A 
ATOM     17  C   UNL     1     -96.151  34.442 -34.925  1.00  0.00     0.158 A 
BRANCH  15  18
ATOM     18  O   UNL     1     -94.385  33.360 -33.666  1.00  0.00    -0.504 OA
ATOM     19  H   UNL     1     -93.674  33.634 -34.334  1.00  0.00     0.293 HD
ENDBRANCH  15  18
BRANCH  17  20
ATOM     20  O   UNL     1     -95.220  35.163 -35.672  1.00  0.00    -0.504 OA
ATOM     21  H   UNL     1     -94.941  36.103 -35.421  1.00  0.00     0.293 HD
ENDBRANCH  17  20
ENDBRANCH   1  12
BRANCH   6  22
ATOM     22  O   UNL     1    -105.083  34.470 -35.142  1.00  0.00    -0.507 OA
ATOM     23  H   UNL     1    -105.915  35.037 -35.098  1.00  0.00     0.293 HD
ENDBRANCH   6  22
BRANCH   8  24
ATOM     24  O   UNL     1    -103.292  36.125 -39.277  1.00  0.00    -0.508 OA
ATOM     25  H   UNL     1    -103.777  35.598 -39.994  1.00  0.00     0.293 HD
ENDBRANCH   8  24
TORSDOF 5
ENDMDL
MODEL 6
REMARK VINA RESULT:    -3.868     12.760     14.133
REMARK INTER + INTRA:          -4.821
REMARK INTER:                  -4.558
REMARK INTRA:                  -0.263
REMARK UNBOUND:                -0.274
REMARK SMILES O=c1cc(-c2ccc(O)c(O)c2)oc2cc(O)cc(O)c12
REMARK SMILES IDX 4 1 3 2 2 3 1 4 21 5 19 6 18 7 16 8 15 9 14 10 13 11 5 12
REMARK SMILES IDX 6 13 7 14 8 15 12 16 10 17 9 18 11 20 20 22 17 24
REMARK H PARENT 9 19 11 21 20 23 17 25
REMARK Flexibility Score: inf
ROOT
ATOM      1  C   UNL     1    -100.655  24.149 -28.939  1.00  0.00     0.138 A 
ATOM      2  C   UNL     1    -101.399  23.773 -30.066  1.00  0.00     0.100 A 
ATOM      3  C   UNL     1    -102.742  24.137 -30.159  1.00  0.00     0.197 A 
ATOM      4  O   UNL     1    -103.398  23.737 -31.155  1.00  0.00    -0.289 OA
ATOM      5  C   UNL     1    -103.334  24.915 -29.135  1.00  0.00     0.107 A 
ATOM      6  C   UNL     1    -104.686  25.375 -29.139  1.00  0.00     0.134 A 
ATOM      7  C   UNL     1    -105.186  26.054 -28.021  1.00  0.00     0.093 A 
ATOM      8  C   UNL     1    -104.368  26.340 -26.925  1.00  0.00     0.123 A 
ATOM      9  C   UNL     1    -103.035  25.940 -26.933  1.00  0.00     0.094 A 
ATOM     10  C   UNL     1    -102.514  25.230 -28.018  1.00  0.00     0.146 A 
ATOM     11  O   UNL     1    -101.241  24.852 -27.976  1.00  0.00    -0.456 OA
ENDROOT
BRANCH   1  12
ATOM     12  C   UNL     1     -99.222  23.790 -28.790  1.00  0.00     0.021 A 
ATOM     13  C   UNL     1     -98.194  24.673 -29.170  1.00  0.00     0.016 A 
ATOM     14  C   UNL     1     -96.854  24.305 -29.028  1.00  0.00     0.051 A 
ATOM     15  C   UNL     1     -96.516  23.048 -28.510  1.00  0.00     0.157 A 
ATOM     16  C   UNL     1     -98.875  22.525 -28.284  1.00  0.00     0.062 A 
ATOM     17  C   UNL     1     -97.532  22.153 -28.139  1.00  0.00     0.158 A 
BRANCH  15  18
ATOM     18  O   UNL     1     -95.178  22.684 -28.368  1.00  0.00    -0.504 OA
ATOM     19  H   UNL     1     -94.660  22.889 -27.521  1.00  0.00     0.293 HD
ENDBRANCH  15  18
BRANCH  17  20
ATOM     20  O   UNL     1     -97.231  20.892 -27.625  1.00  0.00    -0.504 OA
ATOM     21  H   UNL     1     -96.648  20.770 -26.806  1.00  0.00     0.293 HD
ENDBRANCH  17  20
ENDBRANCH   1  12
BRANCH   6  22
ATOM     22  O   UNL     1    -105.565  25.214 -30.212  1.00  0.00    -0.507 OA
ATOM     23  H   UNL     1    -106.410  24.664 -30.193  1.00  0.00     0.293 HD
ENDBRANCH   6  22
BRANCH   8  24
ATOM     24  O   UNL     1    -104.872  27.030 -25.824  1.00  0.00    -0.508 OA
ATOM     25  H   UNL     1    -104.273  27.600 -25.236  1.00  0.00     0.293 HD
ENDBRANCH   8  24
TORSDOF 5
ENDMDL
MODEL 7
REMARK VINA RESULT:    -3.807      2.415      7.346
REMARK INTER + INTRA:          -4.749
REMARK INTER:                  -4.448
REMARK INTRA:                  -0.300
REMARK UNBOUND:                -0.274
REMARK SMILES O=c1cc(-c2ccc(O)c(O)c2)oc2cc(O)cc(O)c12
REMARK SMILES IDX 4 1 3 2 2 3 1 4 21 5 19 6 18 7 16 8 15 9 14 10 13 11 5 12
REMARK SMILES IDX 6 13 7 14 8 15 12 16 10 17 9 18 11 20 20 22 17 24
REMARK H PARENT 9 19 11 21 20 23 17 25
REMARK Flexibility Score: inf
ROOT
ATOM      1  C   UNL     1     -99.484  27.301 -39.699  1.00  0.00     0.138 A 
ATOM      2  C   UNL     1     -98.504  27.990 -38.971  1.00  0.00     0.100 A 
ATOM      3  C   UNL     1     -97.207  27.479 -38.907  1.00  0.00     0.197 A 
ATOM      4  O   UNL     1     -96.364  28.090 -38.200  1.00  0.00    -0.289 OA
ATOM      5  C   UNL     1     -96.881  26.293 -39.606  1.00  0.00     0.107 A 
ATOM      6  C   UNL     1     -95.583  25.698 -39.641  1.00  0.00     0.134 A 
ATOM      7  C   UNL     1     -95.406  24.468 -40.287  1.00  0.00     0.093 A 
ATOM      8  C   UNL     1     -96.465  23.841 -40.947  1.00  0.00     0.123 A 
ATOM      9  C   UNL     1     -97.723  24.437 -40.961  1.00  0.00     0.094 A 
ATOM     10  C   UNL     1     -97.941  25.647 -40.297  1.00  0.00     0.146 A 
ATOM     11  O   UNL     1     -99.161  26.172 -40.321  1.00  0.00    -0.456 OA
ENDROOT
BRANCH   1  12
ATOM     12  C   UNL     1    -100.879  27.800 -39.804  1.00  0.00     0.021 A 
ATOM     13  C   UNL     1    -101.534  28.403 -38.714  1.00  0.00     0.016 A 
ATOM     14  C   UNL     1    -102.851  28.853 -38.839  1.00  0.00     0.051 A 
ATOM     15  C   UNL     1    -103.538  28.703 -40.050  1.00  0.00     0.157 A 
ATOM     16  C   UNL     1    -101.581  27.640 -41.012  1.00  0.00     0.062 A 
ATOM     17  C   UNL     1    -102.900  28.091 -41.140  1.00  0.00     0.158 A 
BRANCH  15  18
ATOM     18  O   UNL     1    -104.852  29.155 -40.171  1.00  0.00    -0.504 OA
ATOM     19  H   UNL     1    -105.218  29.888 -39.576  1.00  0.00     0.293 HD
ENDBRANCH  15  18
BRANCH  17  20
ATOM     20  O   UNL     1    -103.559  27.922 -42.359  1.00  0.00    -0.504 OA
ATOM     21  H   UNL     1    -103.175  27.352 -43.102  1.00  0.00     0.293 HD
ENDBRANCH  17  20
ENDBRANCH   1  12
BRANCH   6  22
ATOM     22  O   UNL     1     -94.440  26.278 -39.083  1.00  0.00    -0.507 OA
ATOM     23  H   UNL     1     -94.203  27.256 -39.134  1.00  0.00     0.293 HD
ENDBRANCH   6  22
BRANCH   8  24
ATOM     24  O   UNL     1     -96.274  22.624 -41.600  1.00  0.00    -0.508 OA
ATOM     25  H   UNL     1     -96.729  21.775 -41.283  1.00  0.00     0.293 HD
ENDBRANCH   8  24
TORSDOF 5
ENDMDL
MODEL 8
REMARK VINA RESULT:    -3.800      3.172      8.152
REMARK INTER + INTRA:          -4.741
REMARK INTER:                  -4.478
REMARK INTRA:                  -0.263
REMARK UNBOUND:                -0.274
REMARK SMILES O=c1cc(-c2ccc(O)c(O)c2)oc2cc(O)cc(O)c12
REMARK SMILES IDX 4 1 3 2 2 3 1 4 21 5 19 6 18 7 16 8 15 9 14 10 13 11 5 12
REMARK SMILES IDX 6 13 7 14 8 15 12 16 10 17 9 18 11 20 20 22 17 24
REMARK H PARENT 9 19 11 21 20 23 17 25
REMARK Flexibility Score: inf
ROOT
ATOM      1  C   UNL     1    -100.130  27.336 -38.993  1.00  0.00     0.138 A 
ATOM      2  C   UNL     1    -100.309  26.129 -39.682  1.00  0.00     0.100 A 
ATOM      3  C   UNL     1     -99.198  25.451 -40.187  1.00  0.00     0.197 A 
ATOM      4  O   UNL     1     -99.396  24.400 -40.849  1.00  0.00    -0.289 OA
ATOM      5  C   UNL     1     -97.899  25.968 -39.969  1.00  0.00     0.107 A 
ATOM      6  C   UNL     1     -96.690  25.345 -40.407  1.00  0.00     0.134 A 
ATOM      7  C   UNL     1     -95.468  26.003 -40.217  1.00  0.00     0.093 A 
ATOM      8  C   UNL     1     -95.405  27.231 -39.555  1.00  0.00     0.123 A 
ATOM      9  C   UNL     1     -96.573  27.822 -39.080  1.00  0.00     0.094 A 
ATOM     10  C   UNL     1     -97.811  27.209 -39.283  1.00  0.00     0.146 A 
ATOM     11  O   UNL     1     -98.902  27.816 -38.828  1.00  0.00    -0.456 OA
ENDROOT
BRANCH   1  12
ATOM     12  C   UNL     1    -101.275  28.096 -38.432  1.00  0.00     0.021 A 
ATOM     13  C   UNL     1    -101.418  28.306 -37.048  1.00  0.00     0.016 A 
ATOM     14  C   UNL     1    -102.512  29.017 -36.548  1.00  0.00     0.051 A 
ATOM     15  C   UNL     1    -103.485  29.524 -37.419  1.00  0.00     0.157 A 
ATOM     16  C   UNL     1    -102.264  28.596 -39.299  1.00  0.00     0.062 A 
ATOM     17  C   UNL     1    -103.361  29.310 -38.801  1.00  0.00     0.158 A 
BRANCH  15  18
ATOM     18  O   UNL     1    -104.574  30.234 -36.916  1.00  0.00    -0.504 OA
ATOM     19  H   UNL     1    -104.553  31.243 -36.825  1.00  0.00     0.293 HD
ENDBRANCH  15  18
BRANCH  17  20
ATOM     20  O   UNL     1    -104.314  29.797 -39.694  1.00  0.00    -0.504 OA
ATOM     21  H   UNL     1    -104.599  30.768 -39.700  1.00  0.00     0.293 HD
ENDBRANCH  17  20
ENDBRANCH   1  12
BRANCH   6  22
ATOM     22  O   UNL     1     -96.631  24.085 -41.007  1.00  0.00    -0.507 OA
ATOM     23  H   UNL     1     -96.420  23.224 -40.527  1.00  0.00     0.293 HD
ENDBRANCH   6  22
BRANCH   8  24
ATOM     24  O   UNL     1     -94.182  27.870 -39.358  1.00  0.00    -0.508 OA
ATOM     25  H   UNL     1     -94.056  28.557 -38.623  1.00  0.00     0.293 HD
ENDBRANCH   8  24
TORSDOF 5
ENDMDL
MODEL 9
REMARK VINA RESULT:    -3.775      3.798      6.869
REMARK INTER + INTRA:          -4.711
REMARK INTER:                  -4.408
REMARK INTRA:                  -0.304
REMARK UNBOUND:                -0.274
REMARK SMILES O=c1cc(-c2ccc(O)c(O)c2)oc2cc(O)cc(O)c12
REMARK SMILES IDX 4 1 3 2 2 3 1 4 21 5 19 6 18 7 16 8 15 9 14 10 13 11 5 12
REMARK SMILES IDX 6 13 7 14 8 15 12 16 10 17 9 18 11 20 20 22 17 24
REMARK H PARENT 9 19 11 21 20 23 17 25
REMARK Flexibility Score: inf
ROOT
ATOM      1  C   UNL     1    -100.285  27.342 -39.477  1.00  0.00     0.138 A 
ATOM      2  C   UNL     1    -100.684  27.223 -38.139  1.00  0.00     0.100 A 
ATOM      3  C   UNL     1     -99.719  27.085 -37.141  1.00  0.00     0.197 A 
ATOM      4  O   UNL     1    -100.110  26.924 -35.956  1.00  0.00    -0.289 OA
ATOM      5  C   UNL     1     -98.345  27.103 -37.482  1.00  0.00     0.107 A 
ATOM      6  C   UNL     1     -97.272  27.005 -36.546  1.00  0.00     0.134 A 
ATOM      7  C   UNL     1     -95.953  26.936 -37.013  1.00  0.00     0.093 A 
ATOM      8  C   UNL     1     -95.666  27.018 -38.378  1.00  0.00     0.123 A 
ATOM      9  C   UNL     1     -96.703  27.164 -39.295  1.00  0.00     0.094 A 
ATOM     10  C   UNL     1     -98.031  27.202 -38.864  1.00  0.00     0.146 A 
ATOM     11  O   UNL     1     -98.991  27.324 -39.776  1.00  0.00    -0.456 OA
ENDROOT
BRANCH   1  12
ATOM     12  C   UNL     1    -101.269  27.494 -40.579  1.00  0.00     0.021 A 
ATOM     13  C   UNL     1    -102.490  28.170 -40.394  1.00  0.00     0.016 A 
ATOM     14  C   UNL     1    -103.402  28.288 -41.446  1.00  0.00     0.051 A 
ATOM     15  C   UNL     1    -103.114  27.729 -42.698  1.00  0.00     0.157 A 
ATOM     16  C   UNL     1    -100.995  26.923 -41.834  1.00  0.00     0.062 A 
ATOM     17  C   UNL     1    -101.906  27.042 -42.892  1.00  0.00     0.158 A 
BRANCH  15  18
ATOM     18  O   UNL     1    -104.025  27.851 -43.746  1.00  0.00    -0.504 OA
ATOM     19  H   UNL     1    -104.424  28.747 -44.002  1.00  0.00     0.293 HD
ENDBRANCH  15  18
BRANCH  17  20
ATOM     20  O   UNL     1    -101.592  26.469 -44.124  1.00  0.00    -0.504 OA
ATOM     21  H   UNL     1    -100.761  25.906 -44.259  1.00  0.00     0.293 HD
ENDBRANCH  17  20
ENDBRANCH   1  12
BRANCH   6  22
ATOM     22  O   UNL     1     -97.440  26.996 -35.159  1.00  0.00    -0.507 OA
ATOM     23  H   UNL     1     -98.106  27.559 -34.652  1.00  0.00     0.293 HD
ENDBRANCH   6  22
BRANCH   8  24
ATOM     24  O   UNL     1     -94.350  26.963 -38.832  1.00  0.00    -0.508 OA
ATOM     25  H   UNL     1     -94.121  26.604 -39.752  1.00  0.00     0.293 HD
ENDBRANCH   8  24
TORSDOF 5
ENDMDL
