MODEL 1
REMARK VINA RESULT:    -4.728      0.000      0.000
REMARK INTER + INTRA:          -4.866
REMARK INTER:                  -4.866
REMARK INTRA:                   0.000
REMARK UNBOUND:                 0.000
REMARK SMILES Nc1ncnc2nc[nH]c12
REMARK SMILES IDX 8 1 7 2 6 3 5 4 4 5 3 6 2 7 10 8 9 9 1 11
REMARK H PARENT 9 10 1 12 1 13
REMARK Flexibility Score: inf
ROOT
ATOM      1  C   UNL     1      22.394 -25.777  25.726  1.00  0.00     0.199 A 
ATOM      2  N   UNL     1      23.381 -25.346  26.558  1.00  0.00    -0.217 NA
ATOM      3  C   UNL     1      24.413 -25.183  25.714  1.00  0.00     0.182 A 
ATOM      4  N   UNL     1      25.660 -24.762  26.036  1.00  0.00    -0.215 NA
ATOM      5  C   UNL     1      26.585 -24.659  25.033  1.00  0.00     0.226 A 
ATOM      6  N   UNL     1      26.249 -24.974  23.740  1.00  0.00    -0.217 NA
ATOM      7  C   UNL     1      24.992 -25.400  23.415  1.00  0.00     0.152 A 
ATOM      8  C   UNL     1      24.062 -25.501  24.447  1.00  0.00     0.127 A 
ATOM      9  N   UNL     1      22.779 -25.882  24.429  1.00  0.00    -0.340 N 
ATOM     10  H   UNL     1      22.200 -26.189  23.617  1.00  0.00     0.168 HD
ENDROOT
BRANCH   7  11
ATOM     11  N   UNL     1      24.664 -25.724  22.063  1.00  0.00    -0.382 N 
ATOM     12  H   UNL     1      23.753 -25.441  21.641  1.00  0.00     0.158 HD
ATOM     13  H   UNL     1      25.344 -26.255  21.474  1.00  0.00     0.158 HD
ENDBRANCH   7  11
TORSDOF 1
ENDMDL
MODEL 2
REMARK VINA RESULT:    -4.727      1.154      1.154
REMARK INTER + INTRA:          -4.865
REMARK INTER:                  -4.865
REMARK INTRA:                   0.000
REMARK UNBOUND:                 0.000
REMARK SMILES Nc1ncnc2nc[nH]c12
REMARK SMILES IDX 8 1 7 2 6 3 5 4 4 5 3 6 2 7 10 8 9 9 1 11
REMARK H PARENT 9 10 1 12 1 13
REMARK Flexibility Score: inf
ROOT
ATOM      1  C   UNL     1      22.430 -25.744  25.732  1.00  0.00     0.199 A 
ATOM      2  N   UNL     1      22.997 -24.624  26.254  1.00  0.00    -0.217 NA
ATOM      3  C   UNL     1      23.866 -24.270  25.293  1.00  0.00     0.182 A 
ATOM      4  N   UNL     1      24.701 -23.203  25.311  1.00  0.00    -0.215 NA
ATOM      5  C   UNL     1      25.518 -23.005  24.233  1.00  0.00     0.226 A 
ATOM      6  N   UNL     1      25.486 -23.868  23.167  1.00  0.00    -0.217 NA
ATOM      7  C   UNL     1      24.645 -24.944  23.147  1.00  0.00     0.152 A 
ATOM      8  C   UNL     1      23.819 -25.133  24.252  1.00  0.00     0.127 A 
ATOM      9  N   UNL     1      22.911 -26.081  24.508  1.00  0.00    -0.340 N 
ATOM     10  H   UNL     1      22.629 -26.894  23.917  1.00  0.00     0.168 HD
ENDROOT
BRANCH   7  11
ATOM     11  N   UNL     1      24.629 -25.831  22.027  1.00  0.00    -0.382 N 
ATOM     12  H   UNL     1      24.518 -25.473  21.052  1.00  0.00     0.158 HD
ATOM     13  H   UNL     1      24.729 -26.860  22.173  1.00  0.00     0.158 HD
ENDBRANCH   7  11
TORSDOF 1
ENDMDL
MODEL 3
REMARK VINA RESULT:    -4.543      1.875      3.496
REMARK INTER + INTRA:          -4.676
REMARK INTER:                  -4.676
REMARK INTRA:                   0.000
REMARK UNBOUND:                 0.000
REMARK SMILES Nc1ncnc2nc[nH]c12
REMARK SMILES IDX 8 1 7 2 6 3 5 4 4 5 3 6 2 7 10 8 9 9 1 11
REMARK H PARENT 9 10 1 12 1 13
REMARK Flexibility Score: inf
ROOT
ATOM      1  C   UNL     1      24.981 -25.427  22.899  1.00  0.00     0.199 A 
ATOM      2  N   UNL     1      25.019 -24.080  23.083  1.00  0.00    -0.217 NA
ATOM      3  C   UNL     1      24.075 -23.894  24.021  1.00  0.00     0.182 A 
ATOM      4  N   UNL     1      23.703 -22.713  24.570  1.00  0.00    -0.215 NA
ATOM      5  C   UNL     1      22.715 -22.724  25.517  1.00  0.00     0.226 A 
ATOM      6  N   UNL     1      22.125 -23.904  25.894  1.00  0.00    -0.217 NA
ATOM      7  C   UNL     1      22.498 -25.096  25.340  1.00  0.00     0.152 A 
ATOM      8  C   UNL     1      23.504 -25.068  24.377  1.00  0.00     0.127 A 
ATOM      9  N   UNL     1      24.066 -26.060  23.676  1.00  0.00    -0.340 N 
ATOM     10  H   UNL     1      23.858 -27.083  23.709  1.00  0.00     0.168 HD
ENDROOT
BRANCH   7  11
ATOM     11  N   UNL     1      21.869 -26.312  25.747  1.00  0.00    -0.382 N 
ATOM     12  H   UNL     1      21.172 -26.794  25.138  1.00  0.00     0.158 HD
ATOM     13  H   UNL     1      22.105 -26.738  26.671  1.00  0.00     0.158 HD
ENDBRANCH   7  11
TORSDOF 1
ENDMDL
MODEL 4
REMARK VINA RESULT:    -4.417      1.623      2.741
REMARK INTER + INTRA:          -4.546
REMARK INTER:                  -4.546
REMARK INTRA:                   0.000
REMARK UNBOUND:                 0.000
REMARK SMILES Nc1ncnc2nc[nH]c12
REMARK SMILES IDX 8 1 7 2 6 3 5 4 4 5 3 6 2 7 10 8 9 9 1 11
REMARK H PARENT 9 10 1 12 1 13
REMARK Flexibility Score: inf
ROOT
ATOM      1  C   UNL     1      23.803 -26.672  28.443  1.00  0.00     0.199 A 
ATOM      2  N   UNL     1      24.973 -26.255  27.887  1.00  0.00    -0.217 NA
ATOM      3  C   UNL     1      24.579 -25.843  26.671  1.00  0.00     0.182 A 
ATOM      4  N   UNL     1      25.369 -25.327  25.698  1.00  0.00    -0.215 NA
ATOM      5  C   UNL     1      24.782 -24.962  24.518  1.00  0.00     0.226 A 
ATOM      6  N   UNL     1      23.432 -25.116  24.334  1.00  0.00    -0.217 NA
ATOM      7  C   UNL     1      22.635 -25.637  25.314  1.00  0.00     0.152 A 
ATOM      8  C   UNL     1      23.246 -26.004  26.509  1.00  0.00     0.127 A 
ATOM      9  N   UNL     1      22.729 -26.531  27.626  1.00  0.00    -0.340 N 
ATOM     10  H   UNL     1      21.736 -26.779  27.832  1.00  0.00     0.168 HD
ENDROOT
BRANCH   7  11
ATOM     11  N   UNL     1      21.230 -25.789  25.100  1.00  0.00    -0.382 N 
ATOM     12  H   UNL     1      20.548 -25.698  25.884  1.00  0.00     0.158 HD
ATOM     13  H   UNL     1      20.867 -25.997  24.143  1.00  0.00     0.158 HD
ENDBRANCH   7  11
TORSDOF 1
ENDMDL
MODEL 5
REMARK VINA RESULT:    -4.385      1.078      3.051
REMARK INTER + INTRA:          -4.513
REMARK INTER:                  -4.513
REMARK INTRA:                   0.000
REMARK UNBOUND:                 0.000
REMARK SMILES Nc1ncnc2nc[nH]c12
REMARK SMILES IDX 8 1 7 2 6 3 5 4 4 5 3 6 2 7 10 8 9 9 1 11
REMARK H PARENT 9 10 1 12 1 13
REMARK Flexibility Score: inf
ROOT
ATOM      1  C   UNL     1      25.179 -24.807  23.128  1.00  0.00     0.199 A 
ATOM      2  N   UNL     1      26.010 -24.949  24.196  1.00  0.00    -0.217 NA
ATOM      3  C   UNL     1      25.163 -25.330  25.167  1.00  0.00     0.182 A 
ATOM      4  N   UNL     1      25.483 -25.608  26.454  1.00  0.00    -0.215 NA
ATOM      5  C   UNL     1      24.476 -25.981  27.302  1.00  0.00     0.226 A 
ATOM      6  N   UNL     1      23.184 -26.070  26.852  1.00  0.00    -0.217 NA
ATOM      7  C   UNL     1      22.860 -25.790  25.555  1.00  0.00     0.152 A 
ATOM      8  C   UNL     1      23.894 -25.411  24.704  1.00  0.00     0.127 A 
ATOM      9  N   UNL     1      23.879 -25.083  23.406  1.00  0.00    -0.340 N 
ATOM     10  H   UNL     1      23.067 -25.043  22.752  1.00  0.00     0.168 HD
ENDROOT
BRANCH   7  11
ATOM     11  N   UNL     1      21.506 -25.889  25.108  1.00  0.00    -0.382 N 
ATOM     12  H   UNL     1      21.180 -25.395  24.249  1.00  0.00     0.158 HD
ATOM     13  H   UNL     1      20.820 -26.464  25.646  1.00  0.00     0.158 HD
ENDBRANCH   7  11
TORSDOF 1
ENDMDL
MODEL 6
REMARK VINA RESULT:    -4.374      1.726      2.514
REMARK INTER + INTRA:          -4.502
REMARK INTER:                  -4.502
REMARK INTRA:                   0.000
REMARK UNBOUND:                 0.000
REMARK SMILES Nc1ncnc2nc[nH]c12
REMARK SMILES IDX 8 1 7 2 6 3 5 4 4 5 3 6 2 7 10 8 9 9 1 11
REMARK H PARENT 9 10 1 12 1 13
REMARK Flexibility Score: inf
ROOT
ATOM      1  C   UNL     1      24.723 -22.203  24.445  1.00  0.00     0.199 A 
ATOM      2  N   UNL     1      24.548 -22.752  25.678  1.00  0.00    -0.217 NA
ATOM      3  C   UNL     1      24.440 -24.060  25.395  1.00  0.00     0.182 A 
ATOM      4  N   UNL     1      24.250 -25.066  26.282  1.00  0.00    -0.215 NA
ATOM      5  C   UNL     1      24.163 -26.343  25.800  1.00  0.00     0.226 A 
ATOM      6  N   UNL     1      24.267 -26.589  24.455  1.00  0.00    -0.217 NA
ATOM      7  C   UNL     1      24.458 -25.576  23.559  1.00  0.00     0.152 A 
ATOM      8  C   UNL     1      24.544 -24.281  24.064  1.00  0.00     0.127 A 
ATOM      9  N   UNL     1      24.725 -23.112  23.437  1.00  0.00    -0.340 N 
ATOM     10  H   UNL     1      24.842 -22.929  22.416  1.00  0.00     0.168 HD
ENDROOT
BRANCH   7  11
ATOM     11  N   UNL     1      24.563 -25.855  22.161  1.00  0.00    -0.382 N 
ATOM     12  H   UNL     1      25.007 -26.733  21.814  1.00  0.00     0.158 HD
ATOM     13  H   UNL     1      24.190 -25.173  21.464  1.00  0.00     0.158 HD
ENDBRANCH   7  11
TORSDOF 1
ENDMDL
MODEL 7
REMARK VINA RESULT:    -4.349     13.910     15.373
REMARK INTER + INTRA:          -4.476
REMARK INTER:                  -4.476
REMARK INTRA:                   0.000
REMARK UNBOUND:                 0.000
REMARK SMILES Nc1ncnc2nc[nH]c12
REMARK SMILES IDX 8 1 7 2 6 3 5 4 4 5 3 6 2 7 10 8 9 9 1 11
REMARK H PARENT 9 10 1 12 1 13
REMARK Flexibility Score: inf
ROOT
ATOM      1  C   UNL     1      27.411 -28.520  37.180  1.00  0.00     0.199 A 
ATOM      2  N   UNL     1      27.107 -27.274  37.632  1.00  0.00    -0.217 NA
ATOM      3  C   UNL     1      26.533 -27.533  38.819  1.00  0.00     0.182 A 
ATOM      4  N   UNL     1      26.039 -26.624  39.694  1.00  0.00    -0.215 NA
ATOM      5  C   UNL     1      25.488 -27.083  40.858  1.00  0.00     0.226 A 
ATOM      6  N   UNL     1      25.442 -28.428  41.125  1.00  0.00    -0.217 NA
ATOM      7  C   UNL     1      25.939 -29.346  40.243  1.00  0.00     0.152 A 
ATOM      8  C   UNL     1      26.496 -28.864  39.062  1.00  0.00     0.127 A 
ATOM      9  N   UNL     1      27.051 -29.514  38.032  1.00  0.00    -0.340 N 
ATOM     10  H   UNL     1      27.181 -30.541  37.901  1.00  0.00     0.168 HD
ENDROOT
BRANCH   7  11
ATOM     11  N   UNL     1      25.879 -30.742  40.541  1.00  0.00    -0.382 N 
ATOM     12  H   UNL     1      26.417 -31.440  39.982  1.00  0.00     0.158 HD
ATOM     13  H   UNL     1      25.290 -31.082  41.332  1.00  0.00     0.158 HD
ENDBRANCH   7  11
TORSDOF 1
ENDMDL
MODEL 8
REMARK VINA RESULT:    -4.277      2.409      3.006
REMARK INTER + INTRA:          -4.402
REMARK INTER:                  -4.402
REMARK INTRA:                   0.000
REMARK UNBOUND:                 0.000
REMARK SMILES Nc1ncnc2nc[nH]c12
REMARK SMILES IDX 8 1 7 2 6 3 5 4 4 5 3 6 2 7 10 8 9 9 1 11
REMARK H PARENT 9 10 1 12 1 13
REMARK Flexibility Score: inf
ROOT
ATOM      1  C   UNL     1      22.729 -25.836  28.572  1.00  0.00     0.199 A 
ATOM      2  N   UNL     1      22.582 -24.487  28.480  1.00  0.00    -0.217 NA
ATOM      3  C   UNL     1      22.687 -24.279  27.157  1.00  0.00     0.182 A 
ATOM      4  N   UNL     1      22.611 -23.086  26.519  1.00  0.00    -0.215 NA
ATOM      5  C   UNL     1      22.744 -23.074  25.157  1.00  0.00     0.226 A 
ATOM      6  N   UNL     1      22.945 -24.242  24.466  1.00  0.00    -0.217 NA
ATOM      7  C   UNL     1      23.022 -25.445  25.109  1.00  0.00     0.152 A 
ATOM      8  C   UNL     1      22.886 -25.442  26.495  1.00  0.00     0.127 A 
ATOM      9  N   UNL     1      22.916 -26.449  27.375  1.00  0.00    -0.340 N 
ATOM     10  H   UNL     1      23.051 -27.469  27.197  1.00  0.00     0.168 HD
ENDROOT
BRANCH   7  11
ATOM     11  N   UNL     1      23.233 -26.649  24.369  1.00  0.00    -0.382 N 
ATOM     12  H   UNL     1      24.157 -27.135  24.373  1.00  0.00     0.158 HD
ATOM     13  H   UNL     1      22.454 -27.061  23.810  1.00  0.00     0.158 HD
ENDBRANCH   7  11
TORSDOF 1
ENDMDL
MODEL 9
REMARK VINA RESULT:    -4.226      1.961      3.859
REMARK INTER + INTRA:          -4.350
REMARK INTER:                  -4.350
REMARK INTRA:                   0.000
REMARK UNBOUND:                 0.000
REMARK SMILES Nc1ncnc2nc[nH]c12
REMARK SMILES IDX 8 1 7 2 6 3 5 4 4 5 3 6 2 7 10 8 9 9 1 11
REMARK H PARENT 9 10 1 12 1 13
REMARK Flexibility Score: inf
ROOT
ATOM      1  C   UNL     1      25.124 -23.571  23.102  1.00  0.00     0.199 A 
ATOM      2  N   UNL     1      24.974 -24.910  23.287  1.00  0.00    -0.217 NA
ATOM      3  C   UNL     1      23.957 -24.964  24.164  1.00  0.00     0.182 A 
ATOM      4  N   UNL     1      23.402 -26.082  24.690  1.00  0.00    -0.215 NA
ATOM      5  C   UNL     1      22.369 -25.934  25.574  1.00  0.00     0.226 A 
ATOM      6  N   UNL     1      21.913 -24.685  25.911  1.00  0.00    -0.217 NA
ATOM      7  C   UNL     1      22.473 -23.557  25.383  1.00  0.00     0.152 A 
ATOM      8  C   UNL     1      23.525 -23.723  24.485  1.00  0.00     0.127 A 
ATOM      9  N   UNL     1      24.253 -22.818  23.820  1.00  0.00    -0.340 N 
ATOM     10  H   UNL     1      24.179 -21.777  23.839  1.00  0.00     0.168 HD
ENDROOT
BRANCH   7  11
ATOM     11  N   UNL     1      21.984 -22.265  25.749  1.00  0.00    -0.382 N 
ATOM     12  H   UNL     1      21.133 -21.860  25.302  1.00  0.00     0.158 HD
ATOM     13  H   UNL     1      22.480 -21.707  26.478  1.00  0.00     0.158 HD
ENDBRANCH   7  11
TORSDOF 1
ENDMDL
