MODEL 1
REMARK VINA RESULT:    -4.285      0.000      0.000
REMARK INTER + INTRA:          -5.548
REMARK INTER:                  -5.287
REMARK INTRA:                  -0.261
REMARK UNBOUND:                -0.261
REMARK SMILES C=CCc1ccc(OC)c(OC)c1
REMARK SMILES IDX 7 1 10 2 13 3 4 4 5 5 6 6 8 7 9 8 11 9 12 10 3 11 2 12 1 13
REMARK H PARENT
REMARK Flexibility Score: inf
ROOT
ATOM      1  C   UNL     1     -16.591  17.248  42.944  1.00  0.00     0.160 A 
ATOM      2  C   UNL     1     -17.042  17.507  41.640  1.00  0.00     0.160 A 
ATOM      3  C   UNL     1     -17.756  18.691  41.371  1.00  0.00     0.054 A 
ATOM      4  C   UNL     1     -18.024  19.611  42.397  1.00  0.00    -0.040 A 
ATOM      5  C   UNL     1     -17.560  19.351  43.693  1.00  0.00     0.008 A 
ATOM      6  C   UNL     1     -16.853  18.179  43.968  1.00  0.00     0.051 A 
ENDROOT
BRANCH   1   7
ATOM      7  O   UNL     1     -15.883  16.059  43.182  1.00  0.00    -0.493 OA
ATOM      8  C   UNL     1     -16.436  14.901  43.798  1.00  0.00     0.278 C 
ENDBRANCH   1   7
BRANCH   2   9
ATOM      9  O   UNL     1     -16.759  16.564  40.639  1.00  0.00    -0.493 OA
ATOM     10  C   UNL     1     -15.774  16.733  39.625  1.00  0.00     0.278 C 
ENDBRANCH   2   9
BRANCH   4  11
ATOM     11  C   UNL     1     -18.760  20.891  42.099  1.00  0.00     0.062 C 
BRANCH  11  12
ATOM     12  C   UNL     1     -20.228  20.629  41.912  1.00  0.00    -0.030 C 
ATOM     13  C   UNL     1     -21.000  21.444  41.188  1.00  0.00     0.004 C 
ENDBRANCH  11  12
ENDBRANCH   4  11
TORSDOF 4
ENDMDL
MODEL 2
REMARK VINA RESULT:    -4.212      2.794      4.014
REMARK INTER + INTRA:          -5.458
REMARK INTER:                  -5.131
REMARK INTRA:                  -0.326
REMARK UNBOUND:                -0.261
REMARK SMILES C=CCc1ccc(OC)c(OC)c1
REMARK SMILES IDX 7 1 10 2 13 3 4 4 5 5 6 6 8 7 9 8 11 9 12 10 3 11 2 12 1 13
REMARK H PARENT
REMARK Flexibility Score: inf
ROOT
ATOM      1  C   UNL     1     -18.549  20.209  42.310  1.00  0.00     0.160 A 
ATOM      2  C   UNL     1     -17.993  21.231  41.525  1.00  0.00     0.160 A 
ATOM      3  C   UNL     1     -18.841  22.130  40.849  1.00  0.00     0.054 A 
ATOM      4  C   UNL     1     -20.235  22.009  40.951  1.00  0.00    -0.040 A 
ATOM      5  C   UNL     1     -20.782  20.993  41.746  1.00  0.00     0.008 A 
ATOM      6  C   UNL     1     -19.948  20.097  42.418  1.00  0.00     0.051 A 
ENDROOT
BRANCH   1   7
ATOM      7  O   UNL     1     -17.678  19.328  42.971  1.00  0.00    -0.493 OA
ATOM      8  C   UNL     1     -17.417  19.350  44.371  1.00  0.00     0.278 C 
ENDBRANCH   1   7
BRANCH   2   9
ATOM      9  O   UNL     1     -16.595  21.322  41.443  1.00  0.00    -0.493 OA
ATOM     10  C   UNL     1     -15.892  22.095  40.475  1.00  0.00     0.278 C 
ENDBRANCH   2   9
BRANCH   4  11
ATOM     11  C   UNL     1     -21.139  22.991  40.253  1.00  0.00     0.062 C 
BRANCH  11  12
ATOM     12  C   UNL     1     -22.258  22.276  39.548  1.00  0.00    -0.030 C 
ATOM     13  C   UNL     1     -22.090  21.725  38.343  1.00  0.00     0.004 C 
ENDBRANCH  11  12
ENDBRANCH   4  11
TORSDOF 4
ENDMDL
MODEL 3
REMARK VINA RESULT:    -4.181      3.524      6.208
REMARK INTER + INTRA:          -5.420
REMARK INTER:                  -5.181
REMARK INTRA:                  -0.239
REMARK UNBOUND:                -0.261
REMARK SMILES C=CCc1ccc(OC)c(OC)c1
REMARK SMILES IDX 7 1 10 2 13 3 4 4 5 5 6 6 8 7 9 8 11 9 12 10 3 11 2 12 1 13
REMARK H PARENT
REMARK Flexibility Score: inf
ROOT
ATOM      1  C   UNL     1     -20.583  22.247  41.025  1.00  0.00     0.160 A 
ATOM      2  C   UNL     1     -19.231  22.569  40.827  1.00  0.00     0.160 A 
ATOM      3  C   UNL     1     -18.232  21.664  41.234  1.00  0.00     0.054 A 
ATOM      4  C   UNL     1     -18.577  20.446  41.840  1.00  0.00    -0.040 A 
ATOM      5  C   UNL     1     -19.929  20.127  42.023  1.00  0.00     0.008 A 
ATOM      6  C   UNL     1     -20.925  21.020  41.624  1.00  0.00     0.051 A 
ENDROOT
BRANCH   1   7
ATOM      7  O   UNL     1     -21.557  23.170  40.610  1.00  0.00    -0.493 OA
ATOM      8  C   UNL     1     -22.761  23.445  41.318  1.00  0.00     0.278 C 
ENDBRANCH   1   7
BRANCH   2   9
ATOM      9  O   UNL     1     -18.921  23.797  40.221  1.00  0.00    -0.493 OA
ATOM     10  C   UNL     1     -17.798  24.019  39.374  1.00  0.00     0.278 C 
ENDBRANCH   2   9
BRANCH   4  11
ATOM     11  C   UNL     1     -17.507  19.466  42.245  1.00  0.00     0.062 C 
BRANCH  11  12
ATOM     12  C   UNL     1     -17.393  18.357  41.236  1.00  0.00    -0.030 C 
ATOM     13  C   UNL     1     -16.859  17.174  41.551  1.00  0.00     0.004 C 
ENDBRANCH  11  12
ENDBRANCH   4  11
TORSDOF 4
ENDMDL
MODEL 4
REMARK VINA RESULT:    -4.140     16.994     18.286
REMARK INTER + INTRA:          -5.369
REMARK INTER:                  -5.078
REMARK INTRA:                  -0.291
REMARK UNBOUND:                -0.261
REMARK SMILES C=CCc1ccc(OC)c(OC)c1
REMARK SMILES IDX 7 1 10 2 13 3 4 4 5 5 6 6 8 7 9 8 11 9 12 10 3 11 2 12 1 13
REMARK H PARENT
REMARK Flexibility Score: inf
ROOT
ATOM      1  C   UNL     1      -6.775  31.995  46.996  1.00  0.00     0.160 A 
ATOM      2  C   UNL     1      -5.381  31.829  46.965  1.00  0.00     0.160 A 
ATOM      3  C   UNL     1      -4.836  30.538  46.825  1.00  0.00     0.054 A 
ATOM      4  C   UNL     1      -5.674  29.417  46.720  1.00  0.00    -0.040 A 
ATOM      5  C   UNL     1      -7.064  29.593  46.740  1.00  0.00     0.008 A 
ATOM      6  C   UNL     1      -7.612  30.869  46.881  1.00  0.00     0.051 A 
ENDROOT
BRANCH   1   7
ATOM      7  O   UNL     1      -7.289  33.294  47.139  1.00  0.00    -0.493 OA
ATOM      8  C   UNL     1      -8.024  33.985  46.134  1.00  0.00     0.278 C 
ENDBRANCH   1   7
BRANCH   2   9
ATOM      9  O   UNL     1      -4.572  32.971  47.076  1.00  0.00    -0.493 OA
ATOM     10  C   UNL     1      -3.876  33.356  48.257  1.00  0.00     0.278 C 
ENDBRANCH   2   9
BRANCH   4  11
ATOM     11  C   UNL     1      -5.089  28.042  46.538  1.00  0.00     0.062 C 
BRANCH  11  12
ATOM     12  C   UNL     1      -6.161  27.050  46.184  1.00  0.00    -0.030 C 
ATOM     13  C   UNL     1      -6.096  25.774  46.576  1.00  0.00     0.004 C 
ENDBRANCH  11  12
ENDBRANCH   4  11
TORSDOF 4
ENDMDL
MODEL 5
REMARK VINA RESULT:    -4.030     17.548     18.522
REMARK INTER + INTRA:          -5.234
REMARK INTER:                  -5.032
REMARK INTRA:                  -0.202
REMARK UNBOUND:                -0.261
REMARK SMILES C=CCc1ccc(OC)c(OC)c1
REMARK SMILES IDX 7 1 10 2 13 3 4 4 5 5 6 6 8 7 9 8 11 9 12 10 3 11 2 12 1 13
REMARK H PARENT
REMARK Flexibility Score: inf
ROOT
ATOM      1  C   UNL     1      -5.720  30.232  46.706  1.00  0.00     0.160 A 
ATOM      2  C   UNL     1      -6.867  30.961  47.057  1.00  0.00     0.160 A 
ATOM      3  C   UNL     1      -6.732  32.255  47.598  1.00  0.00     0.054 A 
ATOM      4  C   UNL     1      -5.461  32.818  47.791  1.00  0.00    -0.040 A 
ATOM      5  C   UNL     1      -4.323  32.088  47.427  1.00  0.00     0.008 A 
ATOM      6  C   UNL     1      -4.448  30.805  46.893  1.00  0.00     0.051 A 
ENDROOT
BRANCH   1   7
ATOM      7  O   UNL     1      -5.887  28.944  46.171  1.00  0.00    -0.493 OA
ATOM      8  C   UNL     1      -5.082  27.820  46.511  1.00  0.00     0.278 C 
ENDBRANCH   1   7
BRANCH   2   9
ATOM      9  O   UNL     1      -8.123  30.367  46.854  1.00  0.00    -0.493 OA
ATOM     10  C   UNL     1      -8.833  30.383  45.620  1.00  0.00     0.278 C 
ENDBRANCH   2   9
BRANCH   4  11
ATOM     11  C   UNL     1      -5.321  34.214  48.339  1.00  0.00     0.062 C 
BRANCH  11  12
ATOM     12  C   UNL     1      -6.206  34.406  49.539  1.00  0.00    -0.030 C 
ATOM     13  C   UNL     1      -5.921  33.848  50.718  1.00  0.00     0.004 C 
ENDBRANCH  11  12
ENDBRANCH   4  11
TORSDOF 4
ENDMDL
MODEL 6
REMARK VINA RESULT:    -4.022     15.728     16.639
REMARK INTER + INTRA:          -5.223
REMARK INTER:                  -4.944
REMARK INTRA:                  -0.279
REMARK UNBOUND:                -0.261
REMARK SMILES C=CCc1ccc(OC)c(OC)c1
REMARK SMILES IDX 7 1 10 2 13 3 4 4 5 5 6 6 8 7 9 8 11 9 12 10 3 11 2 12 1 13
REMARK H PARENT
REMARK Flexibility Score: inf
ROOT
ATOM      1  C   UNL     1      -6.875  28.629  46.054  1.00  0.00     0.160 A 
ATOM      2  C   UNL     1      -7.960  29.461  45.741  1.00  0.00     0.160 A 
ATOM      3  C   UNL     1      -7.991  30.781  46.233  1.00  0.00     0.054 A 
ATOM      4  C   UNL     1      -6.948  31.267  47.036  1.00  0.00    -0.040 A 
ATOM      5  C   UNL     1      -5.863  30.433  47.334  1.00  0.00     0.008 A 
ATOM      6  C   UNL     1      -5.826  29.124  46.852  1.00  0.00     0.051 A 
ENDROOT
BRANCH   1   7
ATOM      7  O   UNL     1      -6.872  27.318  45.550  1.00  0.00    -0.493 OA
ATOM      8  C   UNL     1      -6.140  26.237  46.119  1.00  0.00     0.278 C 
ENDBRANCH   1   7
BRANCH   2   9
ATOM      9  O   UNL     1      -8.988  28.942  44.938  1.00  0.00    -0.493 OA
ATOM     10  C   UNL     1      -9.132  29.199  43.545  1.00  0.00     0.278 C 
ENDBRANCH   2   9
BRANCH   4  11
ATOM     11  C   UNL     1      -6.968  32.689  47.534  1.00  0.00     0.062 C 
BRANCH  11  12
ATOM     12  C   UNL     1      -5.809  32.946  48.454  1.00  0.00    -0.030 C 
ATOM     13  C   UNL     1      -5.960  33.598  49.610  1.00  0.00     0.004 C 
ENDBRANCH  11  12
ENDBRANCH   4  11
TORSDOF 4
ENDMDL
MODEL 7
REMARK VINA RESULT:    -3.940     16.827     17.971
REMARK INTER + INTRA:          -5.122
REMARK INTER:                  -4.838
REMARK INTRA:                  -0.284
REMARK UNBOUND:                -0.261
REMARK SMILES C=CCc1ccc(OC)c(OC)c1
REMARK SMILES IDX 7 1 10 2 13 3 4 4 5 5 6 6 8 7 9 8 11 9 12 10 3 11 2 12 1 13
REMARK H PARENT
REMARK Flexibility Score: inf
ROOT
ATOM      1  C   UNL     1      -4.866  31.478  46.931  1.00  0.00     0.160 A 
ATOM      2  C   UNL     1      -6.213  31.091  47.010  1.00  0.00     0.160 A 
ATOM      3  C   UNL     1      -6.561  29.736  46.840  1.00  0.00     0.054 A 
ATOM      4  C   UNL     1      -5.572  28.773  46.588  1.00  0.00    -0.040 A 
ATOM      5  C   UNL     1      -4.229  29.166  46.523  1.00  0.00     0.008 A 
ATOM      6  C   UNL     1      -3.877  30.507  46.688  1.00  0.00     0.051 A 
ENDROOT
BRANCH   1   7
ATOM      7  O   UNL     1      -4.551  32.836  47.103  1.00  0.00    -0.493 OA
ATOM      8  C   UNL     1      -3.975  33.386  48.283  1.00  0.00     0.278 C 
ENDBRANCH   1   7
BRANCH   2   9
ATOM      9  O   UNL     1      -7.177  32.081  47.259  1.00  0.00    -0.493 OA
ATOM     10  C   UNL     1      -7.886  32.791  46.249  1.00  0.00     0.278 C 
ENDBRANCH   2   9
BRANCH   4  11
ATOM     11  C   UNL     1      -5.943  27.321  46.439  1.00  0.00     0.062 C 
BRANCH  11  12
ATOM     12  C   UNL     1      -7.173  27.171  45.588  1.00  0.00    -0.030 C 
ATOM     13  C   UNL     1      -7.101  27.102  44.256  1.00  0.00     0.004 C 
ENDBRANCH  11  12
ENDBRANCH   4  11
TORSDOF 4
ENDMDL
MODEL 8
REMARK VINA RESULT:    -3.869     15.822     17.056
REMARK INTER + INTRA:          -5.035
REMARK INTER:                  -4.757
REMARK INTRA:                  -0.278
REMARK UNBOUND:                -0.261
REMARK SMILES C=CCc1ccc(OC)c(OC)c1
REMARK SMILES IDX 7 1 10 2 13 3 4 4 5 5 6 6 8 7 9 8 11 9 12 10 3 11 2 12 1 13
REMARK H PARENT
REMARK Flexibility Score: inf
ROOT
ATOM      1  C   UNL     1      -7.156  31.698  46.830  1.00  0.00     0.160 A 
ATOM      2  C   UNL     1      -8.094  31.345  45.847  1.00  0.00     0.160 A 
ATOM      3  C   UNL     1      -8.166  30.011  45.399  1.00  0.00     0.054 A 
ATOM      4  C   UNL     1      -7.305  29.035  45.924  1.00  0.00    -0.040 A 
ATOM      5  C   UNL     1      -6.380  29.393  46.913  1.00  0.00     0.008 A 
ATOM      6  C   UNL     1      -6.301  30.713  47.361  1.00  0.00     0.051 A 
ENDROOT
BRANCH   1   7
ATOM      7  O   UNL     1      -7.107  33.035  47.255  1.00  0.00    -0.493 OA
ATOM      8  C   UNL     1      -6.403  33.489  48.407  1.00  0.00     0.278 C 
ENDBRANCH   1   7
BRANCH   2   9
ATOM      9  O   UNL     1      -8.937  32.346  45.341  1.00  0.00    -0.493 OA
ATOM     10  C   UNL     1      -8.879  32.856  44.013  1.00  0.00     0.278 C 
ENDBRANCH   2   9
BRANCH   4  11
ATOM     11  C   UNL     1      -7.406  27.603  45.467  1.00  0.00     0.062 C 
BRANCH  11  12
ATOM     12  C   UNL     1      -6.165  26.839  45.832  1.00  0.00    -0.030 C 
ATOM     13  C   UNL     1      -6.217  25.715  46.552  1.00  0.00     0.004 C 
ENDBRANCH  11  12
ENDBRANCH   4  11
TORSDOF 4
ENDMDL
MODEL 9
REMARK VINA RESULT:    -3.738     16.836     17.801
REMARK INTER + INTRA:          -4.873
REMARK INTER:                  -4.521
REMARK INTRA:                  -0.352
REMARK UNBOUND:                -0.261
REMARK SMILES C=CCc1ccc(OC)c(OC)c1
REMARK SMILES IDX 7 1 10 2 13 3 4 4 5 5 6 6 8 7 9 8 11 9 12 10 3 11 2 12 1 13
REMARK H PARENT
REMARK Flexibility Score: inf
ROOT
ATOM      1  C   UNL     1      -6.887  29.507  46.508  1.00  0.00     0.160 A 
ATOM      2  C   UNL     1      -5.510  29.642  46.747  1.00  0.00     0.160 A 
ATOM      3  C   UNL     1      -5.000  30.870  47.210  1.00  0.00     0.054 A 
ATOM      4  C   UNL     1      -5.856  31.960  47.431  1.00  0.00    -0.040 A 
ATOM      5  C   UNL     1      -7.230  31.813  47.202  1.00  0.00     0.008 A 
ATOM      6  C   UNL     1      -7.743  30.600  46.741  1.00  0.00     0.051 A 
ENDROOT
BRANCH   1   7
ATOM      7  O   UNL     1      -7.366  28.271  46.045  1.00  0.00    -0.493 OA
ATOM      8  C   UNL     1      -7.904  28.050  44.746  1.00  0.00     0.278 C 
ENDBRANCH   1   7
BRANCH   2   9
ATOM      9  O   UNL     1      -4.682  28.533  46.512  1.00  0.00    -0.493 OA
ATOM     10  C   UNL     1      -3.875  28.359  45.352  1.00  0.00     0.278 C 
ENDBRANCH   2   9
BRANCH   4  11
ATOM     11  C   UNL     1      -5.312  33.262  47.958  1.00  0.00     0.062 C 
BRANCH  11  12
ATOM     12  C   UNL     1      -6.150  33.766  49.099  1.00  0.00    -0.030 C 
ATOM     13  C   UNL     1      -5.761  33.633  50.370  1.00  0.00     0.004 C 
ENDBRANCH  11  12
ENDBRANCH   4  11
TORSDOF 4
ENDMDL
