MODEL 1
REMARK VINA RESULT:    -6.983      0.000      0.000
REMARK INTER + INTRA:          -8.640
REMARK INTER:                  -8.411
REMARK INTRA:                  -0.229
REMARK UNBOUND:                -0.229
REMARK SMILES O=c1c(O)c(-c2ccc(O)cc2O)oc2cc(O)cc(O)c12
REMARK SMILES IDX 5 1 3 2 2 3 1 4 22 5 20 6 19 7 17 8 16 9 15 10 14 11 6 12
REMARK SMILES IDX 8 13 7 14 9 15 11 16 12 17 10 18 13 20 4 22 21 24 18 26
REMARK H PARENT 10 19 13 21 4 23 21 25 18 27
REMARK Flexibility Score: inf
ROOT
ATOM      1  C   UNL     1     167.089 151.785 149.656  1.00  0.00     0.184 A 
ATOM      2  C   UNL     1     167.848 152.506 148.716  1.00  0.00     0.208 A 
ATOM      3  C   UNL     1     169.019 151.927 148.204  1.00  0.00     0.238 A 
ATOM      4  O   UNL     1     169.714 152.568 147.368  1.00  0.00    -0.285 OA
ATOM      5  C   UNL     1     169.399 150.635 148.624  1.00  0.00     0.111 A 
ATOM      6  C   UNL     1     170.561 149.979 148.153  1.00  0.00     0.134 A 
ATOM      7  C   UNL     1     170.866 148.689 148.612  1.00  0.00     0.093 A 
ATOM      8  C   UNL     1     170.033 148.044 149.529  1.00  0.00     0.123 A 
ATOM      9  C   UNL     1     168.882 148.687 149.998  1.00  0.00     0.094 A 
ATOM     10  C   UNL     1     168.563 149.973 149.554  1.00  0.00     0.146 A 
ATOM     11  O   UNL     1     167.466 150.563 150.019  1.00  0.00    -0.451 OA
ENDROOT
BRANCH   1  12
ATOM     12  C   UNL     1     165.852 152.341 150.244  1.00  0.00     0.063 A 
ATOM     13  C   UNL     1     164.736 154.179 151.376  1.00  0.00     0.047 A 
ATOM     14  C   UNL     1     165.888 153.622 150.817  1.00  0.00     0.020 A 
ATOM     15  C   UNL     1     163.529 153.469 151.357  1.00  0.00     0.119 A 
ATOM     16  C   UNL     1     163.479 152.202 150.769  1.00  0.00     0.093 A 
ATOM     17  C   UNL     1     164.631 151.637 150.200  1.00  0.00     0.130 A 
BRANCH  15  18
ATOM     18  O   UNL     1     162.376 154.014 151.916  1.00  0.00    -0.508 OA
ATOM     19  H   UNL     1     161.456 153.794 151.552  1.00  0.00     0.293 HD
ENDBRANCH  15  18
BRANCH  17  20
ATOM     20  O   UNL     1     164.556 150.393 149.572  1.00  0.00    -0.507 OA
ATOM     21  H   UNL     1     165.066 150.198 148.718  1.00  0.00     0.293 HD
ENDBRANCH  17  20
ENDBRANCH   1  12
BRANCH   2  22
ATOM     22  O   UNL     1     167.420 153.765 148.287  1.00  0.00    -0.502 OA
ATOM     23  H   UNL     1     166.871 154.381 148.875  1.00  0.00     0.293 HD
ENDBRANCH   2  22
BRANCH   6  24
ATOM     24  O   UNL     1     171.412 150.596 147.236  1.00  0.00    -0.507 OA
ATOM     25  H   UNL     1     172.070 151.314 147.519  1.00  0.00     0.293 HD
ENDBRANCH   6  24
BRANCH   8  26
ATOM     26  O   UNL     1     170.358 146.762 149.969  1.00  0.00    -0.508 OA
ATOM     27  H   UNL     1     169.646 146.057 150.119  1.00  0.00     0.293 HD
ENDBRANCH   8  26
TORSDOF 6
ENDMDL
MODEL 2
REMARK VINA RESULT:    -6.965      1.870      6.968
REMARK INTER + INTRA:          -8.619
REMARK INTER:                  -8.213
REMARK INTRA:                  -0.406
REMARK UNBOUND:                -0.229
REMARK SMILES O=c1c(O)c(-c2ccc(O)cc2O)oc2cc(O)cc(O)c12
REMARK SMILES IDX 5 1 3 2 2 3 1 4 22 5 20 6 19 7 17 8 16 9 15 10 14 11 6 12
REMARK SMILES IDX 8 13 7 14 9 15 11 16 12 17 10 18 13 20 4 22 21 24 18 26
REMARK H PARENT 10 19 13 21 4 23 21 25 18 27
REMARK Flexibility Score: inf
ROOT
ATOM      1  C   UNL     1     166.491 151.402 149.535  1.00  0.00     0.184 A 
ATOM      2  C   UNL     1     165.259 150.874 149.963  1.00  0.00     0.208 A 
ATOM      3  C   UNL     1     164.355 151.718 150.626  1.00  0.00     0.238 A 
ATOM      4  O   UNL     1     163.251 151.255 151.024  1.00  0.00    -0.285 OA
ATOM      5  C   UNL     1     164.689 153.073 150.831  1.00  0.00     0.111 A 
ATOM      6  C   UNL     1     163.833 153.991 151.486  1.00  0.00     0.134 A 
ATOM      7  C   UNL     1     164.234 155.326 151.643  1.00  0.00     0.093 A 
ATOM      8  C   UNL     1     165.470 155.760 151.158  1.00  0.00     0.123 A 
ATOM      9  C   UNL     1     166.320 154.859 150.509  1.00  0.00     0.094 A 
ATOM     10  C   UNL     1     165.939 153.524 150.345  1.00  0.00     0.146 A 
ATOM     11  O   UNL     1     166.768 152.687 149.730  1.00  0.00    -0.451 OA
ENDROOT
BRANCH   1  12
ATOM     12  C   UNL     1     167.493 150.565 148.841  1.00  0.00     0.063 A 
ATOM     13  C   UNL     1     169.427 149.100 148.980  1.00  0.00     0.047 A 
ATOM     14  C   UNL     1     168.469 149.903 149.602  1.00  0.00     0.020 A 
ATOM     15  C   UNL     1     169.414 148.937 147.589  1.00  0.00     0.119 A 
ATOM     16  C   UNL     1     168.431 149.575 146.825  1.00  0.00     0.093 A 
ATOM     17  C   UNL     1     167.462 150.378 147.444  1.00  0.00     0.130 A 
BRANCH  15  18
ATOM     18  O   UNL     1     170.367 148.142 146.958  1.00  0.00    -0.508 OA
ATOM     19  H   UNL     1     171.323 148.457 146.835  1.00  0.00     0.293 HD
ENDBRANCH  15  18
BRANCH  17  20
ATOM     20  O   UNL     1     166.458 150.970 146.676  1.00  0.00    -0.507 OA
ATOM     21  H   UNL     1     165.949 150.446 145.974  1.00  0.00     0.293 HD
ENDBRANCH  17  20
ENDBRANCH   1  12
BRANCH   2  22
ATOM     22  O   UNL     1     164.940 149.539 149.704  1.00  0.00    -0.502 OA
ATOM     23  H   UNL     1     164.936 148.833 150.430  1.00  0.00     0.293 HD
ENDBRANCH   2  22
BRANCH   6  24
ATOM     24  O   UNL     1     162.592 153.588 151.980  1.00  0.00    -0.507 OA
ATOM     25  H   UNL     1     162.164 154.040 152.781  1.00  0.00     0.293 HD
ENDBRANCH   6  24
BRANCH   8  26
ATOM     26  O   UNL     1     165.843 157.092 151.326  1.00  0.00    -0.508 OA
ATOM     27  H   UNL     1     165.317 157.719 151.924  1.00  0.00     0.293 HD
ENDBRANCH   8  26
TORSDOF 6
ENDMDL
MODEL 3
REMARK VINA RESULT:    -6.949      1.840      2.554
REMARK INTER + INTRA:          -8.600
REMARK INTER:                  -8.180
REMARK INTRA:                  -0.420
REMARK UNBOUND:                -0.229
REMARK SMILES O=c1c(O)c(-c2ccc(O)cc2O)oc2cc(O)cc(O)c12
REMARK SMILES IDX 5 1 3 2 2 3 1 4 22 5 20 6 19 7 17 8 16 9 15 10 14 11 6 12
REMARK SMILES IDX 8 13 7 14 9 15 11 16 12 17 10 18 13 20 4 22 21 24 18 26
REMARK H PARENT 10 19 13 21 4 23 21 25 18 27
REMARK Flexibility Score: inf
ROOT
ATOM      1  C   UNL     1     166.455 151.990 149.468  1.00  0.00     0.184 A 
ATOM      2  C   UNL     1     165.898 151.540 148.257  1.00  0.00     0.208 A 
ATOM      3  C   UNL     1     166.651 150.679 147.445  1.00  0.00     0.238 A 
ATOM      4  O   UNL     1     166.167 150.276 146.351  1.00  0.00    -0.285 OA
ATOM      5  C   UNL     1     167.934 150.269 147.864  1.00  0.00     0.111 A 
ATOM      6  C   UNL     1     168.755 149.400 147.107  1.00  0.00     0.134 A 
ATOM      7  C   UNL     1     170.016 149.031 147.598  1.00  0.00     0.093 A 
ATOM      8  C   UNL     1     170.471 149.512 148.828  1.00  0.00     0.123 A 
ATOM      9  C   UNL     1     169.663 150.371 149.582  1.00  0.00     0.094 A 
ATOM     10  C   UNL     1     168.404 150.751 149.109  1.00  0.00     0.146 A 
ATOM     11  O   UNL     1     167.660 151.572 149.842  1.00  0.00    -0.451 OA
ENDROOT
BRANCH   1  12
ATOM     12  C   UNL     1     165.721 152.907 150.365  1.00  0.00     0.063 A 
ATOM     13  C   UNL     1     163.929 153.247 151.972  1.00  0.00     0.047 A 
ATOM     14  C   UNL     1     164.641 152.409 151.111  1.00  0.00     0.020 A 
ATOM     15  C   UNL     1     164.297 154.591 152.110  1.00  0.00     0.119 A 
ATOM     16  C   UNL     1     165.386 155.090 151.389  1.00  0.00     0.093 A 
ATOM     17  C   UNL     1     166.109 154.253 150.526  1.00  0.00     0.130 A 
BRANCH  15  18
ATOM     18  O   UNL     1     163.591 155.436 152.963  1.00  0.00    -0.508 OA
ATOM     19  H   UNL     1     164.063 155.992 153.668  1.00  0.00     0.293 HD
ENDBRANCH  15  18
BRANCH  17  20
ATOM     20  O   UNL     1     167.224 154.751 149.849  1.00  0.00    -0.507 OA
ATOM     21  H   UNL     1     167.470 155.734 149.883  1.00  0.00     0.293 HD
ENDBRANCH  17  20
ENDBRANCH   1  12
BRANCH   2  22
ATOM     22  O   UNL     1     164.607 151.928 147.892  1.00  0.00    -0.502 OA
ATOM     23  H   UNL     1     164.371 152.889 147.675  1.00  0.00     0.293 HD
ENDBRANCH   2  22
BRANCH   6  24
ATOM     24  O   UNL     1     168.330 148.902 145.875  1.00  0.00    -0.507 OA
ATOM     25  H   UNL     1     168.589 147.975 145.556  1.00  0.00     0.293 HD
ENDBRANCH   6  24
BRANCH   8  26
ATOM     26  O   UNL     1     171.727 149.129 149.293  1.00  0.00    -0.508 OA
ATOM     27  H   UNL     1     172.363 149.797 149.714  1.00  0.00     0.293 HD
ENDBRANCH   8  26
TORSDOF 6
ENDMDL
MODEL 4
REMARK VINA RESULT:    -6.942      8.028      9.906
REMARK INTER + INTRA:          -8.592
REMARK INTER:                  -8.184
REMARK INTRA:                  -0.408
REMARK UNBOUND:                -0.229
REMARK SMILES O=c1c(O)c(-c2ccc(O)cc2O)oc2cc(O)cc(O)c12
REMARK SMILES IDX 5 1 3 2 2 3 1 4 22 5 20 6 19 7 17 8 16 9 15 10 14 11 6 12
REMARK SMILES IDX 8 13 7 14 9 15 11 16 12 17 10 18 13 20 4 22 21 24 18 26
REMARK H PARENT 10 19 13 21 4 23 21 25 18 27
REMARK Flexibility Score: inf
ROOT
ATOM      1  C   UNL     1     169.298 143.939 152.674  1.00  0.00     0.184 A 
ATOM      2  C   UNL     1     170.662 143.945 153.019  1.00  0.00     0.208 A 
ATOM      3  C   UNL     1     171.074 144.687 154.136  1.00  0.00     0.238 A 
ATOM      4  O   UNL     1     172.297 144.710 154.449  1.00  0.00    -0.285 OA
ATOM      5  C   UNL     1     170.118 145.391 154.897  1.00  0.00     0.111 A 
ATOM      6  C   UNL     1     170.450 146.159 156.039  1.00  0.00     0.134 A 
ATOM      7  C   UNL     1     169.439 146.823 156.749  1.00  0.00     0.093 A 
ATOM      8  C   UNL     1     168.106 146.733 156.341  1.00  0.00     0.123 A 
ATOM      9  C   UNL     1     167.771 145.976 155.214  1.00  0.00     0.094 A 
ATOM     10  C   UNL     1     168.765 145.309 154.492  1.00  0.00     0.146 A 
ATOM     11  O   UNL     1     168.420 144.600 153.422  1.00  0.00    -0.451 OA
ENDROOT
BRANCH   1  12
ATOM     12  C   UNL     1     168.797 143.188 151.504  1.00  0.00     0.063 A 
ATOM     13  C   UNL     1     168.481 143.066 149.097  1.00  0.00     0.047 A 
ATOM     14  C   UNL     1     168.938 143.751 150.225  1.00  0.00     0.020 A 
ATOM     15  C   UNL     1     167.891 141.802 149.230  1.00  0.00     0.119 A 
ATOM     16  C   UNL     1     167.768 141.225 150.498  1.00  0.00     0.093 A 
ATOM     17  C   UNL     1     168.230 141.904 151.635  1.00  0.00     0.130 A 
BRANCH  15  18
ATOM     18  O   UNL     1     167.429 141.113 148.112  1.00  0.00    -0.508 OA
ATOM     19  H   UNL     1     167.711 141.375 147.174  1.00  0.00     0.293 HD
ENDBRANCH  15  18
BRANCH  17  20
ATOM     20  O   UNL     1     168.145 141.296 152.889  1.00  0.00    -0.507 OA
ATOM     21  H   UNL     1     167.573 141.684 153.629  1.00  0.00     0.293 HD
ENDBRANCH  17  20
ENDBRANCH   1  12
BRANCH   2  22
ATOM     22  O   UNL     1     171.577 143.201 152.271  1.00  0.00    -0.502 OA
ATOM     23  H   UNL     1     172.558 143.450 152.212  1.00  0.00     0.293 HD
ENDBRANCH   2  22
BRANCH   6  24
ATOM     24  O   UNL     1     171.772 146.267 156.472  1.00  0.00    -0.507 OA
ATOM     25  H   UNL     1     172.200 147.167 156.659  1.00  0.00     0.293 HD
ENDBRANCH   6  24
BRANCH   8  26
ATOM     26  O   UNL     1     167.120 147.402 157.065  1.00  0.00    -0.508 OA
ATOM     27  H   UNL     1     166.282 147.755 156.618  1.00  0.00     0.293 HD
ENDBRANCH   8  26
TORSDOF 6
ENDMDL
MODEL 5
REMARK VINA RESULT:    -6.873      8.309      9.924
REMARK INTER + INTRA:          -8.509
REMARK INTER:                  -8.126
REMARK INTRA:                  -0.383
REMARK UNBOUND:                -0.229
REMARK SMILES O=c1c(O)c(-c2ccc(O)cc2O)oc2cc(O)cc(O)c12
REMARK SMILES IDX 5 1 3 2 2 3 1 4 22 5 20 6 19 7 17 8 16 9 15 10 14 11 6 12
REMARK SMILES IDX 8 13 7 14 9 15 11 16 12 17 10 18 13 20 4 22 21 24 18 26
REMARK H PARENT 10 19 13 21 4 23 21 25 18 27
REMARK Flexibility Score: inf
ROOT
ATOM      1  C   UNL     1     169.334 144.088 153.196  1.00  0.00     0.184 A 
ATOM      2  C   UNL     1     168.431 144.711 154.077  1.00  0.00     0.208 A 
ATOM      3  C   UNL     1     168.936 145.382 155.200  1.00  0.00     0.238 A 
ATOM      4  O   UNL     1     168.136 145.937 156.004  1.00  0.00    -0.285 OA
ATOM      5  C   UNL     1     170.330 145.436 155.413  1.00  0.00     0.111 A 
ATOM      6  C   UNL     1     170.920 146.096 156.517  1.00  0.00     0.134 A 
ATOM      7  C   UNL     1     172.316 146.112 156.653  1.00  0.00     0.093 A 
ATOM      8  C   UNL     1     173.131 145.484 155.708  1.00  0.00     0.123 A 
ATOM      9  C   UNL     1     172.554 144.831 154.613  1.00  0.00     0.094 A 
ATOM     10  C   UNL     1     171.165 144.802 154.462  1.00  0.00     0.146 A 
ATOM     11  O   UNL     1     170.642 144.170 153.416  1.00  0.00    -0.451 OA
ENDROOT
BRANCH   1  12
ATOM     12  C   UNL     1     168.869 143.354 152.000  1.00  0.00     0.063 A 
ATOM     13  C   UNL     1     168.526 143.311 149.594  1.00  0.00     0.047 A 
ATOM     14  C   UNL     1     168.952 143.978 150.745  1.00  0.00     0.020 A 
ATOM     15  C   UNL     1     168.025 142.006 149.681  1.00  0.00     0.119 A 
ATOM     16  C   UNL     1     167.960 141.369 150.924  1.00  0.00     0.093 A 
ATOM     17  C   UNL     1     168.391 142.030 152.084  1.00  0.00     0.130 A 
BRANCH  15  18
ATOM     18  O   UNL     1     167.594 141.333 148.540  1.00  0.00    -0.508 OA
ATOM     19  H   UNL     1     168.248 141.016 147.833  1.00  0.00     0.293 HD
ENDBRANCH  15  18
BRANCH  17  20
ATOM     20  O   UNL     1     168.367 141.366 153.311  1.00  0.00    -0.507 OA
ATOM     21  H   UNL     1     168.212 140.366 153.370  1.00  0.00     0.293 HD
ENDBRANCH  17  20
ENDBRANCH   1  12
BRANCH   2  22
ATOM     22  O   UNL     1     167.060 144.679 153.814  1.00  0.00    -0.502 OA
ATOM     23  H   UNL     1     166.383 145.141 154.410  1.00  0.00     0.293 HD
ENDBRANCH   2  22
BRANCH   6  24
ATOM     24  O   UNL     1     170.134 146.732 157.477  1.00  0.00    -0.507 OA
ATOM     25  H   UNL     1     170.363 146.697 158.464  1.00  0.00     0.293 HD
ENDBRANCH   6  24
BRANCH   8  26
ATOM     26  O   UNL     1     174.515 145.516 155.865  1.00  0.00    -0.508 OA
ATOM     27  H   UNL     1     175.116 144.834 155.417  1.00  0.00     0.293 HD
ENDBRANCH   8  26
TORSDOF 6
ENDMDL
MODEL 6
REMARK VINA RESULT:    -6.837      1.464      1.923
REMARK INTER + INTRA:          -8.465
REMARK INTER:                  -8.165
REMARK INTRA:                  -0.300
REMARK UNBOUND:                -0.229
REMARK SMILES O=c1c(O)c(-c2ccc(O)cc2O)oc2cc(O)cc(O)c12
REMARK SMILES IDX 5 1 3 2 2 3 1 4 22 5 20 6 19 7 17 8 16 9 15 10 14 11 6 12
REMARK SMILES IDX 8 13 7 14 9 15 11 16 12 17 10 18 13 20 4 22 21 24 18 26
REMARK H PARENT 10 19 13 21 4 23 21 25 18 27
REMARK Flexibility Score: inf
ROOT
ATOM      1  C   UNL     1     166.788 150.719 149.497  1.00  0.00     0.184 A 
ATOM      2  C   UNL     1     167.293 151.021 148.220  1.00  0.00     0.208 A 
ATOM      3  C   UNL     1     168.314 150.219 147.689  1.00  0.00     0.238 A 
ATOM      4  O   UNL     1     168.784 150.486 146.548  1.00  0.00    -0.285 OA
ATOM      5  C   UNL     1     168.797 149.122 148.432  1.00  0.00     0.111 A 
ATOM      6  C   UNL     1     169.821 148.262 147.968  1.00  0.00     0.134 A 
ATOM      7  C   UNL     1     170.239 147.185 148.764  1.00  0.00     0.093 A 
ATOM      8  C   UNL     1     169.655 146.952 150.011  1.00  0.00     0.123 A 
ATOM      9  C   UNL     1     168.643 147.798 150.476  1.00  0.00     0.094 A 
ATOM     10  C   UNL     1     168.213 148.877 149.698  1.00  0.00     0.146 A 
ATOM     11  O   UNL     1     167.253 149.669 150.165  1.00  0.00    -0.451 OA
ENDROOT
BRANCH   1  12
ATOM     12  C   UNL     1     165.721 151.530 150.120  1.00  0.00     0.063 A 
ATOM     13  C   UNL     1     163.448 151.669 150.971  1.00  0.00     0.047 A 
ATOM     14  C   UNL     1     164.476 150.933 150.379  1.00  0.00     0.020 A 
ATOM     15  C   UNL     1     163.654 153.008 151.327  1.00  0.00     0.119 A 
ATOM     16  C   UNL     1     164.898 153.604 151.094  1.00  0.00     0.093 A 
ATOM     17  C   UNL     1     165.937 152.870 150.504  1.00  0.00     0.130 A 
BRANCH  15  18
ATOM     18  O   UNL     1     162.634 153.752 151.915  1.00  0.00    -0.508 OA
ATOM     19  H   UNL     1     161.799 154.006 151.400  1.00  0.00     0.293 HD
ENDBRANCH  15  18
BRANCH  17  20
ATOM     20  O   UNL     1     167.188 153.461 150.322  1.00  0.00    -0.507 OA
ATOM     21  H   UNL     1     167.323 154.227 149.672  1.00  0.00     0.293 HD
ENDBRANCH  17  20
ENDBRANCH   1  12
BRANCH   2  22
ATOM     22  O   UNL     1     166.763 152.087 147.489  1.00  0.00    -0.502 OA
ATOM     23  H   UNL     1     166.515 152.004 146.510  1.00  0.00     0.293 HD
ENDBRANCH   2  22
BRANCH   6  24
ATOM     24  O   UNL     1     170.423 148.468 146.726  1.00  0.00    -0.507 OA
ATOM     25  H   UNL     1     171.128 149.183 146.588  1.00  0.00     0.293 HD
ENDBRANCH   6  24
BRANCH   8  26
ATOM     26  O   UNL     1     170.089 145.875 150.782  1.00  0.00    -0.508 OA
ATOM     27  H   UNL     1     170.863 145.964 151.430  1.00  0.00     0.293 HD
ENDBRANCH   8  26
TORSDOF 6
ENDMDL
MODEL 7
REMARK VINA RESULT:    -6.787      2.669      3.591
REMARK INTER + INTRA:          -8.405
REMARK INTER:                  -7.977
REMARK INTRA:                  -0.427
REMARK UNBOUND:                -0.229
REMARK SMILES O=c1c(O)c(-c2ccc(O)cc2O)oc2cc(O)cc(O)c12
REMARK SMILES IDX 5 1 3 2 2 3 1 4 22 5 20 6 19 7 17 8 16 9 15 10 14 11 6 12
REMARK SMILES IDX 8 13 7 14 9 15 11 16 12 17 10 18 13 20 4 22 21 24 18 26
REMARK H PARENT 10 19 13 21 4 23 21 25 18 27
REMARK Flexibility Score: inf
ROOT
ATOM      1  C   UNL     1     165.460 151.027 150.181  1.00  0.00     0.184 A 
ATOM      2  C   UNL     1     164.761 150.511 149.075  1.00  0.00     0.208 A 
ATOM      3  C   UNL     1     165.067 149.218 148.624  1.00  0.00     0.238 A 
ATOM      4  O   UNL     1     164.454 148.747 147.626  1.00  0.00    -0.285 OA
ATOM      5  C   UNL     1     166.050 148.460 149.295  1.00  0.00     0.111 A 
ATOM      6  C   UNL     1     166.415 147.148 148.906  1.00  0.00     0.134 A 
ATOM      7  C   UNL     1     167.395 146.456 149.631  1.00  0.00     0.093 A 
ATOM      8  C   UNL     1     168.016 147.047 150.735  1.00  0.00     0.123 A 
ATOM      9  C   UNL     1     167.659 148.343 151.124  1.00  0.00     0.094 A 
ATOM     10  C   UNL     1     166.685 149.049 150.413  1.00  0.00     0.146 A 
ATOM     11  O   UNL     1     166.369 150.281 150.800  1.00  0.00    -0.451 OA
ENDROOT
BRANCH   1  12
ATOM     12  C   UNL     1     165.195 152.385 150.701  1.00  0.00     0.063 A 
ATOM     13  C   UNL     1     163.753 153.879 151.964  1.00  0.00     0.047 A 
ATOM     14  C   UNL     1     164.032 152.610 151.454  1.00  0.00     0.020 A 
ATOM     15  C   UNL     1     164.642 154.939 151.741  1.00  0.00     0.119 A 
ATOM     16  C   UNL     1     165.814 154.718 151.011  1.00  0.00     0.093 A 
ATOM     17  C   UNL     1     166.104 153.445 150.500  1.00  0.00     0.130 A 
BRANCH  15  18
ATOM     18  O   UNL     1     164.372 156.209 152.242  1.00  0.00    -0.508 OA
ATOM     19  H   UNL     1     165.045 156.963 152.166  1.00  0.00     0.293 HD
ENDBRANCH  15  18
BRANCH  17  20
ATOM     20  O   UNL     1     167.301 153.227 149.816  1.00  0.00    -0.507 OA
ATOM     21  H   UNL     1     167.728 152.308 149.773  1.00  0.00     0.293 HD
ENDBRANCH  17  20
ENDBRANCH   1  12
BRANCH   2  22
ATOM     22  O   UNL     1     163.761 151.269 148.461  1.00  0.00    -0.502 OA
ATOM     23  H   UNL     1     163.747 152.281 148.502  1.00  0.00     0.293 HD
ENDBRANCH   2  22
BRANCH   6  24
ATOM     24  O   UNL     1     165.813 146.531 147.810  1.00  0.00    -0.507 OA
ATOM     25  H   UNL     1     165.337 145.639 147.895  1.00  0.00     0.293 HD
ENDBRANCH   6  24
BRANCH   8  26
ATOM     26  O   UNL     1     168.986 146.337 151.439  1.00  0.00    -0.508 OA
ATOM     27  H   UNL     1     169.231 145.385 151.191  1.00  0.00     0.293 HD
ENDBRANCH   8  26
TORSDOF 6
ENDMDL
MODEL 8
REMARK VINA RESULT:    -6.684      1.945      6.257
REMARK INTER + INTRA:          -8.281
REMARK INTER:                  -7.867
REMARK INTRA:                  -0.414
REMARK UNBOUND:                -0.229
REMARK SMILES O=c1c(O)c(-c2ccc(O)cc2O)oc2cc(O)cc(O)c12
REMARK SMILES IDX 5 1 3 2 2 3 1 4 22 5 20 6 19 7 17 8 16 9 15 10 14 11 6 12
REMARK SMILES IDX 8 13 7 14 9 15 11 16 12 17 10 18 13 20 4 22 21 24 18 26
REMARK H PARENT 10 19 13 21 4 23 21 25 18 27
REMARK Flexibility Score: inf
ROOT
ATOM      1  C   UNL     1     167.358 149.683 150.039  1.00  0.00     0.184 A 
ATOM      2  C   UNL     1     168.300 150.625 149.588  1.00  0.00     0.208 A 
ATOM      3  C   UNL     1     167.975 151.989 149.645  1.00  0.00     0.238 A 
ATOM      4  O   UNL     1     168.808 152.844 149.235  1.00  0.00    -0.285 OA
ATOM      5  C   UNL     1     166.726 152.386 150.167  1.00  0.00     0.111 A 
ATOM      6  C   UNL     1     166.322 153.740 150.264  1.00  0.00     0.134 A 
ATOM      7  C   UNL     1     165.066 154.054 150.804  1.00  0.00     0.093 A 
ATOM      8  C   UNL     1     164.209 153.044 151.249  1.00  0.00     0.123 A 
ATOM      9  C   UNL     1     164.603 151.705 151.157  1.00  0.00     0.094 A 
ATOM     10  C   UNL     1     165.850 151.372 150.620  1.00  0.00     0.146 A 
ATOM     11  O   UNL     1     166.197 150.091 150.539  1.00  0.00    -0.451 OA
ENDROOT
BRANCH   1  12
ATOM     12  C   UNL     1     167.632 148.231 149.996  1.00  0.00     0.063 A 
ATOM     13  C   UNL     1     168.379 146.225 151.147  1.00  0.00     0.047 A 
ATOM     14  C   UNL     1     168.115 147.596 151.151  1.00  0.00     0.020 A 
ATOM     15  C   UNL     1     168.150 145.467 149.991  1.00  0.00     0.119 A 
ATOM     16  C   UNL     1     167.647 146.087 148.843  1.00  0.00     0.093 A 
ATOM     17  C   UNL     1     167.374 147.463 148.841  1.00  0.00     0.130 A 
BRANCH  15  18
ATOM     18  O   UNL     1     168.414 144.100 149.975  1.00  0.00    -0.508 OA
ATOM     19  H   UNL     1     167.935 143.475 149.336  1.00  0.00     0.293 HD
ENDBRANCH  15  18
BRANCH  17  20
ATOM     20  O   UNL     1     166.827 148.061 147.705  1.00  0.00    -0.507 OA
ATOM     21  H   UNL     1     167.168 147.845 146.776  1.00  0.00     0.293 HD
ENDBRANCH  17  20
ENDBRANCH   1  12
BRANCH   2  22
ATOM     22  O   UNL     1     169.546 150.202 149.119  1.00  0.00    -0.502 OA
ATOM     23  H   UNL     1     170.015 149.383 149.488  1.00  0.00     0.293 HD
ENDBRANCH   2  22
BRANCH   6  24
ATOM     24  O   UNL     1     167.155 154.770 149.829  1.00  0.00    -0.507 OA
ATOM     25  H   UNL     1     168.166 154.686 149.856  1.00  0.00     0.293 HD
ENDBRANCH   6  24
BRANCH   8  26
ATOM     26  O   UNL     1     162.968 153.384 151.783  1.00  0.00    -0.508 OA
ATOM     27  H   UNL     1     162.885 154.003 152.580  1.00  0.00     0.293 HD
ENDBRANCH   8  26
TORSDOF 6
ENDMDL
MODEL 9
REMARK VINA RESULT:    -6.582      2.057      3.405
REMARK INTER + INTRA:          -8.158
REMARK INTER:                  -7.759
REMARK INTRA:                  -0.399
REMARK UNBOUND:                -0.229
REMARK SMILES O=c1c(O)c(-c2ccc(O)cc2O)oc2cc(O)cc(O)c12
REMARK SMILES IDX 5 1 3 2 2 3 1 4 22 5 20 6 19 7 17 8 16 9 15 10 14 11 6 12
REMARK SMILES IDX 8 13 7 14 9 15 11 16 12 17 10 18 13 20 4 22 21 24 18 26
REMARK H PARENT 10 19 13 21 4 23 21 25 18 27
REMARK Flexibility Score: inf
ROOT
ATOM      1  C   UNL     1     168.129 150.354 149.440  1.00  0.00     0.184 A 
ATOM      2  C   UNL     1     168.909 150.037 148.313  1.00  0.00     0.208 A 
ATOM      3  C   UNL     1     169.411 148.733 148.183  1.00  0.00     0.238 A 
ATOM      4  O   UNL     1     170.121 148.438 147.182  1.00  0.00    -0.285 OA
ATOM      5  C   UNL     1     169.110 147.768 149.167  1.00  0.00     0.111 A 
ATOM      6  C   UNL     1     169.573 146.432 149.109  1.00  0.00     0.134 A 
ATOM      7  C   UNL     1     169.222 145.529 150.123  1.00  0.00     0.093 A 
ATOM      8  C   UNL     1     168.418 145.935 151.191  1.00  0.00     0.123 A 
ATOM      9  C   UNL     1     167.957 147.254 151.254  1.00  0.00     0.094 A 
ATOM     10  C   UNL     1     168.298 148.169 150.254  1.00  0.00     0.146 A 
ATOM     11  O   UNL     1     167.850 149.418 150.341  1.00  0.00    -0.451 OA
ENDROOT
BRANCH   1  12
ATOM     12  C   UNL     1     167.579 151.710 149.644  1.00  0.00     0.063 A 
ATOM     13  C   UNL     1     165.689 153.230 149.482  1.00  0.00     0.047 A 
ATOM     14  C   UNL     1     166.242 151.962 149.297  1.00  0.00     0.020 A 
ATOM     15  C   UNL     1     166.461 154.262 150.031  1.00  0.00     0.119 A 
ATOM     16  C   UNL     1     167.786 154.015 150.401  1.00  0.00     0.093 A 
ATOM     17  C   UNL     1     168.347 152.741 150.223  1.00  0.00     0.130 A 
BRANCH  15  18
ATOM     18  O   UNL     1     165.920 155.532 150.217  1.00  0.00    -0.508 OA
ATOM     19  H   UNL     1     166.276 156.338 149.716  1.00  0.00     0.293 HD
ENDBRANCH  15  18
BRANCH  17  20
ATOM     20  O   UNL     1     169.656 152.495 150.642  1.00  0.00    -0.507 OA
ATOM     21  H   UNL     1     170.135 153.119 151.281  1.00  0.00     0.293 HD
ENDBRANCH  17  20
ENDBRANCH   1  12
BRANCH   2  22
ATOM     22  O   UNL     1     169.151 151.002 147.333  1.00  0.00    -0.502 OA
ATOM     23  H   UNL     1     168.857 151.966 147.437  1.00  0.00     0.293 HD
ENDBRANCH   2  22
BRANCH   6  24
ATOM     24  O   UNL     1     170.376 145.996 148.055  1.00  0.00    -0.507 OA
ATOM     25  H   UNL     1     170.973 146.634 147.540  1.00  0.00     0.293 HD
ENDBRANCH   6  24
BRANCH   8  26
ATOM     26  O   UNL     1     168.083 145.018 152.185  1.00  0.00    -0.508 OA
ATOM     27  H   UNL     1     168.348 144.043 152.118  1.00  0.00     0.293 HD
ENDBRANCH   8  26
TORSDOF 6
ENDMDL
