MODEL 1
REMARK VINA RESULT:    -5.034      0.000      0.000
REMARK INTER + INTRA:         -10.914
REMARK INTER:                  -9.449
REMARK INTRA:                  -1.466
REMARK UNBOUND:                -1.466
REMARK SMILES O=C([O-])CCCCCCCCCCCCCCC(=O)[O-]
REMARK SMILES IDX 10 1 9 2 8 3 7 4 6 5 5 6 4 7 2 8 1 9 3 10 11 11 12 12 13 13
REMARK SMILES IDX 14 14 15 15 16 16 17 17 18 18 19 19 20 20
REMARK H PARENT
REMARK Flexibility Score: inf
ROOT
ATOM      1  C   UNL     1      45.823   4.374 131.244  1.00  0.00     0.000 C 
ENDROOT
BRANCH   1   2
ATOM      2  C   UNL     1      45.077   3.764 132.440  1.00  0.00     0.000 C 
BRANCH   2   3
ATOM      3  C   UNL     1      45.786   4.036 133.780  1.00  0.00     0.000 C 
BRANCH   3   4
ATOM      4  C   UNL     1      46.181   2.743 134.512  1.00  0.00     0.000 C 
BRANCH   4   5
ATOM      5  C   UNL     1      45.085   2.243 135.463  1.00  0.00     0.000 C 
BRANCH   5   6
ATOM      6  C   UNL     1      44.444   0.952 134.932  1.00  0.00     0.006 C 
BRANCH   6   7
ATOM      7  C   UNL     1      43.224   1.230 134.044  1.00  0.00     0.053 C 
BRANCH   7   8
ATOM      8  C   UNL     1      43.319   0.517 132.729  1.00  0.00     0.041 C 
ATOM      9  O   UNL     1      44.426   0.071 132.330  1.00  0.00    -0.550 OA
ATOM     10  O   UNL     1      42.191   0.376 131.931  1.00  0.00    -0.550 OA
ENDBRANCH   7   8
ENDBRANCH   6   7
ENDBRANCH   5   6
ENDBRANCH   4   5
ENDBRANCH   3   4
ENDBRANCH   2   3
ENDBRANCH   1   2
BRANCH   1  11
ATOM     11  C   UNL     1      47.349   4.328 131.412  1.00  0.00     0.000 C 
BRANCH  11  12
ATOM     12  C   UNL     1      48.055   4.912 130.183  1.00  0.00     0.000 C 
BRANCH  12  13
ATOM     13  C   UNL     1      47.138   4.870 128.951  1.00  0.00     0.000 C 
BRANCH  13  14
ATOM     14  C   UNL     1      47.094   6.210 128.198  1.00  0.00     0.000 C 
BRANCH  14  15
ATOM     15  C   UNL     1      46.427   7.327 129.016  1.00  0.00     0.000 C 
BRANCH  15  16
ATOM     16  C   UNL     1      45.027   7.645 128.469  1.00  0.00     0.006 C 
BRANCH  16  17
ATOM     17  C   UNL     1      43.969   6.653 128.969  1.00  0.00     0.053 C 
BRANCH  17  18
ATOM     18  C   UNL     1      43.293   5.943 127.838  1.00  0.00     0.041 C 
ATOM     19  O   UNL     1      42.144   6.299 127.462  1.00  0.00    -0.550 OA
ATOM     20  O   UNL     1      43.944   4.910 127.175  1.00  0.00    -0.550 OA
ENDBRANCH  17  18
ENDBRANCH  16  17
ENDBRANCH  15  16
ENDBRANCH  14  15
ENDBRANCH  13  14
ENDBRANCH  12  13
ENDBRANCH  11  12
ENDBRANCH   1  11
TORSDOF 15
ENDMDL
MODEL 2
REMARK VINA RESULT:    -5.009      1.304      6.770
REMARK INTER + INTRA:         -10.867
REMARK INTER:                  -9.467
REMARK INTRA:                  -1.400
REMARK UNBOUND:                -1.466
REMARK SMILES O=C([O-])CCCCCCCCCCCCCCC(=O)[O-]
REMARK SMILES IDX 10 1 9 2 8 3 7 4 6 5 5 6 4 7 2 8 1 9 3 10 11 11 12 12 13 13
REMARK SMILES IDX 14 14 15 15 16 16 17 17 18 18 19 19 20 20
REMARK H PARENT
REMARK Flexibility Score: inf
ROOT
ATOM      1  C   UNL     1      47.272   5.035 130.414  1.00  0.00     0.000 C 
ENDROOT
BRANCH   1   2
ATOM      2  C   UNL     1      48.100   5.800 129.370  1.00  0.00     0.000 C 
BRANCH   2   3
ATOM      3  C   UNL     1      47.341   7.003 128.779  1.00  0.00     0.000 C 
BRANCH   3   4
ATOM      4  C   UNL     1      47.121   6.875 127.263  1.00  0.00     0.000 C 
BRANCH   4   5
ATOM      5  C   UNL     1      45.635   6.789 126.887  1.00  0.00     0.000 C 
BRANCH   5   6
ATOM      6  C   UNL     1      45.093   5.370 127.110  1.00  0.00     0.006 C 
BRANCH   6   7
ATOM      7  C   UNL     1      44.189   5.280 128.346  1.00  0.00     0.053 C 
BRANCH   7   8
ATOM      8  C   UNL     1      43.178   6.386 128.378  1.00  0.00     0.041 C 
ATOM      9  O   UNL     1      42.176   6.350 127.617  1.00  0.00    -0.550 OA
ATOM     10  O   UNL     1      43.361   7.471 129.225  1.00  0.00    -0.550 OA
ENDBRANCH   7   8
ENDBRANCH   6   7
ENDBRANCH   5   6
ENDBRANCH   4   5
ENDBRANCH   3   4
ENDBRANCH   2   3
ENDBRANCH   1   2
BRANCH   1  11
ATOM     11  C   UNL     1      48.084   3.943 131.127  1.00  0.00     0.000 C 
BRANCH  11  12
ATOM     12  C   UNL     1      47.238   3.241 132.196  1.00  0.00     0.000 C 
BRANCH  12  13
ATOM     13  C   UNL     1      46.098   4.150 132.681  1.00  0.00     0.000 C 
BRANCH  13  14
ATOM     14  C   UNL     1      45.925   4.121 134.208  1.00  0.00     0.000 C 
BRANCH  14  15
ATOM     15  C   UNL     1      46.028   2.702 134.789  1.00  0.00     0.000 C 
BRANCH  15  16
ATOM     16  C   UNL     1      44.640   2.056 134.910  1.00  0.00     0.006 C 
BRANCH  16  17
ATOM     17  C   UNL     1      44.435   0.924 133.895  1.00  0.00     0.053 C 
BRANCH  17  18
ATOM     18  C   UNL     1      43.567   1.350 132.752  1.00  0.00     0.041 C 
ATOM     19  O   UNL     1      43.044   2.496 132.747  1.00  0.00    -0.550 OA
ATOM     20  O   UNL     1      43.364   0.495 131.675  1.00  0.00    -0.550 OA
ENDBRANCH  17  18
ENDBRANCH  16  17
ENDBRANCH  15  16
ENDBRANCH  14  15
ENDBRANCH  13  14
ENDBRANCH  12  13
ENDBRANCH  11  12
ENDBRANCH   1  11
TORSDOF 15
ENDMDL
MODEL 3
REMARK VINA RESULT:    -5.003      1.144      6.848
REMARK INTER + INTRA:         -10.857
REMARK INTER:                  -9.414
REMARK INTRA:                  -1.443
REMARK UNBOUND:                -1.466
REMARK SMILES O=C([O-])CCCCCCCCCCCCCCC(=O)[O-]
REMARK SMILES IDX 10 1 9 2 8 3 7 4 6 5 5 6 4 7 2 8 1 9 3 10 11 11 12 12 13 13
REMARK SMILES IDX 14 14 15 15 16 16 17 17 18 18 19 19 20 20
REMARK H PARENT
REMARK Flexibility Score: inf
ROOT
ATOM      1  C   UNL     1      47.619   3.701 131.598  1.00  0.00     0.000 C 
ENDROOT
BRANCH   1   2
ATOM      2  C   UNL     1      47.069   4.944 130.881  1.00  0.00     0.000 C 
BRANCH   2   3
ATOM      3  C   UNL     1      47.810   5.243 129.564  1.00  0.00     0.000 C 
BRANCH   3   4
ATOM      4  C   UNL     1      46.861   5.698 128.444  1.00  0.00     0.000 C 
BRANCH   4   5
ATOM      5  C   UNL     1      46.140   4.524 127.767  1.00  0.00     0.000 C 
BRANCH   5   6
ATOM      6  C   UNL     1      44.778   4.963 127.210  1.00  0.00     0.006 C 
BRANCH   6   7
ATOM      7  C   UNL     1      44.393   6.377 127.662  1.00  0.00     0.053 C 
BRANCH   7   8
ATOM      8  C   UNL     1      43.328   6.355 128.716  1.00  0.00     0.041 C 
ATOM      9  O   UNL     1      42.164   6.749 128.448  1.00  0.00    -0.550 OA
ATOM     10  O   UNL     1      43.632   5.929 130.003  1.00  0.00    -0.550 OA
ENDBRANCH   7   8
ENDBRANCH   6   7
ENDBRANCH   5   6
ENDBRANCH   4   5
ENDBRANCH   3   4
ENDBRANCH   2   3
ENDBRANCH   1   2
BRANCH   1  11
ATOM     11  C   UNL     1      46.539   2.950 132.392  1.00  0.00     0.000 C 
BRANCH  11  12
ATOM     12  C   UNL     1      45.631   3.930 133.145  1.00  0.00     0.000 C 
BRANCH  12  13
ATOM     13  C   UNL     1      45.918   3.897 134.654  1.00  0.00     0.000 C 
BRANCH  13  14
ATOM     14  C   UNL     1      46.030   2.467 135.205  1.00  0.00     0.000 C 
BRANCH  14  15
ATOM     15  C   UNL     1      44.693   1.932 135.742  1.00  0.00     0.000 C 
BRANCH  15  16
ATOM     16  C   UNL     1      44.209   0.734 134.912  1.00  0.00     0.006 C 
BRANCH  16  17
ATOM     17  C   UNL     1      43.279   1.158 133.768  1.00  0.00     0.053 C 
BRANCH  17  18
ATOM     18  C   UNL     1      43.614   0.457 132.488  1.00  0.00     0.041 C 
ATOM     19  O   UNL     1      42.752   0.355 131.577  1.00  0.00    -0.550 OA
ATOM     20  O   UNL     1      44.891  -0.054 132.288  1.00  0.00    -0.550 OA
ENDBRANCH  17  18
ENDBRANCH  16  17
ENDBRANCH  15  16
ENDBRANCH  14  15
ENDBRANCH  13  14
ENDBRANCH  12  13
ENDBRANCH  11  12
ENDBRANCH   1  11
TORSDOF 15
ENDMDL
MODEL 4
REMARK VINA RESULT:    -4.993      1.424      6.990
REMARK INTER + INTRA:         -10.837
REMARK INTER:                  -9.647
REMARK INTRA:                  -1.190
REMARK UNBOUND:                -1.466
REMARK SMILES O=C([O-])CCCCCCCCCCCCCCC(=O)[O-]
REMARK SMILES IDX 10 1 9 2 8 3 7 4 6 5 5 6 4 7 2 8 1 9 3 10 11 11 12 12 13 13
REMARK SMILES IDX 14 14 15 15 16 16 17 17 18 18 19 19 20 20
REMARK H PARENT
REMARK Flexibility Score: inf
ROOT
ATOM      1  C   UNL     1      46.468   4.867 130.714  1.00  0.00     0.000 C 
ENDROOT
BRANCH   1   2
ATOM      2  C   UNL     1      47.624   5.122 129.734  1.00  0.00     0.000 C 
BRANCH   2   3
ATOM      3  C   UNL     1      47.317   6.257 128.740  1.00  0.00     0.000 C 
BRANCH   3   4
ATOM      4  C   UNL     1      46.385   7.325 129.333  1.00  0.00     0.000 C 
BRANCH   4   5
ATOM      5  C   UNL     1      45.180   7.626 128.430  1.00  0.00     0.000 C 
BRANCH   5   6
ATOM      6  C   UNL     1      43.887   7.057 129.030  1.00  0.00     0.006 C 
BRANCH   6   7
ATOM      7  C   UNL     1      43.065   6.270 128.001  1.00  0.00     0.053 C 
BRANCH   7   8
ATOM      8  C   UNL     1      43.931   5.384 127.157  1.00  0.00     0.041 C 
ATOM      9  O   UNL     1      44.040   5.597 125.921  1.00  0.00    -0.550 OA
ATOM     10  O   UNL     1      44.590   4.305 127.731  1.00  0.00    -0.550 OA
ENDBRANCH   7   8
ENDBRANCH   6   7
ENDBRANCH   5   6
ENDBRANCH   4   5
ENDBRANCH   3   4
ENDBRANCH   2   3
ENDBRANCH   1   2
BRANCH   1  11
ATOM     11  C   UNL     1      46.889   4.002 131.911  1.00  0.00     0.000 C 
BRANCH  11  12
ATOM     12  C   UNL     1      46.037   4.323 133.146  1.00  0.00     0.000 C 
BRANCH  12  13
ATOM     13  C   UNL     1      45.758   3.054 133.966  1.00  0.00     0.000 C 
BRANCH  13  14
ATOM     14  C   UNL     1      45.429   1.839 133.084  1.00  0.00     0.000 C 
BRANCH  14  15
ATOM     15  C   UNL     1      44.039   1.935 132.438  1.00  0.00     0.000 C 
BRANCH  15  16
ATOM     16  C   UNL     1      43.584   0.566 131.908  1.00  0.00     0.006 C 
BRANCH  16  17
ATOM     17  C   UNL     1      42.083   0.332 132.118  1.00  0.00     0.053 C 
BRANCH  17  18
ATOM     18  C   UNL     1      41.811  -0.454 133.364  1.00  0.00     0.041 C 
ATOM     19  O   UNL     1      40.626  -0.708 133.707  1.00  0.00    -0.550 OA
ATOM     20  O   UNL     1      42.867  -0.936 134.128  1.00  0.00    -0.550 OA
ENDBRANCH  17  18
ENDBRANCH  16  17
ENDBRANCH  15  16
ENDBRANCH  14  15
ENDBRANCH  13  14
ENDBRANCH  12  13
ENDBRANCH  11  12
ENDBRANCH   1  11
TORSDOF 15
ENDMDL
MODEL 5
REMARK VINA RESULT:    -4.937      1.295      1.728
REMARK INTER + INTRA:         -10.731
REMARK INTER:                  -9.448
REMARK INTRA:                  -1.284
REMARK UNBOUND:                -1.466
REMARK SMILES O=C([O-])CCCCCCCCCCCCCCC(=O)[O-]
REMARK SMILES IDX 10 1 9 2 8 3 7 4 6 5 5 6 4 7 2 8 1 9 3 10 11 11 12 12 13 13
REMARK SMILES IDX 14 14 15 15 16 16 17 17 18 18 19 19 20 20
REMARK H PARENT
REMARK Flexibility Score: inf
ROOT
ATOM      1  C   UNL     1      47.813   4.112 131.525  1.00  0.00     0.000 C 
ENDROOT
BRANCH   1   2
ATOM      2  C   UNL     1      47.040   3.014 132.272  1.00  0.00     0.000 C 
BRANCH   2   3
ATOM      3  C   UNL     1      45.937   3.584 133.184  1.00  0.00     0.000 C 
BRANCH   3   4
ATOM      4  C   UNL     1      46.131   3.194 134.658  1.00  0.00     0.000 C 
BRANCH   4   5
ATOM      5  C   UNL     1      45.101   2.160 135.136  1.00  0.00     0.000 C 
BRANCH   5   6
ATOM      6  C   UNL     1      43.877   2.134 134.209  1.00  0.00     0.006 C 
BRANCH   6   7
ATOM      7  C   UNL     1      43.436   0.705 133.867  1.00  0.00     0.053 C 
BRANCH   7   8
ATOM      8  C   UNL     1      43.876   0.300 132.493  1.00  0.00     0.041 C 
ATOM      9  O   UNL     1      45.074  -0.023 132.282  1.00  0.00    -0.550 OA
ATOM     10  O   UNL     1      42.970   0.312 131.440  1.00  0.00    -0.550 OA
ENDBRANCH   7   8
ENDBRANCH   6   7
ENDBRANCH   5   6
ENDBRANCH   4   5
ENDBRANCH   3   4
ENDBRANCH   2   3
ENDBRANCH   1   2
BRANCH   1  11
ATOM     11  C   UNL     1      46.940   4.862 130.508  1.00  0.00     0.000 C 
BRANCH  11  12
ATOM     12  C   UNL     1      47.805   5.581 129.466  1.00  0.00     0.000 C 
BRANCH  12  13
ATOM     13  C   UNL     1      47.063   6.788 128.873  1.00  0.00     0.000 C 
BRANCH  13  14
ATOM     14  C   UNL     1      46.993   6.747 127.338  1.00  0.00     0.000 C 
BRANCH  14  15
ATOM     15  C   UNL     1      45.554   6.841 126.808  1.00  0.00     0.000 C 
BRANCH  15  16
ATOM     16  C   UNL     1      44.760   5.570 127.147  1.00  0.00     0.006 C 
BRANCH  16  17
ATOM     17  C   UNL     1      43.352   5.887 127.668  1.00  0.00     0.053 C 
BRANCH  17  18
ATOM     18  C   UNL     1      43.384   6.448 129.056  1.00  0.00     0.041 C 
ATOM     19  O   UNL     1      43.623   5.696 130.037  1.00  0.00    -0.550 OA
ATOM     20  O   UNL     1      43.185   7.807 129.263  1.00  0.00    -0.550 OA
ENDBRANCH  17  18
ENDBRANCH  16  17
ENDBRANCH  15  16
ENDBRANCH  14  15
ENDBRANCH  13  14
ENDBRANCH  12  13
ENDBRANCH  11  12
ENDBRANCH   1  11
TORSDOF 15
ENDMDL
MODEL 6
REMARK VINA RESULT:    -4.841      3.309      8.761
REMARK INTER + INTRA:         -10.551
REMARK INTER:                  -9.523
REMARK INTRA:                  -1.028
REMARK UNBOUND:                -1.466
REMARK SMILES O=C([O-])CCCCCCCCCCCCCCC(=O)[O-]
REMARK SMILES IDX 10 1 9 2 8 3 7 4 6 5 5 6 4 7 2 8 1 9 3 10 11 11 12 12 13 13
REMARK SMILES IDX 14 14 15 15 16 16 17 17 18 18 19 19 20 20
REMARK H PARENT
REMARK Flexibility Score: inf
ROOT
ATOM      1  C   UNL     1      44.448   5.664 128.987  1.00  0.00     0.000 C 
ENDROOT
BRANCH   1   2
ATOM      2  C   UNL     1      45.202   6.948 128.607  1.00  0.00     0.000 C 
BRANCH   2   3
ATOM      3  C   UNL     1      45.933   6.826 127.256  1.00  0.00     0.000 C 
BRANCH   3   4
ATOM      4  C   UNL     1      47.459   6.936 127.400  1.00  0.00     0.000 C 
BRANCH   4   5
ATOM      5  C   UNL     1      48.118   7.623 126.195  1.00  0.00     0.000 C 
BRANCH   5   6
ATOM      6  C   UNL     1      47.059   8.186 125.236  1.00  0.00     0.006 C 
BRANCH   6   7
ATOM      7  C   UNL     1      47.601   8.366 123.812  1.00  0.00     0.053 C 
BRANCH   7   8
ATOM      8  C   UNL     1      47.588   9.804 123.390  1.00  0.00     0.041 C 
ATOM      9  O   UNL     1      47.844  10.116 122.198  1.00  0.00    -0.550 OA
ATOM     10  O   UNL     1      47.327  10.800 124.322  1.00  0.00    -0.550 OA
ENDBRANCH   7   8
ENDBRANCH   6   7
ENDBRANCH   5   6
ENDBRANCH   4   5
ENDBRANCH   3   4
ENDBRANCH   2   3
ENDBRANCH   1   2
BRANCH   1  11
ATOM     11  C   UNL     1      44.954   5.049 130.301  1.00  0.00     0.000 C 
BRANCH  11  12
ATOM     12  C   UNL     1      46.477   4.875 130.274  1.00  0.00     0.000 C 
BRANCH  12  13
ATOM     13  C   UNL     1      47.000   4.405 131.640  1.00  0.00     0.000 C 
BRANCH  13  14
ATOM     14  C   UNL     1      45.873   4.165 132.657  1.00  0.00     0.000 C 
BRANCH  14  15
ATOM     15  C   UNL     1      46.224   3.079 133.685  1.00  0.00     0.000 C 
BRANCH  15  16
ATOM     16  C   UNL     1      45.015   2.171 133.960  1.00  0.00     0.006 C 
BRANCH  16  17
ATOM     17  C   UNL     1      44.027   2.150 132.786  1.00  0.00     0.053 C 
BRANCH  17  18
ATOM     18  C   UNL     1      43.846   0.770 132.235  1.00  0.00     0.041 C 
ATOM     19  O   UNL     1      42.748   0.432 131.720  1.00  0.00    -0.550 OA
ATOM     20  O   UNL     1      44.902  -0.134 132.260  1.00  0.00    -0.550 OA
ENDBRANCH  17  18
ENDBRANCH  16  17
ENDBRANCH  15  16
ENDBRANCH  14  15
ENDBRANCH  13  14
ENDBRANCH  12  13
ENDBRANCH  11  12
ENDBRANCH   1  11
TORSDOF 15
ENDMDL
MODEL 7
REMARK VINA RESULT:    -4.783      5.270     10.441
REMARK INTER + INTRA:         -10.443
REMARK INTER:                  -9.347
REMARK INTRA:                  -1.097
REMARK UNBOUND:                -1.466
REMARK SMILES O=C([O-])CCCCCCCCCCCCCCC(=O)[O-]
REMARK SMILES IDX 10 1 9 2 8 3 7 4 6 5 5 6 4 7 2 8 1 9 3 10 11 11 12 12 13 13
REMARK SMILES IDX 14 14 15 15 16 16 17 17 18 18 19 19 20 20
REMARK H PARENT
REMARK Flexibility Score: inf
ROOT
ATOM      1  C   UNL     1      46.546   8.136 125.020  1.00  0.00     0.000 C 
ENDROOT
BRANCH   1   2
ATOM      2  C   UNL     1      46.877   9.089 123.860  1.00  0.00     0.000 C 
BRANCH   2   3
ATOM      3  C   UNL     1      47.344  10.473 124.347  1.00  0.00     0.000 C 
BRANCH   3   4
ATOM      4  C   UNL     1      46.549  11.623 123.708  1.00  0.00     0.000 C 
BRANCH   4   5
ATOM      5  C   UNL     1      45.046  11.543 124.012  1.00  0.00     0.000 C 
BRANCH   5   6
ATOM      6  C   UNL     1      44.217  11.691 122.728  1.00  0.00     0.006 C 
BRANCH   6   7
ATOM      7  C   UNL     1      44.943  12.518 121.659  1.00  0.00     0.053 C 
BRANCH   7   8
ATOM      8  C   UNL     1      45.072  11.768 120.367  1.00  0.00     0.041 C 
ATOM      9  O   UNL     1      44.411  12.128 119.358  1.00  0.00    -0.550 OA
ATOM     10  O   UNL     1      45.896  10.653 120.290  1.00  0.00    -0.550 OA
ENDBRANCH   7   8
ENDBRANCH   6   7
ENDBRANCH   5   6
ENDBRANCH   4   5
ENDBRANCH   3   4
ENDBRANCH   2   3
ENDBRANCH   1   2
BRANCH   1  11
ATOM     11  C   UNL     1      47.759   7.859 125.921  1.00  0.00     0.000 C 
BRANCH  11  12
ATOM     12  C   UNL     1      47.430   6.791 126.971  1.00  0.00     0.000 C 
BRANCH  12  13
ATOM     13  C   UNL     1      47.690   7.317 128.391  1.00  0.00     0.000 C 
BRANCH  13  14
ATOM     14  C   UNL     1      46.488   7.117 129.327  1.00  0.00     0.000 C 
BRANCH  14  15
ATOM     15  C   UNL     1      45.165   7.584 128.700  1.00  0.00     0.000 C 
BRANCH  15  16
ATOM     16  C   UNL     1      43.984   6.758 129.232  1.00  0.00     0.006 C 
BRANCH  16  17
ATOM     17  C   UNL     1      42.908   6.528 128.163  1.00  0.00     0.053 C 
BRANCH  17  18
ATOM     18  C   UNL     1      43.309   5.462 127.190  1.00  0.00     0.041 C 
ATOM     19  O   UNL     1      42.721   5.364 126.080  1.00  0.00    -0.550 OA
ATOM     20  O   UNL     1      44.354   4.599 127.494  1.00  0.00    -0.550 OA
ENDBRANCH  17  18
ENDBRANCH  16  17
ENDBRANCH  15  16
ENDBRANCH  14  15
ENDBRANCH  13  14
ENDBRANCH  12  13
ENDBRANCH  11  12
ENDBRANCH   1  11
TORSDOF 15
ENDMDL
MODEL 8
REMARK VINA RESULT:    -4.780      5.484      8.128
REMARK INTER + INTRA:         -10.437
REMARK INTER:                  -8.944
REMARK INTRA:                  -1.493
REMARK UNBOUND:                -1.466
REMARK SMILES O=C([O-])CCCCCCCCCCCCCCC(=O)[O-]
REMARK SMILES IDX 10 1 9 2 8 3 7 4 6 5 5 6 4 7 2 8 1 9 3 10 11 11 12 12 13 13
REMARK SMILES IDX 14 14 15 15 16 16 17 17 18 18 19 19 20 20
REMARK H PARENT
REMARK Flexibility Score: inf
ROOT
ATOM      1  C   UNL     1      46.452   7.879 125.258  1.00  0.00     0.000 C 
ENDROOT
BRANCH   1   2
ATOM      2  C   UNL     1      47.724   7.849 126.121  1.00  0.00     0.000 C 
BRANCH   2   3
ATOM      3  C   UNL     1      47.653   6.795 127.241  1.00  0.00     0.000 C 
BRANCH   3   4
ATOM      4  C   UNL     1      47.505   7.425 128.636  1.00  0.00     0.000 C 
BRANCH   4   5
ATOM      5  C   UNL     1      46.223   6.979 129.353  1.00  0.00     0.000 C 
BRANCH   5   6
ATOM      6  C   UNL     1      44.977   7.377 128.548  1.00  0.00     0.006 C 
BRANCH   6   7
ATOM      7  C   UNL     1      43.877   6.309 128.613  1.00  0.00     0.053 C 
BRANCH   7   8
ATOM      8  C   UNL     1      43.718   5.594 127.305  1.00  0.00     0.041 C 
ATOM      9  O   UNL     1      44.695   4.991 126.790  1.00  0.00    -0.550 OA
ATOM     10  O   UNL     1      42.499   5.625 126.639  1.00  0.00    -0.550 OA
ENDBRANCH   7   8
ENDBRANCH   6   7
ENDBRANCH   5   6
ENDBRANCH   4   5
ENDBRANCH   3   4
ENDBRANCH   2   3
ENDBRANCH   1   2
BRANCH   1  11
ATOM     11  C   UNL     1      46.731   8.305 123.809  1.00  0.00     0.000 C 
BRANCH  11  12
ATOM     12  C   UNL     1      47.841   9.361 123.751  1.00  0.00     0.000 C 
BRANCH  12  13
ATOM     13  C   UNL     1      47.330  10.661 123.110  1.00  0.00     0.000 C 
BRANCH  13  14
ATOM     14  C   UNL     1      46.712  11.625 124.135  1.00  0.00     0.000 C 
BRANCH  14  15
ATOM     15  C   UNL     1      45.176  11.644 124.080  1.00  0.00     0.000 C 
BRANCH  15  16
ATOM     16  C   UNL     1      44.671  11.157 122.714  1.00  0.00     0.006 C 
BRANCH  16  17
ATOM     17  C   UNL     1      44.119  12.303 121.856  1.00  0.00     0.053 C 
BRANCH  17  18
ATOM     18  C   UNL     1      44.810  12.389 120.530  1.00  0.00     0.041 C 
ATOM     19  O   UNL     1      44.150  12.279 119.464  1.00  0.00    -0.550 OA
ATOM     20  O   UNL     1      46.178  12.626 120.472  1.00  0.00    -0.550 OA
ENDBRANCH  17  18
ENDBRANCH  16  17
ENDBRANCH  15  16
ENDBRANCH  14  15
ENDBRANCH  13  14
ENDBRANCH  12  13
ENDBRANCH  11  12
ENDBRANCH   1  11
TORSDOF 15
ENDMDL
MODEL 9
REMARK VINA RESULT:    -4.696      3.525      9.227
REMARK INTER + INTRA:         -10.279
REMARK INTER:                  -9.385
REMARK INTRA:                  -0.894
REMARK UNBOUND:                -1.466
REMARK SMILES O=C([O-])CCCCCCCCCCCCCCC(=O)[O-]
REMARK SMILES IDX 10 1 9 2 8 3 7 4 6 5 5 6 4 7 2 8 1 9 3 10 11 11 12 12 13 13
REMARK SMILES IDX 14 14 15 15 16 16 17 17 18 18 19 19 20 20
REMARK H PARENT
REMARK Flexibility Score: inf
ROOT
ATOM      1  C   UNL     1      44.821   5.983 127.465  1.00  0.00     0.000 C 
ENDROOT
BRANCH   1   2
ATOM      2  C   UNL     1      45.671   7.261 127.385  1.00  0.00     0.000 C 
BRANCH   2   3
ATOM      3  C   UNL     1      47.134   6.974 126.999  1.00  0.00     0.000 C 
BRANCH   3   4
ATOM      4  C   UNL     1      47.621   7.854 125.837  1.00  0.00     0.000 C 
BRANCH   4   5
ATOM      5  C   UNL     1      46.525   8.115 124.793  1.00  0.00     0.000 C 
BRANCH   5   6
ATOM      6  C   UNL     1      47.024   9.072 123.701  1.00  0.00     0.006 C 
BRANCH   6   7
ATOM      7  C   UNL     1      46.867  10.545 124.101  1.00  0.00     0.053 C 
BRANCH   7   8
ATOM      8  C   UNL     1      45.633  11.154 123.508  1.00  0.00     0.041 C 
ATOM      9  O   UNL     1      45.415  11.068 122.271  1.00  0.00    -0.550 OA
ATOM     10  O   UNL     1      44.741  11.845 124.318  1.00  0.00    -0.550 OA
ENDBRANCH   7   8
ENDBRANCH   6   7
ENDBRANCH   5   6
ENDBRANCH   4   5
ENDBRANCH   3   4
ENDBRANCH   2   3
ENDBRANCH   1   2
BRANCH   1  11
ATOM     11  C   UNL     1      45.497   4.873 128.283  1.00  0.00     0.000 C 
BRANCH  11  12
ATOM     12  C   UNL     1      45.352   5.134 129.787  1.00  0.00     0.000 C 
BRANCH  12  13
ATOM     13  C   UNL     1      46.694   4.942 130.511  1.00  0.00     0.000 C 
BRANCH  13  14
ATOM     14  C   UNL     1      46.538   4.254 131.876  1.00  0.00     0.000 C 
BRANCH  14  15
ATOM     15  C   UNL     1      45.150   3.623 132.067  1.00  0.00     0.000 C 
BRANCH  15  16
ATOM     16  C   UNL     1      45.096   2.798 133.361  1.00  0.00     0.006 C 
BRANCH  16  17
ATOM     17  C   UNL     1      43.898   1.840 133.389  1.00  0.00     0.053 C 
BRANCH  17  18
ATOM     18  C   UNL     1      44.046   0.734 132.390  1.00  0.00     0.041 C 
ATOM     19  O   UNL     1      45.092   0.034 132.370  1.00  0.00    -0.550 OA
ATOM     20  O   UNL     1      43.013   0.453 131.504  1.00  0.00    -0.550 OA
ENDBRANCH  17  18
ENDBRANCH  16  17
ENDBRANCH  15  16
ENDBRANCH  14  15
ENDBRANCH  13  14
ENDBRANCH  12  13
ENDBRANCH  11  12
ENDBRANCH   1  11
TORSDOF 15
ENDMDL
