MODEL 1
REMARK VINA RESULT:    13.752      0.000      0.000
REMARK INTER + INTRA:          24.262
REMARK INTER:                  25.007
REMARK INTRA:                  -0.745
REMARK UNBOUND:                -0.745
REMARK SMILES CCCCCCCCCCCCCCCC(=O)[O-]
REMARK SMILES IDX 9 1 10 2 11 3 12 4 13 5 14 6 15 7 16 8 17 9 18 10 8 11 7 12
REMARK SMILES IDX 6 13 5 14 4 15 3 16 2 17 1 18
REMARK H PARENT
REMARK Flexibility Score: inf
ROOT
ATOM      1  C   UNL     1      -6.110 -11.179  23.772  1.00  0.00     0.000 C 
ENDROOT
BRANCH   1   2
ATOM      2  C   UNL     1      -5.781 -10.352  25.030  1.00  0.00     0.000 C 
BRANCH   2   3
ATOM      3  C   UNL     1      -5.104  -8.993  24.762  1.00  0.00     0.000 C 
BRANCH   3   4
ATOM      4  C   UNL     1      -3.600  -8.998  25.071  1.00  0.00     0.000 C 
BRANCH   4   5
ATOM      5  C   UNL     1      -2.811  -8.270  23.973  1.00  0.00     0.000 C 
BRANCH   5   6
ATOM      6  C   UNL     1      -1.291  -8.490  24.098  1.00  0.00     0.006 C 
BRANCH   6   7
ATOM      7  C   UNL     1      -0.876  -9.202  25.396  1.00  0.00     0.053 C 
BRANCH   7   8
ATOM      8  C   UNL     1       0.201  -8.472  26.136  1.00  0.00     0.041 C 
ATOM      9  O   UNL     1       0.842  -9.048  27.054  1.00  0.00    -0.550 OA
ATOM     10  O   UNL     1       0.513  -7.162  25.795  1.00  0.00    -0.550 OA
ENDBRANCH   7   8
ENDBRANCH   6   7
ENDBRANCH   5   6
ENDBRANCH   4   5
ENDBRANCH   3   4
ENDBRANCH   2   3
ENDBRANCH   1   2
BRANCH   1  11
ATOM     11  C   UNL     1      -6.489 -12.635  24.091  1.00  0.00     0.000 C 
BRANCH  11  12
ATOM     12  C   UNL     1      -6.162 -13.027  25.539  1.00  0.00    -0.000 C 
BRANCH  12  13
ATOM     13  C   UNL     1      -4.926 -13.939  25.643  1.00  0.00    -0.000 C 
BRANCH  13  14
ATOM     14  C   UNL     1      -5.228 -15.248  26.401  1.00  0.00    -0.000 C 
BRANCH  14  15
ATOM     15  C   UNL     1      -4.560 -16.486  25.776  1.00  0.00    -0.000 C 
BRANCH  15  16
ATOM     16  C   UNL     1      -5.378 -17.773  25.975  1.00  0.00    -0.000 C 
BRANCH  16  17
ATOM     17  C   UNL     1      -5.668 -18.497  24.650  1.00  0.00    -0.003 C 
ATOM     18  C   UNL     1      -5.121 -17.745  23.436  1.00  0.00     0.004 C 
ENDBRANCH  16  17
ENDBRANCH  15  16
ENDBRANCH  14  15
ENDBRANCH  13  14
ENDBRANCH  12  13
ENDBRANCH  11  12
ENDBRANCH   1  11
TORSDOF 14
ENDMDL
MODEL 2
REMARK VINA RESULT:    13.813      3.965      8.389
REMARK INTER + INTRA:          24.373
REMARK INTER:                  25.105
REMARK INTRA:                  -0.733
REMARK UNBOUND:                -0.745
REMARK SMILES CCCCCCCCCCCCCCCC(=O)[O-]
REMARK SMILES IDX 9 1 10 2 11 3 12 4 13 5 14 6 15 7 16 8 17 9 18 10 8 11 7 12
REMARK SMILES IDX 6 13 5 14 4 15 3 16 2 17 1 18
REMARK H PARENT
REMARK Flexibility Score: inf
ROOT
ATOM      1  C   UNL     1      -5.925 -11.123  23.742  1.00  0.00     0.000 C 
ENDROOT
BRANCH   1   2
ATOM      2  C   UNL     1      -6.580 -12.472  24.099  1.00  0.00     0.000 C 
BRANCH   2   3
ATOM      3  C   UNL     1      -6.205 -13.035  25.485  1.00  0.00     0.000 C 
BRANCH   3   4
ATOM      4  C   UNL     1      -5.234 -14.221  25.410  1.00  0.00     0.000 C 
BRANCH   4   5
ATOM      5  C   UNL     1      -5.272 -15.045  26.707  1.00  0.00     0.000 C 
BRANCH   5   6
ATOM      6  C   UNL     1      -5.167 -16.560  26.444  1.00  0.00     0.006 C 
BRANCH   6   7
ATOM      7  C   UNL     1      -4.371 -16.911  25.175  1.00  0.00     0.053 C 
BRANCH   7   8
ATOM      8  C   UNL     1      -5.087 -17.889  24.298  1.00  0.00     0.041 C 
ATOM      9  O   UNL     1      -5.712 -18.857  24.806  1.00  0.00    -0.550 OA
ATOM     10  O   UNL     1      -5.080 -17.720  22.919  1.00  0.00    -0.550 OA
ENDBRANCH   7   8
ENDBRANCH   6   7
ENDBRANCH   5   6
ENDBRANCH   4   5
ENDBRANCH   3   4
ENDBRANCH   2   3
ENDBRANCH   1   2
BRANCH   1  11
ATOM     11  C   UNL     1      -5.895 -10.138  24.923  1.00  0.00     0.000 C 
BRANCH  11  12
ATOM     12  C   UNL     1      -5.093  -8.866  24.612  1.00  0.00    -0.000 C 
BRANCH  12  13
ATOM     13  C   UNL     1      -3.593  -9.020  24.922  1.00  0.00    -0.000 C 
BRANCH  13  14
ATOM     14  C   UNL     1      -2.707  -8.268  23.908  1.00  0.00    -0.000 C 
BRANCH  14  15
ATOM     15  C   UNL     1      -1.199  -8.454  24.155  1.00  0.00    -0.000 C 
BRANCH  15  16
ATOM     16  C   UNL     1      -0.888  -9.087  25.521  1.00  0.00    -0.000 C 
BRANCH  16  17
ATOM     17  C   UNL     1       0.376  -8.500  26.169  1.00  0.00    -0.003 C 
ATOM     18  C   UNL     1       0.579  -7.022  25.830  1.00  0.00     0.004 C 
ENDBRANCH  16  17
ENDBRANCH  15  16
ENDBRANCH  14  15
ENDBRANCH  13  14
ENDBRANCH  12  13
ENDBRANCH  11  12
ENDBRANCH   1  11
TORSDOF 14
ENDMDL
MODEL 3
REMARK VINA RESULT:    15.469      4.168      8.445
REMARK INTER + INTRA:          27.384
REMARK INTER:                  28.105
REMARK INTRA:                  -0.721
REMARK UNBOUND:                -0.745
REMARK SMILES CCCCCCCCCCCCCCCC(=O)[O-]
REMARK SMILES IDX 9 1 10 2 11 3 12 4 13 5 14 6 15 7 16 8 17 9 18 10 8 11 7 12
REMARK SMILES IDX 6 13 5 14 4 15 3 16 2 17 1 18
REMARK H PARENT
REMARK Flexibility Score: inf
ROOT
ATOM      1  C   UNL     1      -5.815 -10.849  23.773  1.00  0.00     0.000 C 
ENDROOT
BRANCH   1   2
ATOM      2  C   UNL     1      -6.529 -12.200  23.978  1.00  0.00     0.000 C 
BRANCH   2   3
ATOM      3  C   UNL     1      -6.282 -12.870  25.344  1.00  0.00     0.000 C 
BRANCH   3   4
ATOM      4  C   UNL     1      -5.411 -14.131  25.248  1.00  0.00     0.000 C 
BRANCH   4   5
ATOM      5  C   UNL     1      -5.292 -14.822  26.614  1.00  0.00     0.000 C 
BRANCH   5   6
ATOM      6  C   UNL     1      -5.026 -16.334  26.487  1.00  0.00     0.006 C 
BRANCH   6   7
ATOM      7  C   UNL     1      -4.328 -16.729  25.174  1.00  0.00     0.053 C 
BRANCH   7   8
ATOM      8  C   UNL     1      -5.041 -17.826  24.449  1.00  0.00     0.041 C 
ATOM      9  O   UNL     1      -5.583 -18.763  25.093  1.00  0.00    -0.550 OA
ATOM     10  O   UNL     1      -5.124 -17.804  23.062  1.00  0.00    -0.550 OA
ENDBRANCH   7   8
ENDBRANCH   6   7
ENDBRANCH   5   6
ENDBRANCH   4   5
ENDBRANCH   3   4
ENDBRANCH   2   3
ENDBRANCH   1   2
BRANCH   1  11
ATOM     11  C   UNL     1      -5.983  -9.892  24.966  1.00  0.00     0.000 C 
BRANCH  11  12
ATOM     12  C   UNL     1      -4.664  -9.223  25.379  1.00  0.00    -0.000 C 
BRANCH  12  13
ATOM     13  C   UNL     1      -3.994  -8.466  24.218  1.00  0.00    -0.000 C 
BRANCH  13  14
ATOM     14  C   UNL     1      -2.456  -8.562  24.270  1.00  0.00    -0.000 C 
BRANCH  14  15
ATOM     15  C   UNL     1      -1.764  -7.993  23.018  1.00  0.00    -0.000 C 
BRANCH  15  16
ATOM     16  C   UNL     1      -2.737  -7.278  22.067  1.00  0.00    -0.000 C 
BRANCH  16  17
ATOM     17  C   UNL     1      -2.297  -7.368  20.596  1.00  0.00    -0.003 C 
ATOM     18  C   UNL     1      -3.452  -7.141  19.620  1.00  0.00     0.004 C 
ENDBRANCH  16  17
ENDBRANCH  15  16
ENDBRANCH  14  15
ENDBRANCH  13  14
ENDBRANCH  12  13
ENDBRANCH  11  12
ENDBRANCH   1  11
TORSDOF 14
ENDMDL
MODEL 4
REMARK VINA RESULT:    16.213      5.591      7.968
REMARK INTER + INTRA:          28.736
REMARK INTER:                  29.383
REMARK INTRA:                  -0.647
REMARK UNBOUND:                -0.745
REMARK SMILES CCCCCCCCCCCCCCCC(=O)[O-]
REMARK SMILES IDX 9 1 10 2 11 3 12 4 13 5 14 6 15 7 16 8 17 9 18 10 8 11 7 12
REMARK SMILES IDX 6 13 5 14 4 15 3 16 2 17 1 18
REMARK H PARENT
REMARK Flexibility Score: inf
ROOT
ATOM      1  C   UNL     1      -6.593 -12.492  23.203  1.00  0.00     0.000 C 
ENDROOT
BRANCH   1   2
ATOM      2  C   UNL     1      -6.932 -12.011  24.627  1.00  0.00     0.000 C 
BRANCH   2   3
ATOM      3  C   UNL     1      -6.459 -12.941  25.762  1.00  0.00     0.000 C 
BRANCH   3   4
ATOM      4  C   UNL     1      -5.406 -13.961  25.306  1.00  0.00     0.000 C 
BRANCH   4   5
ATOM      5  C   UNL     1      -5.124 -14.991  26.411  1.00  0.00     0.000 C 
BRANCH   5   6
ATOM      6  C   UNL     1      -4.467 -16.273  25.864  1.00  0.00     0.006 C 
BRANCH   6   7
ATOM      7  C   UNL     1      -5.426 -17.473  25.790  1.00  0.00     0.053 C 
BRANCH   7   8
ATOM      8  C   UNL     1      -5.319 -18.217  24.495  1.00  0.00     0.041 C 
ATOM      9  O   UNL     1      -5.828 -19.363  24.379  1.00  0.00    -0.550 OA
ATOM     10  O   UNL     1      -4.675 -17.635  23.411  1.00  0.00    -0.550 OA
ENDBRANCH   7   8
ENDBRANCH   6   7
ENDBRANCH   5   6
ENDBRANCH   4   5
ENDBRANCH   3   4
ENDBRANCH   2   3
ENDBRANCH   1   2
BRANCH   1  11
ATOM     11  C   UNL     1      -7.817 -12.526  22.272  1.00  0.00     0.000 C 
BRANCH  11  12
ATOM     12  C   UNL     1      -7.860 -13.787  21.397  1.00  0.00    -0.000 C 
BRANCH  12  13
ATOM     13  C   UNL     1      -9.019 -13.767  20.384  1.00  0.00    -0.000 C 
BRANCH  13  14
ATOM     14  C   UNL     1      -8.518 -13.776  18.925  1.00  0.00    -0.000 C 
BRANCH  14  15
ATOM     15  C   UNL     1      -9.557 -14.313  17.923  1.00  0.00    -0.000 C 
BRANCH  15  16
ATOM     16  C   UNL     1      -9.216 -15.718  17.400  1.00  0.00    -0.000 C 
BRANCH  16  17
ATOM     17  C   UNL     1     -10.040 -16.819  18.087  1.00  0.00    -0.003 C 
ATOM     18  C   UNL     1      -9.633 -18.224  17.643  1.00  0.00     0.004 C 
ENDBRANCH  16  17
ENDBRANCH  15  16
ENDBRANCH  14  15
ENDBRANCH  13  14
ENDBRANCH  12  13
ENDBRANCH  11  12
ENDBRANCH   1  11
TORSDOF 14
ENDMDL
MODEL 5
REMARK VINA RESULT:    16.457      2.254      2.908
REMARK INTER + INTRA:          29.181
REMARK INTER:                  29.986
REMARK INTRA:                  -0.805
REMARK UNBOUND:                -0.745
REMARK SMILES CCCCCCCCCCCCCCCC(=O)[O-]
REMARK SMILES IDX 9 1 10 2 11 3 12 4 13 5 14 6 15 7 16 8 17 9 18 10 8 11 7 12
REMARK SMILES IDX 6 13 5 14 4 15 3 16 2 17 1 18
REMARK H PARENT
REMARK Flexibility Score: inf
ROOT
ATOM      1  C   UNL     1      -6.653 -12.087  23.970  1.00  0.00     0.000 C 
ENDROOT
BRANCH   1   2
ATOM      2  C   UNL     1      -5.843 -10.799  23.723  1.00  0.00     0.000 C 
BRANCH   2   3
ATOM      3  C   UNL     1      -5.614  -9.921  24.970  1.00  0.00     0.000 C 
BRANCH   3   4
ATOM      4  C   UNL     1      -4.799  -8.655  24.673  1.00  0.00     0.000 C 
BRANCH   4   5
ATOM      5  C   UNL     1      -3.301  -8.979  24.561  1.00  0.00     0.000 C 
BRANCH   5   6
ATOM      6  C   UNL     1      -2.519  -7.886  23.808  1.00  0.00     0.006 C 
BRANCH   6   7
ATOM      7  C   UNL     1      -3.332  -7.200  22.697  1.00  0.00     0.053 C 
BRANCH   7   8
ATOM      8  C   UNL     1      -2.687  -7.319  21.352  1.00  0.00     0.041 C 
ATOM      9  O   UNL     1      -1.494  -7.712  21.254  1.00  0.00    -0.550 OA
ATOM     10  O   UNL     1      -3.409  -7.016  20.205  1.00  0.00    -0.550 OA
ENDBRANCH   7   8
ENDBRANCH   6   7
ENDBRANCH   5   6
ENDBRANCH   4   5
ENDBRANCH   3   4
ENDBRANCH   2   3
ENDBRANCH   1   2
BRANCH   1  11
ATOM     11  C   UNL     1      -6.321 -12.758  25.314  1.00  0.00     0.000 C 
BRANCH  11  12
ATOM     12  C   UNL     1      -5.468 -14.024  25.149  1.00  0.00    -0.000 C 
BRANCH  12  13
ATOM     13  C   UNL     1      -4.890 -14.527  26.484  1.00  0.00    -0.000 C 
BRANCH  13  14
ATOM     14  C   UNL     1      -5.290 -15.988  26.779  1.00  0.00    -0.000 C 
BRANCH  14  15
ATOM     15  C   UNL     1      -4.634 -17.007  25.829  1.00  0.00    -0.000 C 
BRANCH  15  16
ATOM     16  C   UNL     1      -5.435 -18.313  25.705  1.00  0.00    -0.000 C 
BRANCH  16  17
ATOM     17  C   UNL     1      -5.953 -18.553  24.278  1.00  0.00    -0.003 C 
ATOM     18  C   UNL     1      -5.105 -17.848  23.218  1.00  0.00     0.004 C 
ENDBRANCH  16  17
ENDBRANCH  15  16
ENDBRANCH  14  15
ENDBRANCH  13  14
ENDBRANCH  12  13
ENDBRANCH  11  12
ENDBRANCH   1  11
TORSDOF 14
ENDMDL
