MODEL 1
REMARK VINA RESULT:    -6.538      0.000      0.000
REMARK INTER + INTRA:          -6.538
REMARK INTER:                  -6.538
REMARK INTRA:                   0.000
REMARK UNBOUND:                 0.000
REMARK SMILES C=C1CCC[C@]2(C)CC(=O)C(=C(C)C)C[C@@H]12
REMARK SMILES IDX 13 1 12 2 11 3 15 4 16 5 2 6 1 7 3 8 4 9 5 10 6 11 8 12 9 13
REMARK SMILES IDX 10 14 7 15 14 16
REMARK H PARENT
REMARK Flexibility Score: inf
ROOT
ATOM      1  C   UNL     1     -11.547 -22.604  19.268  1.00  0.00     0.039 C 
ATOM      2  C   UNL     1     -13.015 -22.579  19.631  1.00  0.00    -0.070 C 
ATOM      3  C   UNL     1     -13.441 -22.247  20.885  1.00  0.00    -0.006 C 
ATOM      4  C   UNL     1     -14.925 -22.167  21.219  1.00  0.00     0.047 C 
ATOM      5  C   UNL     1     -15.235 -21.127  22.324  1.00  0.00     0.025 C 
ATOM      6  C   UNL     1     -16.707 -21.031  22.730  1.00  0.00    -0.073 C 
ATOM      7  C   UNL     1     -17.687 -21.786  22.197  1.00  0.00     0.008 C 
ATOM      8  C   UNL     1     -17.048 -19.983  23.763  1.00  0.00     0.031 C 
ATOM      9  C   UNL     1     -16.160 -20.146  25.000  1.00  0.00     0.005 C 
ATOM     10  C   UNL     1     -14.669 -20.201  24.626  1.00  0.00     0.008 C 
ATOM     11  C   UNL     1     -14.340 -21.316  23.589  1.00  0.00    -0.018 C 
ATOM     12  C   UNL     1     -12.856 -21.163  23.170  1.00  0.00     0.088 C 
ATOM     13  C   UNL     1     -12.495 -22.065  22.025  1.00  0.00     0.159 C 
ATOM     14  O   UNL     1     -11.389 -22.669  22.060  1.00  0.00    -0.295 OA
ATOM     15  C   UNL     1     -14.549 -22.711  24.241  1.00  0.00     0.012 C 
ATOM     16  C   UNL     1     -13.998 -22.903  18.529  1.00  0.00     0.039 C 
ENDROOT
TORSDOF 0
ENDMDL
MODEL 2
REMARK VINA RESULT:    -6.126      2.438      4.886
REMARK INTER + INTRA:          -6.126
REMARK INTER:                  -6.126
REMARK INTRA:                   0.000
REMARK UNBOUND:                 0.000
REMARK SMILES C=C1CCC[C@]2(C)CC(=O)C(=C(C)C)C[C@@H]12
REMARK SMILES IDX 13 1 12 2 11 3 15 4 16 5 2 6 1 7 3 8 4 9 5 10 6 11 8 12 9 13
REMARK SMILES IDX 10 14 7 15 14 16
REMARK H PARENT
REMARK Flexibility Score: inf
ROOT
ATOM      1  C   UNL     1     -17.585 -20.537  23.406  1.00  0.00     0.039 C 
ATOM      2  C   UNL     1     -16.338 -21.013  22.696  1.00  0.00    -0.070 C 
ATOM      3  C   UNL     1     -15.241 -21.450  23.382  1.00  0.00    -0.006 C 
ATOM      4  C   UNL     1     -14.016 -21.984  22.651  1.00  0.00     0.047 C 
ATOM      5  C   UNL     1     -13.254 -23.059  23.465  1.00  0.00     0.025 C 
ATOM      6  C   UNL     1     -11.990 -23.605  22.798  1.00  0.00    -0.073 C 
ATOM      7  C   UNL     1     -11.535 -23.196  21.598  1.00  0.00     0.008 C 
ATOM      8  C   UNL     1     -11.261 -24.697  23.542  1.00  0.00     0.031 C 
ATOM      9  C   UNL     1     -10.961 -24.256  24.978  1.00  0.00     0.005 C 
ATOM     10  C   UNL     1     -12.225 -23.745  25.689  1.00  0.00     0.008 C 
ATOM     11  C   UNL     1     -12.936 -22.591  24.920  1.00  0.00    -0.018 C 
ATOM     12  C   UNL     1     -14.270 -22.279  25.641  1.00  0.00     0.088 C 
ATOM     13  C   UNL     1     -15.124 -21.319  24.863  1.00  0.00     0.159 C 
ATOM     14  O   UNL     1     -15.721 -20.402  25.488  1.00  0.00    -0.295 OA
ATOM     15  C   UNL     1     -12.035 -21.324  24.933  1.00  0.00     0.012 C 
ATOM     16  C   UNL     1     -16.372 -21.020  21.184  1.00  0.00     0.039 C 
ENDROOT
TORSDOF 0
ENDMDL
MODEL 3
REMARK VINA RESULT:    -5.938      2.571      4.130
REMARK INTER + INTRA:          -5.938
REMARK INTER:                  -5.938
REMARK INTRA:                   0.000
REMARK UNBOUND:                 0.000
REMARK SMILES C=C1CCC[C@]2(C)CC(=O)C(=C(C)C)C[C@@H]12
REMARK SMILES IDX 13 1 12 2 11 3 15 4 16 5 2 6 1 7 3 8 4 9 5 10 6 11 8 12 9 13
REMARK SMILES IDX 10 14 7 15 14 16
REMARK H PARENT
REMARK Flexibility Score: inf
ROOT
ATOM      1  C   UNL     1      -9.988 -20.910  18.448  1.00  0.00     0.039 C 
ATOM      2  C   UNL     1      -9.848 -21.894  19.588  1.00  0.00    -0.070 C 
ATOM      3  C   UNL     1     -10.719 -21.905  20.640  1.00  0.00    -0.006 C 
ATOM      4  C   UNL     1     -10.600 -22.941  21.750  1.00  0.00     0.047 C 
ATOM      5  C   UNL     1     -11.966 -23.296  22.387  1.00  0.00     0.025 C 
ATOM      6  C   UNL     1     -11.905 -24.304  23.536  1.00  0.00    -0.073 C 
ATOM      7  C   UNL     1     -10.765 -24.854  23.996  1.00  0.00     0.008 C 
ATOM      8  C   UNL     1     -13.229 -24.714  24.136  1.00  0.00     0.031 C 
ATOM      9  C   UNL     1     -14.032 -23.477  24.550  1.00  0.00     0.005 C 
ATOM     10  C   UNL     1     -14.149 -22.465  23.398  1.00  0.00     0.008 C 
ATOM     11  C   UNL     1     -12.767 -22.029  22.824  1.00  0.00    -0.018 C 
ATOM     12  C   UNL     1     -13.018 -21.148  21.576  1.00  0.00     0.088 C 
ATOM     13  C   UNL     1     -11.749 -20.844  20.832  1.00  0.00     0.159 C 
ATOM     14  O   UNL     1     -11.575 -19.675  20.393  1.00  0.00    -0.295 OA
ATOM     15  C   UNL     1     -11.998 -21.201  23.891  1.00  0.00     0.012 C 
ATOM     16  C   UNL     1      -8.718 -22.894  19.493  1.00  0.00     0.039 C 
ENDROOT
TORSDOF 0
ENDMDL
MODEL 4
REMARK VINA RESULT:    -5.904      1.854      2.682
REMARK INTER + INTRA:          -5.904
REMARK INTER:                  -5.904
REMARK INTRA:                   0.000
REMARK UNBOUND:                 0.000
REMARK SMILES C=C1CCC[C@]2(C)CC(=O)C(=C(C)C)C[C@@H]12
REMARK SMILES IDX 13 1 12 2 11 3 15 4 16 5 2 6 1 7 3 8 4 9 5 10 6 11 8 12 9 13
REMARK SMILES IDX 10 14 7 15 14 16
REMARK H PARENT
REMARK Flexibility Score: inf
ROOT
ATOM      1  C   UNL     1      -8.577 -22.605  20.214  1.00  0.00     0.039 C 
ATOM      2  C   UNL     1     -10.086 -22.499  20.202  1.00  0.00    -0.070 C 
ATOM      3  C   UNL     1     -10.829 -22.671  21.335  1.00  0.00    -0.006 C 
ATOM      4  C   UNL     1     -12.342 -22.501  21.319  1.00  0.00     0.047 C 
ATOM      5  C   UNL     1     -12.904 -22.000  22.672  1.00  0.00     0.025 C 
ATOM      6  C   UNL     1     -14.425 -21.847  22.728  1.00  0.00    -0.073 C 
ATOM      7  C   UNL     1     -15.249 -22.130  21.701  1.00  0.00     0.008 C 
ATOM      8  C   UNL     1     -14.994 -21.303  24.016  1.00  0.00     0.031 C 
ATOM      9  C   UNL     1     -14.493 -22.123  25.209  1.00  0.00     0.005 C 
ATOM     10  C   UNL     1     -12.961 -22.255  25.203  1.00  0.00     0.008 C 
ATOM     11  C   UNL     1     -12.404 -22.856  23.878  1.00  0.00    -0.018 C 
ATOM     12  C   UNL     1     -10.857 -22.783  23.928  1.00  0.00     0.088 C 
ATOM     13  C   UNL     1     -10.230 -23.153  22.614  1.00  0.00     0.159 C 
ATOM     14  O   UNL     1      -9.204 -23.885  22.621  1.00  0.00    -0.295 OA
ATOM     15  C   UNL     1     -12.845 -24.340  23.754  1.00  0.00     0.012 C 
ATOM     16  C   UNL     1     -10.737 -22.154  18.882  1.00  0.00     0.039 C 
ENDROOT
TORSDOF 0
ENDMDL
MODEL 5
REMARK VINA RESULT:    -5.826      2.232      5.782
REMARK INTER + INTRA:          -5.826
REMARK INTER:                  -5.826
REMARK INTRA:                   0.000
REMARK UNBOUND:                 0.000
REMARK SMILES C=C1CCC[C@]2(C)CC(=O)C(=C(C)C)C[C@@H]12
REMARK SMILES IDX 13 1 12 2 11 3 15 4 16 5 2 6 1 7 3 8 4 9 5 10 6 11 8 12 9 13
REMARK SMILES IDX 10 14 7 15 14 16
REMARK H PARENT
REMARK Flexibility Score: inf
ROOT
ATOM      1  C   UNL     1     -15.668 -21.372  23.806  1.00  0.00     0.039 C 
ATOM      2  C   UNL     1     -14.381 -22.165  23.828  1.00  0.00    -0.070 C 
ATOM      3  C   UNL     1     -13.477 -22.098  22.807  1.00  0.00    -0.006 C 
ATOM      4  C   UNL     1     -12.157 -22.855  22.872  1.00  0.00     0.047 C 
ATOM      5  C   UNL     1     -11.018 -22.143  22.102  1.00  0.00     0.025 C 
ATOM      6  C   UNL     1      -9.677 -22.877  22.099  1.00  0.00    -0.073 C 
ATOM      7  C   UNL     1      -9.466 -24.064  22.700  1.00  0.00     0.008 C 
ATOM      8  C   UNL     1      -8.533 -22.176  21.406  1.00  0.00     0.031 C 
ATOM      9  C   UNL     1      -8.933 -21.784  19.980  1.00  0.00     0.005 C 
ATOM     10  C   UNL     1     -10.257 -21.003  19.957  1.00  0.00     0.008 C 
ATOM     11  C   UNL     1     -11.430 -21.767  20.644  1.00  0.00    -0.018 C 
ATOM     12  C   UNL     1     -12.653 -20.820  20.704  1.00  0.00     0.088 C 
ATOM     13  C   UNL     1     -13.772 -21.391  21.527  1.00  0.00     0.159 C 
ATOM     14  O   UNL     1     -14.953 -21.270  21.104  1.00  0.00    -0.295 OA
ATOM     15  C   UNL     1     -11.793 -23.024  19.805  1.00  0.00     0.012 C 
ATOM     16  C   UNL     1     -14.119 -23.010  25.054  1.00  0.00     0.039 C 
ENDROOT
TORSDOF 0
ENDMDL
MODEL 6
REMARK VINA RESULT:    -5.799      2.104      5.824
REMARK INTER + INTRA:          -5.799
REMARK INTER:                  -5.799
REMARK INTRA:                   0.000
REMARK UNBOUND:                 0.000
REMARK SMILES C=C1CCC[C@]2(C)CC(=O)C(=C(C)C)C[C@@H]12
REMARK SMILES IDX 13 1 12 2 11 3 15 4 16 5 2 6 1 7 3 8 4 9 5 10 6 11 8 12 9 13
REMARK SMILES IDX 10 14 7 15 14 16
REMARK H PARENT
REMARK Flexibility Score: inf
ROOT
ATOM      1  C   UNL     1     -14.755 -22.499  23.328  1.00  0.00     0.039 C 
ATOM      2  C   UNL     1     -14.184 -22.089  21.988  1.00  0.00    -0.070 C 
ATOM      3  C   UNL     1     -12.840 -22.088  21.748  1.00  0.00    -0.006 C 
ATOM      4  C   UNL     1     -12.284 -21.732  20.375  1.00  0.00     0.047 C 
ATOM      5  C   UNL     1     -10.954 -22.459  20.060  1.00  0.00     0.025 C 
ATOM      6  C   UNL     1     -10.327 -22.109  18.709  1.00  0.00    -0.073 C 
ATOM      7  C   UNL     1     -10.857 -21.230  17.838  1.00  0.00     0.008 C 
ATOM      8  C   UNL     1      -9.061 -22.849  18.349  1.00  0.00     0.031 C 
ATOM      9  C   UNL     1      -8.027 -22.713  19.471  1.00  0.00     0.005 C 
ATOM     10  C   UNL     1      -8.618 -23.102  20.836  1.00  0.00     0.008 C 
ATOM     11  C   UNL     1      -9.901 -22.296  21.200  1.00  0.00    -0.018 C 
ATOM     12  C   UNL     1     -10.489 -22.888  22.504  1.00  0.00     0.088 C 
ATOM     13  C   UNL     1     -11.837 -22.312  22.830  1.00  0.00     0.159 C 
ATOM     14  O   UNL     1     -12.091 -22.012  24.028  1.00  0.00    -0.295 OA
ATOM     15  C   UNL     1      -9.529 -20.805  21.434  1.00  0.00     0.012 C 
ATOM     16  C   UNL     1     -15.174 -21.714  20.909  1.00  0.00     0.039 C 
ENDROOT
TORSDOF 0
ENDMDL
MODEL 7
REMARK VINA RESULT:    -5.734      9.832     11.637
REMARK INTER + INTRA:          -5.734
REMARK INTER:                  -5.734
REMARK INTRA:                   0.000
REMARK UNBOUND:                 0.000
REMARK SMILES C=C1CCC[C@]2(C)CC(=O)C(=C(C)C)C[C@@H]12
REMARK SMILES IDX 13 1 12 2 11 3 15 4 16 5 2 6 1 7 3 8 4 9 5 10 6 11 8 12 9 13
REMARK SMILES IDX 10 14 7 15 14 16
REMARK H PARENT
REMARK Flexibility Score: inf
ROOT
ATOM      1  C   UNL     1     -21.058 -28.038  25.615  1.00  0.00     0.039 C 
ATOM      2  C   UNL     1     -19.833 -28.469  26.390  1.00  0.00    -0.070 C 
ATOM      3  C   UNL     1     -19.155 -29.614  26.086  1.00  0.00    -0.006 C 
ATOM      4  C   UNL     1     -17.887 -30.003  26.836  1.00  0.00     0.047 C 
ATOM      5  C   UNL     1     -16.897 -30.810  25.962  1.00  0.00     0.025 C 
ATOM      6  C   UNL     1     -15.621 -31.263  26.674  1.00  0.00    -0.073 C 
ATOM      7  C   UNL     1     -15.350 -31.009  27.969  1.00  0.00     0.008 C 
ATOM      8  C   UNL     1     -14.610 -32.001  25.829  1.00  0.00     0.031 C 
ATOM      9  C   UNL     1     -15.273 -33.182  25.114  1.00  0.00     0.005 C 
ATOM     10  C   UNL     1     -16.535 -32.747  24.351  1.00  0.00     0.008 C 
ATOM     11  C   UNL     1     -17.578 -32.024  25.255  1.00  0.00    -0.018 C 
ATOM     12  C   UNL     1     -18.717 -31.492  24.349  1.00  0.00     0.088 C 
ATOM     13  C   UNL     1     -19.670 -30.606  25.098  1.00  0.00     0.159 C 
ATOM     14  O   UNL     1     -20.906 -30.733  24.882  1.00  0.00    -0.295 OA
ATOM     15  C   UNL     1     -18.166 -33.033  26.280  1.00  0.00     0.012 C 
ATOM     16  C   UNL     1     -19.368 -27.552  27.500  1.00  0.00     0.039 C 
ENDROOT
TORSDOF 0
ENDMDL
MODEL 8
REMARK VINA RESULT:    -5.674      2.513      4.903
REMARK INTER + INTRA:          -5.674
REMARK INTER:                  -5.674
REMARK INTRA:                   0.000
REMARK UNBOUND:                 0.000
REMARK SMILES C=C1CCC[C@]2(C)CC(=O)C(=C(C)C)C[C@@H]12
REMARK SMILES IDX 13 1 12 2 11 3 15 4 16 5 2 6 1 7 3 8 4 9 5 10 6 11 8 12 9 13
REMARK SMILES IDX 10 14 7 15 14 16
REMARK H PARENT
REMARK Flexibility Score: inf
ROOT
ATOM      1  C   UNL     1     -12.475 -26.041  27.259  1.00  0.00     0.039 C 
ATOM      2  C   UNL     1     -13.278 -24.770  27.097  1.00  0.00    -0.070 C 
ATOM      3  C   UNL     1     -13.253 -24.044  25.941  1.00  0.00    -0.006 C 
ATOM      4  C   UNL     1     -14.115 -22.800  25.772  1.00  0.00     0.047 C 
ATOM      5  C   UNL     1     -14.538 -22.559  24.302  1.00  0.00     0.025 C 
ATOM      6  C   UNL     1     -15.374 -21.300  24.064  1.00  0.00    -0.073 C 
ATOM      7  C   UNL     1     -15.725 -20.435  25.034  1.00  0.00     0.008 C 
ATOM      8  C   UNL     1     -15.852 -21.073  22.650  1.00  0.00     0.031 C 
ATOM      9  C   UNL     1     -14.672 -21.125  21.674  1.00  0.00     0.005 C 
ATOM     10  C   UNL     1     -13.839 -22.404  21.860  1.00  0.00     0.008 C 
ATOM     11  C   UNL     1     -13.326 -22.593  23.319  1.00  0.00    -0.018 C 
ATOM     12  C   UNL     1     -12.650 -23.984  23.417  1.00  0.00     0.088 C 
ATOM     13  C   UNL     1     -12.301 -24.345  24.832  1.00  0.00     0.159 C 
ATOM     14  O   UNL     1     -11.187 -24.892  25.057  1.00  0.00    -0.295 OA
ATOM     15  C   UNL     1     -12.283 -21.490  23.652  1.00  0.00     0.012 C 
ATOM     16  C   UNL     1     -14.146 -24.356  28.265  1.00  0.00     0.039 C 
ENDROOT
TORSDOF 0
ENDMDL
MODEL 9
REMARK VINA RESULT:    -5.560      3.248      6.079
REMARK INTER + INTRA:          -5.560
REMARK INTER:                  -5.560
REMARK INTRA:                   0.000
REMARK UNBOUND:                 0.000
REMARK SMILES C=C1CCC[C@]2(C)CC(=O)C(=C(C)C)C[C@@H]12
REMARK SMILES IDX 13 1 12 2 11 3 15 4 16 5 2 6 1 7 3 8 4 9 5 10 6 11 8 12 9 13
REMARK SMILES IDX 10 14 7 15 14 16
REMARK H PARENT
REMARK Flexibility Score: inf
ROOT
ATOM      1  C   UNL     1      -9.655 -17.136  24.315  1.00  0.00     0.039 C 
ATOM      2  C   UNL     1      -9.272 -17.891  23.062  1.00  0.00    -0.070 C 
ATOM      3  C   UNL     1      -9.877 -19.064  22.714  1.00  0.00    -0.006 C 
ATOM      4  C   UNL     1      -9.523 -19.780  21.417  1.00  0.00     0.047 C 
ATOM      5  C   UNL     1     -10.712 -20.581  20.831  1.00  0.00     0.025 C 
ATOM      6  C   UNL     1     -10.404 -21.354  19.548  1.00  0.00    -0.073 C 
ATOM      7  C   UNL     1      -9.198 -21.372  18.949  1.00  0.00     0.008 C 
ATOM      8  C   UNL     1     -11.561 -22.096  18.921  1.00  0.00     0.031 C 
ATOM      9  C   UNL     1     -12.228 -23.011  19.951  1.00  0.00     0.005 C 
ATOM     10  C   UNL     1     -12.591 -22.249  21.237  1.00  0.00     0.008 C 
ATOM     11  C   UNL     1     -11.371 -21.526  21.884  1.00  0.00    -0.018 C 
ATOM     12  C   UNL     1     -11.889 -20.667  23.064  1.00  0.00     0.088 C 
ATOM     13  C   UNL     1     -10.820 -19.775  23.627  1.00  0.00     0.159 C 
ATOM     14  O   UNL     1     -10.733 -19.655  24.879  1.00  0.00    -0.295 OA
ATOM     15  C   UNL     1     -10.365 -22.583  22.420  1.00  0.00     0.012 C 
ATOM     16  C   UNL     1      -8.209 -17.266  22.185  1.00  0.00     0.039 C 
ENDROOT
TORSDOF 0
ENDMDL
