MODEL 1
REMARK VINA RESULT:    16.967      0.000      0.000
REMARK INTER + INTRA:          23.717
REMARK INTER:                  24.406
REMARK INTRA:                  -0.689
REMARK UNBOUND:                -0.689
REMARK SMILES O=c1c(O[C@@H]2O[C@H](CO)[C@H](O)[C@H](O)[C@H]2O)c(-c2ccc(O)cc2)oc2cc(O)cc(O)c12
REMARK SMILES IDX 4 1 3 2 16 3 24 4 2 5 25 6 1 7 32 8 26 9 30 10 27 11 29 12
REMARK SMILES IDX 17 13 18 14 19 15 20 16 23 17 22 18 21 19 31 21 28 23 5 25
REMARK SMILES IDX 14 26 6 27 12 28 7 29 10 30 15 31 13 33 8 35 9 36 11 38
REMARK H PARENT 21 20 31 22 28 24 15 32 13 34 9 37 11 39
REMARK Flexibility Score: inf
ROOT
ATOM      1  O   UNL     1      -1.705  -2.425   1.625  1.00  0.00    -0.454 OA
ENDROOT
BRANCH   1   2
ATOM      2  C   UNL     1      -1.138  -3.692   1.424  1.00  0.00     0.214 A 
ATOM      3  C   UNL     1       0.086  -3.854   0.744  1.00  0.00     0.180 A 
ATOM      4  O   UNL     1       0.610  -5.067   0.617  1.00  0.00    -0.452 OA
ATOM      5  C   UNL     1      -1.809  -4.829   1.891  1.00  0.00     0.239 A 
ATOM      6  C   UNL     1       0.034  -6.167   1.087  1.00  0.00     0.146 A 
ATOM      7  O   UNL     1      -2.961  -4.686   2.379  1.00  0.00    -0.285 OA
ATOM      8  C   UNL     1      -1.204  -6.103   1.778  1.00  0.00     0.111 A 
ATOM      9  C   UNL     1       0.665  -7.395   0.870  1.00  0.00     0.094 A 
ATOM     10  C   UNL     1      -1.762  -7.314   2.288  1.00  0.00     0.134 A 
ATOM     11  C   UNL     1       0.079  -8.578   1.323  1.00  0.00     0.123 A 
ATOM     12  C   UNL     1      -1.127  -8.533   2.021  1.00  0.00     0.093 A 
BRANCH   3  13
ATOM     13  C   UNL     1       0.819  -2.716   0.141  1.00  0.00     0.021 A 
ATOM     14  C   UNL     1       0.833  -2.564  -1.255  1.00  0.00     0.016 A 
ATOM     15  C   UNL     1       1.530  -1.504  -1.844  1.00  0.00     0.047 A 
ATOM     16  C   UNL     1       2.208  -0.576  -1.043  1.00  0.00     0.115 A 
ATOM     17  C   UNL     1       1.479  -1.764   0.941  1.00  0.00     0.016 A 
ATOM     18  C   UNL     1       2.177  -0.708   0.349  1.00  0.00     0.047 A 
BRANCH  16  19
ATOM     19  O   UNL     1       2.911   0.479  -1.619  1.00  0.00    -0.508 OA
ATOM     20  H   UNL     1       2.460   1.138  -2.242  1.00  0.00     0.293 HD
ENDBRANCH  16  19
ENDBRANCH   3  13
BRANCH  10  21
ATOM     21  O   UNL     1      -2.912  -7.370   3.082  1.00  0.00    -0.507 OA
ATOM     22  H   UNL     1      -2.956  -7.779   4.003  1.00  0.00     0.293 HD
ENDBRANCH  10  21
BRANCH  11  23
ATOM     23  O   UNL     1       0.692  -9.807   1.091  1.00  0.00    -0.508 OA
ATOM     24  H   UNL     1       1.430  -9.911   0.403  1.00  0.00     0.293 HD
ENDBRANCH  11  23
ENDBRANCH   1   2
BRANCH   1  25
ATOM     25  C   UNL     1      -2.000  -1.510   0.564  1.00  0.00     0.339 C 
ATOM     26  C   UNL     1      -3.492  -1.097   0.597  1.00  0.00     0.214 C 
ATOM     27  O   UNL     1      -1.183  -0.359   0.663  1.00  0.00    -0.332 OA
ATOM     28  C   UNL     1      -3.711   0.312  -0.020  1.00  0.00     0.180 C 
ATOM     29  C   UNL     1      -1.197   0.377  -0.553  1.00  0.00     0.179 C 
ATOM     30  C   UNL     1      -2.649   0.610  -1.099  1.00  0.00     0.177 C 
BRANCH  26  31
ATOM     31  O   UNL     1      -4.284  -2.062  -0.053  1.00  0.00    -0.384 OA
ATOM     32  H   UNL     1      -3.694  -2.573  -0.666  1.00  0.00     0.211 HD
ENDBRANCH  26  31
BRANCH  28  33
ATOM     33  O   UNL     1      -3.639   1.292   0.986  1.00  0.00    -0.387 OA
ATOM     34  H   UNL     1      -2.705   1.290   1.324  1.00  0.00     0.211 HD
ENDBRANCH  28  33
BRANCH  29  35
ATOM     35  C   UNL     1      -0.402   1.673  -0.334  1.00  0.00     0.191 C 
BRANCH  35  36
ATOM     36  O   UNL     1      -0.863   2.343   0.807  1.00  0.00    -0.394 OA
ATOM     37  H   UNL     1      -1.093   3.262   0.511  1.00  0.00     0.210 HD
ENDBRANCH  35  36
ENDBRANCH  29  35
BRANCH  30  38
ATOM     38  O   UNL     1      -2.817   1.914  -1.599  1.00  0.00    -0.387 OA
ATOM     39  H   UNL     1      -1.984   2.146  -2.087  1.00  0.00     0.211 HD
ENDBRANCH  30  38
ENDBRANCH   1  25
TORSDOF 11
ENDMDL
MODEL 2
REMARK VINA RESULT:    17.501      2.737      6.308
REMARK INTER + INTRA:          24.485
REMARK INTER:                  24.298
REMARK INTRA:                   0.186
REMARK UNBOUND:                -0.689
REMARK SMILES O=c1c(O[C@@H]2O[C@H](CO)[C@H](O)[C@H](O)[C@H]2O)c(-c2ccc(O)cc2)oc2cc(O)cc(O)c12
REMARK SMILES IDX 4 1 3 2 16 3 24 4 2 5 25 6 1 7 32 8 26 9 30 10 27 11 29 12
REMARK SMILES IDX 17 13 18 14 19 15 20 16 23 17 22 18 21 19 31 21 28 23 5 25
REMARK SMILES IDX 14 26 6 27 12 28 7 29 10 30 15 31 13 33 8 35 9 36 11 38
REMARK H PARENT 21 20 31 22 28 24 15 32 13 34 9 37 11 39
REMARK Flexibility Score: inf
ROOT
ATOM      1  O   UNL     1       0.664  -0.032  -1.978  1.00  0.00    -0.454 OA
ENDROOT
BRANCH   1   2
ATOM      2  C   UNL     1       1.883  -0.489  -1.454  1.00  0.00     0.214 A 
ATOM      3  C   UNL     1       1.934  -1.507  -0.481  1.00  0.00     0.180 A 
ATOM      4  O   UNL     1       3.111  -1.941  -0.046  1.00  0.00    -0.452 OA
ATOM      5  C   UNL     1       3.081   0.093  -1.890  1.00  0.00     0.239 A 
ATOM      6  C   UNL     1       4.272  -1.454  -0.468  1.00  0.00     0.146 A 
ATOM      7  O   UNL     1       3.018   1.088  -2.659  1.00  0.00    -0.285 OA
ATOM      8  C   UNL     1       4.320  -0.420  -1.440  1.00  0.00     0.111 A 
ATOM      9  C   UNL     1       5.450  -1.968   0.081  1.00  0.00     0.094 A 
ATOM     10  C   UNL     1       5.596   0.043  -1.878  1.00  0.00     0.134 A 
ATOM     11  C   UNL     1       6.690  -1.465  -0.313  1.00  0.00     0.123 A 
ATOM     12  C   UNL     1       6.757  -0.464  -1.281  1.00  0.00     0.093 A 
BRANCH   3  13
ATOM     13  C   UNL     1       0.714  -2.115   0.099  1.00  0.00     0.021 A 
ATOM     14  C   UNL     1      -0.003  -3.069  -0.642  1.00  0.00     0.016 A 
ATOM     15  C   UNL     1      -1.164  -3.645  -0.118  1.00  0.00     0.047 A 
ATOM     16  C   UNL     1      -1.615  -3.284   1.158  1.00  0.00     0.115 A 
ATOM     17  C   UNL     1       0.271  -1.778   1.392  1.00  0.00     0.016 A 
ATOM     18  C   UNL     1      -0.892  -2.353   1.912  1.00  0.00     0.047 A 
BRANCH  16  19
ATOM     19  O   UNL     1      -2.774  -3.846   1.688  1.00  0.00    -0.508 OA
ATOM     20  H   UNL     1      -2.967  -4.837   1.606  1.00  0.00     0.293 HD
ENDBRANCH  16  19
ENDBRANCH   3  13
BRANCH  10  21
ATOM     21  O   UNL     1       5.779   0.971  -2.908  1.00  0.00    -0.507 OA
ATOM     22  H   UNL     1       5.738   0.753  -3.892  1.00  0.00     0.293 HD
ENDBRANCH  10  21
BRANCH  11  23
ATOM     23  O   UNL     1       7.866  -1.960   0.246  1.00  0.00    -0.508 OA
ATOM     24  H   UNL     1       8.651  -2.239  -0.331  1.00  0.00     0.293 HD
ENDBRANCH  11  23
ENDBRANCH   1   2
BRANCH   1  25
ATOM     25  C   UNL     1      -0.183   0.911  -1.313  1.00  0.00     0.339 C 
ATOM     26  C   UNL     1      -1.652   0.750  -1.778  1.00  0.00     0.214 C 
ATOM     27  O   UNL     1      -0.104   0.743   0.090  1.00  0.00    -0.332 OA
ATOM     28  C   UNL     1      -2.653   1.206  -0.682  1.00  0.00     0.180 C 
ATOM     29  C   UNL     1      -0.636   1.875   0.765  1.00  0.00     0.179 C 
ATOM     30  C   UNL     1      -2.034   2.308   0.203  1.00  0.00     0.177 C 
BRANCH  26  31
ATOM     31  O   UNL     1      -1.866   1.447  -2.981  1.00  0.00    -0.384 OA
ATOM     32  H   UNL     1      -2.482   0.903  -3.539  1.00  0.00     0.211 HD
ENDBRANCH  26  31
BRANCH  28  33
ATOM     33  O   UNL     1      -3.013   0.111   0.124  1.00  0.00    -0.387 OA
ATOM     34  H   UNL     1      -2.447   0.155   0.939  1.00  0.00     0.211 HD
ENDBRANCH  28  33
BRANCH  29  35
ATOM     35  C   UNL     1      -0.641   1.571   2.271  1.00  0.00     0.191 C 
BRANCH  35  36
ATOM     36  O   UNL     1       0.454   0.766   2.612  1.00  0.00    -0.394 OA
ATOM     37  H   UNL     1       1.225   1.383   2.720  1.00  0.00     0.210 HD
ENDBRANCH  35  36
ENDBRANCH  29  35
BRANCH  30  38
ATOM     38  O   UNL     1      -2.925   2.663   1.232  1.00  0.00    -0.387 OA
ATOM     39  H   UNL     1      -2.684   2.116   2.024  1.00  0.00     0.211 HD
ENDBRANCH  30  38
ENDBRANCH   1  25
TORSDOF 11
ENDMDL
MODEL 3
REMARK VINA RESULT:    18.103      1.695      4.399
REMARK INTER + INTRA:          25.351
REMARK INTER:                  24.646
REMARK INTRA:                   0.705
REMARK UNBOUND:                -0.689
REMARK SMILES O=c1c(O[C@@H]2O[C@H](CO)[C@H](O)[C@H](O)[C@H]2O)c(-c2ccc(O)cc2)oc2cc(O)cc(O)c12
REMARK SMILES IDX 4 1 3 2 16 3 24 4 2 5 25 6 1 7 32 8 26 9 30 10 27 11 29 12
REMARK SMILES IDX 17 13 18 14 19 15 20 16 23 17 22 18 21 19 31 21 28 23 5 25
REMARK SMILES IDX 14 26 6 27 12 28 7 29 10 30 15 31 13 33 8 35 9 36 11 38
REMARK H PARENT 21 20 31 22 28 24 15 32 13 34 9 37 11 39
REMARK Flexibility Score: inf
ROOT
ATOM      1  O   UNL     1      -0.406  -3.387  -0.377  1.00  0.00    -0.454 OA
ENDROOT
BRANCH   1   2
ATOM      2  C   UNL     1      -0.571  -4.543   0.402  1.00  0.00     0.214 A 
ATOM      3  C   UNL     1      -1.724  -4.746   1.187  1.00  0.00     0.180 A 
ATOM      4  O   UNL     1      -1.860  -5.875   1.872  1.00  0.00    -0.452 OA
ATOM      5  C   UNL     1       0.441  -5.511   0.420  1.00  0.00     0.239 A 
ATOM      6  C   UNL     1      -0.950  -6.841   1.879  1.00  0.00     0.146 A 
ATOM      7  O   UNL     1       1.520  -5.260  -0.179  1.00  0.00    -0.285 OA
ATOM      8  C   UNL     1       0.248  -6.722   1.126  1.00  0.00     0.111 A 
ATOM      9  C   UNL     1      -1.187  -7.975   2.661  1.00  0.00     0.094 A 
ATOM     10  C   UNL     1       1.176  -7.805   1.147  1.00  0.00     0.134 A 
ATOM     11  C   UNL     1      -0.244  -9.002   2.719  1.00  0.00     0.123 A 
ATOM     12  C   UNL     1       0.929  -8.910   1.970  1.00  0.00     0.093 A 
BRANCH   3  13
ATOM     13  C   UNL     1      -2.801  -3.735   1.295  1.00  0.00     0.021 A 
ATOM     14  C   UNL     1      -3.678  -3.774   2.393  1.00  0.00     0.016 A 
ATOM     15  C   UNL     1      -4.710  -2.837   2.507  1.00  0.00     0.047 A 
ATOM     16  C   UNL     1      -4.869  -1.843   1.532  1.00  0.00     0.115 A 
ATOM     17  C   UNL     1      -2.951  -2.717   0.335  1.00  0.00     0.016 A 
ATOM     18  C   UNL     1      -3.985  -1.784   0.451  1.00  0.00     0.047 A 
BRANCH  16  19
ATOM     19  O   UNL     1      -5.898  -0.909   1.632  1.00  0.00    -0.508 OA
ATOM     20  H   UNL     1      -6.782  -1.140   2.069  1.00  0.00     0.293 HD
ENDBRANCH  16  19
ENDBRANCH   3  13
BRANCH  10  21
ATOM     21  O   UNL     1       2.332  -7.858   0.361  1.00  0.00    -0.507 OA
ATOM     22  H   UNL     1       3.018  -7.122   0.296  1.00  0.00     0.293 HD
ENDBRANCH  10  21
BRANCH  11  23
ATOM     23  O   UNL     1      -0.465 -10.125   3.513  1.00  0.00    -0.508 OA
ATOM     24  H   UNL     1      -1.095 -10.864   3.222  1.00  0.00     0.293 HD
ENDBRANCH  11  23
ENDBRANCH   1   2
BRANCH   1  25
ATOM     25  C   UNL     1       0.020  -2.127   0.152  1.00  0.00     0.339 C 
ATOM     26  C   UNL     1       1.299  -1.635  -0.570  1.00  0.00     0.214 C 
ATOM     27  O   UNL     1      -1.006  -1.162   0.018  1.00  0.00    -0.332 OA
ATOM     28  C   UNL     1       1.407  -0.086  -0.553  1.00  0.00     0.180 C 
ATOM     29  C   UNL     1      -0.750  -0.034   0.845  1.00  0.00     0.179 C 
ATOM     30  C   UNL     1       0.717   0.499   0.698  1.00  0.00     0.177 C 
BRANCH  26  31
ATOM     31  O   UNL     1       2.442  -2.228  -0.004  1.00  0.00    -0.384 OA
ATOM     32  H   UNL     1       3.184  -1.571  -0.064  1.00  0.00     0.211 HD
ENDBRANCH  26  31
BRANCH  28  33
ATOM     33  O   UNL     1       0.808   0.450  -1.707  1.00  0.00    -0.387 OA
ATOM     34  H   UNL     1       0.527  -0.319  -2.269  1.00  0.00     0.211 HD
ENDBRANCH  28  33
BRANCH  29  35
ATOM     35  C   UNL     1      -1.826   1.023   0.552  1.00  0.00     0.191 C 
BRANCH  35  36
ATOM     36  O   UNL     1      -2.011   1.165  -0.830  1.00  0.00    -0.394 OA
ATOM     37  H   UNL     1      -2.734   0.531  -1.076  1.00  0.00     0.210 HD
ENDBRANCH  35  36
ENDBRANCH  29  35
BRANCH  30  38
ATOM     38  O   UNL     1       0.763   1.905   0.666  1.00  0.00    -0.387 OA
ATOM     39  H   UNL     1       0.734   2.173  -0.289  1.00  0.00     0.211 HD
ENDBRANCH  30  38
ENDBRANCH   1  25
TORSDOF 11
ENDMDL
MODEL 4
REMARK VINA RESULT:    18.501      2.404      6.372
REMARK INTER + INTRA:          25.923
REMARK INTER:                  26.927
REMARK INTRA:                  -1.004
REMARK UNBOUND:                -0.689
REMARK SMILES O=c1c(O[C@@H]2O[C@H](CO)[C@H](O)[C@H](O)[C@H]2O)c(-c2ccc(O)cc2)oc2cc(O)cc(O)c12
REMARK SMILES IDX 4 1 3 2 16 3 24 4 2 5 25 6 1 7 32 8 26 9 30 10 27 11 29 12
REMARK SMILES IDX 17 13 18 14 19 15 20 16 23 17 22 18 21 19 31 21 28 23 5 25
REMARK SMILES IDX 14 26 6 27 12 28 7 29 10 30 15 31 13 33 8 35 9 36 11 38
REMARK H PARENT 21 20 31 22 28 24 15 32 13 34 9 37 11 39
REMARK Flexibility Score: inf
ROOT
ATOM      1  O   UNL     1       0.544  -0.101  -1.498  1.00  0.00    -0.454 OA
ENDROOT
BRANCH   1   2
ATOM      2  C   UNL     1       1.801  -0.578  -1.095  1.00  0.00     0.214 A 
ATOM      3  C   UNL     1       1.929  -1.677  -0.222  1.00  0.00     0.180 A 
ATOM      4  O   UNL     1       3.138  -2.124   0.097  1.00  0.00    -0.452 OA
ATOM      5  C   UNL     1       2.959   0.064  -1.551  1.00  0.00     0.239 A 
ATOM      6  C   UNL     1       4.262  -1.579  -0.352  1.00  0.00     0.146 A 
ATOM      7  O   UNL     1       2.833   1.122  -2.223  1.00  0.00    -0.285 OA
ATOM      8  C   UNL     1       4.232  -0.462  -1.228  1.00  0.00     0.111 A 
ATOM      9  C   UNL     1       5.480  -2.116   0.073  1.00  0.00     0.094 A 
ATOM     10  C   UNL     1       5.471   0.063  -1.703  1.00  0.00     0.134 A 
ATOM     11  C   UNL     1       6.685  -1.556  -0.351  1.00  0.00     0.123 A 
ATOM     12  C   UNL     1       6.675  -0.471  -1.228  1.00  0.00     0.093 A 
BRANCH   3  13
ATOM     13  C   UNL     1       0.758  -2.358   0.377  1.00  0.00     0.021 A 
ATOM     14  C   UNL     1       0.059  -3.319  -0.372  1.00  0.00     0.016 A 
ATOM     15  C   UNL     1      -1.057  -3.964   0.170  1.00  0.00     0.047 A 
ATOM     16  C   UNL     1      -1.479  -3.665   1.472  1.00  0.00     0.115 A 
ATOM     17  C   UNL     1       0.345  -2.084   1.694  1.00  0.00     0.016 A 
ATOM     18  C   UNL     1      -0.773  -2.728   2.232  1.00  0.00     0.047 A 
BRANCH  16  19
ATOM     19  O   UNL     1      -2.594  -4.296   2.020  1.00  0.00    -0.508 OA
ATOM     20  H   UNL     1      -2.738  -4.340   3.022  1.00  0.00     0.293 HD
ENDBRANCH  16  19
ENDBRANCH   3  13
BRANCH  10  21
ATOM     21  O   UNL     1       5.573   1.082  -2.656  1.00  0.00    -0.507 OA
ATOM     22  H   UNL     1       4.796   1.473  -3.166  1.00  0.00     0.293 HD
ENDBRANCH  10  21
BRANCH  11  23
ATOM     23  O   UNL     1       7.902  -2.073   0.086  1.00  0.00    -0.508 OA
ATOM     24  H   UNL     1       8.196  -3.013  -0.156  1.00  0.00     0.293 HD
ENDBRANCH  11  23
ENDBRANCH   1   2
BRANCH   1  25
ATOM     25  C   UNL     1      -0.485   0.294  -0.586  1.00  0.00     0.339 C 
ATOM     26  C   UNL     1      -0.872   1.778  -0.807  1.00  0.00     0.214 C 
ATOM     27  O   UNL     1      -1.628  -0.526  -0.744  1.00  0.00    -0.332 OA
ATOM     28  C   UNL     1      -2.340   2.057  -0.385  1.00  0.00     0.180 C 
ATOM     29  C   UNL     1      -2.501  -0.396   0.370  1.00  0.00     0.179 C 
ATOM     30  C   UNL     1      -2.777   1.102   0.746  1.00  0.00     0.177 C 
BRANCH  26  31
ATOM     31  O   UNL     1       0.021   2.625  -0.124  1.00  0.00    -0.384 OA
ATOM     32  H   UNL     1       0.774   2.827  -0.739  1.00  0.00     0.211 HD
ENDBRANCH  26  31
BRANCH  28  33
ATOM     33  O   UNL     1      -3.196   1.893  -1.488  1.00  0.00    -0.387 OA
ATOM     34  H   UNL     1      -3.789   1.123  -1.281  1.00  0.00     0.211 HD
ENDBRANCH  28  33
BRANCH  29  35
ATOM     35  C   UNL     1      -3.773  -1.205   0.074  1.00  0.00     0.191 C 
BRANCH  35  36
ATOM     36  O   UNL     1      -4.285  -1.763   1.253  1.00  0.00    -0.394 OA
ATOM     37  H   UNL     1      -5.047  -2.335   0.977  1.00  0.00     0.210 HD
ENDBRANCH  35  36
ENDBRANCH  29  35
BRANCH  30  38
ATOM     38  O   UNL     1      -4.129   1.319   1.070  1.00  0.00    -0.387 OA
ATOM     39  H   UNL     1      -4.334   2.262   0.838  1.00  0.00     0.211 HD
ENDBRANCH  30  38
ENDBRANCH   1  25
TORSDOF 11
ENDMDL
MODEL 5
REMARK VINA RESULT:    19.484      2.801      6.124
REMARK INTER + INTRA:          27.337
REMARK INTER:                  27.501
REMARK INTRA:                  -0.164
REMARK UNBOUND:                -0.689
REMARK SMILES O=c1c(O[C@@H]2O[C@H](CO)[C@H](O)[C@H](O)[C@H]2O)c(-c2ccc(O)cc2)oc2cc(O)cc(O)c12
REMARK SMILES IDX 4 1 3 2 16 3 24 4 2 5 25 6 1 7 32 8 26 9 30 10 27 11 29 12
REMARK SMILES IDX 17 13 18 14 19 15 20 16 23 17 22 18 21 19 31 21 28 23 5 25
REMARK SMILES IDX 14 26 6 27 12 28 7 29 10 30 15 31 13 33 8 35 9 36 11 38
REMARK H PARENT 21 20 31 22 28 24 15 32 13 34 9 37 11 39
REMARK Flexibility Score: inf
ROOT
ATOM      1  O   UNL     1       0.399  -5.414   1.234  1.00  0.00    -0.454 OA
ENDROOT
BRANCH   1   2
ATOM      2  C   UNL     1       1.166  -6.394   0.586  1.00  0.00     0.214 A 
ATOM      3  C   UNL     1       1.147  -7.741   1.000  1.00  0.00     0.180 A 
ATOM      4  O   UNL     1       1.853  -8.643   0.329  1.00  0.00    -0.452 OA
ATOM      5  C   UNL     1       1.989  -6.026  -0.486  1.00  0.00     0.239 A 
ATOM      6  C   UNL     1       2.607  -8.349  -0.723  1.00  0.00     0.146 A 
ATOM      7  O   UNL     1       2.099  -4.803  -0.764  1.00  0.00    -0.285 OA
ATOM      8  C   UNL     1       2.695  -7.017  -1.208  1.00  0.00     0.111 A 
ATOM      9  C   UNL     1       3.329  -9.376  -1.335  1.00  0.00     0.094 A 
ATOM     10  C   UNL     1       3.496  -6.764  -2.361  1.00  0.00     0.134 A 
ATOM     11  C   UNL     1       4.156  -9.106  -2.426  1.00  0.00     0.123 A 
ATOM     12  C   UNL     1       4.239  -7.807  -2.928  1.00  0.00     0.093 A 
BRANCH   3  13
ATOM     13  C   UNL     1       0.375  -8.201   2.178  1.00  0.00     0.021 A 
ATOM     14  C   UNL     1       1.053  -8.529   3.364  1.00  0.00     0.016 A 
ATOM     15  C   UNL     1       0.344  -8.978   4.483  1.00  0.00     0.047 A 
ATOM     16  C   UNL     1      -1.052  -9.090   4.433  1.00  0.00     0.115 A 
ATOM     17  C   UNL     1      -1.029  -8.290   2.145  1.00  0.00     0.016 A 
ATOM     18  C   UNL     1      -1.734  -8.741   3.264  1.00  0.00     0.047 A 
BRANCH  16  19
ATOM     19  O   UNL     1      -1.768  -9.542   5.539  1.00  0.00    -0.508 OA
ATOM     20  H   UNL     1      -2.682  -9.969   5.440  1.00  0.00     0.293 HD
ENDBRANCH  16  19
ENDBRANCH   3  13
BRANCH  10  21
ATOM     21  O   UNL     1       3.573  -5.524  -3.002  1.00  0.00    -0.507 OA
ATOM     22  H   UNL     1       4.350  -5.215  -3.566  1.00  0.00     0.293 HD
ENDBRANCH  10  21
BRANCH  11  23
ATOM     23  O   UNL     1       4.894 -10.122  -3.026  1.00  0.00    -0.508 OA
ATOM     24  H   UNL     1       5.874 -10.001  -3.256  1.00  0.00     0.293 HD
ENDBRANCH  11  23
ENDBRANCH   1   2
BRANCH   1  25
ATOM     25  C   UNL     1       0.322  -4.051   0.804  1.00  0.00     0.339 C 
ATOM     26  C   UNL     1      -1.055  -3.757   0.158  1.00  0.00     0.214 C 
ATOM     27  O   UNL     1       0.535  -3.175   1.895  1.00  0.00    -0.332 OA
ATOM     28  C   UNL     1      -1.448  -2.262   0.301  1.00  0.00     0.180 C 
ATOM     29  C   UNL     1       0.823  -1.861   1.438  1.00  0.00     0.179 C 
ATOM     30  C   UNL     1      -0.192  -1.366   0.349  1.00  0.00     0.177 C 
BRANCH  26  31
ATOM     31  O   UNL     1      -1.059  -4.156  -1.192  1.00  0.00    -0.384 OA
ATOM     32  H   UNL     1      -0.136  -4.048  -1.541  1.00  0.00     0.211 HD
ENDBRANCH  26  31
BRANCH  28  33
ATOM     33  O   UNL     1      -2.198  -2.073   1.475  1.00  0.00    -0.387 OA
ATOM     34  H   UNL     1      -2.017  -2.854   2.061  1.00  0.00     0.211 HD
ENDBRANCH  28  33
BRANCH  29  35
ATOM     35  C   UNL     1       0.911  -0.940   2.665  1.00  0.00     0.191 C 
BRANCH  35  36
ATOM     36  O   UNL     1       1.800  -1.468   3.611  1.00  0.00    -0.394 OA
ATOM     37  H   UNL     1       1.909  -0.767   4.306  1.00  0.00     0.210 HD
ENDBRANCH  35  36
ENDBRANCH  29  35
BRANCH  30  38
ATOM     38  O   UNL     1      -0.560  -0.023   0.547  1.00  0.00    -0.387 OA
ATOM     39  H   UNL     1      -1.509  -0.023   0.837  1.00  0.00     0.211 HD
ENDBRANCH  30  38
ENDBRANCH   1  25
TORSDOF 11
ENDMDL
MODEL 6
REMARK VINA RESULT:    19.630      1.945      7.615
REMARK INTER + INTRA:          27.548
REMARK INTER:                  27.228
REMARK INTRA:                   0.320
REMARK UNBOUND:                -0.689
REMARK SMILES O=c1c(O[C@@H]2O[C@H](CO)[C@H](O)[C@H](O)[C@H]2O)c(-c2ccc(O)cc2)oc2cc(O)cc(O)c12
REMARK SMILES IDX 4 1 3 2 16 3 24 4 2 5 25 6 1 7 32 8 26 9 30 10 27 11 29 12
REMARK SMILES IDX 17 13 18 14 19 15 20 16 23 17 22 18 21 19 31 21 28 23 5 25
REMARK SMILES IDX 14 26 6 27 12 28 7 29 10 30 15 31 13 33 8 35 9 36 11 38
REMARK H PARENT 21 20 31 22 28 24 15 32 13 34 9 37 11 39
REMARK Flexibility Score: inf
ROOT
ATOM      1  O   UNL     1      -1.195  -4.961   0.488  1.00  0.00    -0.454 OA
ENDROOT
BRANCH   1   2
ATOM      2  C   UNL     1      -0.550  -3.738   0.255  1.00  0.00     0.214 A 
ATOM      3  C   UNL     1      -1.217  -2.507   0.420  1.00  0.00     0.180 A 
ATOM      4  O   UNL     1      -0.555  -1.372   0.234  1.00  0.00    -0.452 OA
ATOM      5  C   UNL     1       0.784  -3.733  -0.175  1.00  0.00     0.239 A 
ATOM      6  C   UNL     1       0.722  -1.319  -0.124  1.00  0.00     0.146 A 
ATOM      7  O   UNL     1       1.329  -4.834  -0.446  1.00  0.00    -0.285 OA
ATOM      8  C   UNL     1       1.474  -2.506  -0.324  1.00  0.00     0.111 A 
ATOM      9  C   UNL     1       1.309  -0.066  -0.320  1.00  0.00     0.094 A 
ATOM     10  C   UNL     1       2.851  -2.389  -0.678  1.00  0.00     0.134 A 
ATOM     11  C   UNL     1       2.640   0.035  -0.724  1.00  0.00     0.123 A 
ATOM     12  C   UNL     1       3.399  -1.121  -0.905  1.00  0.00     0.093 A 
BRANCH   3  13
ATOM     13  C   UNL     1      -2.650  -2.422   0.786  1.00  0.00     0.021 A 
ATOM     14  C   UNL     1      -3.153  -3.242   1.809  1.00  0.00     0.016 A 
ATOM     15  C   UNL     1      -4.505  -3.187   2.160  1.00  0.00     0.047 A 
ATOM     16  C   UNL     1      -5.368  -2.301   1.501  1.00  0.00     0.115 A 
ATOM     17  C   UNL     1      -3.517  -1.515   0.147  1.00  0.00     0.016 A 
ATOM     18  C   UNL     1      -4.869  -1.464   0.498  1.00  0.00     0.047 A 
BRANCH  16  19
ATOM     19  O   UNL     1      -6.718  -2.242   1.837  1.00  0.00    -0.508 OA
ATOM     20  H   UNL     1      -7.443  -2.327   1.135  1.00  0.00     0.293 HD
ENDBRANCH  16  19
ENDBRANCH   3  13
BRANCH  10  21
ATOM     21  O   UNL     1       3.724  -3.476  -0.789  1.00  0.00    -0.507 OA
ATOM     22  H   UNL     1       3.597  -4.365  -0.331  1.00  0.00     0.293 HD
ENDBRANCH  10  21
BRANCH  11  23
ATOM     23  O   UNL     1       3.224   1.281  -0.941  1.00  0.00    -0.508 OA
ATOM     24  H   UNL     1       3.212   1.720  -1.854  1.00  0.00     0.293 HD
ENDBRANCH  11  23
ENDBRANCH   1   2
BRANCH   1  25
ATOM     25  C   UNL     1      -0.717  -5.948   1.408  1.00  0.00     0.339 C 
ATOM     26  C   UNL     1      -1.808  -7.011   1.686  1.00  0.00     0.214 C 
ATOM     27  O   UNL     1       0.445  -6.577   0.900  1.00  0.00    -0.332 OA
ATOM     28  C   UNL     1      -1.189  -8.381   2.077  1.00  0.00     0.180 C 
ATOM     29  C   UNL     1       1.129  -7.280   1.929  1.00  0.00     0.179 C 
ATOM     30  C   UNL     1       0.172  -8.188   2.777  1.00  0.00     0.177 C 
BRANCH  26  31
ATOM     31  O   UNL     1      -2.697  -6.556   2.677  1.00  0.00    -0.384 OA
ATOM     32  H   UNL     1      -2.440  -6.987   3.534  1.00  0.00     0.211 HD
ENDBRANCH  26  31
BRANCH  28  33
ATOM     33  O   UNL     1      -1.013  -9.173   0.929  1.00  0.00    -0.387 OA
ATOM     34  H   UNL     1      -1.552  -8.757   0.206  1.00  0.00     0.211 HD
ENDBRANCH  28  33
BRANCH  29  35
ATOM     35  C   UNL     1       2.298  -8.043   1.286  1.00  0.00     0.191 C 
BRANCH  35  36
ATOM     36  O   UNL     1       1.873  -8.705   0.127  1.00  0.00    -0.394 OA
ATOM     37  H   UNL     1       2.396  -8.313  -0.620  1.00  0.00     0.210 HD
ENDBRANCH  35  36
ENDBRANCH  29  35
BRANCH  30  38
ATOM     38  O   UNL     1       0.753  -9.436   3.064  1.00  0.00    -0.387 OA
ATOM     39  H   UNL     1       0.683  -9.984   2.239  1.00  0.00     0.211 HD
ENDBRANCH  30  38
ENDBRANCH   1  25
TORSDOF 11
ENDMDL
MODEL 7
REMARK VINA RESULT:    19.750      1.761      6.779
REMARK INTER + INTRA:          27.721
REMARK INTER:                  24.587
REMARK INTRA:                   3.133
REMARK UNBOUND:                -0.689
REMARK SMILES O=c1c(O[C@@H]2O[C@H](CO)[C@H](O)[C@H](O)[C@H]2O)c(-c2ccc(O)cc2)oc2cc(O)cc(O)c12
REMARK SMILES IDX 4 1 3 2 16 3 24 4 2 5 25 6 1 7 32 8 26 9 30 10 27 11 29 12
REMARK SMILES IDX 17 13 18 14 19 15 20 16 23 17 22 18 21 19 31 21 28 23 5 25
REMARK SMILES IDX 14 26 6 27 12 28 7 29 10 30 15 31 13 33 8 35 9 36 11 38
REMARK H PARENT 21 20 31 22 28 24 15 32 13 34 9 37 11 39
REMARK Flexibility Score: inf
ROOT
ATOM      1  O   UNL     1       0.671  -3.653  -0.474  1.00  0.00    -0.454 OA
ENDROOT
BRANCH   1   2
ATOM      2  C   UNL     1       0.081  -2.404  -0.227  1.00  0.00     0.214 A 
ATOM      3  C   UNL     1       0.842  -1.218  -0.208  1.00  0.00     0.180 A 
ATOM      4  O   UNL     1       0.235  -0.053  -0.016  1.00  0.00    -0.452 OA
ATOM      5  C   UNL     1      -1.294  -2.332   0.030  1.00  0.00     0.239 A 
ATOM      6  C   UNL     1      -1.072   0.069   0.181  1.00  0.00     0.146 A 
ATOM      7  O   UNL     1      -1.940  -3.406   0.141  1.00  0.00    -0.285 OA
ATOM      8  C   UNL     1      -1.918  -1.071   0.188  1.00  0.00     0.111 A 
ATOM      9  C   UNL     1      -1.598   1.345   0.401  1.00  0.00     0.094 A 
ATOM     10  C   UNL     1      -3.319  -0.878   0.374  1.00  0.00     0.134 A 
ATOM     11  C   UNL     1      -2.962   1.514   0.640  1.00  0.00     0.123 A 
ATOM     12  C   UNL     1      -3.811   0.408   0.631  1.00  0.00     0.093 A 
BRANCH   3  13
ATOM     13  C   UNL     1       2.313  -1.213  -0.382  1.00  0.00     0.021 A 
ATOM     14  C   UNL     1       2.918  -0.186  -1.124  1.00  0.00     0.016 A 
ATOM     15  C   UNL     1       4.304  -0.171  -1.311  1.00  0.00     0.047 A 
ATOM     16  C   UNL     1       5.102  -1.174  -0.746  1.00  0.00     0.115 A 
ATOM     17  C   UNL     1       3.123  -2.202   0.206  1.00  0.00     0.016 A 
ATOM     18  C   UNL     1       4.508  -2.185   0.015  1.00  0.00     0.047 A 
BRANCH  16  19
ATOM     19  O   UNL     1       6.482  -1.173  -0.931  1.00  0.00    -0.508 OA
ATOM     20  H   UNL     1       7.118  -1.389  -0.172  1.00  0.00     0.293 HD
ENDBRANCH  16  19
ENDBRANCH   3  13
BRANCH  10  21
ATOM     21  O   UNL     1      -4.267  -1.902   0.287  1.00  0.00    -0.507 OA
ATOM     22  H   UNL     1      -4.685  -2.368   1.078  1.00  0.00     0.293 HD
ENDBRANCH  10  21
BRANCH  11  23
ATOM     23  O   UNL     1      -3.489   2.781   0.880  1.00  0.00    -0.508 OA
ATOM     24  H   UNL     1      -3.863   3.036   1.787  1.00  0.00     0.293 HD
ENDBRANCH  11  23
ENDBRANCH   1   2
BRANCH   1  25
ATOM     25  C   UNL     1       0.698  -4.721   0.478  1.00  0.00     0.339 C 
ATOM     26  C   UNL     1      -0.689  -4.897   1.143  1.00  0.00     0.214 C 
ATOM     27  O   UNL     1       1.086  -5.930  -0.146  1.00  0.00    -0.332 OA
ATOM     28  C   UNL     1      -0.917  -6.358   1.618  1.00  0.00     0.180 C 
ATOM     29  C   UNL     1       1.466  -6.899   0.821  1.00  0.00     0.179 C 
ATOM     30  C   UNL     1       0.422  -7.031   1.984  1.00  0.00     0.177 C 
BRANCH  26  31
ATOM     31  O   UNL     1      -0.843  -3.989   2.207  1.00  0.00    -0.384 OA
ATOM     32  H   UNL     1      -1.589  -3.375   1.974  1.00  0.00     0.211 HD
ENDBRANCH  26  31
BRANCH  28  33
ATOM     33  O   UNL     1      -1.547  -7.099   0.604  1.00  0.00    -0.387 OA
ATOM     34  H   UNL     1      -1.759  -7.991   0.987  1.00  0.00     0.211 HD
ENDBRANCH  28  33
BRANCH  29  35
ATOM     35  C   UNL     1       1.746  -8.220   0.087  1.00  0.00     0.191 C 
BRANCH  35  36
ATOM     36  O   UNL     1       2.924  -8.123  -0.665  1.00  0.00    -0.394 OA
ATOM     37  H   UNL     1       3.629  -7.826  -0.033  1.00  0.00     0.210 HD
ENDBRANCH  35  36
ENDBRANCH  29  35
BRANCH  30  38
ATOM     38  O   UNL     1       0.209  -8.374   2.346  1.00  0.00    -0.387 OA
ATOM     39  H   UNL     1       0.324  -8.917   1.524  1.00  0.00     0.211 HD
ENDBRANCH  30  38
ENDBRANCH   1  25
TORSDOF 11
ENDMDL
MODEL 8
REMARK VINA RESULT:    19.860      1.375      2.309
REMARK INTER + INTRA:          27.879
REMARK INTER:                  25.433
REMARK INTRA:                   2.446
REMARK UNBOUND:                -0.689
REMARK SMILES O=c1c(O[C@@H]2O[C@H](CO)[C@H](O)[C@H](O)[C@H]2O)c(-c2ccc(O)cc2)oc2cc(O)cc(O)c12
REMARK SMILES IDX 4 1 3 2 16 3 24 4 2 5 25 6 1 7 32 8 26 9 30 10 27 11 29 12
REMARK SMILES IDX 17 13 18 14 19 15 20 16 23 17 22 18 21 19 31 21 28 23 5 25
REMARK SMILES IDX 14 26 6 27 12 28 7 29 10 30 15 31 13 33 8 35 9 36 11 38
REMARK H PARENT 21 20 31 22 28 24 15 32 13 34 9 37 11 39
REMARK Flexibility Score: inf
ROOT
ATOM      1  O   UNL     1      -1.604  -2.186   0.047  1.00  0.00    -0.454 OA
ENDROOT
BRANCH   1   2
ATOM      2  C   UNL     1      -0.930  -3.384   0.328  1.00  0.00     0.214 A 
ATOM      3  C   UNL     1       0.445  -3.539   0.059  1.00  0.00     0.180 A 
ATOM      4  O   UNL     1       1.052  -4.674   0.383  1.00  0.00    -0.452 OA
ATOM      5  C   UNL     1      -1.641  -4.463   0.869  1.00  0.00     0.239 A 
ATOM      6  C   UNL     1       0.430  -5.704   0.943  1.00  0.00     0.146 A 
ATOM      7  O   UNL     1      -2.891  -4.361   0.983  1.00  0.00    -0.285 OA
ATOM      8  C   UNL     1      -0.956  -5.644   1.243  1.00  0.00     0.111 A 
ATOM      9  C   UNL     1       1.166  -6.861   1.215  1.00  0.00     0.094 A 
ATOM     10  C   UNL     1      -1.566  -6.770   1.872  1.00  0.00     0.134 A 
ATOM     11  C   UNL     1       0.545  -7.976   1.777  1.00  0.00     0.123 A 
ATOM     12  C   UNL     1      -0.812  -7.928   2.096  1.00  0.00     0.093 A 
BRANCH   3  13
ATOM     13  C   UNL     1       1.252  -2.482  -0.593  1.00  0.00     0.021 A 
ATOM     14  C   UNL     1       2.560  -2.235  -0.143  1.00  0.00     0.016 A 
ATOM     15  C   UNL     1       3.334  -1.232  -0.735  1.00  0.00     0.047 A 
ATOM     16  C   UNL     1       2.814  -0.474  -1.793  1.00  0.00     0.115 A 
ATOM     17  C   UNL     1       0.747  -1.736  -1.674  1.00  0.00     0.016 A 
ATOM     18  C   UNL     1       1.522  -0.732  -2.262  1.00  0.00     0.047 A 
BRANCH  16  19
ATOM     19  O   UNL     1       3.573   0.531  -2.387  1.00  0.00    -0.508 OA
ATOM     20  H   UNL     1       4.027   1.249  -1.834  1.00  0.00     0.293 HD
ENDBRANCH  16  19
ENDBRANCH   3  13
BRANCH  10  21
ATOM     21  O   UNL     1      -2.891  -6.791   2.321  1.00  0.00    -0.507 OA
ATOM     22  H   UNL     1      -3.552  -7.527   2.127  1.00  0.00     0.293 HD
ENDBRANCH  10  21
BRANCH  11  23
ATOM     23  O   UNL     1       1.268  -9.139   2.031  1.00  0.00    -0.508 OA
ATOM     24  H   UNL     1       1.903  -9.207   2.819  1.00  0.00     0.293 HD
ENDBRANCH  11  23
ENDBRANCH   1   2
BRANCH   1  25
ATOM     25  C   UNL     1      -1.425  -0.980   0.797  1.00  0.00     0.339 C 
ATOM     26  C   UNL     1       0.073  -0.750   1.116  1.00  0.00     0.214 C 
ATOM     27  O   UNL     1      -1.936   0.128   0.080  1.00  0.00    -0.332 OA
ATOM     28  C   UNL     1       0.399   0.758   1.288  1.00  0.00     0.180 C 
ATOM     29  C   UNL     1      -2.099   1.252   0.935  1.00  0.00     0.179 C 
ATOM     30  C   UNL     1      -0.830   1.529   1.813  1.00  0.00     0.177 C 
BRANCH  26  31
ATOM     31  O   UNL     1       0.450  -1.483   2.257  1.00  0.00    -0.384 OA
ATOM     32  H   UNL     1      -0.154  -2.268   2.324  1.00  0.00     0.211 HD
ENDBRANCH  26  31
BRANCH  28  33
ATOM     33  O   UNL     1       0.798   1.306   0.056  1.00  0.00    -0.387 OA
ATOM     34  H   UNL     1       0.223   0.895  -0.642  1.00  0.00     0.211 HD
ENDBRANCH  28  33
BRANCH  29  35
ATOM     35  C   UNL     1      -2.528   2.448   0.071  1.00  0.00     0.191 C 
BRANCH  35  36
ATOM     36  O   UNL     1      -2.696   2.054  -1.263  1.00  0.00    -0.394 OA
ATOM     37  H   UNL     1      -1.969   2.497  -1.774  1.00  0.00     0.210 HD
ENDBRANCH  35  36
ENDBRANCH  29  35
BRANCH  30  38
ATOM     38  O   UNL     1      -0.542   2.903   1.899  1.00  0.00    -0.387 OA
ATOM     39  H   UNL     1      -1.068   3.262   2.661  1.00  0.00     0.211 HD
ENDBRANCH  30  38
ENDBRANCH   1  25
TORSDOF 11
ENDMDL
MODEL 9
REMARK VINA RESULT:    19.951      1.755      3.132
REMARK INTER + INTRA:          28.009
REMARK INTER:                  27.648
REMARK INTRA:                   0.361
REMARK UNBOUND:                -0.689
REMARK SMILES O=c1c(O[C@@H]2O[C@H](CO)[C@H](O)[C@H](O)[C@H]2O)c(-c2ccc(O)cc2)oc2cc(O)cc(O)c12
REMARK SMILES IDX 4 1 3 2 16 3 24 4 2 5 25 6 1 7 32 8 26 9 30 10 27 11 29 12
REMARK SMILES IDX 17 13 18 14 19 15 20 16 23 17 22 18 21 19 31 21 28 23 5 25
REMARK SMILES IDX 14 26 6 27 12 28 7 29 10 30 15 31 13 33 8 35 9 36 11 38
REMARK H PARENT 21 20 31 22 28 24 15 32 13 34 9 37 11 39
REMARK Flexibility Score: inf
ROOT
ATOM      1  O   UNL     1       0.239  -0.024  -0.009  1.00  0.00    -0.454 OA
ENDROOT
BRANCH   1   2
ATOM      2  C   UNL     1       0.403  -1.410   0.135  1.00  0.00     0.214 A 
ATOM      3  C   UNL     1       1.621  -2.046  -0.178  1.00  0.00     0.180 A 
ATOM      4  O   UNL     1       1.747  -3.353   0.017  1.00  0.00    -0.452 OA
ATOM      5  C   UNL     1      -0.674  -2.188   0.579  1.00  0.00     0.239 A 
ATOM      6  C   UNL     1       0.770  -4.121   0.483  1.00  0.00     0.146 A 
ATOM      7  O   UNL     1      -1.793  -1.631   0.729  1.00  0.00    -0.285 OA
ATOM      8  C   UNL     1      -0.495  -3.571   0.817  1.00  0.00     0.111 A 
ATOM      9  C   UNL     1       1.007  -5.492   0.621  1.00  0.00     0.094 A 
ATOM     10  C   UNL     1      -1.498  -4.439   1.343  1.00  0.00     0.134 A 
ATOM     11  C   UNL     1      -0.001  -6.340   1.081  1.00  0.00     0.123 A 
ATOM     12  C   UNL     1      -1.244  -5.813   1.433  1.00  0.00     0.093 A 
BRANCH   3  13
ATOM     13  C   UNL     1       2.781  -1.314  -0.737  1.00  0.00     0.021 A 
ATOM     14  C   UNL     1       2.566  -0.287  -1.671  1.00  0.00     0.016 A 
ATOM     15  C   UNL     1       3.648   0.407  -2.220  1.00  0.00     0.047 A 
ATOM     16  C   UNL     1       4.957   0.093  -1.832  1.00  0.00     0.115 A 
ATOM     17  C   UNL     1       4.097  -1.606  -0.331  1.00  0.00     0.016 A 
ATOM     18  C   UNL     1       5.176  -0.911  -0.884  1.00  0.00     0.047 A 
BRANCH  16  19
ATOM     19  O   UNL     1       6.043   0.773  -2.377  1.00  0.00    -0.508 OA
ATOM     20  H   UNL     1       6.240   1.737  -2.135  1.00  0.00     0.293 HD
ENDBRANCH  16  19
ENDBRANCH   3  13
BRANCH  10  21
ATOM     21  O   UNL     1      -2.740  -4.002   1.816  1.00  0.00    -0.507 OA
ATOM     22  H   UNL     1      -3.036  -4.045   2.779  1.00  0.00     0.293 HD
ENDBRANCH  10  21
BRANCH  11  23
ATOM     23  O   UNL     1       0.222  -7.709   1.201  1.00  0.00    -0.508 OA
ATOM     24  H   UNL     1       0.043  -8.345   0.432  1.00  0.00     0.293 HD
ENDBRANCH  11  23
ENDBRANCH   1   2
BRANCH   1  25
ATOM     25  C   UNL     1      -0.951   0.679   0.364  1.00  0.00     0.339 C 
ATOM     26  C   UNL     1      -0.614   1.876   1.287  1.00  0.00     0.214 C 
ATOM     27  O   UNL     1      -1.634   1.140  -0.786  1.00  0.00    -0.332 OA
ATOM     28  C   UNL     1      -1.669   3.008   1.167  1.00  0.00     0.180 C 
ATOM     29  C   UNL     1      -2.969   1.509  -0.467  1.00  0.00     0.179 C 
ATOM     30  C   UNL     1      -3.052   2.433   0.797  1.00  0.00     0.177 C 
BRANCH  26  31
ATOM     31  O   UNL     1      -0.482   1.446   2.621  1.00  0.00    -0.384 OA
ATOM     32  H   UNL     1      -1.274   1.771   3.122  1.00  0.00     0.211 HD
ENDBRANCH  26  31
BRANCH  28  33
ATOM     33  O   UNL     1      -1.273   3.931   0.184  1.00  0.00    -0.387 OA
ATOM     34  H   UNL     1      -0.293   4.059   0.287  1.00  0.00     0.211 HD
ENDBRANCH  28  33
BRANCH  29  35
ATOM     35  C   UNL     1      -3.607   2.121  -1.724  1.00  0.00     0.191 C 
BRANCH  35  36
ATOM     36  O   UNL     1      -3.119   1.492  -2.877  1.00  0.00    -0.394 OA
ATOM     37  H   UNL     1      -3.623   1.883  -3.637  1.00  0.00     0.210 HD
ENDBRANCH  35  36
ENDBRANCH  29  35
BRANCH  30  38
ATOM     38  O   UNL     1      -3.982   3.474   0.625  1.00  0.00    -0.387 OA
ATOM     39  H   UNL     1      -3.628   4.262   1.112  1.00  0.00     0.211 HD
ENDBRANCH  30  38
ENDBRANCH   1  25
TORSDOF 11
ENDMDL
