MODEL 1
REMARK VINA RESULT:    -6.929      0.000      0.000
REMARK INTER + INTRA:         -11.840
REMARK INTER:                 -10.575
REMARK INTRA:                  -1.265
REMARK UNBOUND:                -1.265
REMARK SMILES CC(=O)CCC=C(C)CCC=C(C)CCC=C(C)C
REMARK SMILES IDX 10 1 11 2 12 3 13 4 14 5 15 6 16 7 18 8 17 9 19 10 9 11 7 12
REMARK SMILES IDX 6 13 8 14 5 15 4 16 2 17 3 18 1 19
REMARK H PARENT
REMARK Flexibility Score: inf
ROOT
ATOM      1  C   UNL     1     -10.438  72.203  31.130  1.00  0.00     0.032 C 
ENDROOT
BRANCH   1   2
ATOM      2  C   UNL     1     -10.988  72.372  32.526  1.00  0.00    -0.028 C 
ATOM      3  C   UNL     1     -11.210  73.565  33.121  1.00  0.00    -0.077 C 
ATOM      4  C   UNL     1     -10.844  74.871  32.453  1.00  0.00     0.039 C 
BRANCH   3   5
ATOM      5  C   UNL     1     -11.846  73.594  34.493  1.00  0.00     0.034 C 
BRANCH   5   6
ATOM      6  C   UNL     1     -10.779  73.579  35.593  1.00  0.00     0.032 C 
BRANCH   6   7
ATOM      7  C   UNL     1     -11.292  72.870  36.821  1.00  0.00    -0.028 C 
ATOM      8  C   UNL     1      -9.490  71.130  36.764  1.00  0.00     0.039 C 
ATOM      9  C   UNL     1     -10.705  71.786  37.378  1.00  0.00    -0.080 C 
ATOM     10  C   UNL     1     -11.301  71.213  38.640  1.00  0.00     0.039 C 
ENDBRANCH   6   7
ENDBRANCH   5   6
ENDBRANCH   3   5
ENDBRANCH   1   2
BRANCH   1  11
ATOM     11  C   UNL     1     -11.565  72.118  30.091  1.00  0.00     0.034 C 
BRANCH  11  12
ATOM     12  C   UNL     1     -11.496  73.257  29.095  1.00  0.00    -0.077 C 
ATOM     13  C   UNL     1     -10.294  73.640  28.612  1.00  0.00    -0.028 C 
ATOM     14  C   UNL     1     -12.774  73.934  28.660  1.00  0.00     0.039 C 
BRANCH  13  15
ATOM     15  C   UNL     1     -10.125  74.756  27.610  1.00  0.00     0.035 C 
BRANCH  15  16
ATOM     16  C   UNL     1      -8.983  74.452  26.634  1.00  0.00     0.079 C 
BRANCH  16  17
ATOM     17  C   UNL     1      -9.368  73.347  25.685  1.00  0.00     0.130 C 
ATOM     18  O   UNL     1      -8.674  72.344  25.617  1.00  0.00    -0.300 OA
ATOM     19  C   UNL     1     -10.606  73.436  24.843  1.00  0.00     0.087 C 
ENDBRANCH  16  17
ENDBRANCH  15  16
ENDBRANCH  13  15
ENDBRANCH  11  12
ENDBRANCH   1  11
TORSDOF 9
ENDMDL
MODEL 2
REMARK VINA RESULT:    -6.788      2.909      9.063
REMARK INTER + INTRA:         -11.624
REMARK INTER:                 -10.517
REMARK INTRA:                  -1.108
REMARK UNBOUND:                -1.265
REMARK SMILES CC(=O)CCC=C(C)CCC=C(C)CCC=C(C)C
REMARK SMILES IDX 10 1 11 2 12 3 13 4 14 5 15 6 16 7 18 8 17 9 19 10 9 11 7 12
REMARK SMILES IDX 6 13 8 14 5 15 4 16 2 17 3 18 1 19
REMARK H PARENT
REMARK Flexibility Score: inf
ROOT
ATOM      1  C   UNL     1     -12.220  73.574  29.532  1.00  0.00     0.032 C 
ENDROOT
BRANCH   1   2
ATOM      2  C   UNL     1     -11.291  73.800  28.363  1.00  0.00    -0.028 C 
ATOM      3  C   UNL     1     -10.155  74.530  28.420  1.00  0.00    -0.077 C 
ATOM      4  C   UNL     1      -9.743  75.269  29.672  1.00  0.00     0.039 C 
BRANCH   3   5
ATOM      5  C   UNL     1      -9.270  74.607  27.195  1.00  0.00     0.034 C 
BRANCH   5   6
ATOM      6  C   UNL     1      -9.931  73.919  25.996  1.00  0.00     0.032 C 
BRANCH   6   7
ATOM      7  C   UNL     1      -9.573  74.627  24.714  1.00  0.00    -0.028 C 
ATOM      8  C   UNL     1      -7.740  73.016  24.148  1.00  0.00     0.039 C 
ATOM      9  C   UNL     1      -8.612  74.215  23.856  1.00  0.00    -0.080 C 
ATOM     10  C   UNL     1      -8.401  74.996  22.583  1.00  0.00     0.039 C 
ENDBRANCH   6   7
ENDBRANCH   5   6
ENDBRANCH   3   5
ENDBRANCH   1   2
BRANCH   1  11
ATOM     11  C   UNL     1     -11.868  72.281  30.283  1.00  0.00     0.034 C 
BRANCH  11  12
ATOM     12  C   UNL     1     -10.941  72.547  31.451  1.00  0.00    -0.077 C 
ATOM     13  C   UNL     1     -11.429  73.147  32.559  1.00  0.00    -0.028 C 
ATOM     14  C   UNL     1      -9.493  72.130  31.352  1.00  0.00     0.039 C 
BRANCH  13  15
ATOM     15  C   UNL     1     -10.587  73.444  33.776  1.00  0.00     0.035 C 
BRANCH  15  16
ATOM     16  C   UNL     1     -10.769  72.365  34.848  1.00  0.00     0.079 C 
BRANCH  16  17
ATOM     17  C   UNL     1     -10.811  72.977  36.224  1.00  0.00     0.130 C 
ATOM     18  O   UNL     1     -10.337  74.088  36.403  1.00  0.00    -0.300 OA
ATOM     19  C   UNL     1     -11.455  72.265  37.377  1.00  0.00     0.087 C 
ENDBRANCH  16  17
ENDBRANCH  15  16
ENDBRANCH  13  15
ENDBRANCH  11  12
ENDBRANCH   1  11
TORSDOF 9
ENDMDL
MODEL 3
REMARK VINA RESULT:    -6.733      3.308      8.176
REMARK INTER + INTRA:         -11.540
REMARK INTER:                 -10.249
REMARK INTRA:                  -1.291
REMARK UNBOUND:                -1.265
REMARK SMILES CC(=O)CCC=C(C)CCC=C(C)CCC=C(C)C
REMARK SMILES IDX 10 1 11 2 12 3 13 4 14 5 15 6 16 7 18 8 17 9 19 10 9 11 7 12
REMARK SMILES IDX 6 13 8 14 5 15 4 16 2 17 3 18 1 19
REMARK H PARENT
REMARK Flexibility Score: inf
ROOT
ATOM      1  C   UNL     1     -11.285  73.337  34.136  1.00  0.00     0.032 C 
ENDROOT
BRANCH   1   2
ATOM      2  C   UNL     1     -10.317  73.606  33.008  1.00  0.00    -0.028 C 
ATOM      3  C   UNL     1     -10.203  74.789  32.365  1.00  0.00    -0.077 C 
ATOM      4  C   UNL     1     -11.112  75.956  32.673  1.00  0.00     0.039 C 
BRANCH   3   5
ATOM      5  C   UNL     1      -9.132  74.949  31.308  1.00  0.00     0.034 C 
BRANCH   5   6
ATOM      6  C   UNL     1      -9.369  73.990  30.137  1.00  0.00     0.032 C 
BRANCH   6   7
ATOM      7  C   UNL     1     -10.632  74.354  29.398  1.00  0.00    -0.028 C 
ATOM      8  C   UNL     1     -11.759  72.181  29.928  1.00  0.00     0.039 C 
ATOM      9  C   UNL     1     -11.727  73.565  29.322  1.00  0.00    -0.080 C 
ATOM     10  C   UNL     1     -12.941  74.085  28.593  1.00  0.00     0.039 C 
ENDBRANCH   6   7
ENDBRANCH   5   6
ENDBRANCH   3   5
ENDBRANCH   1   2
BRANCH   1  11
ATOM     11  C   UNL     1     -10.654  73.651  35.501  1.00  0.00     0.034 C 
BRANCH  11  12
ATOM     12  C   UNL     1     -10.428  72.395  36.316  1.00  0.00    -0.077 C 
ATOM     13  C   UNL     1      -9.436  71.549  35.964  1.00  0.00    -0.028 C 
ATOM     14  C   UNL     1     -11.314  72.120  37.507  1.00  0.00     0.039 C 
BRANCH  13  15
ATOM     15  C   UNL     1      -9.127  70.279  36.719  1.00  0.00     0.035 C 
BRANCH  15  16
ATOM     16  C   UNL     1      -8.220  69.356  35.898  1.00  0.00     0.079 C 
BRANCH  16  17
ATOM     17  C   UNL     1      -6.863  69.227  36.541  1.00  0.00     0.130 C 
ATOM     18  O   UNL     1      -6.341  68.127  36.626  1.00  0.00    -0.300 OA
ATOM     19  C   UNL     1      -6.122  70.427  37.050  1.00  0.00     0.087 C 
ENDBRANCH  16  17
ENDBRANCH  15  16
ENDBRANCH  13  15
ENDBRANCH  11  12
ENDBRANCH   1  11
TORSDOF 9
ENDMDL
MODEL 4
REMARK VINA RESULT:    -6.724      1.338      1.869
REMARK INTER + INTRA:         -11.527
REMARK INTER:                 -10.459
REMARK INTRA:                  -1.068
REMARK UNBOUND:                -1.265
REMARK SMILES CC(=O)CCC=C(C)CCC=C(C)CCC=C(C)C
REMARK SMILES IDX 10 1 11 2 12 3 13 4 14 5 15 6 16 7 18 8 17 9 19 10 9 11 7 12
REMARK SMILES IDX 6 13 8 14 5 15 4 16 2 17 3 18 1 19
REMARK H PARENT
REMARK Flexibility Score: inf
ROOT
ATOM      1  C   UNL     1      -9.167  74.373  30.787  1.00  0.00     0.032 C 
ENDROOT
BRANCH   1   2
ATOM      2  C   UNL     1     -10.051  74.287  32.008  1.00  0.00    -0.028 C 
ATOM      3  C   UNL     1     -10.873  73.250  32.285  1.00  0.00    -0.077 C 
ATOM      4  C   UNL     1     -11.041  72.089  31.333  1.00  0.00     0.039 C 
BRANCH   3   5
ATOM      5  C   UNL     1     -11.642  73.252  33.588  1.00  0.00     0.034 C 
BRANCH   5   6
ATOM      6  C   UNL     1     -10.708  73.497  34.777  1.00  0.00     0.032 C 
BRANCH   6   7
ATOM      7  C   UNL     1     -11.366  73.072  36.066  1.00  0.00    -0.028 C 
ATOM      8  C   UNL     1      -9.569  71.418  36.623  1.00  0.00     0.039 C 
ATOM      9  C   UNL     1     -10.850  72.161  36.922  1.00  0.00    -0.080 C 
ATOM     10  C   UNL     1     -11.595  71.875  38.203  1.00  0.00     0.039 C 
ENDBRANCH   6   7
ENDBRANCH   5   6
ENDBRANCH   3   5
ENDBRANCH   1   2
BRANCH   1  11
ATOM     11  C   UNL     1      -9.778  75.289  29.717  1.00  0.00     0.034 C 
BRANCH  11  12
ATOM     12  C   UNL     1     -10.265  74.502  28.518  1.00  0.00    -0.077 C 
ATOM     13  C   UNL     1      -9.379  74.128  27.569  1.00  0.00    -0.028 C 
ATOM     14  C   UNL     1     -11.729  74.148  28.414  1.00  0.00     0.039 C 
BRANCH  13  15
ATOM     15  C   UNL     1      -9.766  73.334  26.345  1.00  0.00     0.035 C 
BRANCH  15  16
ATOM     16  C   UNL     1      -8.537  73.007  25.489  1.00  0.00     0.079 C 
BRANCH  16  17
ATOM     17  C   UNL     1      -8.552  73.796  24.206  1.00  0.00     0.130 C 
ATOM     18  O   UNL     1      -7.641  73.657  23.404  1.00  0.00    -0.300 OA
ATOM     19  C   UNL     1      -9.680  74.727  23.874  1.00  0.00     0.087 C 
ENDBRANCH  16  17
ENDBRANCH  15  16
ENDBRANCH  13  15
ENDBRANCH  11  12
ENDBRANCH   1  11
TORSDOF 9
ENDMDL
MODEL 5
REMARK VINA RESULT:    -6.695      1.500      2.282
REMARK INTER + INTRA:         -11.482
REMARK INTER:                 -10.393
REMARK INTRA:                  -1.090
REMARK UNBOUND:                -1.265
REMARK SMILES CC(=O)CCC=C(C)CCC=C(C)CCC=C(C)C
REMARK SMILES IDX 10 1 11 2 12 3 13 4 14 5 15 6 16 7 18 8 17 9 19 10 9 11 7 12
REMARK SMILES IDX 6 13 8 14 5 15 4 16 2 17 3 18 1 19
REMARK H PARENT
REMARK Flexibility Score: inf
ROOT
ATOM      1  C   UNL     1     -11.924  72.686  29.486  1.00  0.00     0.032 C 
ENDROOT
BRANCH   1   2
ATOM      2  C   UNL     1     -11.727  73.092  30.927  1.00  0.00    -0.028 C 
ATOM      3  C   UNL     1     -10.561  72.977  31.601  1.00  0.00    -0.077 C 
ATOM      4  C   UNL     1      -9.339  72.343  30.978  1.00  0.00     0.039 C 
BRANCH   3   5
ATOM      5  C   UNL     1     -10.477  73.502  33.017  1.00  0.00     0.034 C 
BRANCH   5   6
ATOM      6  C   UNL     1     -10.602  72.362  34.033  1.00  0.00     0.032 C 
BRANCH   6   7
ATOM      7  C   UNL     1     -11.281  72.844  35.291  1.00  0.00    -0.028 C 
ATOM      8  C   UNL     1      -9.778  71.525  36.799  1.00  0.00     0.039 C 
ATOM      9  C   UNL     1     -10.902  72.502  36.543  1.00  0.00    -0.080 C 
ATOM     10  C   UNL     1     -11.643  73.105  37.710  1.00  0.00     0.039 C 
ENDBRANCH   6   7
ENDBRANCH   5   6
ENDBRANCH   3   5
ENDBRANCH   1   2
BRANCH   1  11
ATOM     11  C   UNL     1     -11.913  73.906  28.554  1.00  0.00     0.034 C 
BRANCH  11  12
ATOM     12  C   UNL     1     -10.543  74.137  27.951  1.00  0.00    -0.077 C 
ATOM     13  C   UNL     1     -10.088  73.292  27.001  1.00  0.00    -0.028 C 
ATOM     14  C   UNL     1      -9.718  75.311  28.422  1.00  0.00     0.039 C 
BRANCH  13  15
ATOM     15  C   UNL     1      -8.743  73.445  26.334  1.00  0.00     0.035 C 
BRANCH  15  16
ATOM     16  C   UNL     1      -8.813  73.052  24.854  1.00  0.00     0.079 C 
BRANCH  16  17
ATOM     17  C   UNL     1      -8.919  74.273  23.979  1.00  0.00     0.130 C 
ATOM     18  O   UNL     1      -9.727  75.145  24.258  1.00  0.00    -0.300 OA
ATOM     19  C   UNL     1      -8.028  74.459  22.787  1.00  0.00     0.087 C 
ENDBRANCH  16  17
ENDBRANCH  15  16
ENDBRANCH  13  15
ENDBRANCH  11  12
ENDBRANCH   1  11
TORSDOF 9
ENDMDL
MODEL 6
REMARK VINA RESULT:    -6.693      1.941      3.526
REMARK INTER + INTRA:         -11.479
REMARK INTER:                 -10.601
REMARK INTRA:                  -0.878
REMARK UNBOUND:                -1.265
REMARK SMILES CC(=O)CCC=C(C)CCC=C(C)CCC=C(C)C
REMARK SMILES IDX 10 1 11 2 12 3 13 4 14 5 15 6 16 7 18 8 17 9 19 10 9 11 7 12
REMARK SMILES IDX 6 13 8 14 5 15 4 16 2 17 3 18 1 19
REMARK H PARENT
REMARK Flexibility Score: inf
ROOT
ATOM      1  C   UNL     1     -10.280  74.387  28.323  1.00  0.00     0.032 C 
ENDROOT
BRANCH   1   2
ATOM      2  C   UNL     1     -10.328  74.560  29.822  1.00  0.00    -0.028 C 
ATOM      3  C   UNL     1     -11.058  73.788  30.658  1.00  0.00    -0.077 C 
ATOM      4  C   UNL     1     -11.976  72.703  30.145  1.00  0.00     0.039 C 
BRANCH   3   5
ATOM      5  C   UNL     1     -10.950  74.016  32.150  1.00  0.00     0.034 C 
BRANCH   5   6
ATOM      6  C   UNL     1     -11.603  72.868  32.928  1.00  0.00     0.032 C 
BRANCH   6   7
ATOM      7  C   UNL     1     -10.586  72.170  33.797  1.00  0.00    -0.028 C 
ATOM      8  C   UNL     1     -11.305  73.368  35.876  1.00  0.00     0.039 C 
ATOM      9  C   UNL     1     -10.461  72.360  35.130  1.00  0.00    -0.080 C 
ATOM     10  C   UNL     1      -9.433  71.550  35.879  1.00  0.00     0.039 C 
ENDBRANCH   6   7
ENDBRANCH   5   6
ENDBRANCH   3   5
ENDBRANCH   1   2
BRANCH   1  11
ATOM     11  C   UNL     1      -8.977  73.704  27.881  1.00  0.00     0.034 C 
BRANCH  11  12
ATOM     12  C   UNL     1      -8.968  73.426  26.393  1.00  0.00    -0.077 C 
ATOM     13  C   UNL     1      -9.959  73.923  25.621  1.00  0.00    -0.028 C 
ATOM     14  C   UNL     1      -7.847  72.604  25.803  1.00  0.00     0.039 C 
BRANCH  13  15
ATOM     15  C   UNL     1     -10.032  73.709  24.129  1.00  0.00     0.035 C 
BRANCH  15  16
ATOM     16  C   UNL     1      -9.683  74.994  23.370  1.00  0.00     0.079 C 
BRANCH  16  17
ATOM     17  C   UNL     1      -8.469  74.792  22.502  1.00  0.00     0.130 C 
ATOM     18  O   UNL     1      -7.415  74.447  23.013  1.00  0.00    -0.300 OA
ATOM     19  C   UNL     1      -8.533  74.973  21.015  1.00  0.00     0.087 C 
ENDBRANCH  16  17
ENDBRANCH  15  16
ENDBRANCH  13  15
ENDBRANCH  11  12
ENDBRANCH   1  11
TORSDOF 9
ENDMDL
MODEL 7
REMARK VINA RESULT:    -6.626      3.077      5.159
REMARK INTER + INTRA:         -11.377
REMARK INTER:                 -10.064
REMARK INTRA:                  -1.313
REMARK UNBOUND:                -1.265
REMARK SMILES CC(=O)CCC=C(C)CCC=C(C)CCC=C(C)C
REMARK SMILES IDX 10 1 11 2 12 3 13 4 14 5 15 6 16 7 18 8 17 9 19 10 9 11 7 12
REMARK SMILES IDX 6 13 8 14 5 15 4 16 2 17 3 18 1 19
REMARK H PARENT
REMARK Flexibility Score: inf
ROOT
ATOM      1  C   UNL     1      -9.914  74.421  27.273  1.00  0.00     0.032 C 
ENDROOT
BRANCH   1   2
ATOM      2  C   UNL     1     -10.224  73.459  28.395  1.00  0.00    -0.028 C 
ATOM      3  C   UNL     1     -11.436  73.334  28.981  1.00  0.00    -0.077 C 
ATOM      4  C   UNL     1     -12.599  74.224  28.607  1.00  0.00     0.039 C 
BRANCH   3   5
ATOM      5  C   UNL     1     -11.633  72.270  30.038  1.00  0.00     0.034 C 
BRANCH   5   6
ATOM      6  C   UNL     1     -10.698  72.499  31.230  1.00  0.00     0.032 C 
BRANCH   6   7
ATOM      7  C   UNL     1     -11.119  73.721  32.008  1.00  0.00    -0.028 C 
ATOM      8  C   UNL     1      -9.064  75.016  31.396  1.00  0.00     0.039 C 
ATOM      9  C   UNL     1     -10.411  74.871  32.066  1.00  0.00    -0.080 C 
ATOM     10  C   UNL     1     -10.984  76.031  32.841  1.00  0.00     0.039 C 
ENDBRANCH   6   7
ENDBRANCH   5   6
ENDBRANCH   3   5
ENDBRANCH   1   2
BRANCH   1  11
ATOM     11  C   UNL     1     -10.324  73.842  25.911  1.00  0.00     0.034 C 
BRANCH  11  12
ATOM     12  C   UNL     1      -9.118  73.462  25.078  1.00  0.00    -0.077 C 
ATOM     13  C   UNL     1      -8.420  72.350  25.395  1.00  0.00    -0.028 C 
ATOM     14  C   UNL     1      -8.727  74.331  23.907  1.00  0.00     0.039 C 
BRANCH  13  15
ATOM     15  C   UNL     1      -7.212  71.883  24.620  1.00  0.00     0.035 C 
BRANCH  15  16
ATOM     16  C   UNL     1      -5.965  71.849  25.510  1.00  0.00     0.079 C 
BRANCH  16  17
ATOM     17  C   UNL     1      -5.717  70.458  26.033  1.00  0.00     0.130 C 
ATOM     18  O   UNL     1      -6.246  69.505  25.482  1.00  0.00    -0.300 OA
ATOM     19  C   UNL     1      -4.807  70.212  27.199  1.00  0.00     0.087 C 
ENDBRANCH  16  17
ENDBRANCH  15  16
ENDBRANCH  13  15
ENDBRANCH  11  12
ENDBRANCH   1  11
TORSDOF 9
ENDMDL
MODEL 8
REMARK VINA RESULT:    -6.620      3.198      9.121
REMARK INTER + INTRA:         -11.368
REMARK INTER:                 -10.444
REMARK INTRA:                  -0.924
REMARK UNBOUND:                -1.265
REMARK SMILES CC(=O)CCC=C(C)CCC=C(C)CCC=C(C)C
REMARK SMILES IDX 10 1 11 2 12 3 13 4 14 5 15 6 16 7 18 8 17 9 19 10 9 11 7 12
REMARK SMILES IDX 6 13 8 14 5 15 4 16 2 17 3 18 1 19
REMARK H PARENT
REMARK Flexibility Score: inf
ROOT
ATOM      1  C   UNL     1     -10.536  72.354  30.924  1.00  0.00     0.032 C 
ENDROOT
BRANCH   1   2
ATOM      2  C   UNL     1     -10.565  73.192  29.669  1.00  0.00    -0.028 C 
ATOM      3  C   UNL     1      -9.863  74.334  29.496  1.00  0.00    -0.077 C 
ATOM      4  C   UNL     1      -9.025  74.931  30.604  1.00  0.00     0.039 C 
BRANCH   3   5
ATOM      5  C   UNL     1      -9.916  75.033  28.156  1.00  0.00     0.034 C 
BRANCH   5   6
ATOM      6  C   UNL     1     -10.098  74.024  27.017  1.00  0.00     0.032 C 
BRANCH   6   7
ATOM      7  C   UNL     1      -9.425  74.514  25.760  1.00  0.00    -0.028 C 
ATOM      8  C   UNL     1     -10.941  73.213  24.249  1.00  0.00     0.039 C 
ATOM      9  C   UNL     1      -9.813  74.184  24.507  1.00  0.00    -0.080 C 
ATOM     10  C   UNL     1      -9.077  74.795  23.341  1.00  0.00     0.039 C 
ENDBRANCH   6   7
ENDBRANCH   5   6
ENDBRANCH   3   5
ENDBRANCH   1   2
BRANCH   1  11
ATOM     11  C   UNL     1     -11.686  72.725  31.871  1.00  0.00     0.034 C 
BRANCH  11  12
ATOM     12  C   UNL     1     -11.177  73.358  33.149  1.00  0.00    -0.077 C 
ATOM     13  C   UNL     1     -10.698  72.566  34.134  1.00  0.00    -0.028 C 
ATOM     14  C   UNL     1     -11.211  74.861  33.292  1.00  0.00     0.039 C 
BRANCH  13  15
ATOM     15  C   UNL     1     -10.160  73.104  35.438  1.00  0.00     0.035 C 
BRANCH  15  16
ATOM     16  C   UNL     1     -11.103  72.776  36.600  1.00  0.00     0.079 C 
BRANCH  16  17
ATOM     17  C   UNL     1     -10.611  71.578  37.370  1.00  0.00     0.130 C 
ATOM     18  O   UNL     1     -11.267  71.157  38.310  1.00  0.00    -0.300 OA
ATOM     19  C   UNL     1      -9.347  70.868  36.986  1.00  0.00     0.087 C 
ENDBRANCH  16  17
ENDBRANCH  15  16
ENDBRANCH  13  15
ENDBRANCH  11  12
ENDBRANCH   1  11
TORSDOF 9
ENDMDL
MODEL 9
REMARK VINA RESULT:    -6.548      3.182      8.640
REMARK INTER + INTRA:         -11.257
REMARK INTER:                  -9.915
REMARK INTRA:                  -1.343
REMARK UNBOUND:                -1.265
REMARK SMILES CC(=O)CCC=C(C)CCC=C(C)CCC=C(C)C
REMARK SMILES IDX 10 1 11 2 12 3 13 4 14 5 15 6 16 7 18 8 17 9 19 10 9 11 7 12
REMARK SMILES IDX 6 13 8 14 5 15 4 16 2 17 3 18 1 19
REMARK H PARENT
REMARK Flexibility Score: inf
ROOT
ATOM      1  C   UNL     1     -10.627  73.487  33.683  1.00  0.00     0.032 C 
ENDROOT
BRANCH   1   2
ATOM      2  C   UNL     1     -11.406  73.243  32.413  1.00  0.00    -0.028 C 
ATOM      3  C   UNL     1     -10.929  72.574  31.340  1.00  0.00    -0.077 C 
ATOM      4  C   UNL     1      -9.507  72.064  31.285  1.00  0.00     0.039 C 
BRANCH   3   5
ATOM      5  C   UNL     1     -11.845  72.325  30.162  1.00  0.00     0.034 C 
BRANCH   5   6
ATOM      6  C   UNL     1     -12.239  73.643  29.486  1.00  0.00     0.032 C 
BRANCH   6   7
ATOM      7  C   UNL     1     -11.438  73.853  28.225  1.00  0.00    -0.028 C 
ATOM      8  C   UNL     1      -9.650  75.164  29.390  1.00  0.00     0.039 C 
ATOM      9  C   UNL     1     -10.256  74.507  28.172  1.00  0.00    -0.080 C 
ATOM     10  C   UNL     1      -9.540  74.593  26.847  1.00  0.00     0.039 C 
ENDBRANCH   6   7
ENDBRANCH   5   6
ENDBRANCH   3   5
ENDBRANCH   1   2
BRANCH   1  11
ATOM     11  C   UNL     1     -11.488  73.224  34.927  1.00  0.00     0.034 C 
BRANCH  11  12
ATOM     12  C   UNL     1     -10.740  72.414  35.965  1.00  0.00    -0.077 C 
ATOM     13  C   UNL     1      -9.648  71.710  35.592  1.00  0.00    -0.028 C 
ATOM     14  C   UNL     1     -11.227  72.416  37.394  1.00  0.00     0.039 C 
BRANCH  13  15
ATOM     15  C   UNL     1      -8.831  70.883  36.555  1.00  0.00     0.035 C 
BRANCH  15  16
ATOM     16  C   UNL     1      -8.802  69.411  36.129  1.00  0.00     0.079 C 
BRANCH  16  17
ATOM     17  C   UNL     1      -9.175  68.512  37.278  1.00  0.00     0.130 C 
ATOM     18  O   UNL     1      -8.755  67.366  37.306  1.00  0.00    -0.300 OA
ATOM     19  C   UNL     1     -10.027  69.003  38.410  1.00  0.00     0.087 C 
ENDBRANCH  16  17
ENDBRANCH  15  16
ENDBRANCH  13  15
ENDBRANCH  11  12
ENDBRANCH   1  11
TORSDOF 9
ENDMDL
