MODEL 1
REMARK VINA RESULT:    -4.176      0.000      0.000
REMARK INTER + INTRA:          -8.418
REMARK INTER:                  -7.105
REMARK INTRA:                  -1.313
REMARK UNBOUND:                -1.313
REMARK SMILES CCCCCCCCCCCCCC(=O)[O-]
REMARK SMILES IDX 8 1 9 2 10 3 11 4 12 5 13 6 14 7 15 8 16 9 7 10 6 11 5 12
REMARK SMILES IDX 4 13 3 14 2 15 1 16
REMARK H PARENT
REMARK Flexibility Score: inf
ROOT
ATOM      1  C   UNL     1      10.278  15.574  24.887  1.00  0.00     0.000 C 
ENDROOT
BRANCH   1   2
ATOM      2  C   UNL     1      10.039  16.203  23.502  1.00  0.00     0.000 C 
BRANCH   2   3
ATOM      3  C   UNL     1      11.196  15.951  22.520  1.00  0.00     0.000 C 
BRANCH   3   4
ATOM      4  C   UNL     1      11.417  14.456  22.224  1.00  0.00     0.000 C 
BRANCH   4   5
ATOM      5  C   UNL     1      10.183  13.699  21.701  1.00  0.00     0.006 C 
BRANCH   5   6
ATOM      6  C   UNL     1      10.194  13.513  20.179  1.00  0.00     0.053 C 
BRANCH   6   7
ATOM      7  C   UNL     1      10.122  14.839  19.490  1.00  0.00     0.041 C 
ATOM      8  O   UNL     1      11.034  15.192  18.695  1.00  0.00    -0.550 OA
ATOM      9  O   UNL     1       9.022  15.665  19.686  1.00  0.00    -0.550 OA
ENDBRANCH   6   7
ENDBRANCH   5   6
ENDBRANCH   4   5
ENDBRANCH   3   4
ENDBRANCH   2   3
ENDBRANCH   1   2
BRANCH   1  10
ATOM     10  C   UNL     1       9.015  15.088  25.620  1.00  0.00     0.000 C 
BRANCH  10  11
ATOM     11  C   UNL     1       7.988  14.435  24.679  1.00  0.00    -0.000 C 
BRANCH  11  12
ATOM     12  C   UNL     1       8.043  12.899  24.721  1.00  0.00    -0.000 C 
BRANCH  12  13
ATOM     13  C   UNL     1       8.624  12.361  26.038  1.00  0.00    -0.000 C 
BRANCH  13  14
ATOM     14  C   UNL     1       9.485  11.117  25.790  1.00  0.00    -0.000 C 
BRANCH  14  15
ATOM     15  C   UNL     1       9.348  10.634  24.342  1.00  0.00    -0.003 C 
ATOM     16  C   UNL     1       9.499   9.117  24.252  1.00  0.00     0.004 C 
ENDBRANCH  14  15
ENDBRANCH  13  14
ENDBRANCH  12  13
ENDBRANCH  11  12
ENDBRANCH  10  11
ENDBRANCH   1  10
TORSDOF 12
ENDMDL
MODEL 2
REMARK VINA RESULT:    -4.068      1.368      4.212
REMARK INTER + INTRA:          -8.234
REMARK INTER:                  -6.500
REMARK INTRA:                  -1.734
REMARK UNBOUND:                -1.313
REMARK SMILES CCCCCCCCCCCCCC(=O)[O-]
REMARK SMILES IDX 8 1 9 2 10 3 11 4 12 5 13 6 14 7 15 8 16 9 7 10 6 11 5 12
REMARK SMILES IDX 4 13 3 14 2 15 1 16
REMARK H PARENT
REMARK Flexibility Score: inf
ROOT
ATOM      1  C   UNL     1       8.423  12.641  25.542  1.00  0.00     0.000 C 
ENDROOT
BRANCH   1   2
ATOM      2  C   UNL     1       8.403  12.605  24.003  1.00  0.00     0.000 C 
BRANCH   2   3
ATOM      3  C   UNL     1       9.692  12.024  23.398  1.00  0.00     0.000 C 
BRANCH   3   4
ATOM      4  C   UNL     1      10.663  13.108  22.897  1.00  0.00     0.000 C 
BRANCH   4   5
ATOM      5  C   UNL     1      10.072  14.102  21.880  1.00  0.00     0.006 C 
BRANCH   5   6
ATOM      6  C   UNL     1      11.120  14.664  20.912  1.00  0.00     0.053 C 
BRANCH   6   7
ATOM      7  C   UNL     1      10.458  15.222  19.692  1.00  0.00     0.041 C 
ATOM      8  O   UNL     1      11.117  15.385  18.631  1.00  0.00    -0.550 OA
ATOM      9  O   UNL     1       9.100  15.514  19.710  1.00  0.00    -0.550 OA
ENDBRANCH   6   7
ENDBRANCH   5   6
ENDBRANCH   4   5
ENDBRANCH   3   4
ENDBRANCH   2   3
ENDBRANCH   1   2
BRANCH   1  10
ATOM     10  C   UNL     1       8.361  14.044  26.172  1.00  0.00     0.000 C 
BRANCH  10  11
ATOM     11  C   UNL     1       8.612  15.171  25.156  1.00  0.00    -0.000 C 
BRANCH  11  12
ATOM     12  C   UNL     1       9.989  15.831  25.334  1.00  0.00    -0.000 C 
BRANCH  12  13
ATOM     13  C   UNL     1      10.078  17.209  24.662  1.00  0.00    -0.000 C 
BRANCH  13  14
ATOM     14  C   UNL     1       9.179  17.275  23.422  1.00  0.00    -0.000 C 
BRANCH  14  15
ATOM     15  C   UNL     1       9.911  17.935  22.247  1.00  0.00    -0.003 C 
ATOM     16  C   UNL     1      11.411  18.026  22.515  1.00  0.00     0.004 C 
ENDBRANCH  14  15
ENDBRANCH  13  14
ENDBRANCH  12  13
ENDBRANCH  11  12
ENDBRANCH  10  11
ENDBRANCH   1  10
TORSDOF 12
ENDMDL
MODEL 3
REMARK VINA RESULT:    -4.030      2.036      3.525
REMARK INTER + INTRA:          -8.169
REMARK INTER:                  -7.363
REMARK INTRA:                  -0.806
REMARK UNBOUND:                -1.313
REMARK SMILES CCCCCCCCCCCCCC(=O)[O-]
REMARK SMILES IDX 8 1 9 2 10 3 11 4 12 5 13 6 14 7 15 8 16 9 7 10 6 11 5 12
REMARK SMILES IDX 4 13 3 14 2 15 1 16
REMARK H PARENT
REMARK Flexibility Score: inf
ROOT
ATOM      1  C   UNL     1       9.759  12.168  24.791  1.00  0.00     0.000 C 
ENDROOT
BRANCH   1   2
ATOM      2  C   UNL     1       8.708  13.291  24.721  1.00  0.00     0.000 C 
BRANCH   2   3
ATOM      3  C   UNL     1       8.945  14.266  23.555  1.00  0.00     0.000 C 
BRANCH   3   4
ATOM      4  C   UNL     1      10.356  14.882  23.565  1.00  0.00     0.000 C 
BRANCH   4   5
ATOM      5  C   UNL     1      11.096  14.854  22.215  1.00  0.00     0.006 C 
BRANCH   5   6
ATOM      6  C   UNL     1      10.412  13.957  21.175  1.00  0.00     0.053 C 
BRANCH   6   7
ATOM      7  C   UNL     1      10.067  14.745  19.951  1.00  0.00     0.041 C 
ATOM      8  O   UNL     1       9.080  15.528  19.957  1.00  0.00    -0.550 OA
ATOM      9  O   UNL     1      10.867  14.655  18.819  1.00  0.00    -0.550 OA
ENDBRANCH   6   7
ENDBRANCH   5   6
ENDBRANCH   4   5
ENDBRANCH   3   4
ENDBRANCH   2   3
ENDBRANCH   1   2
BRANCH   1  10
ATOM     10  C   UNL     1       9.473  10.940  23.909  1.00  0.00     0.000 C 
BRANCH  10  11
ATOM     11  C   UNL     1       8.493   9.948  24.559  1.00  0.00    -0.000 C 
BRANCH  11  12
ATOM     12  C   UNL     1       9.203   8.716  25.145  1.00  0.00    -0.000 C 
BRANCH  12  13
ATOM     13  C   UNL     1       8.286   7.875  26.045  1.00  0.00    -0.000 C 
BRANCH  13  14
ATOM     14  C   UNL     1       9.104   7.065  27.059  1.00  0.00    -0.000 C 
BRANCH  14  15
ATOM     15  C   UNL     1       8.621   7.327  28.490  1.00  0.00    -0.003 C 
ATOM     16  C   UNL     1       8.684   8.815  28.828  1.00  0.00     0.004 C 
ENDBRANCH  14  15
ENDBRANCH  13  14
ENDBRANCH  12  13
ENDBRANCH  11  12
ENDBRANCH  10  11
ENDBRANCH   1  10
TORSDOF 12
ENDMDL
MODEL 4
REMARK VINA RESULT:    -3.954      2.237      4.052
REMARK INTER + INTRA:          -8.041
REMARK INTER:                  -7.077
REMARK INTRA:                  -0.964
REMARK UNBOUND:                -1.313
REMARK SMILES CCCCCCCCCCCCCC(=O)[O-]
REMARK SMILES IDX 8 1 9 2 10 3 11 4 12 5 13 6 14 7 15 8 16 9 7 10 6 11 5 12
REMARK SMILES IDX 4 13 3 14 2 15 1 16
REMARK H PARENT
REMARK Flexibility Score: inf
ROOT
ATOM      1  C   UNL     1       9.686  10.797  25.379  1.00  0.00     0.000 C 
ENDROOT
BRANCH   1   2
ATOM      2  C   UNL     1       9.288  12.218  24.940  1.00  0.00     0.000 C 
BRANCH   2   3
ATOM      3  C   UNL     1       9.021  12.329  23.430  1.00  0.00     0.000 C 
BRANCH   3   4
ATOM      4  C   UNL     1       9.427  13.695  22.846  1.00  0.00     0.000 C 
BRANCH   4   5
ATOM      5  C   UNL     1      10.673  13.681  21.942  1.00  0.00     0.006 C 
BRANCH   5   6
ATOM      6  C   UNL     1      10.331  13.758  20.449  1.00  0.00     0.053 C 
BRANCH   6   7
ATOM      7  C   UNL     1      10.820  15.047  19.868  1.00  0.00     0.041 C 
ATOM      8  O   UNL     1      11.038  15.144  18.631  1.00  0.00    -0.550 OA
ATOM      9  O   UNL     1      10.985  16.159  20.685  1.00  0.00    -0.550 OA
ENDBRANCH   6   7
ENDBRANCH   5   6
ENDBRANCH   4   5
ENDBRANCH   3   4
ENDBRANCH   2   3
ENDBRANCH   1   2
BRANCH   1  10
ATOM     10  C   UNL     1       8.587   9.729  25.237  1.00  0.00     0.000 C 
BRANCH  10  11
ATOM     11  C   UNL     1       9.078   8.311  25.578  1.00  0.00    -0.000 C 
BRANCH  11  12
ATOM     12  C   UNL     1       8.244   7.649  26.686  1.00  0.00    -0.000 C 
BRANCH  12  13
ATOM     13  C   UNL     1       8.866   7.818  28.080  1.00  0.00    -0.000 C 
BRANCH  13  14
ATOM     14  C   UNL     1       8.129   8.897  28.883  1.00  0.00    -0.000 C 
BRANCH  14  15
ATOM     15  C   UNL     1       8.954  10.187  28.957  1.00  0.00    -0.003 C 
ATOM     16  C   UNL     1       8.065  11.418  28.799  1.00  0.00     0.004 C 
ENDBRANCH  14  15
ENDBRANCH  13  14
ENDBRANCH  12  13
ENDBRANCH  11  12
ENDBRANCH  10  11
ENDBRANCH   1  10
TORSDOF 12
ENDMDL
MODEL 5
REMARK VINA RESULT:    -3.931      2.387      5.602
REMARK INTER + INTRA:          -8.002
REMARK INTER:                  -6.664
REMARK INTRA:                  -1.338
REMARK UNBOUND:                -1.313
REMARK SMILES CCCCCCCCCCCCCC(=O)[O-]
REMARK SMILES IDX 8 1 9 2 10 3 11 4 12 5 13 6 14 7 15 8 16 9 7 10 6 11 5 12
REMARK SMILES IDX 4 13 3 14 2 15 1 16
REMARK H PARENT
REMARK Flexibility Score: inf
ROOT
ATOM      1  C   UNL     1      10.217  15.914  24.853  1.00  0.00     0.000 C 
ENDROOT
BRANCH   1   2
ATOM      2  C   UNL     1       9.348  14.649  24.986  1.00  0.00     0.000 C 
BRANCH   2   3
ATOM      3  C   UNL     1       9.217  13.869  23.667  1.00  0.00     0.000 C 
BRANCH   3   4
ATOM      4  C   UNL     1      10.561  13.311  23.163  1.00  0.00     0.000 C 
BRANCH   4   5
ATOM      5  C   UNL     1      11.088  13.940  21.861  1.00  0.00     0.006 C 
BRANCH   5   6
ATOM      6  C   UNL     1      10.185  13.662  20.653  1.00  0.00     0.053 C 
BRANCH   6   7
ATOM      7  C   UNL     1      10.012  14.902  19.834  1.00  0.00     0.041 C 
ATOM      8  O   UNL     1       9.116  15.738  20.129  1.00  0.00    -0.550 OA
ATOM      9  O   UNL     1      10.873  15.162  18.775  1.00  0.00    -0.550 OA
ENDBRANCH   6   7
ENDBRANCH   5   6
ENDBRANCH   4   5
ENDBRANCH   3   4
ENDBRANCH   2   3
ENDBRANCH   1   2
BRANCH   1  10
ATOM     10  C   UNL     1       9.840  16.857  23.697  1.00  0.00     0.000 C 
BRANCH  10  11
ATOM     11  C   UNL     1      11.052  17.284  22.850  1.00  0.00    -0.000 C 
BRANCH  11  12
ATOM     12  C   UNL     1      10.803  18.594  22.084  1.00  0.00    -0.000 C 
BRANCH  12  13
ATOM     13  C   UNL     1       9.393  19.157  22.312  1.00  0.00    -0.000 C 
BRANCH  13  14
ATOM     14  C   UNL     1       9.449  20.641  22.694  1.00  0.00    -0.000 C 
BRANCH  14  15
ATOM     15  C   UNL     1      10.528  20.895  23.753  1.00  0.00    -0.003 C 
ATOM     16  C   UNL     1      10.064  20.436  25.133  1.00  0.00     0.004 C 
ENDBRANCH  14  15
ENDBRANCH  13  14
ENDBRANCH  12  13
ENDBRANCH  11  12
ENDBRANCH  10  11
ENDBRANCH   1  10
TORSDOF 12
ENDMDL
MODEL 6
REMARK VINA RESULT:    -3.905      2.331      4.769
REMARK INTER + INTRA:          -7.957
REMARK INTER:                  -6.292
REMARK INTRA:                  -1.665
REMARK UNBOUND:                -1.313
REMARK SMILES CCCCCCCCCCCCCC(=O)[O-]
REMARK SMILES IDX 8 1 9 2 10 3 11 4 12 5 13 6 14 7 15 8 16 9 7 10 6 11 5 12
REMARK SMILES IDX 4 13 3 14 2 15 1 16
REMARK H PARENT
REMARK Flexibility Score: inf
ROOT
ATOM      1  C   UNL     1      10.515  16.290  25.345  1.00  0.00     0.000 C 
ENDROOT
BRANCH   1   2
ATOM      2  C   UNL     1       9.854  14.955  24.957  1.00  0.00     0.000 C 
BRANCH   2   3
ATOM      3  C   UNL     1       8.776  15.111  23.870  1.00  0.00     0.000 C 
BRANCH   3   4
ATOM      4  C   UNL     1       8.992  14.171  22.670  1.00  0.00     0.000 C 
BRANCH   4   5
ATOM      5  C   UNL     1      10.333  14.344  21.933  1.00  0.00     0.006 C 
BRANCH   5   6
ATOM      6  C   UNL     1      10.296  13.820  20.492  1.00  0.00     0.053 C 
BRANCH   6   7
ATOM      7  C   UNL     1      10.145  14.954  19.527  1.00  0.00     0.041 C 
ATOM      8  O   UNL     1      11.073  15.230  18.722  1.00  0.00    -0.550 OA
ATOM      9  O   UNL     1       8.958  15.675  19.483  1.00  0.00    -0.550 OA
ENDBRANCH   6   7
ENDBRANCH   5   6
ENDBRANCH   4   5
ENDBRANCH   3   4
ENDBRANCH   2   3
ENDBRANCH   1   2
BRANCH   1  10
ATOM     10  C   UNL     1       9.801  17.084  26.454  1.00  0.00     0.000 C 
BRANCH  10  11
ATOM     11  C   UNL     1       9.631  18.574  26.113  1.00  0.00    -0.000 C 
BRANCH  11  12
ATOM     12  C   UNL     1       8.796  18.797  24.841  1.00  0.00    -0.000 C 
BRANCH  12  13
ATOM     13  C   UNL     1       9.575  19.531  23.740  1.00  0.00    -0.000 C 
BRANCH  13  14
ATOM     14  C   UNL     1       9.221  18.976  22.355  1.00  0.00    -0.000 C 
BRANCH  14  15
ATOM     15  C   UNL     1      10.248  17.933  21.901  1.00  0.00    -0.003 C 
ATOM     16  C   UNL     1      11.619  18.209  22.513  1.00  0.00     0.004 C 
ENDBRANCH  14  15
ENDBRANCH  13  14
ENDBRANCH  12  13
ENDBRANCH  11  12
ENDBRANCH  10  11
ENDBRANCH   1  10
TORSDOF 12
ENDMDL
MODEL 7
REMARK VINA RESULT:    -3.825      2.230      3.642
REMARK INTER + INTRA:          -7.821
REMARK INTER:                  -6.882
REMARK INTRA:                  -0.939
REMARK UNBOUND:                -1.313
REMARK SMILES CCCCCCCCCCCCCC(=O)[O-]
REMARK SMILES IDX 8 1 9 2 10 3 11 4 12 5 13 6 14 7 15 8 16 9 7 10 6 11 5 12
REMARK SMILES IDX 4 13 3 14 2 15 1 16
REMARK H PARENT
REMARK Flexibility Score: inf
ROOT
ATOM      1  C   UNL     1       9.505  11.356  25.631  1.00  0.00     0.000 C 
ENDROOT
BRANCH   1   2
ATOM      2  C   UNL     1       9.329  10.980  24.148  1.00  0.00     0.000 C 
BRANCH   2   3
ATOM      3  C   UNL     1       9.181  12.206  23.231  1.00  0.00     0.000 C 
BRANCH   3   4
ATOM      4  C   UNL     1      10.514  12.648  22.601  1.00  0.00     0.000 C 
BRANCH   4   5
ATOM      5  C   UNL     1      10.890  14.125  22.825  1.00  0.00     0.006 C 
BRANCH   5   6
ATOM      6  C   UNL     1       9.861  15.100  22.239  1.00  0.00     0.053 C 
BRANCH   6   7
ATOM      7  C   UNL     1      10.021  15.199  20.755  1.00  0.00     0.041 C 
ATOM      8  O   UNL     1       9.030  15.468  20.026  1.00  0.00    -0.550 OA
ATOM      9  O   UNL     1      11.276  15.044  20.179  1.00  0.00    -0.550 OA
ENDBRANCH   6   7
ENDBRANCH   5   6
ENDBRANCH   4   5
ENDBRANCH   3   4
ENDBRANCH   2   3
ENDBRANCH   1   2
BRANCH   1  10
ATOM     10  C   UNL     1       8.223  11.313  26.481  1.00  0.00     0.000 C 
BRANCH  10  11
ATOM     11  C   UNL     1       8.469  11.663  27.959  1.00  0.00    -0.000 C 
BRANCH  11  12
ATOM     12  C   UNL     1       8.833  10.431  28.804  1.00  0.00    -0.000 C 
BRANCH  12  13
ATOM     13  C   UNL     1       8.130   9.152  28.324  1.00  0.00    -0.000 C 
BRANCH  13  14
ATOM     14  C   UNL     1       9.001   7.917  28.581  1.00  0.00    -0.000 C 
BRANCH  14  15
ATOM     15  C   UNL     1       8.955   6.954  27.388  1.00  0.00    -0.003 C 
ATOM     16  C   UNL     1       9.093   7.707  26.068  1.00  0.00     0.004 C 
ENDBRANCH  14  15
ENDBRANCH  13  14
ENDBRANCH  12  13
ENDBRANCH  11  12
ENDBRANCH  10  11
ENDBRANCH   1  10
TORSDOF 12
ENDMDL
MODEL 8
REMARK VINA RESULT:    -3.676      2.741      3.863
REMARK INTER + INTRA:          -7.567
REMARK INTER:                  -6.449
REMARK INTRA:                  -1.118
REMARK UNBOUND:                -1.313
REMARK SMILES CCCCCCCCCCCCCC(=O)[O-]
REMARK SMILES IDX 8 1 9 2 10 3 11 4 12 5 13 6 14 7 15 8 16 9 7 10 6 11 5 12
REMARK SMILES IDX 4 13 3 14 2 15 1 16
REMARK H PARENT
REMARK Flexibility Score: inf
ROOT
ATOM      1  C   UNL     1      10.130  13.610  22.075  1.00  0.00     0.000 C 
ENDROOT
BRANCH   1   2
ATOM      2  C   UNL     1      11.272  14.293  22.850  1.00  0.00     0.000 C 
BRANCH   2   3
ATOM      3  C   UNL     1      10.900  15.697  23.354  1.00  0.00     0.000 C 
BRANCH   3   4
ATOM      4  C   UNL     1       9.999  16.469  22.373  1.00  0.00     0.000 C 
BRANCH   4   5
ATOM      5  C   UNL     1      10.596  17.778  21.822  1.00  0.00     0.006 C 
BRANCH   5   6
ATOM      6  C   UNL     1       9.887  19.030  22.354  1.00  0.00     0.053 C 
BRANCH   6   7
ATOM      7  C   UNL     1      10.640  19.605  23.511  1.00  0.00     0.041 C 
ATOM      8  O   UNL     1      10.559  19.072  24.650  1.00  0.00    -0.550 OA
ATOM      9  O   UNL     1      11.474  20.700  23.323  1.00  0.00    -0.550 OA
ENDBRANCH   6   7
ENDBRANCH   5   6
ENDBRANCH   4   5
ENDBRANCH   3   4
ENDBRANCH   2   3
ENDBRANCH   1   2
BRANCH   1  10
ATOM     10  C   UNL     1       9.437  12.446  22.806  1.00  0.00     0.000 C 
BRANCH  10  11
ATOM     11  C   UNL     1       8.429  12.918  23.868  1.00  0.00    -0.000 C 
BRANCH  11  12
ATOM     12  C   UNL     1       8.926  12.677  25.302  1.00  0.00    -0.000 C 
BRANCH  12  13
ATOM     13  C   UNL     1       9.689  11.352  25.452  1.00  0.00    -0.000 C 
BRANCH  13  14
ATOM     14  C   UNL     1       8.902  10.360  26.315  1.00  0.00    -0.000 C 
BRANCH  14  15
ATOM     15  C   UNL     1       8.912   8.960  25.691  1.00  0.00    -0.003 C 
ATOM     16  C   UNL     1       9.503   8.989  24.284  1.00  0.00     0.004 C 
ENDBRANCH  14  15
ENDBRANCH  13  14
ENDBRANCH  12  13
ENDBRANCH  11  12
ENDBRANCH  10  11
ENDBRANCH   1  10
TORSDOF 12
ENDMDL
MODEL 9
REMARK VINA RESULT:    -3.668      3.526      6.567
REMARK INTER + INTRA:          -7.553
REMARK INTER:                  -6.546
REMARK INTRA:                  -1.007
REMARK UNBOUND:                -1.313
REMARK SMILES CCCCCCCCCCCCCC(=O)[O-]
REMARK SMILES IDX 8 1 9 2 10 3 11 4 12 5 13 6 14 7 15 8 16 9 7 10 6 11 5 12
REMARK SMILES IDX 4 13 3 14 2 15 1 16
REMARK H PARENT
REMARK Flexibility Score: inf
ROOT
ATOM      1  C   UNL     1      10.967  14.793  20.522  1.00  0.00     0.000 C 
ENDROOT
BRANCH   1   2
ATOM      2  C   UNL     1       9.942  13.944  21.297  1.00  0.00     0.000 C 
BRANCH   2   3
ATOM      3  C   UNL     1      10.591  13.036  22.356  1.00  0.00     0.000 C 
BRANCH   3   4
ATOM      4  C   UNL     1      10.432  13.576  23.789  1.00  0.00     0.000 C 
BRANCH   4   5
ATOM      5  C   UNL     1       9.286  12.950  24.604  1.00  0.00     0.006 C 
BRANCH   5   6
ATOM      6  C   UNL     1       8.795  11.618  24.023  1.00  0.00     0.053 C 
BRANCH   6   7
ATOM      7  C   UNL     1       9.528  10.474  24.648  1.00  0.00     0.041 C 
ATOM      8  O   UNL     1       9.893  10.535  25.852  1.00  0.00    -0.550 OA
ATOM      9  O   UNL     1       9.765   9.317  23.915  1.00  0.00    -0.550 OA
ENDBRANCH   6   7
ENDBRANCH   5   6
ENDBRANCH   4   5
ENDBRANCH   3   4
ENDBRANCH   2   3
ENDBRANCH   1   2
BRANCH   1  10
ATOM     10  C   UNL     1      10.910  16.307  20.793  1.00  0.00     0.000 C 
BRANCH  10  11
ATOM     11  C   UNL     1       9.900  16.684  21.891  1.00  0.00    -0.000 C 
BRANCH  11  12
ATOM     12  C   UNL     1      10.567  17.373  23.093  1.00  0.00    -0.000 C 
BRANCH  12  13
ATOM     13  C   UNL     1      11.465  18.549  22.682  1.00  0.00    -0.000 C 
BRANCH  13  14
ATOM     14  C   UNL     1      10.931  19.871  23.247  1.00  0.00    -0.000 C 
BRANCH  14  15
ATOM     15  C   UNL     1       9.401  19.850  23.343  1.00  0.00    -0.003 C 
ATOM     16  C   UNL     1       8.765  20.525  22.131  1.00  0.00     0.004 C 
ENDBRANCH  14  15
ENDBRANCH  13  14
ENDBRANCH  12  13
ENDBRANCH  11  12
ENDBRANCH  10  11
ENDBRANCH   1  10
TORSDOF 12
ENDMDL
