MODEL 1
REMARK VINA RESULT:    -3.548      0.000      0.000
REMARK INTER + INTRA:          -5.306
REMARK INTER:                  -5.000
REMARK INTRA:                  -0.306
REMARK UNBOUND:                -0.306
REMARK SMILES CCCCCCCCC(=O)[O-]
REMARK SMILES IDX 6 1 7 2 8 3 9 4 10 5 11 6 5 7 4 8 3 9 2 10 1 11
REMARK H PARENT
REMARK Flexibility Score: inf
ROOT
ATOM      1  C   UNL     1     -94.703 148.673 238.712  1.00  0.00     0.000 C 
ENDROOT
BRANCH   1   2
ATOM      2  C   UNL     1     -95.957 148.632 239.599  1.00  0.00     0.006 C 
BRANCH   2   3
ATOM      3  C   UNL     1     -95.734 149.323 240.950  1.00  0.00     0.053 C 
BRANCH   3   4
ATOM      4  C   UNL     1     -96.865 149.066 241.898  1.00  0.00     0.041 C 
ATOM      5  O   UNL     1     -97.663 149.991 242.201  1.00  0.00    -0.550 OA
ATOM      6  O   UNL     1     -97.017 147.809 242.472  1.00  0.00    -0.550 OA
ENDBRANCH   3   4
ENDBRANCH   2   3
ENDBRANCH   1   2
BRANCH   1   7
ATOM      7  C   UNL     1     -93.499 148.054 239.432  1.00  0.00     0.000 C 
BRANCH   7   8
ATOM      8  C   UNL     1     -93.421 146.541 239.170  1.00  0.00    -0.000 C 
BRANCH   8   9
ATOM      9  C   UNL     1     -91.974 146.031 239.080  1.00  0.00    -0.000 C 
BRANCH   9  10
ATOM     10  C   UNL     1     -91.582 145.614 237.655  1.00  0.00    -0.003 C 
ATOM     11  C   UNL     1     -92.705 145.912 236.666  1.00  0.00     0.004 C 
ENDBRANCH   9  10
ENDBRANCH   8   9
ENDBRANCH   7   8
ENDBRANCH   1   7
TORSDOF 7
ENDMDL
MODEL 2
REMARK VINA RESULT:    -3.542      1.480      2.137
REMARK INTER + INTRA:          -5.297
REMARK INTER:                  -4.997
REMARK INTRA:                  -0.299
REMARK UNBOUND:                -0.306
REMARK SMILES CCCCCCCCC(=O)[O-]
REMARK SMILES IDX 6 1 7 2 8 3 9 4 10 5 11 6 5 7 4 8 3 9 2 10 1 11
REMARK H PARENT
REMARK Flexibility Score: inf
ROOT
ATOM      1  C   UNL     1     -96.073 148.709 240.531  1.00  0.00     0.000 C 
ENDROOT
BRANCH   1   2
ATOM      2  C   UNL     1     -96.368 149.907 241.446  1.00  0.00     0.006 C 
BRANCH   2   3
ATOM      3  C   UNL     1     -97.850 149.984 241.840  1.00  0.00     0.053 C 
BRANCH   3   4
ATOM      4  C   UNL     1     -98.074 149.530 243.249  1.00  0.00     0.041 C 
ATOM      5  O   UNL     1     -98.593 150.307 244.092  1.00  0.00    -0.550 OA
ATOM      6  O   UNL     1     -97.679 148.256 243.639  1.00  0.00    -0.550 OA
ENDBRANCH   3   4
ENDBRANCH   2   3
ENDBRANCH   1   2
BRANCH   1   7
ATOM      7  C   UNL     1     -94.655 148.175 240.765  1.00  0.00     0.000 C 
BRANCH   7   8
ATOM      8  C   UNL     1     -94.686 146.700 241.194  1.00  0.00    -0.000 C 
BRANCH   8   9
ATOM      9  C   UNL     1     -93.702 145.830 240.397  1.00  0.00    -0.000 C 
BRANCH   9  10
ATOM     10  C   UNL     1     -93.156 146.544 239.152  1.00  0.00    -0.003 C 
ATOM     11  C   UNL     1     -91.835 145.928 238.700  1.00  0.00     0.004 C 
ENDBRANCH   9  10
ENDBRANCH   8   9
ENDBRANCH   7   8
ENDBRANCH   1   7
TORSDOF 7
ENDMDL
MODEL 3
REMARK VINA RESULT:    -3.541      1.443      2.493
REMARK INTER + INTRA:          -5.296
REMARK INTER:                  -4.539
REMARK INTRA:                  -0.757
REMARK UNBOUND:                -0.306
REMARK SMILES CCCCCCCCC(=O)[O-]
REMARK SMILES IDX 6 1 7 2 8 3 9 4 10 5 11 6 5 7 4 8 3 9 2 10 1 11
REMARK H PARENT
REMARK Flexibility Score: inf
ROOT
ATOM      1  C   UNL     1     -94.834 148.517 238.633  1.00  0.00     0.000 C 
ENDROOT
BRANCH   1   2
ATOM      2  C   UNL     1     -96.079 148.736 239.507  1.00  0.00     0.006 C 
BRANCH   2   3
ATOM      3  C   UNL     1     -95.721 149.255 240.906  1.00  0.00     0.053 C 
BRANCH   3   4
ATOM      4  C   UNL     1     -96.944 149.551 241.718  1.00  0.00     0.041 C 
ATOM      5  O   UNL     1     -97.206 148.869 242.743  1.00  0.00    -0.550 OA
ATOM      6  O   UNL     1     -97.812 150.561 241.322  1.00  0.00    -0.550 OA
ENDBRANCH   3   4
ENDBRANCH   2   3
ENDBRANCH   1   2
BRANCH   1   7
ATOM      7  C   UNL     1     -93.632 148.094 239.485  1.00  0.00     0.000 C 
BRANCH   7   8
ATOM      8  C   UNL     1     -93.248 146.632 239.208  1.00  0.00    -0.000 C 
BRANCH   8   9
ATOM      9  C   UNL     1     -93.573 145.701 240.386  1.00  0.00    -0.000 C 
BRANCH   9  10
ATOM     10  C   UNL     1     -94.999 145.136 240.318  1.00  0.00    -0.003 C 
ATOM     11  C   UNL     1     -95.833 145.607 241.507  1.00  0.00     0.004 C 
ENDBRANCH   9  10
ENDBRANCH   8   9
ENDBRANCH   7   8
ENDBRANCH   1   7
TORSDOF 7
ENDMDL
MODEL 4
REMARK VINA RESULT:    -3.532      0.860      1.594
REMARK INTER + INTRA:          -5.284
REMARK INTER:                  -4.842
REMARK INTRA:                  -0.442
REMARK UNBOUND:                -0.306
REMARK SMILES CCCCCCCCC(=O)[O-]
REMARK SMILES IDX 6 1 7 2 8 3 9 4 10 5 11 6 5 7 4 8 3 9 2 10 1 11
REMARK H PARENT
REMARK Flexibility Score: inf
ROOT
ATOM      1  C   UNL     1     -93.588 147.898 239.634  1.00  0.00     0.000 C 
ENDROOT
BRANCH   1   2
ATOM      2  C   UNL     1     -94.681 148.630 238.841  1.00  0.00     0.006 C 
BRANCH   2   3
ATOM      3  C   UNL     1     -96.074 148.427 239.450  1.00  0.00     0.053 C 
BRANCH   3   4
ATOM      4  C   UNL     1     -96.084 148.714 240.920  1.00  0.00     0.041 C 
ATOM      5  O   UNL     1     -95.939 149.892 241.338  1.00  0.00    -0.550 OA
ATOM      6  O   UNL     1     -96.222 147.673 241.830  1.00  0.00    -0.550 OA
ENDBRANCH   3   4
ENDBRANCH   2   3
ENDBRANCH   1   2
BRANCH   1   7
ATOM      7  C   UNL     1     -93.464 146.438 239.181  1.00  0.00     0.000 C 
BRANCH   7   8
ATOM      8  C   UNL     1     -91.995 146.061 238.934  1.00  0.00    -0.000 C 
BRANCH   8   9
ATOM      9  C   UNL     1     -91.728 145.639 237.481  1.00  0.00    -0.000 C 
BRANCH   9  10
ATOM     10  C   UNL     1     -92.909 145.948 236.549  1.00  0.00    -0.003 C 
ATOM     11  C   UNL     1     -92.441 146.108 235.105  1.00  0.00     0.004 C 
ENDBRANCH   9  10
ENDBRANCH   8   9
ENDBRANCH   7   8
ENDBRANCH   1   7
TORSDOF 7
ENDMDL
MODEL 5
REMARK VINA RESULT:    -3.528      2.703      5.606
REMARK INTER + INTRA:          -5.277
REMARK INTER:                  -4.837
REMARK INTRA:                  -0.439
REMARK UNBOUND:                -0.306
REMARK SMILES CCCCCCCCC(=O)[O-]
REMARK SMILES IDX 6 1 7 2 8 3 9 4 10 5 11 6 5 7 4 8 3 9 2 10 1 11
REMARK H PARENT
REMARK Flexibility Score: inf
ROOT
ATOM      1  C   UNL     1     -95.272 148.477 239.228  1.00  0.00     0.000 C 
ENDROOT
BRANCH   1   2
ATOM      2  C   UNL     1     -93.897 148.262 238.578  1.00  0.00     0.006 C 
BRANCH   2   3
ATOM      3  C   UNL     1     -93.655 146.793 238.205  1.00  0.00     0.053 C 
BRANCH   3   4
ATOM      4  C   UNL     1     -92.829 146.088 239.236  1.00  0.00     0.041 C 
ATOM      5  O   UNL     1     -91.579 146.015 239.107  1.00  0.00    -0.550 OA
ATOM      6  O   UNL     1     -93.445 145.482 240.324  1.00  0.00    -0.550 OA
ENDBRANCH   3   4
ENDBRANCH   2   3
ENDBRANCH   1   2
BRANCH   1   7
ATOM      7  C   UNL     1     -95.136 148.729 240.734  1.00  0.00     0.000 C 
BRANCH   7   8
ATOM      8  C   UNL     1     -96.082 147.818 241.533  1.00  0.00    -0.000 C 
BRANCH   8   9
ATOM      9  C   UNL     1     -97.262 148.586 242.148  1.00  0.00    -0.000 C 
BRANCH   9  10
ATOM     10  C   UNL     1     -97.344 150.038 241.656  1.00  0.00    -0.003 C 
ATOM     11  C   UNL     1     -98.638 150.284 240.886  1.00  0.00     0.004 C 
ENDBRANCH   9  10
ENDBRANCH   8   9
ENDBRANCH   7   8
ENDBRANCH   1   7
TORSDOF 7
ENDMDL
MODEL 6
REMARK VINA RESULT:    -3.478      1.694      2.743
REMARK INTER + INTRA:          -5.207
REMARK INTER:                  -4.479
REMARK INTRA:                  -0.728
REMARK UNBOUND:                -0.306
REMARK SMILES CCCCCCCCC(=O)[O-]
REMARK SMILES IDX 6 1 7 2 8 3 9 4 10 5 11 6 5 7 4 8 3 9 2 10 1 11
REMARK H PARENT
REMARK Flexibility Score: inf
ROOT
ATOM      1  C   UNL     1     -94.672 147.423 241.095  1.00  0.00     0.000 C 
ENDROOT
BRANCH   1   2
ATOM      2  C   UNL     1     -96.103 147.962 241.242  1.00  0.00     0.006 C 
BRANCH   2   3
ATOM      3  C   UNL     1     -96.148 149.496 241.243  1.00  0.00     0.053 C 
BRANCH   3   4
ATOM      4  C   UNL     1     -97.506 150.011 241.607  1.00  0.00     0.041 C 
ATOM      5  O   UNL     1     -97.916 149.938 242.795  1.00  0.00    -0.550 OA
ATOM      6  O   UNL     1     -98.332 150.545 240.625  1.00  0.00    -0.550 OA
ENDBRANCH   3   4
ENDBRANCH   2   3
ENDBRANCH   1   2
BRANCH   1   7
ATOM      7  C   UNL     1     -93.875 148.248 240.078  1.00  0.00     0.000 C 
BRANCH   7   8
ATOM      8  C   UNL     1     -93.431 147.379 238.891  1.00  0.00    -0.000 C 
BRANCH   8   9
ATOM      9  C   UNL     1     -94.351 147.530 237.670  1.00  0.00    -0.000 C 
BRANCH   9  10
ATOM     10  C   UNL     1     -95.039 148.903 237.614  1.00  0.00    -0.003 C 
ATOM     11  C   UNL     1     -96.554 148.754 237.510  1.00  0.00     0.004 C 
ENDBRANCH   9  10
ENDBRANCH   8   9
ENDBRANCH   7   8
ENDBRANCH   1   7
TORSDOF 7
ENDMDL
MODEL 7
REMARK VINA RESULT:    -3.477      2.839      6.427
REMARK INTER + INTRA:          -5.206
REMARK INTER:                  -4.924
REMARK INTRA:                  -0.282
REMARK UNBOUND:                -0.306
REMARK SMILES CCCCCCCCC(=O)[O-]
REMARK SMILES IDX 6 1 7 2 8 3 9 4 10 5 11 6 5 7 4 8 3 9 2 10 1 11
REMARK H PARENT
REMARK Flexibility Score: inf
ROOT
ATOM      1  C   UNL     1     -95.818 148.935 240.315  1.00  0.00     0.000 C 
ENDROOT
BRANCH   1   2
ATOM      2  C   UNL     1     -94.517 148.239 240.743  1.00  0.00     0.006 C 
BRANCH   2   3
ATOM      3  C   UNL     1     -93.665 147.813 239.540  1.00  0.00     0.053 C 
BRANCH   3   4
ATOM      4  C   UNL     1     -93.187 146.399 239.673  1.00  0.00     0.041 C 
ATOM      5  O   UNL     1     -93.808 145.585 240.405  1.00  0.00    -0.550 OA
ATOM      6  O   UNL     1     -92.035 145.991 239.012  1.00  0.00    -0.550 OA
ENDBRANCH   3   4
ENDBRANCH   2   3
ENDBRANCH   1   2
BRANCH   1   7
ATOM      7  C   UNL     1     -96.403 149.763 241.465  1.00  0.00     0.000 C 
BRANCH   7   8
ATOM      8  C   UNL     1     -97.837 150.213 241.146  1.00  0.00    -0.000 C 
BRANCH   8   9
ATOM      9  C   UNL     1     -98.810 149.960 242.308  1.00  0.00    -0.000 C 
BRANCH   9  10
ATOM     10  C   UNL     1     -98.106 149.420 243.562  1.00  0.00    -0.003 C 
ATOM     11  C   UNL     1     -98.511 150.212 244.802  1.00  0.00     0.004 C 
ENDBRANCH   9  10
ENDBRANCH   8   9
ENDBRANCH   7   8
ENDBRANCH   1   7
TORSDOF 7
ENDMDL
MODEL 8
REMARK VINA RESULT:    -3.454      3.626      6.120
REMARK INTER + INTRA:          -5.173
REMARK INTER:                  -4.816
REMARK INTRA:                  -0.357
REMARK UNBOUND:                -0.306
REMARK SMILES CCCCCCCCC(=O)[O-]
REMARK SMILES IDX 6 1 7 2 8 3 9 4 10 5 11 6 5 7 4 8 3 9 2 10 1 11
REMARK H PARENT
REMARK Flexibility Score: inf
ROOT
ATOM      1  C   UNL     1     -93.765 148.261 239.658  1.00  0.00     0.000 C 
ENDROOT
BRANCH   1   2
ATOM      2  C   UNL     1     -93.225 146.861 239.329  1.00  0.00     0.006 C 
BRANCH   2   3
ATOM      3  C   UNL     1     -93.517 146.454 237.878  1.00  0.00     0.053 C 
BRANCH   3   4
ATOM      4  C   UNL     1     -92.297 145.915 237.197  1.00  0.00     0.041 C 
ATOM      5  O   UNL     1     -92.240 145.867 235.941  1.00  0.00    -0.550 OA
ATOM      6  O   UNL     1     -91.235 145.434 237.954  1.00  0.00    -0.550 OA
ENDBRANCH   3   4
ENDBRANCH   2   3
ENDBRANCH   1   2
BRANCH   1   7
ATOM      7  C   UNL     1     -95.009 148.583 238.821  1.00  0.00     0.000 C 
BRANCH   7   8
ATOM      8  C   UNL     1     -96.254 148.712 239.712  1.00  0.00    -0.000 C 
BRANCH   8   9
ATOM      9  C   UNL     1     -95.931 149.281 241.101  1.00  0.00    -0.000 C 
BRANCH   9  10
ATOM     10  C   UNL     1     -97.157 149.902 241.787  1.00  0.00    -0.003 C 
ATOM     11  C   UNL     1     -98.267 150.181 240.777  1.00  0.00     0.004 C 
ENDBRANCH   9  10
ENDBRANCH   8   9
ENDBRANCH   7   8
ENDBRANCH   1   7
TORSDOF 7
ENDMDL
MODEL 9
REMARK VINA RESULT:    -3.357      2.910      5.007
REMARK INTER + INTRA:          -5.037
REMARK INTER:                  -4.313
REMARK INTRA:                  -0.724
REMARK UNBOUND:                -0.306
REMARK SMILES CCCCCCCCC(=O)[O-]
REMARK SMILES IDX 6 1 7 2 8 3 9 4 10 5 11 6 5 7 4 8 3 9 2 10 1 11
REMARK H PARENT
REMARK Flexibility Score: inf
ROOT
ATOM      1  C   UNL     1     -95.735 148.952 239.199  1.00  0.00     0.000 C 
ENDROOT
BRANCH   1   2
ATOM      2  C   UNL     1     -94.722 148.035 238.498  1.00  0.00     0.006 C 
BRANCH   2   3
ATOM      3  C   UNL     1     -93.456 147.820 239.338  1.00  0.00     0.053 C 
BRANCH   3   4
ATOM      4  C   UNL     1     -92.916 146.432 239.181  1.00  0.00     0.041 C 
ATOM      5  O   UNL     1     -93.124 145.565 240.071  1.00  0.00    -0.550 OA
ATOM      6  O   UNL     1     -92.154 146.104 238.066  1.00  0.00    -0.550 OA
ENDBRANCH   3   4
ENDBRANCH   2   3
ENDBRANCH   1   2
BRANCH   1   7
ATOM      7  C   UNL     1     -95.428 149.067 240.697  1.00  0.00     0.000 C 
BRANCH   7   8
ATOM      8  C   UNL     1     -96.723 149.112 241.522  1.00  0.00    -0.000 C 
BRANCH   8   9
ATOM      9  C   UNL     1     -97.011 147.786 242.243  1.00  0.00    -0.000 C 
BRANCH   9  10
ATOM     10  C   UNL     1     -95.957 146.710 241.947  1.00  0.00    -0.003 C 
ATOM     11  C   UNL     1     -96.530 145.611 241.057  1.00  0.00     0.004 C 
ENDBRANCH   9  10
ENDBRANCH   8   9
ENDBRANCH   7   8
ENDBRANCH   1   7
TORSDOF 7
ENDMDL
