MODEL 1
REMARK VINA RESULT:    -2.695      0.000      0.000
REMARK INTER + INTRA:          -3.287
REMARK INTER:                  -3.168
REMARK INTRA:                  -0.119
REMARK UNBOUND:                -0.119
REMARK SMILES CCCCC(=O)[O-]
REMARK SMILES IDX 4 1 5 2 6 3 7 4 3 5 2 6 1 7
REMARK H PARENT
REMARK Flexibility Score: inf
ROOT
ATOM      1  C   UNL     1      -8.727  20.709  16.292  1.00  0.00     0.053 C 
ENDROOT
BRANCH   1   2
ATOM      2  C   UNL     1      -8.044  21.568  17.312  1.00  0.00     0.041 C 
ATOM      3  O   UNL     1      -8.402  22.764  17.476  1.00  0.00    -0.550 OA
ATOM      4  O   UNL     1      -7.032  21.038  18.103  1.00  0.00    -0.550 OA
ENDBRANCH   1   2
BRANCH   1   5
ATOM      5  C   UNL     1      -7.757  20.236  15.198  1.00  0.00     0.006 C 
BRANCH   5   6
ATOM      6  C   UNL     1      -6.824  21.337  14.662  1.00  0.00    -0.003 C 
ATOM      7  C   UNL     1      -5.345  20.976  14.792  1.00  0.00     0.004 C 
ENDBRANCH   5   6
ENDBRANCH   1   5
TORSDOF 3
ENDMDL
MODEL 2
REMARK VINA RESULT:    -2.694      0.204      1.241
REMARK INTER + INTRA:          -3.285
REMARK INTER:                  -3.156
REMARK INTRA:                  -0.129
REMARK UNBOUND:                -0.119
REMARK SMILES CCCCC(=O)[O-]
REMARK SMILES IDX 4 1 5 2 6 3 7 4 3 5 2 6 1 7
REMARK H PARENT
REMARK Flexibility Score: inf
ROOT
ATOM      1  C   UNL     1      -8.820  20.705  16.447  1.00  0.00     0.053 C 
ENDROOT
BRANCH   1   2
ATOM      2  C   UNL     1      -8.093  21.585  17.417  1.00  0.00     0.041 C 
ATOM      3  O   UNL     1      -7.142  21.125  18.100  1.00  0.00    -0.550 OA
ATOM      4  O   UNL     1      -8.447  22.923  17.543  1.00  0.00    -0.550 OA
ENDBRANCH   1   2
BRANCH   1   5
ATOM      5  C   UNL     1      -7.882  20.144  15.366  1.00  0.00     0.006 C 
BRANCH   5   6
ATOM      6  C   UNL     1      -7.071  21.217  14.616  1.00  0.00    -0.003 C 
ATOM      7  C   UNL     1      -5.564  20.967  14.669  1.00  0.00     0.004 C 
ENDBRANCH   5   6
ENDBRANCH   1   5
TORSDOF 3
ENDMDL
MODEL 3
REMARK VINA RESULT:    -2.362      2.167      3.742
REMARK INTER + INTRA:          -2.895
REMARK INTER:                  -2.873
REMARK INTRA:                  -0.022
REMARK UNBOUND:                -0.119
REMARK SMILES CCCCC(=O)[O-]
REMARK SMILES IDX 4 1 5 2 6 3 7 4 3 5 2 6 1 7
REMARK H PARENT
REMARK Flexibility Score: inf
ROOT
ATOM      1  C   UNL     1      -7.392  21.652  15.948  1.00  0.00     0.053 C 
ENDROOT
BRANCH   1   2
ATOM      2  C   UNL     1      -6.139  20.860  15.737  1.00  0.00     0.041 C 
ATOM      3  O   UNL     1      -5.650  20.184  16.680  1.00  0.00    -0.550 OA
ATOM      4  O   UNL     1      -5.527  20.844  14.489  1.00  0.00    -0.550 OA
ENDBRANCH   1   2
BRANCH   1   5
ATOM      5  C   UNL     1      -7.847  21.628  17.416  1.00  0.00     0.006 C 
BRANCH   5   6
ATOM      6  C   UNL     1      -8.721  22.827  17.825  1.00  0.00    -0.003 C 
ATOM      7  C   UNL     1      -8.574  23.192  19.302  1.00  0.00     0.004 C 
ENDBRANCH   5   6
ENDBRANCH   1   5
TORSDOF 3
ENDMDL
MODEL 4
REMARK VINA RESULT:    -2.333      1.996      2.441
REMARK INTER + INTRA:          -2.861
REMARK INTER:                  -2.820
REMARK INTRA:                  -0.041
REMARK UNBOUND:                -0.119
REMARK SMILES CCCCC(=O)[O-]
REMARK SMILES IDX 4 1 5 2 6 3 7 4 3 5 2 6 1 7
REMARK H PARENT
REMARK Flexibility Score: inf
ROOT
ATOM      1  C   UNL     1      -6.254  20.091  17.265  1.00  0.00     0.053 C 
ENDROOT
BRANCH   1   2
ATOM      2  C   UNL     1      -5.602  20.415  18.574  1.00  0.00     0.041 C 
ATOM      3  O   UNL     1      -6.233  21.059  19.453  1.00  0.00    -0.550 OA
ATOM      4  O   UNL     1      -4.310  19.977  18.836  1.00  0.00    -0.550 OA
ENDBRANCH   1   2
BRANCH   1   5
ATOM      5  C   UNL     1      -7.184  21.219  16.792  1.00  0.00     0.006 C 
BRANCH   5   6
ATOM      6  C   UNL     1      -7.246  21.386  15.263  1.00  0.00    -0.003 C 
ATOM      7  C   UNL     1      -5.941  20.996  14.569  1.00  0.00     0.004 C 
ENDBRANCH   5   6
ENDBRANCH   1   5
TORSDOF 3
ENDMDL
MODEL 5
REMARK VINA RESULT:    -2.283      2.720      3.736
REMARK INTER + INTRA:          -2.803
REMARK INTER:                  -2.751
REMARK INTRA:                  -0.051
REMARK UNBOUND:                -0.119
REMARK SMILES CCCCC(=O)[O-]
REMARK SMILES IDX 4 1 5 2 6 3 7 4 3 5 2 6 1 7
REMARK H PARENT
REMARK Flexibility Score: inf
ROOT
ATOM      1  C   UNL     1      -9.125  23.114  19.566  1.00  0.00     0.053 C 
ENDROOT
BRANCH   1   2
ATOM      2  C   UNL     1      -8.040  23.010  20.594  1.00  0.00     0.041 C 
ATOM      3  O   UNL     1      -7.712  21.886  21.058  1.00  0.00    -0.550 OA
ATOM      4  O   UNL     1      -7.369  24.151  21.016  1.00  0.00    -0.550 OA
ENDBRANCH   1   2
BRANCH   1   5
ATOM      5  C   UNL     1      -8.564  23.101  18.136  1.00  0.00     0.006 C 
BRANCH   5   6
ATOM      6  C   UNL     1      -8.360  21.692  17.550  1.00  0.00    -0.003 C 
ATOM      7  C   UNL     1      -7.542  21.699  16.258  1.00  0.00     0.004 C 
ENDBRANCH   5   6
ENDBRANCH   1   5
TORSDOF 3
ENDMDL
MODEL 6
REMARK VINA RESULT:    -2.229      2.358      4.100
REMARK INTER + INTRA:          -2.739
REMARK INTER:                  -2.716
REMARK INTRA:                  -0.023
REMARK UNBOUND:                -0.119
REMARK SMILES CCCCC(=O)[O-]
REMARK SMILES IDX 4 1 5 2 6 3 7 4 3 5 2 6 1 7
REMARK H PARENT
REMARK Flexibility Score: inf
ROOT
ATOM      1  C   UNL     1      -8.393  22.089  17.284  1.00  0.00     0.053 C 
ENDROOT
BRANCH   1   2
ATOM      2  C   UNL     1      -7.360  21.380  16.462  1.00  0.00     0.041 C 
ATOM      3  O   UNL     1      -6.468  20.691  17.023  1.00  0.00    -0.550 OA
ATOM      4  O   UNL     1      -7.403  21.454  15.076  1.00  0.00    -0.550 OA
ENDBRANCH   1   2
BRANCH   1   5
ATOM      5  C   UNL     1      -8.039  22.085  18.779  1.00  0.00     0.006 C 
BRANCH   5   6
ATOM      6  C   UNL     1      -8.517  23.332  19.544  1.00  0.00    -0.003 C 
ATOM      7  C   UNL     1      -7.706  23.600  20.812  1.00  0.00     0.004 C 
ENDBRANCH   5   6
ENDBRANCH   1   5
TORSDOF 3
ENDMDL
MODEL 7
REMARK VINA RESULT:    -2.145      3.669      5.495
REMARK INTER + INTRA:          -2.640
REMARK INTER:                  -2.592
REMARK INTRA:                  -0.048
REMARK UNBOUND:                -0.119
REMARK SMILES CCCCC(=O)[O-]
REMARK SMILES IDX 4 1 5 2 6 3 7 4 3 5 2 6 1 7
REMARK H PARENT
REMARK Flexibility Score: inf
ROOT
ATOM      1  C   UNL     1      -8.846  23.262  19.742  1.00  0.00     0.053 C 
ENDROOT
BRANCH   1   2
ATOM      2  C   UNL     1      -8.254  22.462  18.622  1.00  0.00     0.041 C 
ATOM      3  O   UNL     1      -8.428  22.819  17.427  1.00  0.00    -0.550 OA
ATOM      4  O   UNL     1      -7.483  21.341  18.900  1.00  0.00    -0.550 OA
ENDBRANCH   1   2
BRANCH   1   5
ATOM      5  C   UNL     1      -7.950  23.254  20.990  1.00  0.00     0.006 C 
BRANCH   5   6
ATOM      6  C   UNL     1      -8.546  22.494  22.189  1.00  0.00    -0.003 C 
ATOM      7  C   UNL     1      -7.856  22.835  23.510  1.00  0.00     0.004 C 
ENDBRANCH   5   6
ENDBRANCH   1   5
TORSDOF 3
ENDMDL
MODEL 8
REMARK VINA RESULT:    -2.124      4.916      6.039
REMARK INTER + INTRA:          -2.615
REMARK INTER:                  -2.599
REMARK INTRA:                  -0.016
REMARK UNBOUND:                -0.119
REMARK SMILES CCCCC(=O)[O-]
REMARK SMILES IDX 4 1 5 2 6 3 7 4 3 5 2 6 1 7
REMARK H PARENT
REMARK Flexibility Score: inf
ROOT
ATOM      1  C   UNL     1      -9.032  22.498  22.042  1.00  0.00     0.053 C 
ENDROOT
BRANCH   1   2
ATOM      2  C   UNL     1      -8.493  22.319  23.428  1.00  0.00     0.041 C 
ATOM      3  O   UNL     1      -9.007  22.944  24.393  1.00  0.00    -0.550 OA
ATOM      4  O   UNL     1      -7.444  21.439  23.659  1.00  0.00    -0.550 OA
ENDBRANCH   1   2
BRANCH   1   5
ATOM      5  C   UNL     1      -7.924  22.842  21.034  1.00  0.00     0.006 C 
BRANCH   5   6
ATOM      6  C   UNL     1      -8.424  23.551  19.763  1.00  0.00    -0.003 C 
ATOM      7  C   UNL     1      -8.523  22.614  18.560  1.00  0.00     0.004 C 
ENDBRANCH   5   6
ENDBRANCH   1   5
TORSDOF 3
ENDMDL
MODEL 9
REMARK VINA RESULT:    -2.013      5.007      6.670
REMARK INTER + INTRA:          -2.485
REMARK INTER:                  -2.394
REMARK INTRA:                  -0.091
REMARK UNBOUND:                -0.119
REMARK SMILES CCCCC(=O)[O-]
REMARK SMILES IDX 4 1 5 2 6 3 7 4 3 5 2 6 1 7
REMARK H PARENT
REMARK Flexibility Score: inf
ROOT
ATOM      1  C   UNL     1      -8.903  22.455  21.940  1.00  0.00     0.053 C 
ENDROOT
BRANCH   1   2
ATOM      2  C   UNL     1      -8.008  22.711  20.766  1.00  0.00     0.041 C 
ATOM      3  O   UNL     1      -7.253  21.801  20.335  1.00  0.00    -0.550 OA
ATOM      4  O   UNL     1      -8.031  23.946  20.130  1.00  0.00    -0.550 OA
ENDBRANCH   1   2
BRANCH   1   5
ATOM      5  C   UNL     1      -8.107  22.298  23.245  1.00  0.00     0.006 C 
BRANCH   5   6
ATOM      6  C   UNL     1      -8.130  20.875  23.831  1.00  0.00    -0.003 C 
ATOM      7  C   UNL     1      -6.755  20.207  23.820  1.00  0.00     0.004 C 
ENDBRANCH   5   6
ENDBRANCH   1   5
TORSDOF 3
ENDMDL
