MODEL 1
REMARK VINA RESULT:    -4.081      0.000      0.000
REMARK INTER + INTRA:          -9.078
REMARK INTER:                  -7.421
REMARK INTRA:                  -1.656
REMARK UNBOUND:                -1.656
REMARK SMILES CCCCCCCCCCCCCCCC(=O)[O-]
REMARK SMILES IDX 9 1 10 2 11 3 12 4 13 5 14 6 15 7 16 8 17 9 18 10 8 11 7 12
REMARK SMILES IDX 6 13 5 14 4 15 3 16 2 17 1 18
REMARK H PARENT
REMARK Flexibility Score: inf
ROOT
ATOM      1  C   UNL     1      14.747  17.989  23.856  1.00  0.00     0.000 C 
ENDROOT
BRANCH   1   2
ATOM      2  C   UNL     1      14.889  18.735  25.192  1.00  0.00     0.000 C 
BRANCH   2   3
ATOM      3  C   UNL     1      14.856  17.755  26.373  1.00  0.00     0.000 C 
BRANCH   3   4
ATOM      4  C   UNL     1      13.511  17.768  27.124  1.00  0.00     0.000 C 
BRANCH   4   5
ATOM      5  C   UNL     1      13.019  19.161  27.564  1.00  0.00     0.000 C 
BRANCH   5   6
ATOM      6  C   UNL     1      11.799  19.157  28.501  1.00  0.00     0.006 C 
BRANCH   6   7
ATOM      7  C   UNL     1      12.129  19.666  29.910  1.00  0.00     0.053 C 
BRANCH   7   8
ATOM      8  C   UNL     1      12.620  21.077  29.854  1.00  0.00     0.041 C 
ATOM      9  O   UNL     1      11.868  21.995  29.430  1.00  0.00    -0.550 OA
ATOM     10  O   UNL     1      13.893  21.389  30.314  1.00  0.00    -0.550 OA
ENDBRANCH   7   8
ENDBRANCH   6   7
ENDBRANCH   5   6
ENDBRANCH   4   5
ENDBRANCH   3   4
ENDBRANCH   2   3
ENDBRANCH   1   2
BRANCH   1  11
ATOM     11  C   UNL     1      14.100  18.853  22.762  1.00  0.00     0.000 C 
BRANCH  11  12
ATOM     12  C   UNL     1      14.865  18.795  21.431  1.00  0.00    -0.000 C 
BRANCH  12  13
ATOM     13  C   UNL     1      16.151  17.971  21.571  1.00  0.00    -0.000 C 
BRANCH  13  14
ATOM     14  C   UNL     1      17.375  18.778  21.113  1.00  0.00    -0.000 C 
BRANCH  14  15
ATOM     15  C   UNL     1      17.341  20.232  21.607  1.00  0.00    -0.000 C 
BRANCH  15  16
ATOM     16  C   UNL     1      17.730  20.362  23.090  1.00  0.00    -0.000 C 
BRANCH  16  17
ATOM     17  C   UNL     1      17.094  21.591  23.760  1.00  0.00    -0.003 C 
ATOM     18  C   UNL     1      15.857  22.094  23.018  1.00  0.00     0.004 C 
ENDBRANCH  16  17
ENDBRANCH  15  16
ENDBRANCH  14  15
ENDBRANCH  13  14
ENDBRANCH  12  13
ENDBRANCH  11  12
ENDBRANCH   1  11
TORSDOF 14
ENDMDL
MODEL 2
REMARK VINA RESULT:    -4.049      3.066      5.539
REMARK INTER + INTRA:          -9.020
REMARK INTER:                  -6.710
REMARK INTRA:                  -2.309
REMARK UNBOUND:                -1.656
REMARK SMILES CCCCCCCCCCCCCCCC(=O)[O-]
REMARK SMILES IDX 9 1 10 2 11 3 12 4 13 5 14 6 15 7 16 8 17 9 18 10 8 11 7 12
REMARK SMILES IDX 6 13 5 14 4 15 3 16 2 17 1 18
REMARK H PARENT
REMARK Flexibility Score: inf
ROOT
ATOM      1  C   UNL     1      16.820  22.010  23.769  1.00  0.00     0.000 C 
ENDROOT
BRANCH   1   2
ATOM      2  C   UNL     1      17.345  21.131  22.622  1.00  0.00     0.000 C 
BRANCH   2   3
ATOM      3  C   UNL     1      16.219  20.781  21.640  1.00  0.00     0.000 C 
BRANCH   3   4
ATOM      4  C   UNL     1      15.653  19.365  21.857  1.00  0.00     0.000 C 
BRANCH   4   5
ATOM      5  C   UNL     1      14.178  19.309  22.303  1.00  0.00     0.000 C 
BRANCH   5   6
ATOM      6  C   UNL     1      13.954  19.363  23.825  1.00  0.00     0.006 C 
BRANCH   6   7
ATOM      7  C   UNL     1      15.161  18.857  24.623  1.00  0.00     0.053 C 
BRANCH   7   8
ATOM      8  C   UNL     1      14.709  18.101  25.831  1.00  0.00     0.041 C 
ATOM      9  O   UNL     1      13.480  17.971  26.075  1.00  0.00    -0.550 OA
ATOM     10  O   UNL     1      15.643  17.495  26.663  1.00  0.00    -0.550 OA
ENDBRANCH   7   8
ENDBRANCH   6   7
ENDBRANCH   5   6
ENDBRANCH   4   5
ENDBRANCH   3   4
ENDBRANCH   2   3
ENDBRANCH   1   2
BRANCH   1  11
ATOM     11  C   UNL     1      15.701  22.962  23.320  1.00  0.00     0.000 C 
BRANCH  11  12
ATOM     12  C   UNL     1      14.489  22.940  24.265  1.00  0.00    -0.000 C 
BRANCH  12  13
ATOM     13  C   UNL     1      13.269  23.600  23.609  1.00  0.00    -0.000 C 
BRANCH  13  14
ATOM     14  C   UNL     1      12.676  22.698  22.517  1.00  0.00    -0.000 C 
BRANCH  14  15
ATOM     15  C   UNL     1      12.214  23.490  21.284  1.00  0.00    -0.000 C 
BRANCH  15  16
ATOM     16  C   UNL     1      12.137  22.620  20.017  1.00  0.00    -0.000 C 
BRANCH  16  17
ATOM     17  C   UNL     1      13.519  22.139  19.549  1.00  0.00    -0.003 C 
ATOM     18  C   UNL     1      14.444  23.290  19.158  1.00  0.00     0.004 C 
ENDBRANCH  16  17
ENDBRANCH  15  16
ENDBRANCH  14  15
ENDBRANCH  13  14
ENDBRANCH  12  13
ENDBRANCH  11  12
ENDBRANCH   1  11
TORSDOF 14
ENDMDL
MODEL 3
REMARK VINA RESULT:    -4.049      3.502      8.060
REMARK INTER + INTRA:          -9.019
REMARK INTER:                  -7.795
REMARK INTRA:                  -1.224
REMARK UNBOUND:                -1.656
REMARK SMILES CCCCCCCCCCCCCCCC(=O)[O-]
REMARK SMILES IDX 9 1 10 2 11 3 12 4 13 5 14 6 15 7 16 8 17 9 18 10 8 11 7 12
REMARK SMILES IDX 6 13 5 14 4 15 3 16 2 17 1 18
REMARK H PARENT
REMARK Flexibility Score: inf
ROOT
ATOM      1  C   UNL     1      12.695  18.049  27.029  1.00  0.00     0.000 C 
ENDROOT
BRANCH   1   2
ATOM      2  C   UNL     1      13.863  17.081  26.787  1.00  0.00     0.000 C 
BRANCH   2   3
ATOM      3  C   UNL     1      15.120  17.840  26.339  1.00  0.00     0.000 C 
BRANCH   3   4
ATOM      4  C   UNL     1      14.850  18.813  25.176  1.00  0.00     0.000 C 
BRANCH   4   5
ATOM      5  C   UNL     1      14.924  18.187  23.768  1.00  0.00     0.000 C 
BRANCH   5   6
ATOM      6  C   UNL     1      15.572  19.076  22.692  1.00  0.00     0.006 C 
BRANCH   6   7
ATOM      7  C   UNL     1      15.898  20.485  23.201  1.00  0.00     0.053 C 
BRANCH   7   8
ATOM      8  C   UNL     1      17.343  20.799  22.980  1.00  0.00     0.041 C 
ATOM      9  O   UNL     1      17.805  21.925  23.303  1.00  0.00    -0.550 OA
ATOM     10  O   UNL     1      18.194  19.830  22.462  1.00  0.00    -0.550 OA
ENDBRANCH   7   8
ENDBRANCH   6   7
ENDBRANCH   5   6
ENDBRANCH   4   5
ENDBRANCH   3   4
ENDBRANCH   2   3
ENDBRANCH   1   2
BRANCH   1  11
ATOM     11  C   UNL     1      11.523  17.389  27.771  1.00  0.00     0.000 C 
BRANCH  11  12
ATOM     12  C   UNL     1      11.945  16.132  28.547  1.00  0.00    -0.000 C 
BRANCH  12  13
ATOM     13  C   UNL     1      10.867  15.723  29.559  1.00  0.00    -0.000 C 
BRANCH  13  14
ATOM     14  C   UNL     1      11.461  15.584  30.969  1.00  0.00    -0.000 C 
BRANCH  14  15
ATOM     15  C   UNL     1      11.933  16.927  31.546  1.00  0.00    -0.000 C 
BRANCH  15  16
ATOM     16  C   UNL     1      10.763  17.852  31.924  1.00  0.00    -0.000 C 
BRANCH  16  17
ATOM     17  C   UNL     1      10.570  18.998  30.917  1.00  0.00    -0.003 C 
ATOM     18  C   UNL     1      11.882  19.692  30.554  1.00  0.00     0.004 C 
ENDBRANCH  16  17
ENDBRANCH  15  16
ENDBRANCH  14  15
ENDBRANCH  13  14
ENDBRANCH  12  13
ENDBRANCH  11  12
ENDBRANCH   1  11
TORSDOF 14
ENDMDL
MODEL 4
REMARK VINA RESULT:    -4.046      2.998      3.880
REMARK INTER + INTRA:          -9.013
REMARK INTER:                  -7.830
REMARK INTRA:                  -1.183
REMARK UNBOUND:                -1.656
REMARK SMILES CCCCCCCCCCCCCCCC(=O)[O-]
REMARK SMILES IDX 9 1 10 2 11 3 12 4 13 5 14 6 15 7 16 8 17 9 18 10 8 11 7 12
REMARK SMILES IDX 6 13 5 14 4 15 3 16 2 17 1 18
REMARK H PARENT
REMARK Flexibility Score: inf
ROOT
ATOM      1  C   UNL     1      15.059  18.114  25.030  1.00  0.00     0.000 C 
ENDROOT
BRANCH   1   2
ATOM      2  C   UNL     1      14.759  17.783  26.500  1.00  0.00     0.000 C 
BRANCH   2   3
ATOM      3  C   UNL     1      13.256  17.895  26.792  1.00  0.00     0.000 C 
BRANCH   3   4
ATOM      4  C   UNL     1      12.690  16.655  27.509  1.00  0.00     0.000 C 
BRANCH   4   5
ATOM      5  C   UNL     1      11.821  16.954  28.747  1.00  0.00     0.000 C 
BRANCH   5   6
ATOM      6  C   UNL     1      11.823  15.857  29.826  1.00  0.00     0.006 C 
BRANCH   6   7
ATOM      7  C   UNL     1      11.924  16.421  31.249  1.00  0.00     0.053 C 
BRANCH   7   8
ATOM      8  C   UNL     1      10.691  16.094  32.029  1.00  0.00     0.041 C 
ATOM      9  O   UNL     1      10.307  14.899  32.136  1.00  0.00    -0.550 OA
ATOM     10  O   UNL     1       9.992  17.103  32.679  1.00  0.00    -0.550 OA
ENDBRANCH   7   8
ENDBRANCH   6   7
ENDBRANCH   5   6
ENDBRANCH   4   5
ENDBRANCH   3   4
ENDBRANCH   2   3
ENDBRANCH   1   2
BRANCH   1  11
ATOM     11  C   UNL     1      14.536  19.498  24.616  1.00  0.00     0.000 C 
BRANCH  11  12
ATOM     12  C   UNL     1      15.630  20.387  24.003  1.00  0.00    -0.000 C 
BRANCH  12  13
ATOM     13  C   UNL     1      15.277  20.777  22.562  1.00  0.00    -0.000 C 
BRANCH  13  14
ATOM     14  C   UNL     1      16.408  20.395  21.596  1.00  0.00    -0.000 C 
BRANCH  14  15
ATOM     15  C   UNL     1      17.116  19.093  22.000  1.00  0.00    -0.000 C 
BRANCH  15  16
ATOM     16  C   UNL     1      16.829  17.936  21.026  1.00  0.00    -0.000 C 
BRANCH  16  17
ATOM     17  C   UNL     1      15.854  16.902  21.612  1.00  0.00    -0.003 C 
ATOM     18  C   UNL     1      14.394  17.218  21.291  1.00  0.00     0.004 C 
ENDBRANCH  16  17
ENDBRANCH  15  16
ENDBRANCH  14  15
ENDBRANCH  13  14
ENDBRANCH  12  13
ENDBRANCH  11  12
ENDBRANCH   1  11
TORSDOF 14
ENDMDL
MODEL 5
REMARK VINA RESULT:    -4.039      5.489      7.894
REMARK INTER + INTRA:          -9.002
REMARK INTER:                  -7.010
REMARK INTRA:                  -1.992
REMARK UNBOUND:                -1.656
REMARK SMILES CCCCCCCCCCCCCCCC(=O)[O-]
REMARK SMILES IDX 9 1 10 2 11 3 12 4 13 5 14 6 15 7 16 8 17 9 18 10 8 11 7 12
REMARK SMILES IDX 6 13 5 14 4 15 3 16 2 17 1 18
REMARK H PARENT
REMARK Flexibility Score: inf
ROOT
ATOM      1  C   UNL     1       9.842  21.261  31.293  1.00  0.00     0.000 C 
ENDROOT
BRANCH   1   2
ATOM      2  C   UNL     1       9.946  19.737  31.127  1.00  0.00     0.000 C 
BRANCH   2   3
ATOM      3  C   UNL     1       9.703  19.022  32.463  1.00  0.00     0.000 C 
BRANCH   3   4
ATOM      4  C   UNL     1      10.686  17.863  32.710  1.00  0.00     0.000 C 
BRANCH   4   5
ATOM      5  C   UNL     1      11.628  17.541  31.533  1.00  0.00     0.000 C 
BRANCH   5   6
ATOM      6  C   UNL     1      11.830  16.042  31.249  1.00  0.00     0.006 C 
BRANCH   6   7
ATOM      7  C   UNL     1      10.740  15.455  30.344  1.00  0.00     0.053 C 
BRANCH   7   8
ATOM      8  C   UNL     1      10.067  14.302  31.018  1.00  0.00     0.041 C 
ATOM      9  O   UNL     1       9.807  13.253  30.371  1.00  0.00    -0.550 OA
ATOM     10  O   UNL     1       9.769  14.365  32.373  1.00  0.00    -0.550 OA
ENDBRANCH   7   8
ENDBRANCH   6   7
ENDBRANCH   5   6
ENDBRANCH   4   5
ENDBRANCH   3   4
ENDBRANCH   2   3
ENDBRANCH   1   2
BRANCH   1  11
ATOM     11  C   UNL     1      11.049  22.005  30.699  1.00  0.00     0.000 C 
BRANCH  11  12
ATOM     12  C   UNL     1      12.387  21.521  31.277  1.00  0.00    -0.000 C 
BRANCH  12  13
ATOM     13  C   UNL     1      13.357  21.122  30.157  1.00  0.00    -0.000 C 
BRANCH  13  14
ATOM     14  C   UNL     1      12.658  21.147  28.789  1.00  0.00    -0.000 C 
BRANCH  14  15
ATOM     15  C   UNL     1      12.998  19.919  27.930  1.00  0.00    -0.000 C 
BRANCH  15  16
ATOM     16  C   UNL     1      12.069  18.725  28.211  1.00  0.00    -0.000 C 
BRANCH  16  17
ATOM     17  C   UNL     1      12.040  17.716  27.052  1.00  0.00    -0.003 C 
ATOM     18  C   UNL     1      12.766  16.414  27.385  1.00  0.00     0.004 C 
ENDBRANCH  16  17
ENDBRANCH  15  16
ENDBRANCH  14  15
ENDBRANCH  13  14
ENDBRANCH  12  13
ENDBRANCH  11  12
ENDBRANCH   1  11
TORSDOF 14
ENDMDL
MODEL 6
REMARK VINA RESULT:    -4.022      4.994      7.285
REMARK INTER + INTRA:          -8.971
REMARK INTER:                  -6.975
REMARK INTRA:                  -1.996
REMARK UNBOUND:                -1.656
REMARK SMILES CCCCCCCCCCCCCCCC(=O)[O-]
REMARK SMILES IDX 9 1 10 2 11 3 12 4 13 5 14 6 15 7 16 8 17 9 18 10 8 11 7 12
REMARK SMILES IDX 6 13 5 14 4 15 3 16 2 17 1 18
REMARK H PARENT
REMARK Flexibility Score: inf
ROOT
ATOM      1  C   UNL     1      13.115  20.310  23.386  1.00  0.00     0.000 C 
ENDROOT
BRANCH   1   2
ATOM      2  C   UNL     1      13.141  21.561  22.494  1.00  0.00     0.000 C 
BRANCH   2   3
ATOM      3  C   UNL     1      13.789  21.252  21.137  1.00  0.00     0.000 C 
BRANCH   3   4
ATOM      4  C   UNL     1      14.566  22.449  20.558  1.00  0.00     0.000 C 
BRANCH   4   5
ATOM      5  C   UNL     1      14.026  22.998  19.223  1.00  0.00     0.000 C 
BRANCH   5   6
ATOM      6  C   UNL     1      12.769  23.878  19.340  1.00  0.00     0.006 C 
BRANCH   6   7
ATOM      7  C   UNL     1      11.494  23.160  18.879  1.00  0.00     0.053 C 
BRANCH   7   8
ATOM      8  C   UNL     1      10.405  24.149  18.613  1.00  0.00     0.041 C 
ATOM      9  O   UNL     1       9.594  24.461  19.525  1.00  0.00    -0.550 OA
ATOM     10  O   UNL     1      10.313  24.764  17.370  1.00  0.00    -0.550 OA
ENDBRANCH   7   8
ENDBRANCH   6   7
ENDBRANCH   5   6
ENDBRANCH   4   5
ENDBRANCH   3   4
ENDBRANCH   2   3
ENDBRANCH   1   2
BRANCH   1  11
ATOM     11  C   UNL     1      14.186  20.345  24.487  1.00  0.00     0.000 C 
BRANCH  11  12
ATOM     12  C   UNL     1      15.189  19.187  24.377  1.00  0.00    -0.000 C 
BRANCH  12  13
ATOM     13  C   UNL     1      16.145  19.399  23.196  1.00  0.00    -0.000 C 
BRANCH  13  14
ATOM     14  C   UNL     1      17.327  20.294  23.599  1.00  0.00    -0.000 C 
BRANCH  14  15
ATOM     15  C   UNL     1      17.212  21.715  23.029  1.00  0.00    -0.000 C 
BRANCH  15  16
ATOM     16  C   UNL     1      17.089  22.785  24.127  1.00  0.00    -0.000 C 
BRANCH  16  17
ATOM     17  C   UNL     1      15.925  23.757  23.874  1.00  0.00    -0.003 C 
ATOM     18  C   UNL     1      15.009  23.911  25.087  1.00  0.00     0.004 C 
ENDBRANCH  16  17
ENDBRANCH  15  16
ENDBRANCH  14  15
ENDBRANCH  13  14
ENDBRANCH  12  13
ENDBRANCH  11  12
ENDBRANCH   1  11
TORSDOF 14
ENDMDL
MODEL 7
REMARK VINA RESULT:    -4.003      2.255      4.082
REMARK INTER + INTRA:          -8.936
REMARK INTER:                  -7.129
REMARK INTRA:                  -1.807
REMARK UNBOUND:                -1.656
REMARK SMILES CCCCCCCCCCCCCCCC(=O)[O-]
REMARK SMILES IDX 9 1 10 2 11 3 12 4 13 5 14 6 15 7 16 8 17 9 18 10 8 11 7 12
REMARK SMILES IDX 6 13 5 14 4 15 3 16 2 17 1 18
REMARK H PARENT
REMARK Flexibility Score: inf
ROOT
ATOM      1  C   UNL     1      15.977  19.278  21.521  1.00  0.00     0.000 C 
ENDROOT
BRANCH   1   2
ATOM      2  C   UNL     1      16.022  17.743  21.462  1.00  0.00     0.000 C 
BRANCH   2   3
ATOM      3  C   UNL     1      15.018  17.127  22.446  1.00  0.00     0.000 C 
BRANCH   3   4
ATOM      4  C   UNL     1      14.436  18.158  23.432  1.00  0.00     0.000 C 
BRANCH   4   5
ATOM      5  C   UNL     1      15.033  18.113  24.853  1.00  0.00     0.000 C 
BRANCH   5   6
ATOM      6  C   UNL     1      14.041  18.428  25.987  1.00  0.00     0.006 C 
BRANCH   6   7
ATOM      7  C   UNL     1      13.014  17.311  26.207  1.00  0.00     0.053 C 
BRANCH   7   8
ATOM      8  C   UNL     1      12.414  17.415  27.573  1.00  0.00     0.041 C 
ATOM      9  O   UNL     1      11.970  18.517  27.989  1.00  0.00    -0.550 OA
ATOM     10  O   UNL     1      12.300  16.283  28.370  1.00  0.00    -0.550 OA
ENDBRANCH   7   8
ENDBRANCH   6   7
ENDBRANCH   5   6
ENDBRANCH   4   5
ENDBRANCH   3   4
ENDBRANCH   2   3
ENDBRANCH   1   2
BRANCH   1  11
ATOM     11  C   UNL     1      17.334  19.896  21.891  1.00  0.00     0.000 C 
BRANCH  11  12
ATOM     12  C   UNL     1      17.360  20.459  23.319  1.00  0.00    -0.000 C 
BRANCH  12  13
ATOM     13  C   UNL     1      16.681  21.834  23.380  1.00  0.00    -0.000 C 
BRANCH  13  14
ATOM     14  C   UNL     1      15.277  21.727  23.995  1.00  0.00    -0.000 C 
BRANCH  14  15
ATOM     15  C   UNL     1      14.167  22.083  22.995  1.00  0.00    -0.000 C 
BRANCH  15  16
ATOM     16  C   UNL     1      14.709  22.768  21.728  1.00  0.00    -0.000 C 
BRANCH  16  17
ATOM     17  C   UNL     1      14.057  22.230  20.444  1.00  0.00    -0.003 C 
ATOM     18  C   UNL     1      14.459  23.022  19.201  1.00  0.00     0.004 C 
ENDBRANCH  16  17
ENDBRANCH  15  16
ENDBRANCH  14  15
ENDBRANCH  13  14
ENDBRANCH  12  13
ENDBRANCH  11  12
ENDBRANCH   1  11
TORSDOF 14
ENDMDL
MODEL 8
REMARK VINA RESULT:    -3.986      2.197      2.656
REMARK INTER + INTRA:          -8.904
REMARK INTER:                  -7.595
REMARK INTRA:                  -1.308
REMARK UNBOUND:                -1.656
REMARK SMILES CCCCCCCCCCCCCCCC(=O)[O-]
REMARK SMILES IDX 9 1 10 2 11 3 12 4 13 5 14 6 15 7 16 8 17 9 18 10 8 11 7 12
REMARK SMILES IDX 6 13 5 14 4 15 3 16 2 17 1 18
REMARK H PARENT
REMARK Flexibility Score: inf
ROOT
ATOM      1  C   UNL     1      15.168  18.563  25.059  1.00  0.00     0.000 C 
ENDROOT
BRANCH   1   2
ATOM      2  C   UNL     1      14.832  17.836  26.370  1.00  0.00     0.000 C 
BRANCH   2   3
ATOM      3  C   UNL     1      13.352  18.020  26.735  1.00  0.00     0.000 C 
BRANCH   3   4
ATOM      4  C   UNL     1      12.590  16.686  26.837  1.00  0.00     0.000 C 
BRANCH   4   5
ATOM      5  C   UNL     1      12.196  16.265  28.267  1.00  0.00     0.000 C 
BRANCH   5   6
ATOM      6  C   UNL     1      11.081  17.106  28.912  1.00  0.00     0.006 C 
BRANCH   6   7
ATOM      7  C   UNL     1      11.593  18.008  30.042  1.00  0.00     0.053 C 
BRANCH   7   8
ATOM      8  C   UNL     1      11.342  17.373  31.372  1.00  0.00     0.041 C 
ATOM      9  O   UNL     1      12.083  16.439  31.780  1.00  0.00    -0.550 OA
ATOM     10  O   UNL     1      10.319  17.843  32.185  1.00  0.00    -0.550 OA
ENDBRANCH   7   8
ENDBRANCH   6   7
ENDBRANCH   5   6
ENDBRANCH   4   5
ENDBRANCH   3   4
ENDBRANCH   2   3
ENDBRANCH   1   2
BRANCH   1  11
ATOM     11  C   UNL     1      14.412  17.988  23.851  1.00  0.00     0.000 C 
BRANCH  11  12
ATOM     12  C   UNL     1      14.726  18.733  22.545  1.00  0.00    -0.000 C 
BRANCH  12  13
ATOM     13  C   UNL     1      16.240  18.808  22.306  1.00  0.00    -0.000 C 
BRANCH  13  14
ATOM     14  C   UNL     1      16.648  20.198  21.795  1.00  0.00    -0.000 C 
BRANCH  14  15
ATOM     15  C   UNL     1      17.732  20.852  22.665  1.00  0.00    -0.000 C 
BRANCH  15  16
ATOM     16  C   UNL     1      17.159  21.893  23.642  1.00  0.00    -0.000 C 
BRANCH  16  17
ATOM     17  C   UNL     1      15.757  22.373  23.234  1.00  0.00    -0.003 C 
ATOM     18  C   UNL     1      14.703  22.093  24.305  1.00  0.00     0.004 C 
ENDBRANCH  16  17
ENDBRANCH  15  16
ENDBRANCH  14  15
ENDBRANCH  13  14
ENDBRANCH  12  13
ENDBRANCH  11  12
ENDBRANCH   1  11
TORSDOF 14
ENDMDL
MODEL 9
REMARK VINA RESULT:    -3.974      3.262      8.172
REMARK INTER + INTRA:          -8.882
REMARK INTER:                  -7.416
REMARK INTRA:                  -1.466
REMARK UNBOUND:                -1.656
REMARK SMILES CCCCCCCCCCCCCCCC(=O)[O-]
REMARK SMILES IDX 9 1 10 2 11 3 12 4 13 5 14 6 15 7 16 8 17 9 18 10 8 11 7 12
REMARK SMILES IDX 6 13 5 14 4 15 3 16 2 17 1 18
REMARK H PARENT
REMARK Flexibility Score: inf
ROOT
ATOM      1  C   UNL     1      11.746  16.641  29.058  1.00  0.00     0.000 C 
ENDROOT
BRANCH   1   2
ATOM      2  C   UNL     1      12.389  16.204  27.732  1.00  0.00     0.000 C 
BRANCH   2   3
ATOM      3  C   UNL     1      11.823  17.011  26.556  1.00  0.00     0.000 C 
BRANCH   3   4
ATOM      4  C   UNL     1      12.603  18.312  26.292  1.00  0.00     0.000 C 
BRANCH   4   5
ATOM      5  C   UNL     1      14.015  18.366  26.908  1.00  0.00     0.000 C 
BRANCH   5   6
ATOM      6  C   UNL     1      15.159  17.978  25.953  1.00  0.00     0.006 C 
BRANCH   6   7
ATOM      7  C   UNL     1      14.852  18.314  24.489  1.00  0.00     0.053 C 
BRANCH   7   8
ATOM      8  C   UNL     1      15.453  19.632  24.118  1.00  0.00     0.041 C 
ATOM      9  O   UNL     1      16.538  19.677  23.480  1.00  0.00    -0.550 OA
ATOM     10  O   UNL     1      14.792  20.812  24.435  1.00  0.00    -0.550 OA
ENDBRANCH   7   8
ENDBRANCH   6   7
ENDBRANCH   5   6
ENDBRANCH   4   5
ENDBRANCH   3   4
ENDBRANCH   2   3
ENDBRANCH   1   2
BRANCH   1  11
ATOM     11  C   UNL     1      10.973  15.505  29.744  1.00  0.00     0.000 C 
BRANCH  11  12
ATOM     12  C   UNL     1      11.135  15.515  31.272  1.00  0.00    -0.000 C 
BRANCH  12  13
ATOM     13  C   UNL     1      11.636  16.879  31.762  1.00  0.00    -0.000 C 
BRANCH  13  14
ATOM     14  C   UNL     1      10.694  17.462  32.827  1.00  0.00    -0.000 C 
BRANCH  14  15
ATOM     15  C   UNL     1      10.351  18.936  32.568  1.00  0.00    -0.000 C 
BRANCH  15  16
ATOM     16  C   UNL     1      10.498  19.327  31.087  1.00  0.00    -0.000 C 
BRANCH  16  17
ATOM     17  C   UNL     1      11.482  20.489  30.879  1.00  0.00    -0.003 C 
ATOM     18  C   UNL     1      12.505  20.207  29.780  1.00  0.00     0.004 C 
ENDBRANCH  16  17
ENDBRANCH  15  16
ENDBRANCH  14  15
ENDBRANCH  13  14
ENDBRANCH  12  13
ENDBRANCH  11  12
ENDBRANCH   1  11
TORSDOF 14
ENDMDL
