MODEL 1
REMARK VINA RESULT:    -2.672      0.000      0.000
REMARK INTER + INTRA:          -6.453
REMARK INTER:                  -4.547
REMARK INTRA:                  -1.907
REMARK UNBOUND:                -1.907
REMARK SMILES CCCCCCCCCCCCCC(=O)[O-]
REMARK SMILES IDX 8 1 9 2 10 3 11 4 12 5 13 6 14 7 15 8 16 9 7 10 6 11 5 12
REMARK SMILES IDX 4 13 3 14 2 15 1 16
REMARK H PARENT
REMARK Flexibility Score: inf
ROOT
ATOM      1  C   UNL     1      23.544  27.943  48.146  1.00  0.00     0.000 C 
ENDROOT
BRANCH   1   2
ATOM      2  C   UNL     1      23.190  27.938  46.651  1.00  0.00     0.000 C 
BRANCH   2   3
ATOM      3  C   UNL     1      23.424  29.319  46.026  1.00  0.00     0.000 C 
BRANCH   3   4
ATOM      4  C   UNL     1      24.114  30.264  47.021  1.00  0.00     0.000 C 
BRANCH   4   5
ATOM      5  C   UNL     1      24.394  31.659  46.434  1.00  0.00     0.006 C 
BRANCH   5   6
ATOM      6  C   UNL     1      23.879  31.847  44.996  1.00  0.00     0.053 C 
BRANCH   6   7
ATOM      7  C   UNL     1      24.966  32.239  44.042  1.00  0.00     0.041 C 
ATOM      8  O   UNL     1      24.770  33.156  43.202  1.00  0.00    -0.550 OA
ATOM      9  O   UNL     1      26.207  31.618  44.104  1.00  0.00    -0.550 OA
ENDBRANCH   6   7
ENDBRANCH   5   6
ENDBRANCH   4   5
ENDBRANCH   3   4
ENDBRANCH   2   3
ENDBRANCH   1   2
BRANCH   1  10
ATOM     10  C   UNL     1      22.485  27.240  49.010  1.00  0.00     0.000 C 
BRANCH  10  11
ATOM     11  C   UNL     1      22.263  27.942  50.362  1.00  0.00    -0.000 C 
BRANCH  11  12
ATOM     12  C   UNL     1      22.652  29.429  50.326  1.00  0.00    -0.000 C 
BRANCH  12  13
ATOM     13  C   UNL     1      21.427  30.358  50.246  1.00  0.00    -0.000 C 
BRANCH  13  14
ATOM     14  C   UNL     1      21.562  31.417  49.139  1.00  0.00    -0.000 C 
BRANCH  14  15
ATOM     15  C   UNL     1      20.403  31.377  48.133  1.00  0.00    -0.003 C 
ATOM     16  C   UNL     1      20.147  29.953  47.646  1.00  0.00     0.004 C 
ENDBRANCH  14  15
ENDBRANCH  13  14
ENDBRANCH  12  13
ENDBRANCH  11  12
ENDBRANCH  10  11
ENDBRANCH   1  10
TORSDOF 12
ENDMDL
MODEL 2
REMARK VINA RESULT:    -2.661      1.474      3.258
REMARK INTER + INTRA:          -6.433
REMARK INTER:                  -5.220
REMARK INTRA:                  -1.213
REMARK UNBOUND:                -1.907
REMARK SMILES CCCCCCCCCCCCCC(=O)[O-]
REMARK SMILES IDX 8 1 9 2 10 3 11 4 12 5 13 6 14 7 15 8 16 9 7 10 6 11 5 12
REMARK SMILES IDX 4 13 3 14 2 15 1 16
REMARK H PARENT
REMARK Flexibility Score: inf
ROOT
ATOM      1  C   UNL     1      22.257  30.248  48.404  1.00  0.00     0.000 C 
ENDROOT
BRANCH   1   2
ATOM      2  C   UNL     1      23.703  29.868  48.051  1.00  0.00     0.000 C 
BRANCH   2   3
ATOM      3  C   UNL     1      23.986  30.108  46.563  1.00  0.00     0.000 C 
BRANCH   3   4
ATOM      4  C   UNL     1      24.263  31.593  46.287  1.00  0.00     0.000 C 
BRANCH   4   5
ATOM      5  C   UNL     1      25.562  31.828  45.494  1.00  0.00     0.006 C 
BRANCH   5   6
ATOM      6  C   UNL     1      25.334  32.312  44.051  1.00  0.00     0.053 C 
BRANCH   6   7
ATOM      7  C   UNL     1      26.035  31.457  43.040  1.00  0.00     0.041 C 
ATOM      8  O   UNL     1      26.661  30.428  43.407  1.00  0.00    -0.550 OA
ATOM      9  O   UNL     1      25.967  31.774  41.689  1.00  0.00    -0.550 OA
ENDBRANCH   6   7
ENDBRANCH   5   6
ENDBRANCH   4   5
ENDBRANCH   3   4
ENDBRANCH   2   3
ENDBRANCH   1   2
BRANCH   1  10
ATOM     10  C   UNL     1      22.032  30.389  49.918  1.00  0.00     0.000 C 
BRANCH  10  11
ATOM     11  C   UNL     1      22.306  29.081  50.681  1.00  0.00    -0.000 C 
BRANCH  11  12
ATOM     12  C   UNL     1      21.368  27.940  50.254  1.00  0.00    -0.000 C 
BRANCH  12  13
ATOM     13  C   UNL     1      22.121  26.623  49.994  1.00  0.00    -0.000 C 
BRANCH  13  14
ATOM     14  C   UNL     1      23.614  26.718  50.346  1.00  0.00    -0.000 C 
BRANCH  14  15
ATOM     15  C   UNL     1      24.527  26.472  49.137  1.00  0.00    -0.003 C 
ATOM     16  C   UNL     1      23.712  26.117  47.897  1.00  0.00     0.004 C 
ENDBRANCH  14  15
ENDBRANCH  13  14
ENDBRANCH  12  13
ENDBRANCH  11  12
ENDBRANCH  10  11
ENDBRANCH   1  10
TORSDOF 12
ENDMDL
MODEL 3
REMARK VINA RESULT:    -2.627      3.698      5.988
REMARK INTER + INTRA:          -6.377
REMARK INTER:                  -4.189
REMARK INTRA:                  -2.187
REMARK UNBOUND:                -1.907
REMARK SMILES CCCCCCCCCCCCCC(=O)[O-]
REMARK SMILES IDX 8 1 9 2 10 3 11 4 12 5 13 6 14 7 15 8 16 9 7 10 6 11 5 12
REMARK SMILES IDX 4 13 3 14 2 15 1 16
REMARK H PARENT
REMARK Flexibility Score: inf
ROOT
ATOM      1  C   UNL     1      20.605  31.405  47.359  1.00  0.00     0.000 C 
ENDROOT
BRANCH   1   2
ATOM      2  C   UNL     1      20.500  30.516  48.608  1.00  0.00     0.000 C 
BRANCH   2   3
ATOM      3  C   UNL     1      21.178  31.181  49.813  1.00  0.00     0.000 C 
BRANCH   3   4
ATOM      4  C   UNL     1      22.158  30.214  50.496  1.00  0.00     0.000 C 
BRANCH   4   5
ATOM      5  C   UNL     1      21.816  28.734  50.250  1.00  0.00     0.006 C 
BRANCH   5   6
ATOM      6  C   UNL     1      22.987  27.771  50.510  1.00  0.00     0.053 C 
BRANCH   6   7
ATOM      7  C   UNL     1      22.600  26.333  50.334  1.00  0.00     0.041 C 
ATOM      8  O   UNL     1      21.420  26.031  50.016  1.00  0.00    -0.550 OA
ATOM      9  O   UNL     1      23.550  25.331  50.487  1.00  0.00    -0.550 OA
ENDBRANCH   6   7
ENDBRANCH   5   6
ENDBRANCH   4   5
ENDBRANCH   3   4
ENDBRANCH   2   3
ENDBRANCH   1   2
BRANCH   1  10
ATOM     10  C   UNL     1      21.893  32.243  47.332  1.00  0.00     0.000 C 
BRANCH  10  11
ATOM     11  C   UNL     1      22.859  31.808  46.215  1.00  0.00    -0.000 C 
BRANCH  11  12
ATOM     12  C   UNL     1      24.152  31.184  46.764  1.00  0.00    -0.000 C 
BRANCH  12  13
ATOM     13  C   UNL     1      23.947  29.740  47.257  1.00  0.00    -0.000 C 
BRANCH  13  14
ATOM     14  C   UNL     1      23.226  28.861  46.222  1.00  0.00    -0.000 C 
BRANCH  14  15
ATOM     15  C   UNL     1      22.756  27.521  46.806  1.00  0.00    -0.003 C 
ATOM     16  C   UNL     1      21.233  27.417  46.785  1.00  0.00     0.004 C 
ENDBRANCH  14  15
ENDBRANCH  13  14
ENDBRANCH  12  13
ENDBRANCH  11  12
ENDBRANCH  10  11
ENDBRANCH   1  10
TORSDOF 12
ENDMDL
MODEL 4
REMARK VINA RESULT:    -2.620      1.050      3.117
REMARK INTER + INTRA:          -6.364
REMARK INTER:                  -4.839
REMARK INTRA:                  -1.525
REMARK UNBOUND:                -1.907
REMARK SMILES CCCCCCCCCCCCCC(=O)[O-]
REMARK SMILES IDX 8 1 9 2 10 3 11 4 12 5 13 6 14 7 15 8 16 9 7 10 6 11 5 12
REMARK SMILES IDX 4 13 3 14 2 15 1 16
REMARK H PARENT
REMARK Flexibility Score: inf
ROOT
ATOM      1  C   UNL     1      20.577  31.008  48.511  1.00  0.00     0.000 C 
ENDROOT
BRANCH   1   2
ATOM      2  C   UNL     1      21.030  31.797  47.273  1.00  0.00     0.000 C 
BRANCH   2   3
ATOM      3  C   UNL     1      22.545  32.035  47.298  1.00  0.00     0.000 C 
BRANCH   3   4
ATOM      4  C   UNL     1      23.311  30.704  47.360  1.00  0.00     0.000 C 
BRANCH   4   5
ATOM      5  C   UNL     1      24.257  30.497  46.163  1.00  0.00     0.006 C 
BRANCH   5   6
ATOM      6  C   UNL     1      25.114  31.729  45.823  1.00  0.00     0.053 C 
BRANCH   6   7
ATOM      7  C   UNL     1      24.973  32.151  44.392  1.00  0.00     0.041 C 
ATOM      8  O   UNL     1      25.975  32.145  43.629  1.00  0.00    -0.550 OA
ATOM      9  O   UNL     1      23.730  32.515  43.890  1.00  0.00    -0.550 OA
ENDBRANCH   6   7
ENDBRANCH   5   6
ENDBRANCH   4   5
ENDBRANCH   3   4
ENDBRANCH   2   3
ENDBRANCH   1   2
BRANCH   1  10
ATOM     10  C   UNL     1      20.720  31.811  49.813  1.00  0.00     0.000 C 
BRANCH  10  11
ATOM     11  C   UNL     1      21.612  31.105  50.850  1.00  0.00    -0.000 C 
BRANCH  11  12
ATOM     12  C   UNL     1      21.417  29.580  50.854  1.00  0.00    -0.000 C 
BRANCH  12  13
ATOM     13  C   UNL     1      22.728  28.816  50.598  1.00  0.00    -0.000 C 
BRANCH  13  14
ATOM     14  C   UNL     1      22.489  27.419  50.003  1.00  0.00    -0.000 C 
BRANCH  14  15
ATOM     15  C   UNL     1      21.896  27.469  48.588  1.00  0.00    -0.003 C 
ATOM     16  C   UNL     1      22.910  26.999  47.549  1.00  0.00     0.004 C 
ENDBRANCH  14  15
ENDBRANCH  13  14
ENDBRANCH  12  13
ENDBRANCH  11  12
ENDBRANCH  10  11
ENDBRANCH   1  10
TORSDOF 12
ENDMDL
MODEL 5
REMARK VINA RESULT:    -2.579      1.109      2.127
REMARK INTER + INTRA:          -6.294
REMARK INTER:                  -4.307
REMARK INTRA:                  -1.987
REMARK UNBOUND:                -1.907
REMARK SMILES CCCCCCCCCCCCCC(=O)[O-]
REMARK SMILES IDX 8 1 9 2 10 3 11 4 12 5 13 6 14 7 15 8 16 9 7 10 6 11 5 12
REMARK SMILES IDX 4 13 3 14 2 15 1 16
REMARK H PARENT
REMARK Flexibility Score: inf
ROOT
ATOM      1  C   UNL     1      21.596  28.064  49.540  1.00  0.00     0.000 C 
ENDROOT
BRANCH   1   2
ATOM      2  C   UNL     1      23.120  28.181  49.700  1.00  0.00     0.000 C 
BRANCH   2   3
ATOM      3  C   UNL     1      23.759  28.780  48.442  1.00  0.00     0.000 C 
BRANCH   3   4
ATOM      4  C   UNL     1      22.941  28.433  47.189  1.00  0.00     0.000 C 
BRANCH   4   5
ATOM      5  C   UNL     1      23.349  29.256  45.954  1.00  0.00     0.006 C 
BRANCH   5   6
ATOM      6  C   UNL     1      24.200  30.495  46.282  1.00  0.00     0.053 C 
BRANCH   6   7
ATOM      7  C   UNL     1      24.479  31.339  45.075  1.00  0.00     0.041 C 
ATOM      8  O   UNL     1      23.631  32.183  44.684  1.00  0.00    -0.550 OA
ATOM      9  O   UNL     1      25.689  31.218  44.403  1.00  0.00    -0.550 OA
ENDBRANCH   6   7
ENDBRANCH   5   6
ENDBRANCH   4   5
ENDBRANCH   3   4
ENDBRANCH   2   3
ENDBRANCH   1   2
BRANCH   1  10
ATOM     10  C   UNL     1      20.823  28.819  50.633  1.00  0.00     0.000 C 
BRANCH  10  11
ATOM     11  C   UNL     1      21.498  30.146  51.026  1.00  0.00    -0.000 C 
BRANCH  11  12
ATOM     12  C   UNL     1      20.508  31.321  51.068  1.00  0.00    -0.000 C 
BRANCH  12  13
ATOM     13  C   UNL     1      20.782  32.363  49.968  1.00  0.00    -0.000 C 
BRANCH  13  14
ATOM     14  C   UNL     1      21.591  31.784  48.797  1.00  0.00    -0.000 C 
BRANCH  14  15
ATOM     15  C   UNL     1      20.806  31.779  47.477  1.00  0.00    -0.003 C 
ATOM     16  C   UNL     1      19.900  30.555  47.380  1.00  0.00     0.004 C 
ENDBRANCH  14  15
ENDBRANCH  13  14
ENDBRANCH  12  13
ENDBRANCH  11  12
ENDBRANCH  10  11
ENDBRANCH   1  10
TORSDOF 12
ENDMDL
MODEL 6
REMARK VINA RESULT:    -2.558      1.368      1.901
REMARK INTER + INTRA:          -6.259
REMARK INTER:                  -4.553
REMARK INTRA:                  -1.707
REMARK UNBOUND:                -1.907
REMARK SMILES CCCCCCCCCCCCCC(=O)[O-]
REMARK SMILES IDX 8 1 9 2 10 3 11 4 12 5 13 6 14 7 15 8 16 9 7 10 6 11 5 12
REMARK SMILES IDX 4 13 3 14 2 15 1 16
REMARK H PARENT
REMARK Flexibility Score: inf
ROOT
ATOM      1  C   UNL     1      21.169  27.201  47.700  1.00  0.00     0.000 C 
ENDROOT
BRANCH   1   2
ATOM      2  C   UNL     1      22.194  28.001  46.881  1.00  0.00     0.000 C 
BRANCH   2   3
ATOM      3  C   UNL     1      23.534  28.095  47.620  1.00  0.00     0.000 C 
BRANCH   3   4
ATOM      4  C   UNL     1      23.863  29.552  47.980  1.00  0.00     0.000 C 
BRANCH   4   5
ATOM      5  C   UNL     1      23.276  30.567  46.984  1.00  0.00     0.006 C 
BRANCH   5   6
ATOM      6  C   UNL     1      24.279  31.638  46.519  1.00  0.00     0.053 C 
BRANCH   6   7
ATOM      7  C   UNL     1      24.978  31.259  45.248  1.00  0.00     0.041 C 
ATOM      8  O   UNL     1      24.624  30.230  44.615  1.00  0.00    -0.550 OA
ATOM      9  O   UNL     1      25.994  32.061  44.744  1.00  0.00    -0.550 OA
ENDBRANCH   6   7
ENDBRANCH   5   6
ENDBRANCH   4   5
ENDBRANCH   3   4
ENDBRANCH   2   3
ENDBRANCH   1   2
BRANCH   1  10
ATOM     10  C   UNL     1      20.335  28.088  48.639  1.00  0.00     0.000 C 
BRANCH  10  11
ATOM     11  C   UNL     1      20.598  27.787  50.125  1.00  0.00    -0.000 C 
BRANCH  11  12
ATOM     12  C   UNL     1      21.606  28.762  50.755  1.00  0.00    -0.000 C 
BRANCH  12  13
ATOM     13  C   UNL     1      20.968  30.113  51.124  1.00  0.00    -0.000 C 
BRANCH  13  14
ATOM     14  C   UNL     1      21.514  31.273  50.276  1.00  0.00    -0.000 C 
BRANCH  14  15
ATOM     15  C   UNL     1      20.408  32.042  49.539  1.00  0.00    -0.003 C 
ATOM     16  C   UNL     1      20.999  33.045  48.553  1.00  0.00     0.004 C 
ENDBRANCH  14  15
ENDBRANCH  13  14
ENDBRANCH  12  13
ENDBRANCH  11  12
ENDBRANCH  10  11
ENDBRANCH   1  10
TORSDOF 12
ENDMDL
MODEL 7
REMARK VINA RESULT:    -2.555      1.627      3.014
REMARK INTER + INTRA:          -6.254
REMARK INTER:                  -4.832
REMARK INTRA:                  -1.422
REMARK UNBOUND:                -1.907
REMARK SMILES CCCCCCCCCCCCCC(=O)[O-]
REMARK SMILES IDX 8 1 9 2 10 3 11 4 12 5 13 6 14 7 15 8 16 9 7 10 6 11 5 12
REMARK SMILES IDX 4 13 3 14 2 15 1 16
REMARK H PARENT
REMARK Flexibility Score: inf
ROOT
ATOM      1  C   UNL     1      21.693  30.013  47.172  1.00  0.00     0.000 C 
ENDROOT
BRANCH   1   2
ATOM      2  C   UNL     1      23.121  30.192  47.709  1.00  0.00     0.000 C 
BRANCH   2   3
ATOM      3  C   UNL     1      24.136  30.241  46.560  1.00  0.00     0.000 C 
BRANCH   3   4
ATOM      4  C   UNL     1      24.595  31.682  46.291  1.00  0.00     0.000 C 
BRANCH   4   5
ATOM      5  C   UNL     1      24.927  31.944  44.811  1.00  0.00     0.006 C 
BRANCH   5   6
ATOM      6  C   UNL     1      24.450  30.833  43.858  1.00  0.00     0.053 C 
BRANCH   6   7
ATOM      7  C   UNL     1      25.516  30.404  42.895  1.00  0.00     0.041 C 
ATOM      8  O   UNL     1      26.716  30.334  43.270  1.00  0.00    -0.550 OA
ATOM      9  O   UNL     1      25.180  30.047  41.596  1.00  0.00    -0.550 OA
ENDBRANCH   6   7
ENDBRANCH   5   6
ENDBRANCH   4   5
ENDBRANCH   3   4
ENDBRANCH   2   3
ENDBRANCH   1   2
BRANCH   1  10
ATOM     10  C   UNL     1      20.767  31.183  47.544  1.00  0.00     0.000 C 
BRANCH  10  11
ATOM     11  C   UNL     1      21.466  32.234  48.425  1.00  0.00    -0.000 C 
BRANCH  11  12
ATOM     12  C   UNL     1      20.789  32.400  49.795  1.00  0.00    -0.000 C 
BRANCH  12  13
ATOM     13  C   UNL     1      21.321  31.403  50.841  1.00  0.00    -0.000 C 
BRANCH  13  14
ATOM     14  C   UNL     1      20.329  30.263  51.125  1.00  0.00    -0.000 C 
BRANCH  14  15
ATOM     15  C   UNL     1      20.889  28.882  50.753  1.00  0.00    -0.003 C 
ATOM     16  C   UNL     1      22.414  28.877  50.800  1.00  0.00     0.004 C 
ENDBRANCH  14  15
ENDBRANCH  13  14
ENDBRANCH  12  13
ENDBRANCH  11  12
ENDBRANCH  10  11
ENDBRANCH   1  10
TORSDOF 12
ENDMDL
MODEL 8
REMARK VINA RESULT:    -2.542      1.699      3.471
REMARK INTER + INTRA:          -6.232
REMARK INTER:                  -4.037
REMARK INTRA:                  -2.196
REMARK UNBOUND:                -1.907
REMARK SMILES CCCCCCCCCCCCCC(=O)[O-]
REMARK SMILES IDX 8 1 9 2 10 3 11 4 12 5 13 6 14 7 15 8 16 9 7 10 6 11 5 12
REMARK SMILES IDX 4 13 3 14 2 15 1 16
REMARK H PARENT
REMARK Flexibility Score: inf
ROOT
ATOM      1  C   UNL     1      20.678  32.916  48.622  1.00  0.00     0.000 C 
ENDROOT
BRANCH   1   2
ATOM      2  C   UNL     1      20.250  32.170  47.349  1.00  0.00     0.000 C 
BRANCH   2   3
ATOM      3  C   UNL     1      21.473  31.740  46.529  1.00  0.00     0.000 C 
BRANCH   3   4
ATOM      4  C   UNL     1      22.750  31.778  47.381  1.00  0.00     0.000 C 
BRANCH   4   5
ATOM      5  C   UNL     1      23.662  30.559  47.157  1.00  0.00     0.006 C 
BRANCH   5   6
ATOM      6  C   UNL     1      23.224  29.657  45.989  1.00  0.00     0.053 C 
BRANCH   6   7
ATOM      7  C   UNL     1      24.076  29.842  44.769  1.00  0.00     0.041 C 
ATOM      8  O   UNL     1      23.880  29.132  43.748  1.00  0.00    -0.550 OA
ATOM      9  O   UNL     1      25.060  30.822  44.746  1.00  0.00    -0.550 OA
ENDBRANCH   6   7
ENDBRANCH   5   6
ENDBRANCH   4   5
ENDBRANCH   3   4
ENDBRANCH   2   3
ENDBRANCH   1   2
BRANCH   1  10
ATOM     10  C   UNL     1      19.702  32.704  49.791  1.00  0.00     0.000 C 
BRANCH  10  11
ATOM     11  C   UNL     1      20.009  31.427  50.594  1.00  0.00    -0.000 C 
BRANCH  11  12
ATOM     12  C   UNL     1      21.478  31.348  51.040  1.00  0.00    -0.000 C 
BRANCH  12  13
ATOM     13  C   UNL     1      22.142  30.015  50.651  1.00  0.00    -0.000 C 
BRANCH  13  14
ATOM     14  C   UNL     1      21.115  28.911  50.353  1.00  0.00    -0.000 C 
BRANCH  14  15
ATOM     15  C   UNL     1      21.319  28.266  48.974  1.00  0.00    -0.003 C 
ATOM     16  C   UNL     1      20.136  28.552  48.053  1.00  0.00     0.004 C 
ENDBRANCH  14  15
ENDBRANCH  13  14
ENDBRANCH  12  13
ENDBRANCH  11  12
ENDBRANCH  10  11
ENDBRANCH   1  10
TORSDOF 12
ENDMDL
MODEL 9
REMARK VINA RESULT:    -2.511      3.957      5.711
REMARK INTER + INTRA:          -6.178
REMARK INTER:                  -4.474
REMARK INTRA:                  -1.704
REMARK UNBOUND:                -1.907
REMARK SMILES CCCCCCCCCCCCCC(=O)[O-]
REMARK SMILES IDX 8 1 9 2 10 3 11 4 12 5 13 6 14 7 15 8 16 9 7 10 6 11 5 12
REMARK SMILES IDX 4 13 3 14 2 15 1 16
REMARK H PARENT
REMARK Flexibility Score: inf
ROOT
ATOM      1  C   UNL     1      22.169  29.909  51.015  1.00  0.00     0.000 C 
ENDROOT
BRANCH   1   2
ATOM      2  C   UNL     1      22.736  28.571  50.516  1.00  0.00     0.000 C 
BRANCH   2   3
ATOM      3  C   UNL     1      21.686  27.798  49.709  1.00  0.00     0.000 C 
BRANCH   3   4
ATOM      4  C   UNL     1      22.351  26.924  48.634  1.00  0.00     0.000 C 
BRANCH   4   5
ATOM      5  C   UNL     1      23.888  26.937  48.712  1.00  0.00     0.006 C 
BRANCH   5   6
ATOM      6  C   UNL     1      24.529  25.540  48.633  1.00  0.00     0.053 C 
BRANCH   6   7
ATOM      7  C   UNL     1      25.004  25.049  49.967  1.00  0.00     0.041 C 
ATOM      8  O   UNL     1      25.731  24.024  50.041  1.00  0.00    -0.550 OA
ATOM      9  O   UNL     1      24.675  25.743  51.125  1.00  0.00    -0.550 OA
ENDBRANCH   6   7
ENDBRANCH   5   6
ENDBRANCH   4   5
ENDBRANCH   3   4
ENDBRANCH   2   3
ENDBRANCH   1   2
BRANCH   1  10
ATOM     10  C   UNL     1      20.650  30.026  50.809  1.00  0.00     0.000 C 
BRANCH  10  11
ATOM     11  C   UNL     1      20.137  31.465  50.992  1.00  0.00    -0.000 C 
BRANCH  11  12
ATOM     12  C   UNL     1      20.792  32.455  50.014  1.00  0.00    -0.000 C 
BRANCH  12  13
ATOM     13  C   UNL     1      20.653  32.012  48.546  1.00  0.00    -0.000 C 
BRANCH  13  14
ATOM     14  C   UNL     1      22.006  31.951  47.819  1.00  0.00    -0.000 C 
BRANCH  14  15
ATOM     15  C   UNL     1      22.299  30.565  47.225  1.00  0.00    -0.003 C 
ATOM     16  C   UNL     1      23.790  30.246  47.285  1.00  0.00     0.004 C 
ENDBRANCH  14  15
ENDBRANCH  13  14
ENDBRANCH  12  13
ENDBRANCH  11  12
ENDBRANCH  10  11
ENDBRANCH   1  10
TORSDOF 12
ENDMDL
