MODEL 1
REMARK VINA RESULT:    -3.811      0.000      0.000
REMARK INTER + INTRA:          -6.633
REMARK INTER:                  -5.816
REMARK INTRA:                  -0.817
REMARK UNBOUND:                -0.817
REMARK SMILES CCCCCCCCCCC(=O)[O-]
REMARK SMILES IDX 7 1 8 2 9 3 10 4 11 5 12 6 13 7 6 8 5 9 4 10 3 11 2 12 1 13
REMARK H PARENT
REMARK Flexibility Score: inf
ROOT
ATOM      1  C   UNL     1      33.419  50.379  26.417  1.00  0.00     0.000 C 
ENDROOT
BRANCH   1   2
ATOM      2  C   UNL     1      34.751  49.607  26.426  1.00  0.00     0.000 C 
BRANCH   2   3
ATOM      3  C   UNL     1      34.831  48.428  25.433  1.00  0.00     0.006 C 
BRANCH   3   4
ATOM      4  C   UNL     1      33.479  48.005  24.836  1.00  0.00     0.053 C 
BRANCH   4   5
ATOM      5  C   UNL     1      32.978  46.726  25.432  1.00  0.00     0.041 C 
ATOM      6  O   UNL     1      32.929  45.679  24.733  1.00  0.00    -0.550 OA
ATOM      7  O   UNL     1      32.597  46.681  26.766  1.00  0.00    -0.550 OA
ENDBRANCH   4   5
ENDBRANCH   3   4
ENDBRANCH   2   3
ENDBRANCH   1   2
BRANCH   1   8
ATOM      8  C   UNL     1      33.610  51.902  26.463  1.00  0.00     0.000 C 
BRANCH   8   9
ATOM      9  C   UNL     1      32.267  52.617  26.683  1.00  0.00    -0.000 C 
BRANCH   9  10
ATOM     10  C   UNL     1      31.695  53.219  25.390  1.00  0.00    -0.000 C 
BRANCH  10  11
ATOM     11  C   UNL     1      30.225  52.830  25.156  1.00  0.00    -0.000 C 
BRANCH  11  12
ATOM     12  C   UNL     1      30.046  51.324  24.907  1.00  0.00    -0.003 C 
ATOM     13  C   UNL     1      30.841  50.823  23.701  1.00  0.00     0.004 C 
ENDBRANCH  11  12
ENDBRANCH  10  11
ENDBRANCH   9  10
ENDBRANCH   8   9
ENDBRANCH   1   8
TORSDOF 9
ENDMDL
MODEL 2
REMARK VINA RESULT:    -3.772      3.060      5.442
REMARK INTER + INTRA:          -6.574
REMARK INTER:                  -5.414
REMARK INTRA:                  -1.161
REMARK UNBOUND:                -0.817
REMARK SMILES CCCCCCCCCCC(=O)[O-]
REMARK SMILES IDX 7 1 8 2 9 3 10 4 11 5 12 6 13 7 6 8 5 9 4 10 3 11 2 12 1 13
REMARK H PARENT
REMARK Flexibility Score: inf
ROOT
ATOM      1  C   UNL     1      31.243  49.598  26.051  1.00  0.00     0.000 C 
ENDROOT
BRANCH   1   2
ATOM      2  C   UNL     1      31.635  49.874  24.587  1.00  0.00     0.000 C 
BRANCH   2   3
ATOM      3  C   UNL     1      30.819  50.982  23.890  1.00  0.00     0.006 C 
BRANCH   3   4
ATOM      4  C   UNL     1      30.200  52.015  24.844  1.00  0.00     0.053 C 
BRANCH   4   5
ATOM      5  C   UNL     1      31.109  53.184  25.072  1.00  0.00     0.041 C 
ATOM      6  O   UNL     1      31.314  54.015  24.149  1.00  0.00    -0.550 OA
ATOM      7  O   UNL     1      31.701  53.374  26.313  1.00  0.00    -0.550 OA
ENDBRANCH   4   5
ENDBRANCH   3   4
ENDBRANCH   2   3
ENDBRANCH   1   2
BRANCH   1   8
ATOM      8  C   UNL     1      32.360  49.947  27.045  1.00  0.00     0.000 C 
BRANCH   8   9
ATOM      9  C   UNL     1      33.643  50.357  26.306  1.00  0.00    -0.000 C 
BRANCH   9  10
ATOM     10  C   UNL     1      34.802  49.373  26.537  1.00  0.00    -0.000 C 
BRANCH  10  11
ATOM     11  C   UNL     1      34.878  48.285  25.453  1.00  0.00    -0.000 C 
BRANCH  11  12
ATOM     12  C   UNL     1      34.557  46.885  26.000  1.00  0.00    -0.003 C 
ATOM     13  C   UNL     1      33.164  46.397  25.602  1.00  0.00     0.004 C 
ENDBRANCH  11  12
ENDBRANCH  10  11
ENDBRANCH   9  10
ENDBRANCH   8   9
ENDBRANCH   1   8
TORSDOF 9
ENDMDL
MODEL 3
REMARK VINA RESULT:    -3.711      1.443      2.348
REMARK INTER + INTRA:          -6.481
REMARK INTER:                  -5.453
REMARK INTRA:                  -1.028
REMARK UNBOUND:                -0.817
REMARK SMILES CCCCCCCCCCC(=O)[O-]
REMARK SMILES IDX 7 1 8 2 9 3 10 4 11 5 12 6 13 7 6 8 5 9 4 10 3 11 2 12 1 13
REMARK H PARENT
REMARK Flexibility Score: inf
ROOT
ATOM      1  C   UNL     1      32.135  52.276  27.016  1.00  0.00     0.000 C 
ENDROOT
BRANCH   1   2
ATOM      2  C   UNL     1      33.543  52.100  26.418  1.00  0.00     0.000 C 
BRANCH   2   3
ATOM      3  C   UNL     1      34.171  50.706  26.624  1.00  0.00     0.006 C 
BRANCH   3   4
ATOM      4  C   UNL     1      33.218  49.531  26.352  1.00  0.00     0.053 C 
BRANCH   4   5
ATOM      5  C   UNL     1      33.779  48.573  25.345  1.00  0.00     0.041 C 
ATOM      6  O   UNL     1      35.022  48.379  25.282  1.00  0.00    -0.550 OA
ATOM      7  O   UNL     1      32.929  47.871  24.502  1.00  0.00    -0.550 OA
ENDBRANCH   4   5
ENDBRANCH   3   4
ENDBRANCH   2   3
ENDBRANCH   1   2
BRANCH   1   8
ATOM      8  C   UNL     1      31.599  53.708  26.874  1.00  0.00     0.000 C 
BRANCH   8   9
ATOM      9  C   UNL     1      30.166  53.704  26.318  1.00  0.00    -0.000 C 
BRANCH   9  10
ATOM     10  C   UNL     1      29.435  52.375  26.568  1.00  0.00    -0.000 C 
BRANCH  10  11
ATOM     11  C   UNL     1      28.937  51.720  25.268  1.00  0.00    -0.000 C 
BRANCH  11  12
ATOM     12  C   UNL     1      29.829  50.554  24.816  1.00  0.00    -0.003 C 
ATOM     13  C   UNL     1      30.837  50.960  23.740  1.00  0.00     0.004 C 
ENDBRANCH  11  12
ENDBRANCH  10  11
ENDBRANCH   9  10
ENDBRANCH   8   9
ENDBRANCH   1   8
TORSDOF 9
ENDMDL
MODEL 4
REMARK VINA RESULT:    -3.614      1.036      2.236
REMARK INTER + INTRA:          -6.332
REMARK INTER:                  -5.692
REMARK INTRA:                  -0.640
REMARK UNBOUND:                -0.817
REMARK SMILES CCCCCCCCCCC(=O)[O-]
REMARK SMILES IDX 7 1 8 2 9 3 10 4 11 5 12 6 13 7 6 8 5 9 4 10 3 11 2 12 1 13
REMARK H PARENT
REMARK Flexibility Score: inf
ROOT
ATOM      1  C   UNL     1      33.569  50.565  26.001  1.00  0.00     0.000 C 
ENDROOT
BRANCH   1   2
ATOM      2  C   UNL     1      34.467  49.415  26.493  1.00  0.00     0.000 C 
BRANCH   2   3
ATOM      3  C   UNL     1      34.724  48.298  25.460  1.00  0.00     0.006 C 
BRANCH   3   4
ATOM      4  C   UNL     1      34.570  46.871  26.012  1.00  0.00     0.053 C 
BRANCH   4   5
ATOM      5  C   UNL     1      33.162  46.373  25.895  1.00  0.00     0.041 C 
ATOM      6  O   UNL     1      32.287  46.750  26.719  1.00  0.00    -0.550 OA
ATOM      7  O   UNL     1      32.809  45.520  24.858  1.00  0.00    -0.550 OA
ENDBRANCH   4   5
ENDBRANCH   3   4
ENDBRANCH   2   3
ENDBRANCH   1   2
BRANCH   1   8
ATOM      8  C   UNL     1      32.080  50.192  25.973  1.00  0.00     0.000 C 
BRANCH   8   9
ATOM      9  C   UNL     1      31.621  49.876  24.541  1.00  0.00    -0.000 C 
BRANCH   9  10
ATOM     10  C   UNL     1      30.900  51.058  23.873  1.00  0.00    -0.000 C 
BRANCH  10  11
ATOM     11  C   UNL     1      30.488  52.145  24.881  1.00  0.00    -0.000 C 
BRANCH  11  12
ATOM     12  C   UNL     1      31.128  53.507  24.574  1.00  0.00    -0.003 C 
ATOM     13  C   UNL     1      30.514  54.649  25.386  1.00  0.00     0.004 C 
ENDBRANCH  11  12
ENDBRANCH  10  11
ENDBRANCH   9  10
ENDBRANCH   8   9
ENDBRANCH   1   8
TORSDOF 9
ENDMDL
MODEL 5
REMARK VINA RESULT:    -3.579      2.377      5.137
REMARK INTER + INTRA:          -6.279
REMARK INTER:                  -5.611
REMARK INTRA:                  -0.668
REMARK UNBOUND:                -0.817
REMARK SMILES CCCCCCCCCCC(=O)[O-]
REMARK SMILES IDX 7 1 8 2 9 3 10 4 11 5 12 6 13 7 6 8 5 9 4 10 3 11 2 12 1 13
REMARK H PARENT
REMARK Flexibility Score: inf
ROOT
ATOM      1  C   UNL     1      33.510  50.056  26.751  1.00  0.00     0.000 C 
ENDROOT
BRANCH   1   2
ATOM      2  C   UNL     1      33.585  51.549  26.381  1.00  0.00     0.000 C 
BRANCH   2   3
ATOM      3  C   UNL     1      32.267  52.162  25.863  1.00  0.00     0.006 C 
BRANCH   3   4
ATOM      4  C   UNL     1      31.030  51.270  26.056  1.00  0.00     0.053 C 
BRANCH   4   5
ATOM      5  C   UNL     1      30.442  50.835  24.749  1.00  0.00     0.041 C 
ATOM      6  O   UNL     1      31.185  50.378  23.841  1.00  0.00    -0.550 OA
ATOM      7  O   UNL     1      29.070  50.903  24.546  1.00  0.00    -0.550 OA
ENDBRANCH   4   5
ENDBRANCH   3   4
ENDBRANCH   2   3
ENDBRANCH   1   2
BRANCH   1   8
ATOM      8  C   UNL     1      34.800  49.292  26.421  1.00  0.00     0.000 C 
BRANCH   8   9
ATOM      9  C   UNL     1      34.578  48.323  25.249  1.00  0.00    -0.000 C 
BRANCH   9  10
ATOM     10  C   UNL     1      33.136  47.795  25.179  1.00  0.00    -0.000 C 
BRANCH  10  11
ATOM     11  C   UNL     1      32.868  46.668  26.191  1.00  0.00    -0.000 C 
BRANCH  11  12
ATOM     12  C   UNL     1      32.946  45.273  25.553  1.00  0.00    -0.003 C 
ATOM     13  C   UNL     1      34.138  44.456  26.054  1.00  0.00     0.004 C 
ENDBRANCH  11  12
ENDBRANCH  10  11
ENDBRANCH   9  10
ENDBRANCH   8   9
ENDBRANCH   1   8
TORSDOF 9
ENDMDL
MODEL 6
REMARK VINA RESULT:    -3.569      1.352      2.273
REMARK INTER + INTRA:          -6.265
REMARK INTER:                  -5.415
REMARK INTRA:                  -0.850
REMARK UNBOUND:                -0.817
REMARK SMILES CCCCCCCCCCC(=O)[O-]
REMARK SMILES IDX 7 1 8 2 9 3 10 4 11 5 12 6 13 7 6 8 5 9 4 10 3 11 2 12 1 13
REMARK H PARENT
REMARK Flexibility Score: inf
ROOT
ATOM      1  C   UNL     1      34.721  49.449  26.440  1.00  0.00     0.000 C 
ENDROOT
BRANCH   1   2
ATOM      2  C   UNL     1      34.640  48.277  25.444  1.00  0.00     0.000 C 
BRANCH   2   3
ATOM      3  C   UNL     1      34.643  46.873  26.085  1.00  0.00     0.006 C 
BRANCH   3   4
ATOM      4  C   UNL     1      33.359  46.521  26.853  1.00  0.00     0.053 C 
BRANCH   4   5
ATOM      5  C   UNL     1      32.675  45.317  26.281  1.00  0.00     0.041 C 
ATOM      6  O   UNL     1      31.531  44.986  26.689  1.00  0.00    -0.550 OA
ATOM      7  O   UNL     1      33.287  44.581  25.274  1.00  0.00    -0.550 OA
ENDBRANCH   4   5
ENDBRANCH   3   4
ENDBRANCH   2   3
ENDBRANCH   1   2
BRANCH   1   8
ATOM      8  C   UNL     1      33.565  50.448  26.284  1.00  0.00     0.000 C 
BRANCH   8   9
ATOM      9  C   UNL     1      32.285  49.911  26.945  1.00  0.00    -0.000 C 
BRANCH   9  10
ATOM     10  C   UNL     1      31.071  49.944  26.002  1.00  0.00    -0.000 C 
BRANCH  10  11
ATOM     11  C   UNL     1      31.475  49.931  24.518  1.00  0.00    -0.000 C 
BRANCH  11  12
ATOM     12  C   UNL     1      30.814  51.063  23.717  1.00  0.00    -0.003 C 
ATOM     13  C   UNL     1      30.812  52.397  24.465  1.00  0.00     0.004 C 
ENDBRANCH  11  12
ENDBRANCH  10  11
ENDBRANCH   9  10
ENDBRANCH   8   9
ENDBRANCH   1   8
TORSDOF 9
ENDMDL
MODEL 7
REMARK VINA RESULT:    -3.483      1.820      2.738
REMARK INTER + INTRA:          -6.133
REMARK INTER:                  -5.588
REMARK INTRA:                  -0.544
REMARK UNBOUND:                -0.817
REMARK SMILES CCCCCCCCCCC(=O)[O-]
REMARK SMILES IDX 7 1 8 2 9 3 10 4 11 5 12 6 13 7 6 8 5 9 4 10 3 11 2 12 1 13
REMARK H PARENT
REMARK Flexibility Score: inf
ROOT
ATOM      1  C   UNL     1      32.313  48.775  25.916  1.00  0.00     0.000 C 
ENDROOT
BRANCH   1   2
ATOM      2  C   UNL     1      33.283  47.982  25.020  1.00  0.00     0.000 C 
BRANCH   2   3
ATOM      3  C   UNL     1      34.774  48.336  25.197  1.00  0.00     0.006 C 
BRANCH   3   4
ATOM      4  C   UNL     1      35.356  47.977  26.574  1.00  0.00     0.053 C 
BRANCH   4   5
ATOM      5  C   UNL     1      35.677  46.518  26.684  1.00  0.00     0.041 C 
ATOM      6  O   UNL     1      34.764  45.686  26.931  1.00  0.00    -0.550 OA
ATOM      7  O   UNL     1      36.977  46.073  26.482  1.00  0.00    -0.550 OA
ENDBRANCH   4   5
ENDBRANCH   3   4
ENDBRANCH   2   3
ENDBRANCH   1   2
BRANCH   1   8
ATOM      8  C   UNL     1      32.087  50.213  25.428  1.00  0.00     0.000 C 
BRANCH   8   9
ATOM      9  C   UNL     1      31.350  50.224  24.079  1.00  0.00    -0.000 C 
BRANCH   9  10
ATOM     10  C   UNL     1      30.176  51.217  24.052  1.00  0.00    -0.000 C 
BRANCH  10  11
ATOM     11  C   UNL     1      29.870  51.808  25.439  1.00  0.00    -0.000 C 
BRANCH  11  12
ATOM     12  C   UNL     1      29.997  53.339  25.468  1.00  0.00    -0.003 C 
ATOM     13  C   UNL     1      31.074  53.864  24.517  1.00  0.00     0.004 C 
ENDBRANCH  11  12
ENDBRANCH  10  11
ENDBRANCH   9  10
ENDBRANCH   8   9
ENDBRANCH   1   8
TORSDOF 9
ENDMDL
MODEL 8
REMARK VINA RESULT:    -3.395      2.877      5.828
REMARK INTER + INTRA:          -5.998
REMARK INTER:                  -5.082
REMARK INTRA:                  -0.916
REMARK UNBOUND:                -0.817
REMARK SMILES CCCCCCCCCCC(=O)[O-]
REMARK SMILES IDX 7 1 8 2 9 3 10 4 11 5 12 6 13 7 6 8 5 9 4 10 3 11 2 12 1 13
REMARK H PARENT
REMARK Flexibility Score: inf
ROOT
ATOM      1  C   UNL     1      33.214  48.348  24.993  1.00  0.00     0.000 C 
ENDROOT
BRANCH   1   2
ATOM      2  C   UNL     1      32.458  48.361  26.334  1.00  0.00     0.000 C 
BRANCH   2   3
ATOM      3  C   UNL     1      31.369  49.447  26.461  1.00  0.00     0.006 C 
BRANCH   3   4
ATOM      4  C   UNL     1      31.592  50.680  25.570  1.00  0.00     0.053 C 
BRANCH   4   5
ATOM      5  C   UNL     1      30.510  50.834  24.546  1.00  0.00     0.041 C 
ATOM      6  O   UNL     1      30.806  51.040  23.339  1.00  0.00    -0.550 OA
ATOM      7  O   UNL     1      29.177  50.718  24.917  1.00  0.00    -0.550 OA
ENDBRANCH   4   5
ENDBRANCH   3   4
ENDBRANCH   2   3
ENDBRANCH   1   2
BRANCH   1   8
ATOM      8  C   UNL     1      34.739  48.287  25.165  1.00  0.00     0.000 C 
BRANCH   8   9
ATOM      9  C   UNL     1      35.113  47.640  26.509  1.00  0.00    -0.000 C 
BRANCH   9  10
ATOM     10  C   UNL     1      35.914  46.340  26.340  1.00  0.00    -0.000 C 
BRANCH  10  11
ATOM     11  C   UNL     1      35.188  45.117  26.926  1.00  0.00    -0.000 C 
BRANCH  11  12
ATOM     12  C   UNL     1      33.919  44.753  26.139  1.00  0.00    -0.003 C 
ATOM     13  C   UNL     1      32.659  44.763  27.006  1.00  0.00     0.004 C 
ENDBRANCH  11  12
ENDBRANCH  10  11
ENDBRANCH   9  10
ENDBRANCH   8   9
ENDBRANCH   1   8
TORSDOF 9
ENDMDL
