MODEL 1
REMARK VINA RESULT:    -4.317      0.000      0.000
REMARK INTER + INTRA:          -5.042
REMARK INTER:                  -4.947
REMARK INTRA:                  -0.095
REMARK UNBOUND:                -0.095
REMARK SMILES COc1cc(C(=O)[O-])ccc1O
REMARK SMILES IDX 5 1 9 2 4 3 10 4 3 5 11 6 6 7 7 8 8 9 2 10 1 11 12 12
REMARK H PARENT 12 13
REMARK Flexibility Score: inf
ROOT
ATOM      1  C   UNL     1     114.135 107.834 107.355  1.00  0.00     0.001 A 
ATOM      2  C   UNL     1     115.050 107.142 108.167  1.00  0.00     0.014 A 
ATOM      3  C   UNL     1     114.595 108.904 106.568  1.00  0.00     0.060 A 
ATOM      4  C   UNL     1     116.395 107.512 108.190  1.00  0.00     0.051 A 
ATOM      5  C   UNL     1     115.953 109.282 106.588  1.00  0.00     0.161 A 
ATOM      6  C   UNL     1     116.851 108.576 107.407  1.00  0.00     0.157 A 
ENDROOT
BRANCH   1   7
ATOM      7  C   UNL     1     112.708 107.443 107.328  1.00  0.00     0.072 C 
ATOM      8  O   UNL     1     112.337 106.337 107.803  1.00  0.00    -0.545 OA
ATOM      9  O   UNL     1     111.755 108.293 106.778  1.00  0.00    -0.545 OA
ENDBRANCH   1   7
BRANCH   5  10
ATOM     10  O   UNL     1     116.439 110.347 105.812  1.00  0.00    -0.493 OA
ATOM     11  C   UNL     1     116.359 110.418 104.393  1.00  0.00     0.278 C 
ENDBRANCH   5  10
BRANCH   6  12
ATOM     12  O   UNL     1     118.203 108.917 107.457  1.00  0.00    -0.504 OA
ATOM     13  H   UNL     1     118.713 109.224 106.637  1.00  0.00     0.293 HD
ENDBRANCH   6  12
TORSDOF 3
ENDMDL
MODEL 2
REMARK VINA RESULT:    -4.300      7.548      9.176
REMARK INTER + INTRA:          -5.023
REMARK INTER:                  -4.940
REMARK INTRA:                  -0.083
REMARK UNBOUND:                -0.095
REMARK SMILES COc1cc(C(=O)[O-])ccc1O
REMARK SMILES IDX 5 1 9 2 4 3 10 4 3 5 11 6 6 7 7 8 8 9 2 10 1 11 12 12
REMARK H PARENT 12 13
REMARK Flexibility Score: inf
ROOT
ATOM      1  C   UNL     1     114.364 115.939 107.284  1.00  0.00     0.001 A 
ATOM      2  C   UNL     1     114.822 117.230 107.599  1.00  0.00     0.014 A 
ATOM      3  C   UNL     1     112.984 115.725 107.121  1.00  0.00     0.060 A 
ATOM      4  C   UNL     1     113.919 118.284 107.745  1.00  0.00     0.051 A 
ATOM      5  C   UNL     1     112.067 116.786 107.269  1.00  0.00     0.161 A 
ATOM      6  C   UNL     1     112.547 118.070 107.583  1.00  0.00     0.157 A 
ENDROOT
BRANCH   1   7
ATOM      7  C   UNL     1     115.319 114.820 107.127  1.00  0.00     0.072 C 
ATOM      8  O   UNL     1     115.008 113.801 106.454  1.00  0.00    -0.545 OA
ATOM      9  O   UNL     1     116.576 114.877 107.719  1.00  0.00    -0.545 OA
ENDBRANCH   1   7
BRANCH   5  10
ATOM     10  O   UNL     1     110.684 116.601 107.112  1.00  0.00    -0.493 OA
ATOM     11  C   UNL     1     109.977 115.425 107.490  1.00  0.00     0.278 C 
ENDBRANCH   5  10
BRANCH   6  12
ATOM     12  O   UNL     1     111.676 119.148 107.739  1.00  0.00    -0.504 OA
ATOM     13  H   UNL     1     111.962 120.103 107.560  1.00  0.00     0.293 HD
ENDBRANCH   6  12
TORSDOF 3
ENDMDL
MODEL 3
REMARK VINA RESULT:    -4.261      6.370      8.965
REMARK INTER + INTRA:          -4.978
REMARK INTER:                  -4.897
REMARK INTRA:                  -0.081
REMARK UNBOUND:                -0.095
REMARK SMILES COc1cc(C(=O)[O-])ccc1O
REMARK SMILES IDX 5 1 9 2 4 3 10 4 3 5 11 6 6 7 7 8 8 9 2 10 1 11 12 12
REMARK H PARENT 12 13
REMARK Flexibility Score: inf
ROOT
ATOM      1  C   UNL     1     107.418 112.105 107.338  1.00  0.00     0.001 A 
ATOM      2  C   UNL     1     106.067 111.846 107.628  1.00  0.00     0.014 A 
ATOM      3  C   UNL     1     108.304 111.023 107.190  1.00  0.00     0.060 A 
ATOM      4  C   UNL     1     105.613 110.534 107.767  1.00  0.00     0.051 A 
ATOM      5  C   UNL     1     107.850 109.695 107.329  1.00  0.00     0.161 A 
ATOM      6  C   UNL     1     106.495 109.459 107.620  1.00  0.00     0.157 A 
ENDROOT
BRANCH   1   7
ATOM      7  C   UNL     1     107.902 113.495 107.189  1.00  0.00     0.072 C 
ATOM      8  O   UNL     1     108.964 113.740 106.557  1.00  0.00    -0.545 OA
ATOM      9  O   UNL     1     107.191 114.552 107.745  1.00  0.00    -0.545 OA
ENDBRANCH   1   7
BRANCH   5  10
ATOM     10  O   UNL     1     108.713 108.596 107.187  1.00  0.00    -0.493 OA
ATOM     11  C   UNL     1     110.122 108.642 107.385  1.00  0.00     0.278 C 
ENDBRANCH   5  10
BRANCH   6  12
ATOM     12  O   UNL     1     106.004 108.162 107.767  1.00  0.00    -0.504 OA
ATOM     13  H   UNL     1     106.528 107.349 107.464  1.00  0.00     0.293 HD
ENDBRANCH   6  12
TORSDOF 3
ENDMDL
MODEL 4
REMARK VINA RESULT:    -4.112      7.717      8.736
REMARK INTER + INTRA:          -4.808
REMARK INTER:                  -4.708
REMARK INTRA:                  -0.100
REMARK UNBOUND:                -0.095
REMARK SMILES COc1cc(C(=O)[O-])ccc1O
REMARK SMILES IDX 5 1 9 2 4 3 10 4 3 5 11 6 6 7 7 8 8 9 2 10 1 11 12 12
REMARK H PARENT 12 13
REMARK Flexibility Score: inf
ROOT
ATOM      1  C   UNL     1     111.416 116.179 107.103  1.00  0.00     0.001 A 
ATOM      2  C   UNL     1     111.246 117.498 107.560  1.00  0.00     0.014 A 
ATOM      3  C   UNL     1     112.714 115.718 106.820  1.00  0.00     0.060 A 
ATOM      4  C   UNL     1     112.348 118.335 107.730  1.00  0.00     0.051 A 
ATOM      5  C   UNL     1     113.832 116.560 106.990  1.00  0.00     0.161 A 
ATOM      6  C   UNL     1     113.638 117.875 107.448  1.00  0.00     0.157 A 
ENDROOT
BRANCH   1   7
ATOM      7  C   UNL     1     110.248 115.289 106.923  1.00  0.00     0.072 C 
ATOM      8  O   UNL     1     109.295 115.307 107.746  1.00  0.00    -0.545 OA
ATOM      9  O   UNL     1     110.187 114.418 105.841  1.00  0.00    -0.545 OA
ENDBRANCH   1   7
BRANCH   5  10
ATOM     10  O   UNL     1     115.139 116.126 106.715  1.00  0.00    -0.493 OA
ATOM     11  C   UNL     1     115.961 115.406 107.626  1.00  0.00     0.278 C 
ENDBRANCH   5  10
BRANCH   6  12
ATOM     12  O   UNL     1     114.716 118.743 107.629  1.00  0.00    -0.504 OA
ATOM     13  H   UNL     1     114.903 119.192 108.518  1.00  0.00     0.293 HD
ENDBRANCH   6  12
TORSDOF 3
ENDMDL
MODEL 5
REMARK VINA RESULT:    -4.105      2.668      4.195
REMARK INTER + INTRA:          -4.800
REMARK INTER:                  -4.707
REMARK INTRA:                  -0.093
REMARK UNBOUND:                -0.095
REMARK SMILES COc1cc(C(=O)[O-])ccc1O
REMARK SMILES IDX 5 1 9 2 4 3 10 4 3 5 11 6 6 7 7 8 8 9 2 10 1 11 12 12
REMARK H PARENT 12 13
REMARK Flexibility Score: inf
ROOT
ATOM      1  C   UNL     1     113.894 106.837 107.003  1.00  0.00     0.001 A 
ATOM      2  C   UNL     1     112.816 106.475 107.829  1.00  0.00     0.014 A 
ATOM      3  C   UNL     1     113.785 107.989 106.204  1.00  0.00     0.060 A 
ATOM      4  C   UNL     1     111.656 107.250 107.856  1.00  0.00     0.051 A 
ATOM      5  C   UNL     1     112.615 108.775 106.228  1.00  0.00     0.161 A 
ATOM      6  C   UNL     1     111.549 108.395 107.062  1.00  0.00     0.157 A 
ENDROOT
BRANCH   1   7
ATOM      7  C   UNL     1     115.126 106.018 106.972  1.00  0.00     0.072 C 
ATOM      8  O   UNL     1     116.171 106.410 107.557  1.00  0.00    -0.545 OA
ATOM      9  O   UNL     1     115.148 104.802 106.298  1.00  0.00    -0.545 OA
ENDBRANCH   1   7
BRANCH   5  10
ATOM     10  O   UNL     1     112.480 109.930 105.441  1.00  0.00    -0.493 OA
ATOM     11  C   UNL     1     112.377 109.935 104.021  1.00  0.00     0.278 C 
ENDBRANCH   5  10
BRANCH   6  12
ATOM     12  O   UNL     1     110.372 109.143 107.115  1.00  0.00    -0.504 OA
ATOM     13  H   UNL     1     109.497 108.799 106.739  1.00  0.00     0.293 HD
ENDBRANCH   6  12
TORSDOF 3
ENDMDL
MODEL 6
REMARK VINA RESULT:    -4.088      5.795      8.404
REMARK INTER + INTRA:          -4.781
REMARK INTER:                  -4.680
REMARK INTRA:                  -0.101
REMARK UNBOUND:                -0.095
REMARK SMILES COc1cc(C(=O)[O-])ccc1O
REMARK SMILES IDX 5 1 9 2 4 3 10 4 3 5 11 6 6 7 7 8 8 9 2 10 1 11 12 12
REMARK H PARENT 12 13
REMARK Flexibility Score: inf
ROOT
ATOM      1  C   UNL     1     108.711 109.448 107.060  1.00  0.00     0.001 A 
ATOM      2  C   UNL     1     107.654 108.636 107.506  1.00  0.00     0.014 A 
ATOM      3  C   UNL     1     108.462 110.806 106.793  1.00  0.00     0.060 A 
ATOM      4  C   UNL     1     106.377 109.171 107.681  1.00  0.00     0.051 A 
ATOM      5  C   UNL     1     107.174 111.351 106.968  1.00  0.00     0.161 A 
ATOM      6  C   UNL     1     106.131 110.521 107.414  1.00  0.00     0.157 A 
ENDROOT
BRANCH   1   7
ATOM      7  C   UNL     1     110.067 108.884 106.875  1.00  0.00     0.072 C 
ATOM      8  O   UNL     1     110.816 109.306 105.954  1.00  0.00    -0.545 OA
ATOM      9  O   UNL     1     110.533 107.880 107.715  1.00  0.00    -0.545 OA
ENDBRANCH   1   7
BRANCH   5  10
ATOM     10  O   UNL     1     106.897 112.703 106.707  1.00  0.00    -0.493 OA
ATOM     11  C   UNL     1     107.148 113.770 107.616  1.00  0.00     0.278 C 
ENDBRANCH   5  10
BRANCH   6  12
ATOM     12  O   UNL     1     104.841 111.018 107.600  1.00  0.00    -0.504 OA
ATOM     13  H   UNL     1     104.649 112.011 107.659  1.00  0.00     0.293 HD
ENDBRANCH   6  12
TORSDOF 3
ENDMDL
MODEL 7
REMARK VINA RESULT:    -4.063      1.952      4.124
REMARK INTER + INTRA:          -4.751
REMARK INTER:                  -4.652
REMARK INTRA:                  -0.099
REMARK UNBOUND:                -0.095
REMARK SMILES COc1cc(C(=O)[O-])ccc1O
REMARK SMILES IDX 5 1 9 2 4 3 10 4 3 5 11 6 6 7 7 8 8 9 2 10 1 11 12 12
REMARK H PARENT 12 13
REMARK Flexibility Score: inf
ROOT
ATOM      1  C   UNL     1     115.918 110.566 107.024  1.00  0.00     0.001 A 
ATOM      2  C   UNL     1     117.137 110.049 107.493  1.00  0.00     0.014 A 
ATOM      3  C   UNL     1     114.875 109.677 106.710  1.00  0.00     0.060 A 
ATOM      4  C   UNL     1     117.309 108.672 107.646  1.00  0.00     0.051 A 
ATOM      5  C   UNL     1     115.043 108.286 106.862  1.00  0.00     0.161 A 
ATOM      6  C   UNL     1     116.271 107.790 107.333  1.00  0.00     0.157 A 
ENDROOT
BRANCH   1   7
ATOM      7  C   UNL     1     115.732 112.025 106.862  1.00  0.00     0.072 C 
ATOM      8  O   UNL     1     116.241 112.832 107.685  1.00  0.00    -0.545 OA
ATOM      9  O   UNL     1     114.994 112.528 105.796  1.00  0.00    -0.545 OA
ENDBRANCH   1   7
BRANCH   5  10
ATOM     10  O   UNL     1     114.019 107.375 106.555  1.00  0.00    -0.493 OA
ATOM     11  C   UNL     1     112.973 107.003 107.447  1.00  0.00     0.278 C 
ENDBRANCH   5  10
BRANCH   6  12
ATOM     12  O   UNL     1     116.481 106.420 107.498  1.00  0.00    -0.504 OA
ATOM     13  H   UNL     1     116.602 105.794 106.710  1.00  0.00     0.293 HD
ENDBRANCH   6  12
TORSDOF 3
ENDMDL
MODEL 8
REMARK VINA RESULT:    -4.026      6.111      7.814
REMARK INTER + INTRA:          -4.709
REMARK INTER:                  -4.612
REMARK INTRA:                  -0.097
REMARK UNBOUND:                -0.095
REMARK SMILES COc1cc(C(=O)[O-])ccc1O
REMARK SMILES IDX 5 1 9 2 4 3 10 4 3 5 11 6 6 7 7 8 8 9 2 10 1 11 12 12
REMARK H PARENT 12 13
REMARK Flexibility Score: inf
ROOT
ATOM      1  C   UNL     1     114.989 116.382 107.317  1.00  0.00     0.001 A 
ATOM      2  C   UNL     1     116.082 115.751 107.935  1.00  0.00     0.014 A 
ATOM      3  C   UNL     1     114.099 115.609 106.551  1.00  0.00     0.060 A 
ATOM      4  C   UNL     1     116.279 114.377 107.791  1.00  0.00     0.051 A 
ATOM      5  C   UNL     1     114.294 114.221 106.402  1.00  0.00     0.161 A 
ATOM      6  C   UNL     1     115.394 113.610 107.029  1.00  0.00     0.157 A 
ENDROOT
BRANCH   1   7
ATOM      7  C   UNL     1     114.776 117.838 107.470  1.00  0.00     0.072 C 
ATOM      8  O   UNL     1     113.727 118.280 108.008  1.00  0.00    -0.545 OA
ATOM      9  O   UNL     1     115.734 118.741 107.021  1.00  0.00    -0.545 OA
ENDBRANCH   1   7
BRANCH   5  10
ATOM     10  O   UNL     1     113.421 113.425 105.642  1.00  0.00    -0.493 OA
ATOM     11  C   UNL     1     113.387 113.390 104.220  1.00  0.00     0.278 C 
ENDBRANCH   5  10
BRANCH   6  12
ATOM     12  O   UNL     1     115.625 112.240 106.907  1.00  0.00    -0.504 OA
ATOM     13  H   UNL     1     115.347 111.579 107.623  1.00  0.00     0.293 HD
ENDBRANCH   6  12
TORSDOF 3
ENDMDL
MODEL 9
REMARK VINA RESULT:    -3.978      7.318      8.674
REMARK INTER + INTRA:          -4.654
REMARK INTER:                  -4.556
REMARK INTRA:                  -0.098
REMARK UNBOUND:                -0.095
REMARK SMILES COc1cc(C(=O)[O-])ccc1O
REMARK SMILES IDX 5 1 9 2 4 3 10 4 3 5 11 6 6 7 7 8 8 9 2 10 1 11 12 12
REMARK H PARENT 12 13
REMARK Flexibility Score: inf
ROOT
ATOM      1  C   UNL     1     106.791 112.445 107.252  1.00  0.00     0.001 A 
ATOM      2  C   UNL     1     106.781 113.702 107.880  1.00  0.00     0.014 A 
ATOM      3  C   UNL     1     107.919 112.064 106.504  1.00  0.00     0.060 A 
ATOM      4  C   UNL     1     107.876 114.558 107.765  1.00  0.00     0.051 A 
ATOM      5  C   UNL     1     109.029 112.926 106.384  1.00  0.00     0.161 A 
ATOM      6  C   UNL     1     108.997 114.179 107.021  1.00  0.00     0.157 A 
ENDROOT
BRANCH   1   7
ATOM      7  C   UNL     1     105.631 111.533 107.373  1.00  0.00     0.072 C 
ATOM      8  O   UNL     1     105.775 110.372 107.840  1.00  0.00    -0.545 OA
ATOM      9  O   UNL     1     104.365 111.947 106.974  1.00  0.00    -0.545 OA
ENDBRANCH   1   7
BRANCH   5  10
ATOM     10  O   UNL     1     110.169 112.572 105.644  1.00  0.00    -0.493 OA
ATOM     11  C   UNL     1     110.280 112.679 104.229  1.00  0.00     0.278 C 
ENDBRANCH   5  10
BRANCH   6  12
ATOM     12  O   UNL     1     110.072 115.064 106.928  1.00  0.00    -0.504 OA
ATOM     13  H   UNL     1     110.993 114.834 107.285  1.00  0.00     0.293 HD
ENDBRANCH   6  12
TORSDOF 3
ENDMDL
