MODEL 1
REMARK VINA RESULT:    -3.087      0.000      0.000
REMARK INTER + INTRA:          -3.482
REMARK INTER:                  -3.358
REMARK INTRA:                  -0.124
REMARK UNBOUND:                -0.124
REMARK SMILES Cc1ccc(C(C)C)cc1O
REMARK SMILES IDX 1 1 2 2 10 3 9 4 5 5 4 6 3 7 11 8 6 10 7 11 8 12
REMARK H PARENT 11 9
REMARK Flexibility Score: inf
ROOT
ATOM      1  C   UNL     1     134.206 141.342 136.517  1.00  0.00     0.048 C 
ATOM      2  C   UNL     1     133.668 142.532 137.260  1.00  0.00    -0.009 A 
ATOM      3  C   UNL     1     132.419 143.077 136.915  1.00  0.00     0.118 A 
ATOM      4  C   UNL     1     131.923 144.188 137.612  1.00  0.00     0.050 A 
ATOM      5  C   UNL     1     132.662 144.769 138.657  1.00  0.00    -0.042 A 
ATOM      6  C   UNL     1     133.912 144.217 138.993  1.00  0.00     0.004 A 
ATOM      7  C   UNL     1     134.408 143.111 138.301  1.00  0.00     0.007 A 
ENDROOT
BRANCH   3   8
ATOM      8  O   UNL     1     131.671 142.511 135.881  1.00  0.00    -0.508 OA
ATOM      9  H   UNL     1     131.159 143.083 135.221  1.00  0.00     0.293 HD
ENDBRANCH   3   8
BRANCH   5  10
ATOM     10  C   UNL     1     132.111 145.971 139.400  1.00  0.00     0.013 C 
ATOM     11  C   UNL     1     133.209 147.007 139.666  1.00  0.00     0.012 C 
ATOM     12  C   UNL     1     130.933 146.597 138.644  1.00  0.00     0.012 C 
ENDBRANCH   5  10
TORSDOF 2
ENDMDL
MODEL 2
REMARK VINA RESULT:    -3.069      9.877     11.350
REMARK INTER + INTRA:          -3.462
REMARK INTER:                  -3.336
REMARK INTRA:                  -0.126
REMARK UNBOUND:                -0.124
REMARK SMILES Cc1ccc(C(C)C)cc1O
REMARK SMILES IDX 1 1 2 2 10 3 9 4 5 5 4 6 3 7 11 8 6 10 7 11 8 12
REMARK H PARENT 11 9
REMARK Flexibility Score: inf
ROOT
ATOM      1  C   UNL     1     146.118 146.341 140.145  1.00  0.00     0.048 C 
ATOM      2  C   UNL     1     144.891 145.673 139.594  1.00  0.00    -0.009 A 
ATOM      3  C   UNL     1     144.565 144.360 139.978  1.00  0.00     0.118 A 
ATOM      4  C   UNL     1     143.419 143.742 139.459  1.00  0.00     0.050 A 
ATOM      5  C   UNL     1     142.585 144.420 138.554  1.00  0.00    -0.042 A 
ATOM      6  C   UNL     1     142.920 145.733 138.174  1.00  0.00     0.004 A 
ATOM      7  C   UNL     1     144.061 146.351 138.689  1.00  0.00     0.007 A 
ENDROOT
BRANCH   3   8
ATOM      8  O   UNL     1     145.383 143.673 140.877  1.00  0.00    -0.508 OA
ATOM      9  H   UNL     1     145.444 142.662 140.874  1.00  0.00     0.293 HD
ENDBRANCH   3   8
BRANCH   5  10
ATOM     10  C   UNL     1     141.349 143.736 138.001  1.00  0.00     0.013 C 
ATOM     11  C   UNL     1     140.913 144.370 136.675  1.00  0.00     0.012 C 
ATOM     12  C   UNL     1     141.574 142.228 137.845  1.00  0.00     0.012 C 
ENDBRANCH   5  10
TORSDOF 2
ENDMDL
MODEL 3
REMARK VINA RESULT:    -3.035      8.703      9.893
REMARK INTER + INTRA:          -3.425
REMARK INTER:                  -3.306
REMARK INTRA:                  -0.119
REMARK UNBOUND:                -0.124
REMARK SMILES Cc1ccc(C(C)C)cc1O
REMARK SMILES IDX 1 1 2 2 10 3 9 4 5 5 4 6 3 7 11 8 6 10 7 11 8 12
REMARK H PARENT 11 9
REMARK Flexibility Score: inf
ROOT
ATOM      1  C   UNL     1     140.503 142.017 136.741  1.00  0.00     0.048 C 
ATOM      2  C   UNL     1     141.367 142.997 137.483  1.00  0.00    -0.009 A 
ATOM      3  C   UNL     1     141.402 144.347 137.093  1.00  0.00     0.118 A 
ATOM      4  C   UNL     1     142.210 145.256 137.790  1.00  0.00     0.050 A 
ATOM      5  C   UNL     1     142.991 144.835 138.879  1.00  0.00    -0.042 A 
ATOM      6  C   UNL     1     142.951 143.481 139.261  1.00  0.00     0.004 A 
ATOM      7  C   UNL     1     142.147 142.573 138.569  1.00  0.00     0.007 A 
ENDROOT
BRANCH   3   8
ATOM      8  O   UNL     1     140.631 144.782 136.014  1.00  0.00    -0.508 OA
ATOM      9  H   UNL     1     140.035 145.598 136.081  1.00  0.00     0.293 HD
ENDBRANCH   3   8
BRANCH   5  10
ATOM     10  C   UNL     1     143.861 145.832 139.621  1.00  0.00     0.013 C 
ATOM     11  C   UNL     1     145.313 145.348 139.699  1.00  0.00     0.012 C 
ATOM     12  C   UNL     1     143.776 147.224 138.983  1.00  0.00     0.012 C 
ENDBRANCH   5  10
TORSDOF 2
ENDMDL
MODEL 4
REMARK VINA RESULT:    -3.006      2.329      4.442
REMARK INTER + INTRA:          -3.394
REMARK INTER:                  -3.294
REMARK INTRA:                  -0.099
REMARK UNBOUND:                -0.124
REMARK SMILES Cc1ccc(C(C)C)cc1O
REMARK SMILES IDX 1 1 2 2 10 3 9 4 5 5 4 6 3 7 11 8 6 10 7 11 8 12
REMARK H PARENT 11 9
REMARK Flexibility Score: inf
ROOT
ATOM      1  C   UNL     1     127.884 146.621 137.464  1.00  0.00     0.048 C 
ATOM      2  C   UNL     1     129.192 146.243 138.097  1.00  0.00    -0.009 A 
ATOM      3  C   UNL     1     130.399 146.439 137.403  1.00  0.00     0.118 A 
ATOM      4  C   UNL     1     131.616 146.084 138.000  1.00  0.00     0.050 A 
ATOM      5  C   UNL     1     131.648 145.530 139.291  1.00  0.00    -0.042 A 
ATOM      6  C   UNL     1     130.436 145.336 139.978  1.00  0.00     0.004 A 
ATOM      7  C   UNL     1     129.221 145.689 139.386  1.00  0.00     0.007 A 
ENDROOT
BRANCH   3   8
ATOM      8  O   UNL     1     130.384 146.988 136.120  1.00  0.00    -0.508 OA
ATOM      9  H   UNL     1     131.181 146.911 135.499  1.00  0.00     0.293 HD
ENDBRANCH   3   8
BRANCH   5  10
ATOM     10  C   UNL     1     132.975 145.151 139.922  1.00  0.00     0.013 C 
ATOM     11  C   UNL     1     133.711 144.106 139.076  1.00  0.00     0.012 C 
ATOM     12  C   UNL     1     133.850 146.388 140.157  1.00  0.00     0.012 C 
ENDBRANCH   5  10
TORSDOF 2
ENDMDL
MODEL 5
REMARK VINA RESULT:    -2.976      2.291      4.878
REMARK INTER + INTRA:          -3.361
REMARK INTER:                  -3.234
REMARK INTRA:                  -0.127
REMARK UNBOUND:                -0.124
REMARK SMILES Cc1ccc(C(C)C)cc1O
REMARK SMILES IDX 1 1 2 2 10 3 9 4 5 5 4 6 3 7 11 8 6 10 7 11 8 12
REMARK H PARENT 11 9
REMARK Flexibility Score: inf
ROOT
ATOM      1  C   UNL     1     132.033 148.125 140.120  1.00  0.00     0.048 C 
ATOM      2  C   UNL     1     132.335 146.777 139.530  1.00  0.00    -0.009 A 
ATOM      3  C   UNL     1     133.478 146.066 139.934  1.00  0.00     0.118 A 
ATOM      4  C   UNL     1     133.754 144.809 139.379  1.00  0.00     0.050 A 
ATOM      5  C   UNL     1     132.898 144.245 138.418  1.00  0.00    -0.042 A 
ATOM      6  C   UNL     1     131.757 144.964 138.018  1.00  0.00     0.004 A 
ATOM      7  C   UNL     1     131.480 146.217 138.569  1.00  0.00     0.007 A 
ENDROOT
BRANCH   3   8
ATOM      8  O   UNL     1     134.338 146.611 140.889  1.00  0.00    -0.508 OA
ATOM      9  H   UNL     1     134.414 146.222 141.821  1.00  0.00     0.293 HD
ENDBRANCH   3   8
BRANCH   5  10
ATOM     10  C   UNL     1     133.211 142.883 137.827  1.00  0.00     0.013 C 
ATOM     11  C   UNL     1     132.423 142.647 136.534  1.00  0.00     0.012 C 
ATOM     12  C   UNL     1     134.717 142.714 137.594  1.00  0.00     0.012 C 
ENDBRANCH   5  10
TORSDOF 2
ENDMDL
MODEL 6
REMARK VINA RESULT:    -2.956      1.733      4.368
REMARK INTER + INTRA:          -3.339
REMARK INTER:                  -3.216
REMARK INTRA:                  -0.123
REMARK UNBOUND:                -0.124
REMARK SMILES Cc1ccc(C(C)C)cc1O
REMARK SMILES IDX 1 1 2 2 10 3 9 4 5 5 4 6 3 7 11 8 6 10 7 11 8 12
REMARK H PARENT 11 9
REMARK Flexibility Score: inf
ROOT
ATOM      1  C   UNL     1     132.289 147.951 139.989  1.00  0.00     0.048 C 
ATOM      2  C   UNL     1     132.508 146.592 139.388  1.00  0.00    -0.009 A 
ATOM      3  C   UNL     1     131.665 146.126 138.364  1.00  0.00     0.118 A 
ATOM      4  C   UNL     1     131.874 144.856 137.808  1.00  0.00     0.050 A 
ATOM      5  C   UNL     1     132.921 144.036 138.263  1.00  0.00    -0.042 A 
ATOM      6  C   UNL     1     133.758 144.511 139.290  1.00  0.00     0.004 A 
ATOM      7  C   UNL     1     133.553 145.775 139.845  1.00  0.00     0.007 A 
ENDROOT
BRANCH   3   8
ATOM      8  O   UNL     1     130.621 146.927 137.900  1.00  0.00    -0.508 OA
ATOM      9  H   UNL     1     129.819 147.144 138.479  1.00  0.00     0.293 HD
ENDBRANCH   3   8
BRANCH   5  10
ATOM     10  C   UNL     1     133.133 142.665 137.651  1.00  0.00     0.013 C 
ATOM     11  C   UNL     1     132.294 142.491 136.380  1.00  0.00     0.012 C 
ATOM     12  C   UNL     1     134.619 142.406 137.372  1.00  0.00     0.012 C 
ENDBRANCH   5  10
TORSDOF 2
ENDMDL
MODEL 7
REMARK VINA RESULT:    -2.931      9.550     11.020
REMARK INTER + INTRA:          -3.312
REMARK INTER:                  -3.190
REMARK INTRA:                  -0.122
REMARK UNBOUND:                -0.124
REMARK SMILES Cc1ccc(C(C)C)cc1O
REMARK SMILES IDX 1 1 2 2 10 3 9 4 5 5 4 6 3 7 11 8 6 10 7 11 8 12
REMARK H PARENT 11 9
REMARK Flexibility Score: inf
ROOT
ATOM      1  C   UNL     1     145.850 146.215 140.043  1.00  0.00     0.048 C 
ATOM      2  C   UNL     1     144.649 145.515 139.471  1.00  0.00    -0.009 A 
ATOM      3  C   UNL     1     143.910 146.110 138.433  1.00  0.00     0.118 A 
ATOM      4  C   UNL     1     142.791 145.452 137.905  1.00  0.00     0.050 A 
ATOM      5  C   UNL     1     142.395 144.197 138.400  1.00  0.00    -0.042 A 
ATOM      6  C   UNL     1     143.140 143.611 139.440  1.00  0.00     0.004 A 
ATOM      7  C   UNL     1     144.255 144.264 139.968  1.00  0.00     0.007 A 
ENDROOT
BRANCH   3   8
ATOM      8  O   UNL     1     144.291 147.354 137.929  1.00  0.00    -0.508 OA
ATOM      9  H   UNL     1     143.738 147.837 137.231  1.00  0.00     0.293 HD
ENDBRANCH   3   8
BRANCH   5  10
ATOM     10  C   UNL     1     141.181 143.499 137.817  1.00  0.00     0.013 C 
ATOM     11  C   UNL     1     140.675 144.224 136.565  1.00  0.00     0.012 C 
ATOM     12  C   UNL     1     141.480 142.025 137.520  1.00  0.00     0.012 C 
ENDBRANCH   5  10
TORSDOF 2
ENDMDL
MODEL 8
REMARK VINA RESULT:    -2.907     13.502     15.942
REMARK INTER + INTRA:          -3.286
REMARK INTER:                  -3.161
REMARK INTRA:                  -0.125
REMARK UNBOUND:                -0.124
REMARK SMILES Cc1ccc(C(C)C)cc1O
REMARK SMILES IDX 1 1 2 2 10 3 9 4 5 5 4 6 3 7 11 8 6 10 7 11 8 12
REMARK H PARENT 11 9
REMARK Flexibility Score: inf
ROOT
ATOM      1  C   UNL     1     142.839 136.711 136.973  1.00  0.00     0.048 C 
ATOM      2  C   UNL     1     144.051 136.115 137.631  1.00  0.00    -0.009 A 
ATOM      3  C   UNL     1     145.335 136.378 137.122  1.00  0.00     0.118 A 
ATOM      4  C   UNL     1     146.462 135.818 137.741  1.00  0.00     0.050 A 
ATOM      5  C   UNL     1     146.326 134.994 138.871  1.00  0.00    -0.042 A 
ATOM      6  C   UNL     1     145.037 134.736 139.372  1.00  0.00     0.004 A 
ATOM      7  C   UNL     1     143.912 135.292 138.758  1.00  0.00     0.007 A 
ENDROOT
BRANCH   3   8
ATOM      8  O   UNL     1     145.488 137.195 136.001  1.00  0.00    -0.508 OA
ATOM      9  H   UNL     1     146.284 137.104 135.381  1.00  0.00     0.293 HD
ENDBRANCH   3   8
BRANCH   5  10
ATOM     10  C   UNL     1     147.555 134.396 139.528  1.00  0.00     0.013 C 
ATOM     11  C   UNL     1     147.903 135.134 140.825  1.00  0.00     0.012 C 
ATOM     12  C   UNL     1     147.375 132.894 139.778  1.00  0.00     0.012 C 
ENDBRANCH   5  10
TORSDOF 2
ENDMDL
MODEL 9
REMARK VINA RESULT:    -2.844      9.939     11.467
REMARK INTER + INTRA:          -3.217
REMARK INTER:                  -3.091
REMARK INTRA:                  -0.126
REMARK UNBOUND:                -0.124
REMARK SMILES Cc1ccc(C(C)C)cc1O
REMARK SMILES IDX 1 1 2 2 10 3 9 4 5 5 4 6 3 7 11 8 6 10 7 11 8 12
REMARK H PARENT 11 9
REMARK Flexibility Score: inf
ROOT
ATOM      1  C   UNL     1     143.571 147.580 137.796  1.00  0.00     0.048 C 
ATOM      2  C   UNL     1     143.623 146.227 138.447  1.00  0.00    -0.009 A 
ATOM      3  C   UNL     1     142.575 145.309 138.260  1.00  0.00     0.118 A 
ATOM      4  C   UNL     1     142.630 144.049 138.871  1.00  0.00     0.050 A 
ATOM      5  C   UNL     1     143.726 143.687 139.673  1.00  0.00    -0.042 A 
ATOM      6  C   UNL     1     144.770 144.612 139.855  1.00  0.00     0.004 A 
ATOM      7  C   UNL     1     144.718 145.869 139.248  1.00  0.00     0.007 A 
ENDROOT
BRANCH   3   8
ATOM      8  O   UNL     1     141.480 145.653 137.466  1.00  0.00    -0.508 OA
ATOM      9  H   UNL     1     140.534 145.401 137.727  1.00  0.00     0.293 HD
ENDBRANCH   3   8
BRANCH   5  10
ATOM     10  C   UNL     1     143.770 142.319 140.327  1.00  0.00     0.013 C 
ATOM     11  C   UNL     1     143.108 141.260 139.438  1.00  0.00     0.012 C 
ATOM     12  C   UNL     1     145.207 141.921 140.684  1.00  0.00     0.012 C 
ENDBRANCH   5  10
TORSDOF 2
ENDMDL
