MODEL 1
REMARK VINA RESULT:    -5.227      0.000      0.000
REMARK INTER + INTRA:          -7.322
REMARK INTER:                  -7.060
REMARK INTRA:                  -0.262
REMARK UNBOUND:                -0.262
REMARK SMILES O=c1c(-c2ccc(O)cc2)coc2c([C@@H]3O[C@@H](CO)[C@H](O)[C@H](O)[C@H]3O)c(O)ccc12
REMARK SMILES IDX 3 1 11 2 12 3 13 4 30 5 2 6 1 7 29 8 28 9 26 10 14 11 4 12
REMARK SMILES IDX 5 13 6 14 7 15 10 16 9 17 8 18 15 20 24 21 16 22 22 23 17 24
REMARK SMILES IDX 20 25 25 26 23 28 18 30 19 31 21 33 27 35
REMARK H PARENT 8 19 25 27 23 29 19 32 21 34 27 36
REMARK Flexibility Score: inf
ROOT
ATOM      1  C   UNL     1      85.922   1.464   2.050  1.00  0.00     0.065 A 
ATOM      2  C   UNL     1      85.426   2.288   3.069  1.00  0.00     0.208 A 
ATOM      3  O   UNL     1      85.494   1.915   4.342  1.00  0.00    -0.463 OA
ATOM      4  C   UNL     1      86.028   0.760   4.734  1.00  0.00     0.147 A 
ATOM      5  C   UNL     1      86.531  -0.142   3.767  1.00  0.00     0.066 A 
ATOM      6  C   UNL     1      86.467   0.218   2.410  1.00  0.00     0.200 A 
ATOM      7  O   UNL     1      86.871  -0.578   1.516  1.00  0.00    -0.288 OA
ATOM      8  C   UNL     1      87.074  -1.369   4.179  1.00  0.00     0.020 A 
ATOM      9  C   UNL     1      87.121  -1.697   5.532  1.00  0.00     0.047 A 
ATOM     10  C   UNL     1      86.636  -0.808   6.499  1.00  0.00     0.125 A 
ATOM     11  C   UNL     1      86.088   0.436   6.109  1.00  0.00     0.069 A 
ENDROOT
BRANCH   1  12
ATOM     12  C   UNL     1      85.880   1.921   0.640  1.00  0.00    -0.011 A 
ATOM     13  C   UNL     1      84.759   1.651  -0.164  1.00  0.00     0.013 A 
ATOM     14  C   UNL     1      84.713   2.101  -1.486  1.00  0.00     0.047 A 
ATOM     15  C   UNL     1      85.780   2.839  -2.016  1.00  0.00     0.115 A 
ATOM     16  C   UNL     1      86.947   2.662   0.102  1.00  0.00     0.013 A 
ATOM     17  C   UNL     1      86.892   3.119  -1.219  1.00  0.00     0.047 A 
BRANCH  15  18
ATOM     18  O   UNL     1      85.743   3.299  -3.331  1.00  0.00    -0.508 OA
ATOM     19  H   UNL     1      86.140   2.759  -4.092  1.00  0.00     0.293 HD
ENDBRANCH  15  18
ENDBRANCH   1  12
BRANCH  11  20
ATOM     20  C   UNL     1      85.554   1.399   7.159  1.00  0.00     0.188 C 
ATOM     21  C   UNL     1      85.740   2.865   6.690  1.00  0.00     0.179 C 
ATOM     22  O   UNL     1      84.207   1.041   7.461  1.00  0.00    -0.362 OA
ATOM     23  C   UNL     1      85.238   3.844   7.779  1.00  0.00     0.177 C 
ATOM     24  C   UNL     1      83.353   2.121   7.825  1.00  0.00     0.176 C 
ATOM     25  C   UNL     1      84.095   3.225   8.627  1.00  0.00     0.177 C 
BRANCH  21  26
ATOM     26  O   UNL     1      87.098   3.111   6.424  1.00  0.00    -0.387 OA
ATOM     27  H   UNL     1      87.143   3.498   5.511  1.00  0.00     0.211 HD
ENDBRANCH  21  26
BRANCH  23  28
ATOM     28  O   UNL     1      84.864   5.070   7.198  1.00  0.00    -0.387 OA
ATOM     29  H   UNL     1      83.871   5.110   7.190  1.00  0.00     0.211 HD
ENDBRANCH  23  28
BRANCH  24  30
ATOM     30  C   UNL     1      82.183   1.550   8.636  1.00  0.00     0.191 C 
BRANCH  30  31
ATOM     31  O   UNL     1      81.112   2.455   8.626  1.00  0.00    -0.394 OA
ATOM     32  H   UNL     1      80.677   2.378   9.515  1.00  0.00     0.210 HD
ENDBRANCH  30  31
ENDBRANCH  24  30
BRANCH  25  33
ATOM     33  O   UNL     1      83.222   4.219   9.114  1.00  0.00    -0.388 OA
ATOM     34  H   UNL     1      82.292   3.940   8.908  1.00  0.00     0.211 HD
ENDBRANCH  25  33
ENDBRANCH  11  20
BRANCH  10  35
ATOM     35  O   UNL     1      86.700  -1.159   7.847  1.00  0.00    -0.507 OA
ATOM     36  H   UNL     1      87.353  -0.716   8.483  1.00  0.00     0.293 HD
ENDBRANCH  10  35
TORSDOF 9
ENDMDL
MODEL 2
REMARK VINA RESULT:    -4.517      1.879      2.660
REMARK INTER + INTRA:          -6.363
REMARK INTER:                  -6.829
REMARK INTRA:                   0.466
REMARK UNBOUND:                -0.262
REMARK SMILES O=c1c(-c2ccc(O)cc2)coc2c([C@@H]3O[C@@H](CO)[C@H](O)[C@H](O)[C@H]3O)c(O)ccc12
REMARK SMILES IDX 3 1 11 2 12 3 13 4 30 5 2 6 1 7 29 8 28 9 26 10 14 11 4 12
REMARK SMILES IDX 5 13 6 14 7 15 10 16 9 17 8 18 15 20 24 21 16 22 22 23 17 24
REMARK SMILES IDX 20 25 25 26 23 28 18 30 19 31 21 33 27 35
REMARK H PARENT 8 19 25 27 23 29 19 32 21 34 27 36
REMARK Flexibility Score: inf
ROOT
ATOM      1  C   UNL     1      86.025   1.295   3.698  1.00  0.00     0.065 A 
ATOM      2  C   UNL     1      85.464   2.514   4.103  1.00  0.00     0.208 A 
ATOM      3  O   UNL     1      85.220   2.759   5.385  1.00  0.00    -0.463 OA
ATOM      4  C   UNL     1      85.485   1.887   6.356  1.00  0.00     0.147 A 
ATOM      5  C   UNL     1      86.030   0.624   6.031  1.00  0.00     0.066 A 
ATOM      6  C   UNL     1      86.293   0.328   4.682  1.00  0.00     0.200 A 
ATOM      7  O   UNL     1      86.744  -0.806   4.351  1.00  0.00    -0.288 OA
ATOM      8  C   UNL     1      86.290  -0.304   7.053  1.00  0.00     0.020 A 
ATOM      9  C   UNL     1      86.016   0.020   8.379  1.00  0.00     0.047 A 
ATOM     10  C   UNL     1      85.487   1.272   8.714  1.00  0.00     0.125 A 
ATOM     11  C   UNL     1      85.220   2.224   7.703  1.00  0.00     0.069 A 
ENDROOT
BRANCH   1  12
ATOM     12  C   UNL     1      86.334   1.060   2.267  1.00  0.00    -0.011 A 
ATOM     13  C   UNL     1      86.851  -0.176   1.842  1.00  0.00     0.013 A 
ATOM     14  C   UNL     1      87.122  -0.402   0.489  1.00  0.00     0.047 A 
ATOM     15  C   UNL     1      86.866   0.599  -0.457  1.00  0.00     0.115 A 
ATOM     16  C   UNL     1      86.079   2.060   1.311  1.00  0.00     0.013 A 
ATOM     17  C   UNL     1      86.342   1.827  -0.042  1.00  0.00     0.047 A 
BRANCH  15  18
ATOM     18  O   UNL     1      87.125   0.384  -1.808  1.00  0.00    -0.508 OA
ATOM     19  H   UNL     1      87.340  -0.540  -2.166  1.00  0.00     0.293 HD
ENDBRANCH  15  18
ENDBRANCH   1  12
BRANCH  11  20
ATOM     20  C   UNL     1      84.638   3.582   8.066  1.00  0.00     0.188 C 
ATOM     21  C   UNL     1      85.345   4.704   7.263  1.00  0.00     0.179 C 
ATOM     22  O   UNL     1      83.224   3.531   7.891  1.00  0.00    -0.362 OA
ATOM     23  C   UNL     1      84.783   6.088   7.667  1.00  0.00     0.177 C 
ATOM     24  C   UNL     1      82.611   4.756   7.501  1.00  0.00     0.176 C 
ATOM     25  C   UNL     1      83.303   5.998   8.126  1.00  0.00     0.177 C 
BRANCH  21  26
ATOM     26  O   UNL     1      86.729   4.666   7.509  1.00  0.00    -0.387 OA
ATOM     27  H   UNL     1      86.938   5.456   8.072  1.00  0.00     0.211 HD
ENDBRANCH  21  26
BRANCH  23  28
ATOM     28  O   UNL     1      84.958   7.010   6.618  1.00  0.00    -0.387 OA
ATOM     29  H   UNL     1      85.099   7.906   7.024  1.00  0.00     0.211 HD
ENDBRANCH  23  28
BRANCH  24  30
ATOM     30  C   UNL     1      81.131   4.697   7.901  1.00  0.00     0.191 C 
BRANCH  30  31
ATOM     31  O   UNL     1      80.909   3.597   8.741  1.00  0.00    -0.394 OA
ATOM     32  H   UNL     1      80.969   3.941   9.670  1.00  0.00     0.210 HD
ENDBRANCH  30  31
ENDBRANCH  24  30
BRANCH  25  33
ATOM     33  O   UNL     1      82.610   7.195   7.860  1.00  0.00    -0.388 OA
ATOM     34  H   UNL     1      83.196   7.954   8.115  1.00  0.00     0.211 HD
ENDBRANCH  25  33
ENDBRANCH  11  20
BRANCH  10  35
ATOM     35  O   UNL     1      85.227   1.572  10.052  1.00  0.00    -0.507 OA
ATOM     36  H   UNL     1      84.326   1.382  10.475  1.00  0.00     0.293 HD
ENDBRANCH  10  35
TORSDOF 9
ENDMDL
MODEL 3
REMARK VINA RESULT:    -3.787      4.267      7.428
REMARK INTER + INTRA:          -5.377
REMARK INTER:                  -4.981
REMARK INTRA:                  -0.396
REMARK UNBOUND:                -0.262
REMARK SMILES O=c1c(-c2ccc(O)cc2)coc2c([C@@H]3O[C@@H](CO)[C@H](O)[C@H](O)[C@H]3O)c(O)ccc12
REMARK SMILES IDX 3 1 11 2 12 3 13 4 30 5 2 6 1 7 29 8 28 9 26 10 14 11 4 12
REMARK SMILES IDX 5 13 6 14 7 15 10 16 9 17 8 18 15 20 24 21 16 22 22 23 17 24
REMARK SMILES IDX 20 25 25 26 23 28 18 30 19 31 21 33 27 35
REMARK H PARENT 8 19 25 27 23 29 19 32 21 34 27 36
REMARK Flexibility Score: inf
ROOT
ATOM      1  C   UNL     1      80.898   1.597  -0.025  1.00  0.00     0.065 A 
ATOM      2  C   UNL     1      81.684   0.721   0.734  1.00  0.00     0.208 A 
ATOM      3  O   UNL     1      83.003   0.866   0.793  1.00  0.00    -0.463 OA
ATOM      4  C   UNL     1      83.658   1.832   0.153  1.00  0.00     0.147 A 
ATOM      5  C   UNL     1      82.942   2.745  -0.655  1.00  0.00     0.066 A 
ATOM      6  C   UNL     1      81.546   2.615  -0.746  1.00  0.00     0.200 A 
ATOM      7  O   UNL     1      80.877   3.390  -1.488  1.00  0.00    -0.288 OA
ATOM      8  C   UNL     1      83.636   3.751  -1.347  1.00  0.00     0.020 A 
ATOM      9  C   UNL     1      85.020   3.852  -1.237  1.00  0.00     0.047 A 
ATOM     10  C   UNL     1      85.739   2.960  -0.432  1.00  0.00     0.125 A 
ATOM     11  C   UNL     1      85.063   1.941   0.279  1.00  0.00     0.069 A 
ENDROOT
BRANCH   1  12
ATOM     12  C   UNL     1      79.423   1.447  -0.038  1.00  0.00    -0.011 A 
ATOM     13  C   UNL     1      78.594   2.518   0.340  1.00  0.00     0.013 A 
ATOM     14  C   UNL     1      77.203   2.380   0.306  1.00  0.00     0.047 A 
ATOM     15  C   UNL     1      76.624   1.177  -0.119  1.00  0.00     0.115 A 
ATOM     16  C   UNL     1      78.835   0.243  -0.463  1.00  0.00     0.013 A 
ATOM     17  C   UNL     1      77.443   0.113  -0.505  1.00  0.00     0.047 A 
BRANCH  15  18
ATOM     18  O   UNL     1      75.240   1.030  -0.163  1.00  0.00    -0.508 OA
ATOM     19  H   UNL     1      74.776   0.618  -0.966  1.00  0.00     0.293 HD
ENDBRANCH  15  18
ENDBRANCH   1  12
BRANCH  11  20
ATOM     20  C   UNL     1      85.844   0.967   1.148  1.00  0.00     0.188 C 
ATOM     21  C   UNL     1      85.801   1.414   2.631  1.00  0.00     0.179 C 
ATOM     22  O   UNL     1      85.348  -0.349   0.913  1.00  0.00    -0.362 OA
ATOM     23  C   UNL     1      86.634   0.447   3.507  1.00  0.00     0.177 C 
ATOM     24  C   UNL     1      85.410  -1.235   2.027  1.00  0.00     0.176 C 
ATOM     25  C   UNL     1      86.657  -0.989   2.919  1.00  0.00     0.177 C 
BRANCH  21  26
ATOM     26  O   UNL     1      86.313   2.719   2.750  1.00  0.00    -0.387 OA
ATOM     27  H   UNL     1      87.297   2.630   2.841  1.00  0.00     0.211 HD
ENDBRANCH  21  26
BRANCH  23  28
ATOM     28  O   UNL     1      86.169   0.470   4.836  1.00  0.00    -0.387 OA
ATOM     29  H   UNL     1      85.628   1.294   4.952  1.00  0.00     0.211 HD
ENDBRANCH  23  28
BRANCH  24  30
ATOM     30  C   UNL     1      85.395  -2.673   1.494  1.00  0.00     0.191 C 
BRANCH  30  31
ATOM     31  O   UNL     1      86.688  -3.211   1.542  1.00  0.00    -0.394 OA
ATOM     32  H   UNL     1      87.229  -2.691   0.892  1.00  0.00     0.210 HD
ENDBRANCH  30  31
ENDBRANCH  24  30
BRANCH  25  33
ATOM     33  O   UNL     1      86.796  -1.956   3.934  1.00  0.00    -0.388 OA
ATOM     34  H   UNL     1      87.214  -1.520   4.721  1.00  0.00     0.211 HD
ENDBRANCH  25  33
ENDBRANCH  11  20
BRANCH  10  35
ATOM     35  O   UNL     1      87.125   3.086  -0.335  1.00  0.00    -0.507 OA
ATOM     36  H   UNL     1      87.608   3.917  -0.655  1.00  0.00     0.293 HD
ENDBRANCH  10  35
TORSDOF 9
ENDMDL
MODEL 4
REMARK VINA RESULT:    -3.581      3.144      6.067
REMARK INTER + INTRA:          -5.098
REMARK INTER:                  -5.210
REMARK INTRA:                   0.111
REMARK UNBOUND:                -0.262
REMARK SMILES O=c1c(-c2ccc(O)cc2)coc2c([C@@H]3O[C@@H](CO)[C@H](O)[C@H](O)[C@H]3O)c(O)ccc12
REMARK SMILES IDX 3 1 11 2 12 3 13 4 30 5 2 6 1 7 29 8 28 9 26 10 14 11 4 12
REMARK SMILES IDX 5 13 6 14 7 15 10 16 9 17 8 18 15 20 24 21 16 22 22 23 17 24
REMARK SMILES IDX 20 25 25 26 23 28 18 30 19 31 21 33 27 35
REMARK H PARENT 8 19 25 27 23 29 19 32 21 34 27 36
REMARK Flexibility Score: inf
ROOT
ATOM      1  C   UNL     1      85.461   1.754   5.885  1.00  0.00     0.065 A 
ATOM      2  C   UNL     1      85.688   3.048   5.399  1.00  0.00     0.208 A 
ATOM      3  O   UNL     1      85.327   4.114   6.104  1.00  0.00    -0.463 OA
ATOM      4  C   UNL     1      84.738   4.033   7.295  1.00  0.00     0.147 A 
ATOM      5  C   UNL     1      84.450   2.764   7.848  1.00  0.00     0.066 A 
ATOM      6  C   UNL     1      84.812   1.614   7.125  1.00  0.00     0.200 A 
ATOM      7  O   UNL     1      84.537   0.464   7.570  1.00  0.00    -0.288 OA
ATOM      8  C   UNL     1      83.810   2.679   9.095  1.00  0.00     0.020 A 
ATOM      9  C   UNL     1      83.463   3.837   9.786  1.00  0.00     0.047 A 
ATOM     10  C   UNL     1      83.752   5.099   9.254  1.00  0.00     0.125 A 
ATOM     11  C   UNL     1      84.400   5.211   8.001  1.00  0.00     0.069 A 
ENDROOT
BRANCH   1  12
ATOM     12  C   UNL     1      85.916   0.578   5.105  1.00  0.00    -0.011 A 
ATOM     13  C   UNL     1      86.561  -0.495   5.743  1.00  0.00     0.013 A 
ATOM     14  C   UNL     1      86.971  -1.612   5.008  1.00  0.00     0.047 A 
ATOM     15  C   UNL     1      86.728  -1.675   3.630  1.00  0.00     0.115 A 
ATOM     16  C   UNL     1      85.676   0.507   3.722  1.00  0.00     0.013 A 
ATOM     17  C   UNL     1      86.078  -0.616   2.992  1.00  0.00     0.047 A 
BRANCH  15  18
ATOM     18  O   UNL     1      87.125  -2.785   2.888  1.00  0.00    -0.508 OA
ATOM     19  H   UNL     1      86.486  -3.549   2.693  1.00  0.00     0.293 HD
ENDBRANCH  15  18
ENDBRANCH   1  12
BRANCH  11  20
ATOM     20  C   UNL     1      84.708   6.583   7.419  1.00  0.00     0.188 C 
ATOM     21  C   UNL     1      86.008   6.532   6.578  1.00  0.00     0.179 C 
ATOM     22  O   UNL     1      83.560   7.041   6.708  1.00  0.00    -0.362 OA
ATOM     23  C   UNL     1      86.344   7.938   6.024  1.00  0.00     0.177 C 
ATOM     24  C   UNL     1      83.829   7.874   5.584  1.00  0.00     0.176 C 
ATOM     25  C   UNL     1      85.066   8.789   5.799  1.00  0.00     0.177 C 
BRANCH  21  26
ATOM     26  O   UNL     1      87.072   6.071   7.373  1.00  0.00    -0.387 OA
ATOM     27  H   UNL     1      87.155   5.097   7.200  1.00  0.00     0.211 HD
ENDBRANCH  21  26
BRANCH  23  28
ATOM     28  O   UNL     1      87.122   7.828   4.855  1.00  0.00    -0.387 OA
ATOM     29  H   UNL     1      87.828   8.526   4.897  1.00  0.00     0.211 HD
ENDBRANCH  23  28
BRANCH  24  30
ATOM     30  C   UNL     1      82.576   8.710   5.298  1.00  0.00     0.191 C 
BRANCH  30  31
ATOM     31  O   UNL     1      82.598   9.879   6.069  1.00  0.00    -0.394 OA
ATOM     32  H   UNL     1      81.761  10.369   5.855  1.00  0.00     0.210 HD
ENDBRANCH  30  31
ENDBRANCH  24  30
BRANCH  25  33
ATOM     33  O   UNL     1      85.244   9.713   4.751  1.00  0.00    -0.388 OA
ATOM     34  H   UNL     1      84.449  10.307   4.726  1.00  0.00     0.211 HD
ENDBRANCH  25  33
ENDBRANCH  11  20
BRANCH  10  35
ATOM     35  O   UNL     1      83.398   6.244   9.969  1.00  0.00    -0.507 OA
ATOM     36  H   UNL     1      82.947   7.033   9.521  1.00  0.00     0.293 HD
ENDBRANCH  10  35
TORSDOF 9
ENDMDL
MODEL 5
REMARK VINA RESULT:    -3.526      1.679      7.628
REMARK INTER + INTRA:          -5.024
REMARK INTER:                  -4.762
REMARK INTRA:                  -0.262
REMARK UNBOUND:                -0.262
REMARK SMILES O=c1c(-c2ccc(O)cc2)coc2c([C@@H]3O[C@@H](CO)[C@H](O)[C@H](O)[C@H]3O)c(O)ccc12
REMARK SMILES IDX 3 1 11 2 12 3 13 4 30 5 2 6 1 7 29 8 28 9 26 10 14 11 4 12
REMARK SMILES IDX 5 13 6 14 7 15 10 16 9 17 8 18 15 20 24 21 16 22 22 23 17 24
REMARK SMILES IDX 20 25 25 26 23 28 18 30 19 31 21 33 27 35
REMARK H PARENT 8 19 25 27 23 29 19 32 21 34 27 36
REMARK Flexibility Score: inf
ROOT
ATOM      1  C   UNL     1      85.307   2.288   5.657  1.00  0.00     0.065 A 
ATOM      2  C   UNL     1      84.930   2.694   4.370  1.00  0.00     0.208 A 
ATOM      3  O   UNL     1      85.183   1.930   3.313  1.00  0.00    -0.463 OA
ATOM      4  C   UNL     1      85.796   0.752   3.397  1.00  0.00     0.147 A 
ATOM      5  C   UNL     1      86.231   0.278   4.656  1.00  0.00     0.066 A 
ATOM      6  C   UNL     1      85.987   1.065   5.795  1.00  0.00     0.200 A 
ATOM      7  O   UNL     1      86.395   0.692   6.932  1.00  0.00    -0.288 OA
ATOM      8  C   UNL     1      86.897  -0.956   4.742  1.00  0.00     0.020 A 
ATOM      9  C   UNL     1      87.125  -1.710   3.594  1.00  0.00     0.047 A 
ATOM     10  C   UNL     1      86.689  -1.257   2.343  1.00  0.00     0.125 A 
ATOM     11  C   UNL     1      86.013  -0.020   2.232  1.00  0.00     0.069 A 
ENDROOT
BRANCH   1  12
ATOM     12  C   UNL     1      84.972   3.132   6.829  1.00  0.00    -0.011 A 
ATOM     13  C   UNL     1      85.304   4.498   6.841  1.00  0.00     0.013 A 
ATOM     14  C   UNL     1      84.968   5.297   7.939  1.00  0.00     0.047 A 
ATOM     15  C   UNL     1      84.284   4.744   9.029  1.00  0.00     0.115 A 
ATOM     16  C   UNL     1      84.285   2.585   7.926  1.00  0.00     0.013 A 
ATOM     17  C   UNL     1      83.942   3.389   9.017  1.00  0.00     0.047 A 
BRANCH  15  18
ATOM     18  O   UNL     1      83.938   5.531  10.125  1.00  0.00    -0.508 OA
ATOM     19  H   UNL     1      84.429   6.393  10.335  1.00  0.00     0.293 HD
ENDBRANCH  15  18
ENDBRANCH   1  12
BRANCH  11  20
ATOM     20  C   UNL     1      85.546   0.476   0.871  1.00  0.00     0.188 C 
ATOM     21  C   UNL     1      84.103   1.034   0.968  1.00  0.00     0.179 C 
ATOM     22  O   UNL     1      86.507   1.404   0.373  1.00  0.00    -0.362 OA
ATOM     23  C   UNL     1      83.613   1.497  -0.426  1.00  0.00     0.177 C 
ATOM     24  C   UNL     1      85.985   2.443  -0.450  1.00  0.00     0.176 C 
ATOM     25  C   UNL     1      84.788   1.972  -1.321  1.00  0.00     0.177 C 
BRANCH  21  26
ATOM     26  O   UNL     1      83.241   0.042   1.466  1.00  0.00    -0.387 OA
ATOM     27  H   UNL     1      83.815  -0.714   1.754  1.00  0.00     0.211 HD
ENDBRANCH  21  26
BRANCH  23  28
ATOM     28  O   UNL     1      82.617   2.483  -0.290  1.00  0.00    -0.387 OA
ATOM     29  H   UNL     1      82.471   2.632   0.681  1.00  0.00     0.211 HD
ENDBRANCH  23  28
BRANCH  24  30
ATOM     30  C   UNL     1      87.125   2.972  -1.329  1.00  0.00     0.191 C 
BRANCH  30  31
ATOM     31  O   UNL     1      86.887   4.313  -1.660  1.00  0.00    -0.394 OA
ATOM     32  H   UNL     1      87.385   4.484  -2.501  1.00  0.00     0.210 HD
ENDBRANCH  30  31
ENDBRANCH  24  30
BRANCH  25  33
ATOM     33  O   UNL     1      84.368   2.955  -2.240  1.00  0.00    -0.388 OA
ATOM     34  H   UNL     1      83.386   2.868  -2.356  1.00  0.00     0.211 HD
ENDBRANCH  25  33
ENDBRANCH  11  20
BRANCH  10  35
ATOM     35  O   UNL     1      86.926  -2.036   1.210  1.00  0.00    -0.507 OA
ATOM     36  H   UNL     1      86.449  -2.916   1.059  1.00  0.00     0.293 HD
ENDBRANCH  10  35
TORSDOF 9
ENDMDL
MODEL 6
REMARK VINA RESULT:    -3.212      5.131      8.548
REMARK INTER + INTRA:          -4.600
REMARK INTER:                  -4.082
REMARK INTRA:                  -0.518
REMARK UNBOUND:                -0.262
REMARK SMILES O=c1c(-c2ccc(O)cc2)coc2c([C@@H]3O[C@@H](CO)[C@H](O)[C@H](O)[C@H]3O)c(O)ccc12
REMARK SMILES IDX 3 1 11 2 12 3 13 4 30 5 2 6 1 7 29 8 28 9 26 10 14 11 4 12
REMARK SMILES IDX 5 13 6 14 7 15 10 16 9 17 8 18 15 20 24 21 16 22 22 23 17 24
REMARK SMILES IDX 20 25 25 26 23 28 18 30 19 31 21 33 27 35
REMARK H PARENT 8 19 25 27 23 29 19 32 21 34 27 36
REMARK Flexibility Score: inf
ROOT
ATOM      1  C   UNL     1      80.794   1.482  -0.055  1.00  0.00     0.065 A 
ATOM      2  C   UNL     1      81.514   2.424  -0.802  1.00  0.00     0.208 A 
ATOM      3  O   UNL     1      82.842   2.443  -0.777  1.00  0.00    -0.463 OA
ATOM      4  C   UNL     1      83.568   1.590  -0.060  1.00  0.00     0.147 A 
ATOM      5  C   UNL     1      82.920   0.621   0.742  1.00  0.00     0.066 A 
ATOM      6  C   UNL     1      81.515   0.578   0.745  1.00  0.00     0.200 A 
ATOM      7  O   UNL     1      80.901  -0.248   1.478  1.00  0.00    -0.288 OA
ATOM      8  C   UNL     1      83.686  -0.266   1.515  1.00  0.00     0.020 A 
ATOM      9  C   UNL     1      85.077  -0.196   1.491  1.00  0.00     0.047 A 
ATOM     10  C   UNL     1      85.730   0.751   0.693  1.00  0.00     0.125 A 
ATOM     11  C   UNL     1      84.981   1.653  -0.097  1.00  0.00     0.069 A 
ENDROOT
BRANCH   1  12
ATOM     12  C   UNL     1      79.314   1.446  -0.135  1.00  0.00    -0.011 A 
ATOM     13  C   UNL     1      78.656   0.333  -0.687  1.00  0.00     0.013 A 
ATOM     14  C   UNL     1      77.260   0.293  -0.742  1.00  0.00     0.047 A 
ATOM     15  C   UNL     1      76.504   1.358  -0.233  1.00  0.00     0.115 A 
ATOM     16  C   UNL     1      78.549   2.511   0.373  1.00  0.00     0.013 A 
ATOM     17  C   UNL     1      77.153   2.462   0.326  1.00  0.00     0.047 A 
BRANCH  15  18
ATOM     18  O   UNL     1      75.113   1.327  -0.276  1.00  0.00    -0.508 OA
ATOM     19  H   UNL     1      74.561   1.147   0.555  1.00  0.00     0.293 HD
ENDBRANCH  15  18
ENDBRANCH   1  12
BRANCH  11  20
ATOM     20  C   UNL     1      85.690   2.688  -0.959  1.00  0.00     0.188 C 
ATOM     21  C   UNL     1      85.730   2.222  -2.437  1.00  0.00     0.179 C 
ATOM     22  O   UNL     1      85.066   3.953  -0.754  1.00  0.00    -0.362 OA
ATOM     23  C   UNL     1      86.492   3.254  -3.303  1.00  0.00     0.177 C 
ATOM     24  C   UNL     1      85.074   4.828  -1.878  1.00  0.00     0.176 C 
ATOM     25  C   UNL     1      86.363   4.692  -2.734  1.00  0.00     0.177 C 
BRANCH  21  26
ATOM     26  O   UNL     1      86.366   0.971  -2.525  1.00  0.00    -0.387 OA
ATOM     27  H   UNL     1      87.009   0.926  -1.771  1.00  0.00     0.211 HD
ENDBRANCH  21  26
BRANCH  23  28
ATOM     28  O   UNL     1      86.067   3.173  -4.643  1.00  0.00    -0.387 OA
ATOM     29  H   UNL     1      85.074   3.159  -4.644  1.00  0.00     0.211 HD
ENDBRANCH  23  28
BRANCH  24  30
ATOM     30  C   UNL     1      84.910   6.264  -1.365  1.00  0.00     0.191 C 
BRANCH  30  31
ATOM     31  O   UNL     1      86.146   6.923  -1.390  1.00  0.00    -0.394 OA
ATOM     32  H   UNL     1      86.333   7.197  -0.455  1.00  0.00     0.210 HD
ENDBRANCH  30  31
ENDBRANCH  24  30
BRANCH  25  33
ATOM     33  O   UNL     1      86.438   5.657  -3.757  1.00  0.00    -0.388 OA
ATOM     34  H   UNL     1      86.640   5.189  -4.609  1.00  0.00     0.211 HD
ENDBRANCH  25  33
ENDBRANCH  11  20
BRANCH  10  35
ATOM     35  O   UNL     1      87.125   0.797   0.684  1.00  0.00    -0.507 OA
ATOM     36  H   UNL     1      87.673   0.486   1.476  1.00  0.00     0.293 HD
ENDBRANCH  10  35
TORSDOF 9
ENDMDL
