MODEL 1
REMARK VINA RESULT:    -4.292      0.000      0.000
REMARK INTER + INTRA:          -5.119
REMARK INTER:                  -5.044
REMARK INTRA:                  -0.075
REMARK UNBOUND:                -0.075
REMARK SMILES CCCCC(=O)[O-]
REMARK SMILES IDX 4 1 5 2 6 3 7 4 3 5 2 6 1 7
REMARK H PARENT
REMARK Flexibility Score: inf
ROOT
ATOM      1  C   UNL     1      92.608   7.432  10.323  1.00  0.00     0.053 C 
ENDROOT
BRANCH   1   2
ATOM      2  C   UNL     1      91.669   6.618  11.156  1.00  0.00     0.041 C 
ATOM      3  O   UNL     1      91.626   6.780  12.404  1.00  0.00    -0.550 OA
ATOM      4  O   UNL     1      90.805   5.716  10.549  1.00  0.00    -0.550 OA
ENDBRANCH   1   2
BRANCH   1   5
ATOM      5  C   UNL     1      94.060   7.036  10.610  1.00  0.00     0.006 C 
BRANCH   5   6
ATOM      6  C   UNL     1      94.756   6.542   9.336  1.00  0.00    -0.003 C 
ATOM      7  C   UNL     1      94.359   5.104   9.013  1.00  0.00     0.004 C 
ENDBRANCH   5   6
ENDBRANCH   1   5
TORSDOF 3
ENDMDL
MODEL 2
REMARK VINA RESULT:    -4.238     20.302     21.287
REMARK INTER + INTRA:          -5.056
REMARK INTER:                  -5.032
REMARK INTRA:                  -0.024
REMARK UNBOUND:                -0.075
REMARK SMILES CCCCC(=O)[O-]
REMARK SMILES IDX 4 1 5 2 6 3 7 4 3 5 2 6 1 7
REMARK H PARENT
REMARK Flexibility Score: inf
ROOT
ATOM      1  C   UNL     1      89.585  -7.301  -5.623  1.00  0.00     0.053 C 
ENDROOT
BRANCH   1   2
ATOM      2  C   UNL     1      89.485  -8.426  -4.642  1.00  0.00     0.041 C 
ATOM      3  O   UNL     1      88.913  -9.499  -4.965  1.00  0.00    -0.550 OA
ATOM      4  O   UNL     1      90.069  -8.308  -3.387  1.00  0.00    -0.550 OA
ENDBRANCH   1   2
BRANCH   1   5
ATOM      5  C   UNL     1      88.268  -6.522  -5.683  1.00  0.00     0.006 C 
BRANCH   5   6
ATOM      6  C   UNL     1      88.503  -5.025  -5.452  1.00  0.00    -0.003 C 
ATOM      7  C   UNL     1      88.544  -4.263  -6.774  1.00  0.00     0.004 C 
ENDBRANCH   5   6
ENDBRANCH   1   5
TORSDOF 3
ENDMDL
MODEL 3
REMARK VINA RESULT:    -4.017      2.482      3.749
REMARK INTER + INTRA:          -4.796
REMARK INTER:                  -4.770
REMARK INTRA:                  -0.026
REMARK UNBOUND:                -0.075
REMARK SMILES CCCCC(=O)[O-]
REMARK SMILES IDX 4 1 5 2 6 3 7 4 3 5 2 6 1 7
REMARK H PARENT
REMARK Flexibility Score: inf
ROOT
ATOM      1  C   UNL     1      93.237   6.279  10.298  1.00  0.00     0.053 C 
ENDROOT
BRANCH   1   2
ATOM      2  C   UNL     1      94.588   6.917  10.223  1.00  0.00     0.041 C 
ATOM      3  O   UNL     1      95.217   6.941   9.132  1.00  0.00    -0.550 OA
ATOM      4  O   UNL     1      95.132   7.529  11.345  1.00  0.00    -0.550 OA
ENDBRANCH   1   2
BRANCH   1   5
ATOM      5  C   UNL     1      92.172   7.319  10.659  1.00  0.00     0.006 C 
BRANCH   5   6
ATOM      6  C   UNL     1      91.026   6.680  11.453  1.00  0.00    -0.003 C 
ATOM      7  C   UNL     1      90.364   5.558  10.658  1.00  0.00     0.004 C 
ENDBRANCH   5   6
ENDBRANCH   1   5
TORSDOF 3
ENDMDL
MODEL 4
REMARK VINA RESULT:    -3.987     20.295     20.991
REMARK INTER + INTRA:          -4.761
REMARK INTER:                  -4.708
REMARK INTRA:                  -0.053
REMARK UNBOUND:                -0.075
REMARK SMILES CCCCC(=O)[O-]
REMARK SMILES IDX 4 1 5 2 6 3 7 4 3 5 2 6 1 7
REMARK H PARENT
REMARK Flexibility Score: inf
ROOT
ATOM      1  C   UNL     1      88.560  -6.599  -6.319  1.00  0.00     0.053 C 
ENDROOT
BRANCH   1   2
ATOM      2  C   UNL     1      88.519  -5.150  -5.949  1.00  0.00     0.041 C 
ATOM      3  O   UNL     1      88.571  -4.266  -6.843  1.00  0.00    -0.550 OA
ATOM      4  O   UNL     1      88.373  -4.776  -4.619  1.00  0.00    -0.550 OA
ENDBRANCH   1   2
BRANCH   1   5
ATOM      5  C   UNL     1      89.774  -7.281  -5.683  1.00  0.00     0.006 C 
BRANCH   5   6
ATOM      6  C   UNL     1      89.348  -8.500  -4.855  1.00  0.00    -0.003 C 
ATOM      7  C   UNL     1      90.002  -8.486  -3.476  1.00  0.00     0.004 C 
ENDBRANCH   5   6
ENDBRANCH   1   5
TORSDOF 3
ENDMDL
MODEL 5
REMARK VINA RESULT:    -3.781     16.232     17.056
REMARK INTER + INTRA:          -4.519
REMARK INTER:                  -4.379
REMARK INTRA:                  -0.141
REMARK UNBOUND:                -0.075
REMARK SMILES CCCCC(=O)[O-]
REMARK SMILES IDX 4 1 5 2 6 3 7 4 3 5 2 6 1 7
REMARK H PARENT
REMARK Flexibility Score: inf
ROOT
ATOM      1  C   UNL     1      81.282  -3.382   2.868  1.00  0.00     0.053 C 
ENDROOT
BRANCH   1   2
ATOM      2  C   UNL     1      82.712  -2.943   2.854  1.00  0.00     0.041 C 
ATOM      3  O   UNL     1      83.633  -3.776   3.058  1.00  0.00    -0.550 OA
ATOM      4  O   UNL     1      83.030  -1.621   2.567  1.00  0.00    -0.550 OA
ENDBRANCH   1   2
BRANCH   1   5
ATOM      5  C   UNL     1      80.605  -3.045   1.537  1.00  0.00     0.006 C 
BRANCH   5   6
ATOM      6  C   UNL     1      81.260  -3.806   0.378  1.00  0.00    -0.003 C 
ATOM      7  C   UNL     1      81.663  -2.856  -0.747  1.00  0.00     0.004 C 
ENDBRANCH   5   6
ENDBRANCH   1   5
TORSDOF 3
ENDMDL
MODEL 6
REMARK VINA RESULT:    -3.770     10.356     11.052
REMARK INTER + INTRA:          -4.506
REMARK INTER:                  -4.390
REMARK INTRA:                  -0.116
REMARK UNBOUND:                -0.075
REMARK SMILES CCCCC(=O)[O-]
REMARK SMILES IDX 4 1 5 2 6 3 7 4 3 5 2 6 1 7
REMARK H PARENT
REMARK Flexibility Score: inf
ROOT
ATOM      1  C   UNL     1      96.714  -4.351  11.017  1.00  0.00     0.053 C 
ENDROOT
BRANCH   1   2
ATOM      2  C   UNL     1      97.111  -3.189  10.162  1.00  0.00     0.041 C 
ATOM      3  O   UNL     1      97.329  -2.064  10.683  1.00  0.00    -0.550 OA
ATOM      4  O   UNL     1      97.289  -3.361   8.795  1.00  0.00    -0.550 OA
ENDBRANCH   1   2
BRANCH   1   5
ATOM      5  C   UNL     1      95.347  -4.890  10.589  1.00  0.00     0.006 C 
BRANCH   5   6
ATOM      6  C   UNL     1      94.296  -3.774  10.571  1.00  0.00    -0.003 C 
ATOM      7  C   UNL     1      93.553  -3.736   9.238  1.00  0.00     0.004 C 
ENDBRANCH   5   6
ENDBRANCH   1   5
TORSDOF 3
ENDMDL
MODEL 7
REMARK VINA RESULT:    -3.728     10.228     10.832
REMARK INTER + INTRA:          -4.456
REMARK INTER:                  -4.366
REMARK INTRA:                  -0.090
REMARK UNBOUND:                -0.075
REMARK SMILES CCCCC(=O)[O-]
REMARK SMILES IDX 4 1 5 2 6 3 7 4 3 5 2 6 1 7
REMARK H PARENT
REMARK Flexibility Score: inf
ROOT
ATOM      1  C   UNL     1      94.101  -3.728  10.102  1.00  0.00     0.053 C 
ENDROOT
BRANCH   1   2
ATOM      2  C   UNL     1      94.007  -3.566   8.619  1.00  0.00     0.041 C 
ATOM      3  O   UNL     1      93.047  -4.076   7.984  1.00  0.00    -0.550 OA
ATOM      4  O   UNL     1      94.953  -2.807   7.941  1.00  0.00    -0.550 OA
ENDBRANCH   1   2
BRANCH   1   5
ATOM      5  C   UNL     1      95.017  -4.903  10.457  1.00  0.00     0.006 C 
BRANCH   5   6
ATOM      6  C   UNL     1      96.398  -4.408  10.903  1.00  0.00    -0.003 C 
ATOM      7  C   UNL     1      96.342  -2.950  11.354  1.00  0.00     0.004 C 
ENDBRANCH   5   6
ENDBRANCH   1   5
TORSDOF 3
ENDMDL
MODEL 8
REMARK VINA RESULT:    -3.698     16.324     17.186
REMARK INTER + INTRA:          -4.421
REMARK INTER:                  -4.287
REMARK INTRA:                  -0.134
REMARK UNBOUND:                -0.075
REMARK SMILES CCCCC(=O)[O-]
REMARK SMILES IDX 4 1 5 2 6 3 7 4 3 5 2 6 1 7
REMARK H PARENT
REMARK Flexibility Score: inf
ROOT
ATOM      1  C   UNL     1      80.544  -3.117   1.487  1.00  0.00     0.053 C 
ENDROOT
BRANCH   1   2
ATOM      2  C   UNL     1      81.282  -2.323   0.457  1.00  0.00     0.041 C 
ATOM      3  O   UNL     1      81.518  -2.819  -0.676  1.00  0.00    -0.550 OA
ATOM      4  O   UNL     1      81.664  -1.015   0.729  1.00  0.00    -0.550 OA
ENDBRANCH   1   2
BRANCH   1   5
ATOM      5  C   UNL     1      81.372  -3.230   2.771  1.00  0.00     0.006 C 
BRANCH   5   6
ATOM      6  C   UNL     1      82.731  -3.883   2.494  1.00  0.00    -0.003 C 
ATOM      7  C   UNL     1      83.867  -3.076   3.116  1.00  0.00     0.004 C 
ENDBRANCH   5   6
ENDBRANCH   1   5
TORSDOF 3
ENDMDL
MODEL 9
REMARK VINA RESULT:    -3.695     16.126     16.947
REMARK INTER + INTRA:          -4.418
REMARK INTER:                  -4.299
REMARK INTRA:                  -0.119
REMARK UNBOUND:                -0.075
REMARK SMILES CCCCC(=O)[O-]
REMARK SMILES IDX 4 1 5 2 6 3 7 4 3 5 2 6 1 7
REMARK H PARENT
REMARK Flexibility Score: inf
ROOT
ATOM      1  C   UNL     1      81.501  -3.711   2.651  1.00  0.00     0.053 C 
ENDROOT
BRANCH   1   2
ATOM      2  C   UNL     1      80.976  -3.441   1.277  1.00  0.00     0.041 C 
ATOM      3  O   UNL     1      80.200  -2.471   1.075  1.00  0.00    -0.550 OA
ATOM      4  O   UNL     1      81.384  -4.230   0.209  1.00  0.00    -0.550 OA
ENDBRANCH   1   2
BRANCH   1   5
ATOM      5  C   UNL     1      83.031  -3.649   2.663  1.00  0.00     0.006 C 
BRANCH   5   6
ATOM      6  C   UNL     1      83.522  -2.198   2.721  1.00  0.00    -0.003 C 
ATOM      7  C   UNL     1      84.293  -1.826   1.456  1.00  0.00     0.004 C 
ENDBRANCH   5   6
ENDBRANCH   1   5
TORSDOF 3
ENDMDL
