MODEL 1
REMARK VINA RESULT:    -4.774      0.000      0.000
REMARK INTER + INTRA:          -6.576
REMARK INTER:                  -6.169
REMARK INTRA:                  -0.406
REMARK UNBOUND:                -0.406
REMARK SMILES CCO[C@H]1O[C@H](CO)[C@H](O)[C@@H](O)[C@H]1O
REMARK SMILES IDX 4 1 13 2 11 3 9 4 6 5 5 6 3 7 2 8 1 9 14 10 12 12 7 14 8 15
REMARK SMILES IDX 10 17
REMARK H PARENT 14 11 12 13 8 16 10 18
REMARK Flexibility Score: inf
ROOT
ATOM      1  C   UNL     1      16.322 -11.050  22.644  1.00  0.00     0.281 C 
ATOM      2  C   UNL     1      15.088 -11.423  23.491  1.00  0.00     0.202 C 
ATOM      3  C   UNL     1      13.855 -11.699  22.598  1.00  0.00     0.179 C 
ATOM      4  C   UNL     1      13.985 -11.011  21.219  1.00  0.00     0.177 C 
ATOM      5  C   UNL     1      14.828  -9.707  21.300  1.00  0.00     0.178 C 
ATOM      6  O   UNL     1      16.124  -9.865  21.880  1.00  0.00    -0.341 OA
ENDROOT
BRANCH   1   7
ATOM      7  O   UNL     1      16.674 -12.134  21.801  1.00  0.00    -0.350 OA
BRANCH   7   8
ATOM      8  C   UNL     1      17.983 -11.962  21.300  1.00  0.00     0.160 C 
ATOM      9  C   UNL     1      18.885 -13.039  21.883  1.00  0.00     0.035 C 
ENDBRANCH   7   8
ENDBRANCH   1   7
BRANCH   2  10
ATOM     10  O   UNL     1      15.369 -12.540  24.297  1.00  0.00    -0.385 OA
ATOM     11  H   UNL     1      15.248 -12.255  25.241  1.00  0.00     0.211 HD
ENDBRANCH   2  10
BRANCH   3  12
ATOM     12  O   UNL     1      13.692 -13.084  22.413  1.00  0.00    -0.387 OA
ATOM     13  H   UNL     1      14.601 -13.482  22.381  1.00  0.00     0.211 HD
ENDBRANCH   3  12
BRANCH   5  14
ATOM     14  C   UNL     1      14.096  -8.552  22.008  1.00  0.00     0.191 C 
BRANCH  14  15
ATOM     15  O   UNL     1      13.141  -7.981  21.156  1.00  0.00    -0.394 OA
ATOM     16  H   UNL     1      13.154  -8.521  20.324  1.00  0.00     0.210 HD
ENDBRANCH  14  15
ENDBRANCH   5  14
BRANCH   4  17
ATOM     17  O   UNL     1      12.714 -10.738  20.685  1.00  0.00    -0.387 OA
ATOM     18  H   UNL     1      12.644 -11.241  19.832  1.00  0.00     0.211 HD
ENDBRANCH   4  17
TORSDOF 7
ENDMDL
MODEL 2
REMARK VINA RESULT:    -4.260     14.102     15.443
REMARK INTER + INTRA:          -5.912
REMARK INTER:                  -5.455
REMARK INTRA:                  -0.457
REMARK UNBOUND:                -0.406
REMARK SMILES CCO[C@H]1O[C@H](CO)[C@H](O)[C@@H](O)[C@H]1O
REMARK SMILES IDX 4 1 13 2 11 3 9 4 6 5 5 6 3 7 2 8 1 9 14 10 12 12 7 14 8 15
REMARK SMILES IDX 10 17
REMARK H PARENT 14 11 12 13 8 16 10 18
REMARK Flexibility Score: inf
ROOT
ATOM      1  C   UNL     1       9.140  -6.418  35.682  1.00  0.00     0.281 C 
ATOM      2  C   UNL     1       8.434  -5.057  35.524  1.00  0.00     0.202 C 
ATOM      3  C   UNL     1       9.188  -4.144  34.528  1.00  0.00     0.179 C 
ATOM      4  C   UNL     1      10.673  -4.552  34.394  1.00  0.00     0.177 C 
ATOM      5  C   UNL     1      11.220  -5.186  35.703  1.00  0.00     0.178 C 
ATOM      6  O   UNL     1      10.463  -6.293  36.196  1.00  0.00    -0.341 OA
ENDROOT
BRANCH   1   7
ATOM      7  O   UNL     1       9.151  -7.103  34.441  1.00  0.00    -0.350 OA
BRANCH   7   8
ATOM      8  C   UNL     1       9.608  -8.429  34.615  1.00  0.00     0.160 C 
ATOM      9  C   UNL     1      10.713  -8.710  33.609  1.00  0.00     0.035 C 
ENDBRANCH   7   8
ENDBRANCH   1   7
BRANCH   2  10
ATOM     10  O   UNL     1       7.104  -5.243  35.107  1.00  0.00    -0.385 OA
ATOM     11  H   UNL     1       6.941  -6.223  35.088  1.00  0.00     0.211 HD
ENDBRANCH   2  10
BRANCH   3  12
ATOM     12  O   UNL     1       8.574  -4.197  33.263  1.00  0.00    -0.387 OA
ATOM     13  H   UNL     1       8.604  -5.144  32.965  1.00  0.00     0.211 HD
ENDBRANCH   3  12
BRANCH   5  14
ATOM     14  C   UNL     1      11.417  -4.164  36.839  1.00  0.00     0.191 C 
BRANCH  14  15
ATOM     15  O   UNL     1      12.683  -3.569  36.748  1.00  0.00    -0.394 OA
ATOM     16  H   UNL     1      13.338  -4.313  36.726  1.00  0.00     0.210 HD
ENDBRANCH  14  15
ENDBRANCH   5  14
BRANCH   4  17
ATOM     17  O   UNL     1      11.455  -3.444  34.024  1.00  0.00    -0.387 OA
ATOM     18  H   UNL     1      11.634  -3.526  33.051  1.00  0.00     0.211 HD
ENDBRANCH   4  17
TORSDOF 7
ENDMDL
MODEL 3
REMARK VINA RESULT:    -4.136     14.692     16.040
REMARK INTER + INTRA:          -5.752
REMARK INTER:                  -5.513
REMARK INTRA:                  -0.238
REMARK UNBOUND:                -0.406
REMARK SMILES CCO[C@H]1O[C@H](CO)[C@H](O)[C@@H](O)[C@H]1O
REMARK SMILES IDX 4 1 13 2 11 3 9 4 6 5 5 6 3 7 2 8 1 9 14 10 12 12 7 14 8 15
REMARK SMILES IDX 10 17
REMARK H PARENT 14 11 12 13 8 16 10 18
REMARK Flexibility Score: inf
ROOT
ATOM      1  C   UNL     1       9.976  -5.113  34.667  1.00  0.00     0.281 C 
ATOM      2  C   UNL     1      10.935  -3.905  34.660  1.00  0.00     0.202 C 
ATOM      3  C   UNL     1      11.847  -3.902  35.910  1.00  0.00     0.179 C 
ATOM      4  C   UNL     1      11.224  -4.712  37.071  1.00  0.00     0.177 C 
ATOM      5  C   UNL     1       9.670  -4.686  37.027  1.00  0.00     0.178 C 
ATOM      6  O   UNL     1       9.097  -5.108  35.788  1.00  0.00    -0.341 OA
ENDROOT
BRANCH   1   7
ATOM      7  O   UNL     1      10.720  -6.319  34.622  1.00  0.00    -0.350 OA
BRANCH   7   8
ATOM      8  C   UNL     1       9.855  -7.424  34.458  1.00  0.00     0.160 C 
ATOM      9  C   UNL     1      10.566  -8.495  33.646  1.00  0.00     0.035 C 
ENDBRANCH   7   8
ENDBRANCH   1   7
BRANCH   2  10
ATOM     10  O   UNL     1      11.711  -3.905  33.488  1.00  0.00    -0.385 OA
ATOM     11  H   UNL     1      12.165  -4.788  33.441  1.00  0.00     0.211 HD
ENDBRANCH   2  10
BRANCH   3  12
ATOM     12  O   UNL     1      13.107  -4.439  35.591  1.00  0.00    -0.387 OA
ATOM     13  H   UNL     1      12.956  -5.154  34.919  1.00  0.00     0.211 HD
ENDBRANCH   3  12
BRANCH   5  14
ATOM     14  C   UNL     1       9.073  -3.322  37.420  1.00  0.00     0.191 C 
BRANCH  14  15
ATOM     15  O   UNL     1       7.938  -3.043  36.646  1.00  0.00    -0.394 OA
ATOM     16  H   UNL     1       8.223  -3.120  35.698  1.00  0.00     0.210 HD
ENDBRANCH  14  15
ENDBRANCH   5  14
BRANCH   4  17
ATOM     17  O   UNL     1      11.685  -4.231  38.308  1.00  0.00    -0.387 OA
ATOM     18  H   UNL     1      11.681  -3.240  38.254  1.00  0.00     0.211 HD
ENDBRANCH   4  17
TORSDOF 7
ENDMDL
MODEL 4
REMARK VINA RESULT:    -4.091     13.745     15.056
REMARK INTER + INTRA:          -5.693
REMARK INTER:                  -5.306
REMARK INTRA:                  -0.387
REMARK UNBOUND:                -0.406
REMARK SMILES CCO[C@H]1O[C@H](CO)[C@H](O)[C@@H](O)[C@H]1O
REMARK SMILES IDX 4 1 13 2 11 3 9 4 6 5 5 6 3 7 2 8 1 9 14 10 12 12 7 14 8 15
REMARK SMILES IDX 10 17
REMARK H PARENT 14 11 12 13 8 16 10 18
REMARK Flexibility Score: inf
ROOT
ATOM      1  C   UNL     1      20.963   1.050  29.289  1.00  0.00     0.281 C 
ATOM      2  C   UNL     1      19.531   1.616  29.198  1.00  0.00     0.202 C 
ATOM      3  C   UNL     1      19.105   1.838  27.727  1.00  0.00     0.179 C 
ATOM      4  C   UNL     1      20.330   1.991  26.797  1.00  0.00     0.177 C 
ATOM      5  C   UNL     1      21.547   2.613  27.539  1.00  0.00     0.178 C 
ATOM      6  O   UNL     1      21.935   1.930  28.733  1.00  0.00    -0.341 OA
ENDROOT
BRANCH   1   7
ATOM      7  O   UNL     1      21.020  -0.219  28.660  1.00  0.00    -0.350 OA
BRANCH   7   8
ATOM      8  C   UNL     1      21.985  -1.036  29.291  1.00  0.00     0.160 C 
ATOM      9  C   UNL     1      22.030  -2.384  28.589  1.00  0.00     0.035 C 
ENDBRANCH   7   8
ENDBRANCH   1   7
BRANCH   2  10
ATOM     10  O   UNL     1      18.625   0.756  29.846  1.00  0.00    -0.385 OA
ATOM     11  H   UNL     1      19.121   0.318  30.587  1.00  0.00     0.211 HD
ENDBRANCH   2  10
BRANCH   3  12
ATOM     12  O   UNL     1      18.316   0.761  27.284  1.00  0.00    -0.387 OA
ATOM     13  H   UNL     1      18.803   0.333  26.532  1.00  0.00     0.211 HD
ENDBRANCH   3  12
BRANCH   5  14
ATOM     14  C   UNL     1      21.370   4.111  27.850  1.00  0.00     0.191 C 
BRANCH  14  15
ATOM     15  O   UNL     1      21.607   4.880  26.703  1.00  0.00    -0.394 OA
ATOM     16  H   UNL     1      21.299   5.799  26.917  1.00  0.00     0.210 HD
ENDBRANCH  14  15
ENDBRANCH   5  14
BRANCH   4  17
ATOM     17  O   UNL     1      19.998   2.764  25.671  1.00  0.00    -0.387 OA
ATOM     18  H   UNL     1      19.860   2.134  24.917  1.00  0.00     0.211 HD
ENDBRANCH   4  17
TORSDOF 7
ENDMDL
MODEL 5
REMARK VINA RESULT:    -4.075     14.257     16.275
REMARK INTER + INTRA:          -5.673
REMARK INTER:                  -5.249
REMARK INTRA:                  -0.424
REMARK UNBOUND:                -0.406
REMARK SMILES CCO[C@H]1O[C@H](CO)[C@H](O)[C@@H](O)[C@H]1O
REMARK SMILES IDX 4 1 13 2 11 3 9 4 6 5 5 6 3 7 2 8 1 9 14 10 12 12 7 14 8 15
REMARK SMILES IDX 10 17
REMARK H PARENT 14 11 12 13 8 16 10 18
REMARK Flexibility Score: inf
ROOT
ATOM      1  C   UNL     1      20.863   4.120  27.360  1.00  0.00     0.281 C 
ATOM      2  C   UNL     1      20.862   3.413  25.990  1.00  0.00     0.202 C 
ATOM      3  C   UNL     1      19.646   2.469  25.844  1.00  0.00     0.179 C 
ATOM      4  C   UNL     1      19.091   2.039  27.221  1.00  0.00     0.177 C 
ATOM      5  C   UNL     1      20.203   1.995  28.306  1.00  0.00     0.178 C 
ATOM      6  O   UNL     1      20.951   3.205  28.448  1.00  0.00    -0.341 OA
ENDROOT
BRANCH   1   7
ATOM      7  O   UNL     1      19.709   4.933  27.484  1.00  0.00    -0.350 OA
BRANCH   7   8
ATOM      8  C   UNL     1      19.617   5.460  28.792  1.00  0.00     0.160 C 
ATOM      9  C   UNL     1      18.208   5.239  29.319  1.00  0.00     0.035 C 
ENDBRANCH   7   8
ENDBRANCH   1   7
BRANCH   2  10
ATOM     10  O   UNL     1      20.874   4.362  24.952  1.00  0.00    -0.385 OA
ATOM     11  H   UNL     1      21.440   3.990  24.225  1.00  0.00     0.211 HD
ENDBRANCH   2  10
BRANCH   3  12
ATOM     12  O   UNL     1      18.627   3.102  25.108  1.00  0.00    -0.387 OA
ATOM     13  H   UNL     1      19.029   3.909  24.691  1.00  0.00     0.211 HD
ENDBRANCH   3  12
BRANCH   5  14
ATOM     14  C   UNL     1      21.179   0.817  28.131  1.00  0.00     0.191 C 
BRANCH  14  15
ATOM     15  O   UNL     1      20.589  -0.377  28.566  1.00  0.00    -0.394 OA
ATOM     16  H   UNL     1      21.000  -0.586  29.445  1.00  0.00     0.210 HD
ENDBRANCH  14  15
ENDBRANCH   5  14
BRANCH   4  17
ATOM     17  O   UNL     1      18.453   0.789  27.125  1.00  0.00    -0.387 OA
ATOM     18  H   UNL     1      18.791   0.354  26.300  1.00  0.00     0.211 HD
ENDBRANCH   4  17
TORSDOF 7
ENDMDL
MODEL 6
REMARK VINA RESULT:    -4.055     15.094     16.312
REMARK INTER + INTRA:          -5.647
REMARK INTER:                  -5.162
REMARK INTRA:                  -0.484
REMARK UNBOUND:                -0.406
REMARK SMILES CCO[C@H]1O[C@H](CO)[C@H](O)[C@@H](O)[C@H]1O
REMARK SMILES IDX 4 1 13 2 11 3 9 4 6 5 5 6 3 7 2 8 1 9 14 10 12 12 7 14 8 15
REMARK SMILES IDX 10 17
REMARK H PARENT 14 11 12 13 8 16 10 18
REMARK Flexibility Score: inf
ROOT
ATOM      1  C   UNL     1      11.019  -5.609  37.431  1.00  0.00     0.281 C 
ATOM      2  C   UNL     1       9.784  -4.819  36.954  1.00  0.00     0.202 C 
ATOM      3  C   UNL     1       9.873  -4.492  35.444  1.00  0.00     0.179 C 
ATOM      4  C   UNL     1      11.336  -4.513  34.943  1.00  0.00     0.177 C 
ATOM      5  C   UNL     1      12.338  -4.115  36.063  1.00  0.00     0.178 C 
ATOM      6  O   UNL     1      12.233  -4.883  37.263  1.00  0.00    -0.341 OA
ENDROOT
BRANCH   1   7
ATOM      7  O   UNL     1      11.085  -6.854  36.756  1.00  0.00    -0.350 OA
BRANCH   7   8
ATOM      8  C   UNL     1      11.649  -7.840  37.597  1.00  0.00     0.160 C 
ATOM      9  C   UNL     1      10.964  -7.787  38.953  1.00  0.00     0.035 C 
ENDBRANCH   7   8
ENDBRANCH   1   7
BRANCH   2  10
ATOM     10  O   UNL     1       8.608  -5.538  37.230  1.00  0.00    -0.385 OA
ATOM     11  H   UNL     1       8.066  -4.981  37.850  1.00  0.00     0.211 HD
ENDBRANCH   2  10
BRANCH   3  12
ATOM     12  O   UNL     1       9.114  -5.416  34.703  1.00  0.00    -0.387 OA
ATOM     13  H   UNL     1       9.751  -6.073  34.317  1.00  0.00     0.211 HD
ENDBRANCH   3  12
BRANCH   5  14
ATOM     14  C   UNL     1      12.292  -2.617  36.417  1.00  0.00     0.191 C 
BRANCH  14  15
ATOM     15  O   UNL     1      13.042  -1.873  35.496  1.00  0.00    -0.394 OA
ATOM     16  H   UNL     1      12.705  -2.123  34.597  1.00  0.00     0.210 HD
ENDBRANCH  14  15
ENDBRANCH   5  14
BRANCH   4  17
ATOM     17  O   UNL     1      11.486  -3.667  33.830  1.00  0.00    -0.387 OA
ATOM     18  H   UNL     1      10.851  -3.985  33.137  1.00  0.00     0.211 HD
ENDBRANCH   4  17
TORSDOF 7
ENDMDL
MODEL 7
REMARK VINA RESULT:    -4.044     15.572     16.864
REMARK INTER + INTRA:          -5.632
REMARK INTER:                  -5.252
REMARK INTRA:                  -0.380
REMARK UNBOUND:                -0.406
REMARK SMILES CCO[C@H]1O[C@H](CO)[C@H](O)[C@@H](O)[C@H]1O
REMARK SMILES IDX 4 1 13 2 11 3 9 4 6 5 5 6 3 7 2 8 1 9 14 10 12 12 7 14 8 15
REMARK SMILES IDX 10 17
REMARK H PARENT 14 11 12 13 8 16 10 18
REMARK Flexibility Score: inf
ROOT
ATOM      1  C   UNL     1      10.304  -6.460  36.740  1.00  0.00     0.281 C 
ATOM      2  C   UNL     1      10.737  -5.651  35.500  1.00  0.00     0.202 C 
ATOM      3  C   UNL     1      11.458  -4.343  35.904  1.00  0.00     0.179 C 
ATOM      4  C   UNL     1      11.077  -3.902  37.336  1.00  0.00     0.177 C 
ATOM      5  C   UNL     1       9.638  -4.351  37.717  1.00  0.00     0.178 C 
ATOM      6  O   UNL     1       9.384  -5.749  37.564  1.00  0.00    -0.341 OA
ENDROOT
BRANCH   1   7
ATOM      7  O   UNL     1      11.445  -6.847  37.486  1.00  0.00    -0.350 OA
BRANCH   7   8
ATOM      8  C   UNL     1      11.413  -8.235  37.748  1.00  0.00     0.160 C 
ATOM      9  C   UNL     1      12.625  -8.612  38.585  1.00  0.00     0.035 C 
ENDBRANCH   7   8
ENDBRANCH   1   7
BRANCH   2  10
ATOM     10  O   UNL     1      11.564  -6.432  34.673  1.00  0.00    -0.385 OA
ATOM     11  H   UNL     1      11.029  -7.220  34.390  1.00  0.00     0.211 HD
ENDBRANCH   2  10
BRANCH   3  12
ATOM     12  O   UNL     1      12.852  -4.516  35.826  1.00  0.00    -0.387 OA
ATOM     13  H   UNL     1      13.162  -4.796  36.727  1.00  0.00     0.211 HD
ENDBRANCH   3  12
BRANCH   5  14
ATOM     14  C   UNL     1       8.539  -3.557  36.987  1.00  0.00     0.191 C 
BRANCH  14  15
ATOM     15  O   UNL     1       8.264  -2.363  37.667  1.00  0.00    -0.394 OA
ATOM     16  H   UNL     1       8.855  -2.354  38.463  1.00  0.00     0.210 HD
ENDBRANCH  14  15
ENDBRANCH   5  14
BRANCH   4  17
ATOM     17  O   UNL     1      11.206  -2.509  37.472  1.00  0.00    -0.387 OA
ATOM     18  H   UNL     1      10.429  -2.100  37.009  1.00  0.00     0.211 HD
ENDBRANCH   4  17
TORSDOF 7
ENDMDL
MODEL 8
REMARK VINA RESULT:    -3.965     14.915     16.506
REMARK INTER + INTRA:          -5.530
REMARK INTER:                  -5.149
REMARK INTRA:                  -0.381
REMARK UNBOUND:                -0.406
REMARK SMILES CCO[C@H]1O[C@H](CO)[C@H](O)[C@@H](O)[C@H]1O
REMARK SMILES IDX 4 1 13 2 11 3 9 4 6 5 5 6 3 7 2 8 1 9 14 10 12 12 7 14 8 15
REMARK SMILES IDX 10 17
REMARK H PARENT 14 11 12 13 8 16 10 18
REMARK Flexibility Score: inf
ROOT
ATOM      1  C   UNL     1       8.623  -4.155  35.418  1.00  0.00     0.281 C 
ATOM      2  C   UNL     1       9.575  -4.550  34.271  1.00  0.00     0.202 C 
ATOM      3  C   UNL     1      10.383  -5.822  34.622  1.00  0.00     0.179 C 
ATOM      4  C   UNL     1      10.474  -6.034  36.151  1.00  0.00     0.177 C 
ATOM      5  C   UNL     1      10.436  -4.687  36.926  1.00  0.00     0.178 C 
ATOM      6  O   UNL     1       9.317  -3.852  36.625  1.00  0.00    -0.341 OA
ENDROOT
BRANCH   1   7
ATOM      7  O   UNL     1       7.674  -5.185  35.634  1.00  0.00    -0.350 OA
BRANCH   7   8
ATOM      8  C   UNL     1       6.372  -4.642  35.722  1.00  0.00     0.160 C 
ATOM      9  C   UNL     1       5.363  -5.778  35.786  1.00  0.00     0.035 C 
ENDBRANCH   7   8
ENDBRANCH   1   7
BRANCH   2  10
ATOM     10  O   UNL     1       8.850  -4.743  33.081  1.00  0.00    -0.385 OA
ATOM     11  H   UNL     1       9.034  -3.959  32.500  1.00  0.00     0.211 HD
ENDBRANCH   2  10
BRANCH   3  12
ATOM     12  O   UNL     1       9.789  -6.952  34.030  1.00  0.00    -0.387 OA
ATOM     13  H   UNL     1       8.890  -7.055  34.439  1.00  0.00     0.211 HD
ENDBRANCH   3  12
BRANCH   5  14
ATOM     14  C   UNL     1      11.731  -3.866  36.782  1.00  0.00     0.191 C 
BRANCH  14  15
ATOM     15  O   UNL     1      12.732  -4.378  37.619  1.00  0.00    -0.394 OA
ATOM     16  H   UNL     1      12.962  -3.651  38.254  1.00  0.00     0.210 HD
ENDBRANCH  14  15
ENDBRANCH   5  14
BRANCH   4  17
ATOM     17  O   UNL     1      11.636  -6.754  36.479  1.00  0.00    -0.387 OA
ATOM     18  H   UNL     1      11.477  -7.697  36.214  1.00  0.00     0.211 HD
ENDBRANCH   4  17
TORSDOF 7
ENDMDL
MODEL 9
REMARK VINA RESULT:    -3.925     14.873     16.181
REMARK INTER + INTRA:          -5.478
REMARK INTER:                  -5.001
REMARK INTRA:                  -0.478
REMARK UNBOUND:                -0.406
REMARK SMILES CCO[C@H]1O[C@H](CO)[C@H](O)[C@@H](O)[C@H]1O
REMARK SMILES IDX 4 1 13 2 11 3 9 4 6 5 5 6 3 7 2 8 1 9 14 10 12 12 7 14 8 15
REMARK SMILES IDX 10 17
REMARK H PARENT 14 11 12 13 8 16 10 18
REMARK Flexibility Score: inf
ROOT
ATOM      1  C   UNL     1      10.733  -6.014  35.186  1.00  0.00     0.281 C 
ATOM      2  C   UNL     1      11.248  -6.428  36.580  1.00  0.00     0.202 C 
ATOM      3  C   UNL     1      10.857  -5.387  37.656  1.00  0.00     0.179 C 
ATOM      4  C   UNL     1      10.584  -3.999  37.033  1.00  0.00     0.177 C 
ATOM      5  C   UNL     1      11.424  -3.766  35.746  1.00  0.00     0.178 C 
ATOM      6  O   UNL     1      11.282  -4.776  34.745  1.00  0.00    -0.341 OA
ENDROOT
BRANCH   1   7
ATOM      7  O   UNL     1       9.317  -5.958  35.192  1.00  0.00    -0.350 OA
BRANCH   7   8
ATOM      8  C   UNL     1       8.806  -6.283  33.916  1.00  0.00     0.160 C 
ATOM      9  C   UNL     1       9.339  -7.645  33.500  1.00  0.00     0.035 C 
ENDBRANCH   7   8
ENDBRANCH   1   7
BRANCH   2  10
ATOM     10  O   UNL     1      10.753  -7.698  36.925  1.00  0.00    -0.385 OA
ATOM     11  H   UNL     1      11.501  -8.342  36.809  1.00  0.00     0.211 HD
ENDBRANCH   2  10
BRANCH   3  12
ATOM     12  O   UNL     1       9.714  -5.818  38.353  1.00  0.00    -0.387 OA
ATOM     13  H   UNL     1       8.937  -5.683  37.749  1.00  0.00     0.211 HD
ENDBRANCH   3  12
BRANCH   5  14
ATOM     14  C   UNL     1      12.922  -3.544  36.028  1.00  0.00     0.191 C 
BRANCH  14  15
ATOM     15  O   UNL     1      13.140  -2.252  36.525  1.00  0.00    -0.394 OA
ATOM     16  H   UNL     1      13.258  -2.347  37.505  1.00  0.00     0.210 HD
ENDBRANCH  14  15
ENDBRANCH   5  14
BRANCH   4  17
ATOM     17  O   UNL     1      10.835  -2.982  37.970  1.00  0.00    -0.387 OA
ATOM     18  H   UNL     1      11.701  -2.565  37.721  1.00  0.00     0.211 HD
ENDBRANCH   4  17
TORSDOF 7
ENDMDL
