MODEL 1
REMARK VINA RESULT:    -4.123      0.000      0.000
REMARK INTER + INTRA:          -7.746
REMARK INTER:                  -7.015
REMARK INTRA:                  -0.730
REMARK UNBOUND:                -0.730
REMARK SMILES CCCCCCCCCCCCCC(=O)[O-]
REMARK SMILES IDX 8 1 9 2 10 3 11 4 12 5 13 6 14 7 15 8 16 9 7 10 6 11 5 12
REMARK SMILES IDX 4 13 3 14 2 15 1 16
REMARK H PARENT
REMARK Flexibility Score: inf
ROOT
ATOM      1  C   UNL     1      12.989 -11.481  16.163  1.00  0.00     0.000 C 
ENDROOT
BRANCH   1   2
ATOM      2  C   UNL     1      11.548 -12.015  16.245  1.00  0.00     0.000 C 
BRANCH   2   3
ATOM      3  C   UNL     1      10.645 -11.423  15.142  1.00  0.00     0.000 C 
BRANCH   3   4
ATOM      4  C   UNL     1      11.319 -10.304  14.330  1.00  0.00     0.000 C 
BRANCH   4   5
ATOM      5  C   UNL     1      11.053 -10.416  12.823  1.00  0.00     0.006 C 
BRANCH   5   6
ATOM      6  C   UNL     1      10.605  -9.072  12.243  1.00  0.00     0.053 C 
BRANCH   6   7
ATOM      7  C   UNL     1       9.452  -9.262  11.309  1.00  0.00     0.041 C 
ATOM      8  O   UNL     1       8.476  -9.985  11.645  1.00  0.00    -0.550 OA
ATOM      9  O   UNL     1       9.430  -8.604  10.086  1.00  0.00    -0.550 OA
ENDBRANCH   6   7
ENDBRANCH   5   6
ENDBRANCH   4   5
ENDBRANCH   3   4
ENDBRANCH   2   3
ENDBRANCH   1   2
BRANCH   1  10
ATOM     10  C   UNL     1      13.688 -11.452  17.531  1.00  0.00     0.000 C 
BRANCH  10  11
ATOM     11  C   UNL     1      14.079 -10.029  17.966  1.00  0.00    -0.000 C 
BRANCH  11  12
ATOM     12  C   UNL     1      13.013  -9.372  18.858  1.00  0.00    -0.000 C 
BRANCH  12  13
ATOM     13  C   UNL     1      11.789  -8.894  18.059  1.00  0.00    -0.000 C 
BRANCH  13  14
ATOM     14  C   UNL     1      10.903  -7.926  18.861  1.00  0.00    -0.000 C 
BRANCH  14  15
ATOM     15  C   UNL     1      10.700  -6.583  18.145  1.00  0.00    -0.003 C 
ATOM     16  C   UNL     1      10.346  -5.480  19.137  1.00  0.00     0.004 C 
ENDBRANCH  14  15
ENDBRANCH  13  14
ENDBRANCH  12  13
ENDBRANCH  11  12
ENDBRANCH  10  11
ENDBRANCH   1  10
TORSDOF 12
ENDMDL
MODEL 2
REMARK VINA RESULT:    -3.934      3.770      6.453
REMARK INTER + INTRA:          -7.424
REMARK INTER:                  -6.294
REMARK INTRA:                  -1.131
REMARK UNBOUND:                -0.730
REMARK SMILES CCCCCCCCCCCCCC(=O)[O-]
REMARK SMILES IDX 8 1 9 2 10 3 11 4 12 5 13 6 14 7 15 8 16 9 7 10 6 11 5 12
REMARK SMILES IDX 4 13 3 14 2 15 1 16
REMARK H PARENT
REMARK Flexibility Score: inf
ROOT
ATOM      1  C   UNL     1      13.499 -10.412  17.297  1.00  0.00     0.000 C 
ENDROOT
BRANCH   1   2
ATOM      2  C   UNL     1      13.815 -10.463  18.803  1.00  0.00     0.000 C 
BRANCH   2   3
ATOM      3  C   UNL     1      13.343 -11.781  19.452  1.00  0.00     0.000 C 
BRANCH   3   4
ATOM      4  C   UNL     1      13.845 -13.039  18.725  1.00  0.00     0.000 C 
BRANCH   4   5
ATOM      5  C   UNL     1      12.708 -13.973  18.290  1.00  0.00     0.006 C 
BRANCH   5   6
ATOM      6  C   UNL     1      12.726 -14.194  16.775  1.00  0.00     0.053 C 
BRANCH   6   7
ATOM      7  C   UNL     1      13.040 -15.621  16.457  1.00  0.00     0.041 C 
ATOM      8  O   UNL     1      13.149 -16.468  17.383  1.00  0.00    -0.550 OA
ATOM      9  O   UNL     1      13.165 -16.030  15.135  1.00  0.00    -0.550 OA
ENDBRANCH   6   7
ENDBRANCH   5   6
ENDBRANCH   4   5
ENDBRANCH   3   4
ENDBRANCH   2   3
ENDBRANCH   1   2
BRANCH   1  10
ATOM     10  C   UNL     1      12.093  -9.867  17.006  1.00  0.00     0.000 C 
BRANCH  10  11
ATOM     11  C   UNL     1      11.079 -10.982  16.697  1.00  0.00    -0.000 C 
BRANCH  11  12
ATOM     12  C   UNL     1      10.996 -11.303  15.196  1.00  0.00    -0.000 C 
BRANCH  12  13
ATOM     13  C   UNL     1      11.223 -10.063  14.315  1.00  0.00    -0.000 C 
BRANCH  13  14
ATOM     14  C   UNL     1      11.136 -10.383  12.814  1.00  0.00    -0.000 C 
BRANCH  14  15
ATOM     15  C   UNL     1       9.729 -10.154  12.242  1.00  0.00    -0.003 C 
ATOM     16  C   UNL     1       9.751  -9.113  11.128  1.00  0.00     0.004 C 
ENDBRANCH  14  15
ENDBRANCH  13  14
ENDBRANCH  12  13
ENDBRANCH  11  12
ENDBRANCH  10  11
ENDBRANCH   1  10
TORSDOF 12
ENDMDL
MODEL 3
REMARK VINA RESULT:    -3.884      4.808      6.320
REMARK INTER + INTRA:          -7.339
REMARK INTER:                  -5.123
REMARK INTRA:                  -2.217
REMARK UNBOUND:                -0.730
REMARK SMILES CCCCCCCCCCCCCC(=O)[O-]
REMARK SMILES IDX 8 1 9 2 10 3 11 4 12 5 13 6 14 7 15 8 16 9 7 10 6 11 5 12
REMARK SMILES IDX 4 13 3 14 2 15 1 16
REMARK H PARENT
REMARK Flexibility Score: inf
ROOT
ATOM      1  C   UNL     1      12.023 -10.469  16.672  1.00  0.00     0.000 C 
ENDROOT
BRANCH   1   2
ATOM      2  C   UNL     1      10.976 -11.570  16.918  1.00  0.00     0.000 C 
BRANCH   2   3
ATOM      3  C   UNL     1      10.074 -11.255  18.129  1.00  0.00     0.000 C 
BRANCH   3   4
ATOM      4  C   UNL     1      10.422 -12.070  19.386  1.00  0.00     0.000 C 
BRANCH   4   5
ATOM      5  C   UNL     1      11.410 -13.211  19.104  1.00  0.00     0.006 C 
BRANCH   5   6
ATOM      6  C   UNL     1      12.083 -13.687  20.394  1.00  0.00     0.053 C 
BRANCH   6   7
ATOM      7  C   UNL     1      11.151 -14.552  21.183  1.00  0.00     0.041 C 
ATOM      8  O   UNL     1      10.422 -15.396  20.598  1.00  0.00    -0.550 OA
ATOM      9  O   UNL     1      11.122 -14.460  22.568  1.00  0.00    -0.550 OA
ENDBRANCH   6   7
ENDBRANCH   5   6
ENDBRANCH   4   5
ENDBRANCH   3   4
ENDBRANCH   2   3
ENDBRANCH   1   2
BRANCH   1  10
ATOM     10  C   UNL     1      13.457 -10.944  16.949  1.00  0.00     0.000 C 
BRANCH  10  11
ATOM     11  C   UNL     1      14.191 -10.051  17.964  1.00  0.00    -0.000 C 
BRANCH  11  12
ATOM     12  C   UNL     1      14.100 -10.594  19.400  1.00  0.00    -0.000 C 
BRANCH  12  13
ATOM     13  C   UNL     1      13.130  -9.783  20.275  1.00  0.00    -0.000 C 
BRANCH  13  14
ATOM     14  C   UNL     1      12.842  -8.387  19.699  1.00  0.00    -0.000 C 
BRANCH  14  15
ATOM     15  C   UNL     1      11.339  -8.097  19.576  1.00  0.00    -0.003 C 
ATOM     16  C   UNL     1      11.025  -7.368  18.274  1.00  0.00     0.004 C 
ENDBRANCH  14  15
ENDBRANCH  13  14
ENDBRANCH  12  13
ENDBRANCH  11  12
ENDBRANCH  10  11
ENDBRANCH   1  10
TORSDOF 12
ENDMDL
MODEL 4
REMARK VINA RESULT:    -3.871      4.567      6.824
REMARK INTER + INTRA:          -7.317
REMARK INTER:                  -5.204
REMARK INTRA:                  -2.113
REMARK UNBOUND:                -0.730
REMARK SMILES CCCCCCCCCCCCCC(=O)[O-]
REMARK SMILES IDX 8 1 9 2 10 3 11 4 12 5 13 6 14 7 15 8 16 9 7 10 6 11 5 12
REMARK SMILES IDX 4 13 3 14 2 15 1 16
REMARK H PARENT
REMARK Flexibility Score: inf
ROOT
ATOM      1  C   UNL     1      13.813 -10.534  19.862  1.00  0.00     0.000 C 
ENDROOT
BRANCH   1   2
ATOM      2  C   UNL     1      13.976 -12.065  19.827  1.00  0.00     0.000 C 
BRANCH   2   3
ATOM      3  C   UNL     1      12.755 -12.793  20.427  1.00  0.00     0.000 C 
BRANCH   3   4
ATOM      4  C   UNL     1      11.496 -11.913  20.516  1.00  0.00     0.000 C 
BRANCH   4   5
ATOM      5  C   UNL     1      10.275 -12.545  19.835  1.00  0.00     0.006 C 
BRANCH   5   6
ATOM      6  C   UNL     1       9.202 -11.492  19.544  1.00  0.00     0.053 C 
BRANCH   6   7
ATOM      7  C   UNL     1       8.231 -11.407  20.679  1.00  0.00     0.041 C 
ATOM      8  O   UNL     1       7.520 -10.378  20.828  1.00  0.00    -0.550 OA
ATOM      9  O   UNL     1       8.074 -12.481  21.544  1.00  0.00    -0.550 OA
ENDBRANCH   6   7
ENDBRANCH   5   6
ENDBRANCH   4   5
ENDBRANCH   3   4
ENDBRANCH   2   3
ENDBRANCH   1   2
BRANCH   1  10
ATOM     10  C   UNL     1      13.753  -9.915  18.457  1.00  0.00     0.000 C 
BRANCH  10  11
ATOM     11  C   UNL     1      12.331  -9.476  18.065  1.00  0.00    -0.000 C 
BRANCH  11  12
ATOM     12  C   UNL     1      11.923  -9.980  16.671  1.00  0.00    -0.000 C 
BRANCH  12  13
ATOM     13  C   UNL     1      12.651 -11.276  16.277  1.00  0.00    -0.000 C 
BRANCH  13  14
ATOM     14  C   UNL     1      11.844 -12.536  16.628  1.00  0.00    -0.000 C 
BRANCH  14  15
ATOM     15  C   UNL     1      12.723 -13.792  16.728  1.00  0.00    -0.003 C 
ATOM     16  C   UNL     1      14.192 -13.452  16.498  1.00  0.00     0.004 C 
ENDBRANCH  14  15
ENDBRANCH  13  14
ENDBRANCH  12  13
ENDBRANCH  11  12
ENDBRANCH  10  11
ENDBRANCH   1  10
TORSDOF 12
ENDMDL
MODEL 5
REMARK VINA RESULT:    -3.847      4.695      6.822
REMARK INTER + INTRA:          -7.276
REMARK INTER:                  -5.033
REMARK INTRA:                  -2.243
REMARK UNBOUND:                -0.730
REMARK SMILES CCCCCCCCCCCCCC(=O)[O-]
REMARK SMILES IDX 8 1 9 2 10 3 11 4 12 5 13 6 14 7 15 8 16 9 7 10 6 11 5 12
REMARK SMILES IDX 4 13 3 14 2 15 1 16
REMARK H PARENT
REMARK Flexibility Score: inf
ROOT
ATOM      1  C   UNL     1      11.049 -12.904  19.248  1.00  0.00     0.000 C 
ENDROOT
BRANCH   1   2
ATOM      2  C   UNL     1      11.945 -12.277  20.331  1.00  0.00     0.000 C 
BRANCH   2   3
ATOM      3  C   UNL     1      13.051 -13.243  20.802  1.00  0.00     0.000 C 
BRANCH   3   4
ATOM      4  C   UNL     1      14.293 -13.247  19.894  1.00  0.00     0.000 C 
BRANCH   4   5
ATOM      5  C   UNL     1      14.378 -14.493  19.003  1.00  0.00     0.006 C 
BRANCH   5   6
ATOM      6  C   UNL     1      13.612 -15.665  19.622  1.00  0.00     0.053 C 
BRANCH   6   7
ATOM      7  C   UNL     1      12.948 -16.478  18.556  1.00  0.00     0.041 C 
ATOM      8  O   UNL     1      12.430 -17.591  18.838  1.00  0.00    -0.550 OA
ATOM      9  O   UNL     1      12.858 -15.987  17.260  1.00  0.00    -0.550 OA
ENDBRANCH   6   7
ENDBRANCH   5   6
ENDBRANCH   4   5
ENDBRANCH   3   4
ENDBRANCH   2   3
ENDBRANCH   1   2
BRANCH   1  10
ATOM     10  C   UNL     1      11.013 -12.074  17.956  1.00  0.00     0.000 C 
BRANCH  10  11
ATOM     11  C   UNL     1      11.831 -12.711  16.820  1.00  0.00    -0.000 C 
BRANCH  11  12
ATOM     12  C   UNL     1      13.123 -11.935  16.517  1.00  0.00    -0.000 C 
BRANCH  12  13
ATOM     13  C   UNL     1      13.081 -10.492  17.049  1.00  0.00    -0.000 C 
BRANCH  13  14
ATOM     14  C   UNL     1      14.273 -10.166  17.964  1.00  0.00    -0.000 C 
BRANCH  14  15
ATOM     15  C   UNL     1      13.864  -9.339  19.192  1.00  0.00    -0.003 C 
ATOM     16  C   UNL     1      12.428  -8.841  19.066  1.00  0.00     0.004 C 
ENDBRANCH  14  15
ENDBRANCH  13  14
ENDBRANCH  12  13
ENDBRANCH  11  12
ENDBRANCH  10  11
ENDBRANCH   1  10
TORSDOF 12
ENDMDL
MODEL 6
REMARK VINA RESULT:    -3.797      4.624      6.255
REMARK INTER + INTRA:          -7.191
REMARK INTER:                  -4.930
REMARK INTRA:                  -2.261
REMARK UNBOUND:                -0.730
REMARK SMILES CCCCCCCCCCCCCC(=O)[O-]
REMARK SMILES IDX 8 1 9 2 10 3 11 4 12 5 13 6 14 7 15 8 16 9 7 10 6 11 5 12
REMARK SMILES IDX 4 13 3 14 2 15 1 16
REMARK H PARENT
REMARK Flexibility Score: inf
ROOT
ATOM      1  C   UNL     1      11.566 -12.752  20.557  1.00  0.00     0.000 C 
ENDROOT
BRANCH   1   2
ATOM      2  C   UNL     1      13.051 -12.504  20.879  1.00  0.00     0.000 C 
BRANCH   2   3
ATOM      3  C   UNL     1      13.989 -13.211  19.879  1.00  0.00     0.000 C 
BRANCH   3   4
ATOM      4  C   UNL     1      13.265 -14.200  18.950  1.00  0.00     0.000 C 
BRANCH   4   5
ATOM      5  C   UNL     1      13.859 -14.237  17.535  1.00  0.00     0.006 C 
BRANCH   5   6
ATOM      6  C   UNL     1      12.846 -14.788  16.528  1.00  0.00     0.053 C 
BRANCH   6   7
ATOM      7  C   UNL     1      13.283 -16.127  16.025  1.00  0.00     0.041 C 
ATOM      8  O   UNL     1      13.973 -16.885  16.757  1.00  0.00    -0.550 OA
ATOM      9  O   UNL     1      12.889 -16.561  14.766  1.00  0.00    -0.550 OA
ENDBRANCH   6   7
ENDBRANCH   5   6
ENDBRANCH   4   5
ENDBRANCH   3   4
ENDBRANCH   2   3
ENDBRANCH   1   2
BRANCH   1  10
ATOM     10  C   UNL     1      10.871 -11.507  19.985  1.00  0.00     0.000 C 
BRANCH  10  11
ATOM     11  C   UNL     1      10.080 -11.810  18.701  1.00  0.00    -0.000 C 
BRANCH  11  12
ATOM     12  C   UNL     1      10.931 -11.636  17.431  1.00  0.00    -0.000 C 
BRANCH  12  13
ATOM     13  C   UNL     1      11.826 -10.387  17.489  1.00  0.00    -0.000 C 
BRANCH  13  14
ATOM     14  C   UNL     1      13.256 -10.663  16.996  1.00  0.00    -0.000 C 
BRANCH  14  15
ATOM     15  C   UNL     1      14.326 -10.128  17.960  1.00  0.00    -0.003 C 
ATOM     16  C   UNL     1      13.691  -9.336  19.099  1.00  0.00     0.004 C 
ENDBRANCH  14  15
ENDBRANCH  13  14
ENDBRANCH  12  13
ENDBRANCH  11  12
ENDBRANCH  10  11
ENDBRANCH   1  10
TORSDOF 12
ENDMDL
MODEL 7
REMARK VINA RESULT:    -3.770      4.706      6.309
REMARK INTER + INTRA:          -7.146
REMARK INTER:                  -5.023
REMARK INTRA:                  -2.123
REMARK UNBOUND:                -0.730
REMARK SMILES CCCCCCCCCCCCCC(=O)[O-]
REMARK SMILES IDX 8 1 9 2 10 3 11 4 12 5 13 6 14 7 15 8 16 9 7 10 6 11 5 12
REMARK SMILES IDX 4 13 3 14 2 15 1 16
REMARK H PARENT
REMARK Flexibility Score: inf
ROOT
ATOM      1  C   UNL     1      14.272 -11.245  20.374  1.00  0.00     0.000 C 
ENDROOT
BRANCH   1   2
ATOM      2  C   UNL     1      13.471 -12.541  20.594  1.00  0.00     0.000 C 
BRANCH   2   3
ATOM      3  C   UNL     1      14.043 -13.724  19.786  1.00  0.00     0.000 C 
BRANCH   3   4
ATOM      4  C   UNL     1      13.003 -14.809  19.462  1.00  0.00     0.000 C 
BRANCH   4   5
ATOM      5  C   UNL     1      13.296 -15.545  18.148  1.00  0.00     0.006 C 
BRANCH   5   6
ATOM      6  C   UNL     1      14.536 -14.969  17.459  1.00  0.00     0.053 C 
BRANCH   6   7
ATOM      7  C   UNL     1      14.445 -15.152  15.978  1.00  0.00     0.041 C 
ATOM      8  O   UNL     1      13.482 -15.791  15.475  1.00  0.00    -0.550 OA
ATOM      9  O   UNL     1      15.395 -14.575  15.145  1.00  0.00    -0.550 OA
ENDBRANCH   6   7
ENDBRANCH   5   6
ENDBRANCH   4   5
ENDBRANCH   3   4
ENDBRANCH   2   3
ENDBRANCH   1   2
BRANCH   1  10
ATOM     10  C   UNL     1      13.497 -10.203  19.554  1.00  0.00     0.000 C 
BRANCH  10  11
ATOM     11  C   UNL     1      14.077 -10.013  18.141  1.00  0.00    -0.000 C 
BRANCH  11  12
ATOM     12  C   UNL     1      13.041 -10.287  17.038  1.00  0.00    -0.000 C 
BRANCH  12  13
ATOM     13  C   UNL     1      13.069 -11.746  16.553  1.00  0.00    -0.000 C 
BRANCH  13  14
ATOM     14  C   UNL     1      11.738 -12.475  16.799  1.00  0.00    -0.000 C 
BRANCH  14  15
ATOM     15  C   UNL     1      10.702 -11.589  17.508  1.00  0.00    -0.003 C 
ATOM     16  C   UNL     1      10.322 -12.169  18.866  1.00  0.00     0.004 C 
ENDBRANCH  14  15
ENDBRANCH  13  14
ENDBRANCH  12  13
ENDBRANCH  11  12
ENDBRANCH  10  11
ENDBRANCH   1  10
TORSDOF 12
ENDMDL
MODEL 8
REMARK VINA RESULT:    -3.720      5.004      6.350
REMARK INTER + INTRA:          -7.060
REMARK INTER:                  -4.981
REMARK INTRA:                  -2.078
REMARK UNBOUND:                -0.730
REMARK SMILES CCCCCCCCCCCCCC(=O)[O-]
REMARK SMILES IDX 8 1 9 2 10 3 11 4 12 5 13 6 14 7 15 8 16 9 7 10 6 11 5 12
REMARK SMILES IDX 4 13 3 14 2 15 1 16
REMARK H PARENT
REMARK Flexibility Score: inf
ROOT
ATOM      1  C   UNL     1      12.717 -10.053  17.344  1.00  0.00     0.000 C 
ENDROOT
BRANCH   1   2
ATOM      2  C   UNL     1      12.585 -11.118  16.241  1.00  0.00     0.000 C 
BRANCH   2   3
ATOM      3  C   UNL     1      11.706 -12.307  16.683  1.00  0.00     0.000 C 
BRANCH   3   4
ATOM      4  C   UNL     1      12.453 -13.651  16.700  1.00  0.00     0.000 C 
BRANCH   4   5
ATOM      5  C   UNL     1      12.889 -14.076  18.109  1.00  0.00     0.006 C 
BRANCH   5   6
ATOM      6  C   UNL     1      14.398 -13.900  18.294  1.00  0.00     0.053 C 
BRANCH   6   7
ATOM      7  C   UNL     1      15.076 -15.231  18.366  1.00  0.00     0.041 C 
ATOM      8  O   UNL     1      15.647 -15.595  19.428  1.00  0.00    -0.550 OA
ATOM      9  O   UNL     1      15.037 -16.093  17.277  1.00  0.00    -0.550 OA
ENDBRANCH   6   7
ENDBRANCH   5   6
ENDBRANCH   4   5
ENDBRANCH   3   4
ENDBRANCH   2   3
ENDBRANCH   1   2
BRANCH   1  10
ATOM     10  C   UNL     1      14.029 -10.179  18.133  1.00  0.00     0.000 C 
BRANCH  10  11
ATOM     11  C   UNL     1      13.798 -10.518  19.615  1.00  0.00    -0.000 C 
BRANCH  11  12
ATOM     12  C   UNL     1      12.317 -10.417  20.018  1.00  0.00    -0.000 C 
BRANCH  12  13
ATOM     13  C   UNL     1      11.779 -11.728  20.615  1.00  0.00    -0.000 C 
BRANCH  13  14
ATOM     14  C   UNL     1      10.336 -12.027  20.177  1.00  0.00    -0.000 C 
BRANCH  14  15
ATOM     15  C   UNL     1       9.693 -10.853  19.423  1.00  0.00    -0.003 C 
ATOM     16  C   UNL     1       8.208 -11.103  19.180  1.00  0.00     0.004 C 
ENDBRANCH  14  15
ENDBRANCH  13  14
ENDBRANCH  12  13
ENDBRANCH  11  12
ENDBRANCH  10  11
ENDBRANCH   1  10
TORSDOF 12
ENDMDL
MODEL 9
REMARK VINA RESULT:    -3.686      4.608      6.052
REMARK INTER + INTRA:          -7.003
REMARK INTER:                  -4.851
REMARK INTRA:                  -2.152
REMARK UNBOUND:                -0.730
REMARK SMILES CCCCCCCCCCCCCC(=O)[O-]
REMARK SMILES IDX 8 1 9 2 10 3 11 4 12 5 13 6 14 7 15 8 16 9 7 10 6 11 5 12
REMARK SMILES IDX 4 13 3 14 2 15 1 16
REMARK H PARENT
REMARK Flexibility Score: inf
ROOT
ATOM      1  C   UNL     1      13.150 -10.232  17.358  1.00  0.00     0.000 C 
ENDROOT
BRANCH   1   2
ATOM      2  C   UNL     1      11.720 -10.409  17.899  1.00  0.00     0.000 C 
BRANCH   2   3
ATOM      3  C   UNL     1      11.073 -11.723  17.416  1.00  0.00     0.000 C 
BRANCH   3   4
ATOM      4  C   UNL     1      11.954 -12.519  16.437  1.00  0.00     0.000 C 
BRANCH   4   5
ATOM      5  C   UNL     1      12.541 -13.792  17.061  1.00  0.00     0.006 C 
BRANCH   5   6
ATOM      6  C   UNL     1      14.061 -13.840  16.885  1.00  0.00     0.053 C 
BRANCH   6   7
ATOM      7  C   UNL     1      14.439 -14.874  15.872  1.00  0.00     0.041 C 
ATOM      8  O   UNL     1      15.612 -14.913  15.413  1.00  0.00    -0.550 OA
ATOM      9  O   UNL     1      13.512 -15.827  15.470  1.00  0.00    -0.550 OA
ENDBRANCH   6   7
ENDBRANCH   5   6
ENDBRANCH   4   5
ENDBRANCH   3   4
ENDBRANCH   2   3
ENDBRANCH   1   2
BRANCH   1  10
ATOM     10  C   UNL     1      14.209 -10.244  18.471  1.00  0.00     0.000 C 
BRANCH  10  11
ATOM     11  C   UNL     1      13.624 -10.632  19.840  1.00  0.00    -0.000 C 
BRANCH  11  12
ATOM     12  C   UNL     1      14.208 -11.948  20.379  1.00  0.00    -0.000 C 
BRANCH  12  13
ATOM     13  C   UNL     1      13.145 -13.051  20.515  1.00  0.00    -0.000 C 
BRANCH  13  14
ATOM     14  C   UNL     1      11.798 -12.512  21.026  1.00  0.00    -0.000 C 
BRANCH  14  15
ATOM     15  C   UNL     1      10.607 -13.359  20.555  1.00  0.00    -0.003 C 
ATOM     16  C   UNL     1      10.978 -14.837  20.483  1.00  0.00     0.004 C 
ENDBRANCH  14  15
ENDBRANCH  13  14
ENDBRANCH  12  13
ENDBRANCH  11  12
ENDBRANCH  10  11
ENDBRANCH   1  10
TORSDOF 12
ENDMDL
