MODEL 1
REMARK VINA RESULT:    -0.591      0.000      0.000
REMARK INTER + INTRA:          -0.961
REMARK INTER:                  -0.678
REMARK INTRA:                  -0.283
REMARK UNBOUND:                -0.283
REMARK SMILES O=C1C[C@@H](c2ccc(O)cc2)Oc2cc(O)cc(O)c21
REMARK SMILES IDX 3 1 4 2 12 3 13 4 14 5 15 6 17 7 18 8 20 9 2 10 1 11 5 12
REMARK SMILES IDX 6 13 11 14 7 15 10 16 8 17 9 18 19 20 16 22
REMARK H PARENT 9 19 19 21 16 23
REMARK Flexibility Score: inf
ROOT
ATOM      1  C   UNL     1      14.335  -9.982 -27.347  1.00  0.00     0.131 C 
ATOM      2  C   UNL     1      13.110  -9.126 -27.695  1.00  0.00     0.211 C 
ATOM      3  O   UNL     1      12.262  -9.830 -28.602  1.00  0.00    -0.484 OA
ATOM      4  C   UNL     1      11.936 -11.177 -28.410  1.00  0.00     0.138 A 
ATOM      5  C   UNL     1      10.867 -11.718 -29.127  1.00  0.00     0.093 A 
ATOM      6  C   UNL     1      10.497 -13.049 -28.942  1.00  0.00     0.123 A 
ATOM      7  C   UNL     1      11.190 -13.839 -28.019  1.00  0.00     0.093 A 
ATOM      8  C   UNL     1      12.261 -13.316 -27.283  1.00  0.00     0.133 A 
ATOM      9  C   UNL     1      12.680 -11.974 -27.513  1.00  0.00     0.102 A 
ATOM     10  C   UNL     1      13.912 -11.364 -26.931  1.00  0.00     0.174 C 
ATOM     11  O   UNL     1      14.681 -12.015 -26.176  1.00  0.00    -0.294 OA
ENDROOT
BRANCH   2  12
ATOM     12  C   UNL     1      13.532  -7.806 -28.295  1.00  0.00    -0.007 A 
ATOM     13  C   UNL     1      12.864  -6.624 -27.938  1.00  0.00     0.011 A 
ATOM     14  C   UNL     1      14.629  -7.736 -29.171  1.00  0.00     0.011 A 
ATOM     15  C   UNL     1      13.270  -5.395 -28.469  1.00  0.00     0.046 A 
ATOM     16  C   UNL     1      15.034  -6.507 -29.700  1.00  0.00     0.046 A 
ATOM     17  C   UNL     1      14.353  -5.333 -29.352  1.00  0.00     0.115 A 
BRANCH  17  18
ATOM     18  O   UNL     1      14.747  -4.102 -29.872  1.00  0.00    -0.508 OA
ATOM     19  H   UNL     1      14.646  -3.245 -29.340  1.00  0.00     0.293 HD
ENDBRANCH  17  18
ENDBRANCH   2  12
BRANCH   8  20
ATOM     20  O   UNL     1      12.850 -14.160 -26.339  1.00  0.00    -0.507 OA
ATOM     21  H   UNL     1      12.405 -14.973 -25.943  1.00  0.00     0.293 HD
ENDBRANCH   8  20
BRANCH   6  22
ATOM     22  O   UNL     1       9.432 -13.575 -29.670  1.00  0.00    -0.508 OA
ATOM     23  H   UNL     1       8.733 -14.166 -29.235  1.00  0.00     0.293 HD
ENDBRANCH   6  22
TORSDOF 4
ENDMDL
MODEL 2
REMARK VINA RESULT:     0.100      1.892      2.958
REMARK INTER + INTRA:          -0.168
REMARK INTER:                   0.140
REMARK INTRA:                  -0.309
REMARK UNBOUND:                -0.283
REMARK SMILES O=C1C[C@@H](c2ccc(O)cc2)Oc2cc(O)cc(O)c21
REMARK SMILES IDX 3 1 4 2 12 3 13 4 14 5 15 6 17 7 18 8 20 9 2 10 1 11 5 12
REMARK SMILES IDX 6 13 11 14 7 15 10 16 8 17 9 18 19 20 16 22
REMARK H PARENT 9 19 19 21 16 23
REMARK Flexibility Score: inf
ROOT
ATOM      1  C   UNL     1      11.913  -9.535 -26.822  1.00  0.00     0.131 C 
ATOM      2  C   UNL     1      12.862  -9.617 -28.025  1.00  0.00     0.211 C 
ATOM      3  O   UNL     1      13.949 -10.494 -27.732  1.00  0.00    -0.484 OA
ATOM      4  C   UNL     1      13.749 -11.738 -27.123  1.00  0.00     0.138 A 
ATOM      5  C   UNL     1      14.782 -12.676 -27.154  1.00  0.00     0.093 A 
ATOM      6  C   UNL     1      14.608 -13.934 -26.580  1.00  0.00     0.123 A 
ATOM      7  C   UNL     1      13.385 -14.263 -25.988  1.00  0.00     0.093 A 
ATOM      8  C   UNL     1      12.331 -13.341 -25.952  1.00  0.00     0.133 A 
ATOM      9  C   UNL     1      12.525 -12.034 -26.483  1.00  0.00     0.102 A 
ATOM     10  C   UNL     1      11.549 -10.913 -26.341  1.00  0.00     0.174 C 
ATOM     11  O   UNL     1      10.461 -11.055 -25.725  1.00  0.00    -0.294 OA
ENDROOT
BRANCH   2  12
ATOM     12  C   UNL     1      13.382  -8.248 -28.392  1.00  0.00    -0.007 A 
ATOM     13  C   UNL     1      14.601  -8.117 -29.076  1.00  0.00     0.011 A 
ATOM     14  C   UNL     1      12.630  -7.096 -28.104  1.00  0.00     0.011 A 
ATOM     15  C   UNL     1      15.073  -6.853 -29.444  1.00  0.00     0.046 A 
ATOM     16  C   UNL     1      13.102  -5.833 -28.474  1.00  0.00     0.046 A 
ATOM     17  C   UNL     1      14.327  -5.708 -29.142  1.00  0.00     0.115 A 
BRANCH  17  18
ATOM     18  O   UNL     1      14.809  -4.455 -29.516  1.00  0.00    -0.508 OA
ATOM     19  H   UNL     1      15.724  -4.132 -29.225  1.00  0.00     0.293 HD
ENDBRANCH  17  18
ENDBRANCH   2  12
BRANCH   8  20
ATOM     20  O   UNL     1      11.127 -13.781 -25.398  1.00  0.00    -0.507 OA
ATOM     21  H   UNL     1      10.230 -13.355 -25.568  1.00  0.00     0.293 HD
ENDBRANCH   8  20
BRANCH   6  22
ATOM     22  O   UNL     1      15.652 -14.856 -26.614  1.00  0.00    -0.508 OA
ATOM     23  H   UNL     1      15.852 -15.460 -25.825  1.00  0.00     0.293 HD
ENDBRANCH   6  22
TORSDOF 4
ENDMDL
MODEL 3
REMARK VINA RESULT:     0.499      1.834      2.945
REMARK INTER + INTRA:           0.289
REMARK INTER:                   0.585
REMARK INTRA:                  -0.296
REMARK UNBOUND:                -0.283
REMARK SMILES O=C1C[C@@H](c2ccc(O)cc2)Oc2cc(O)cc(O)c21
REMARK SMILES IDX 3 1 4 2 12 3 13 4 14 5 15 6 17 7 18 8 20 9 2 10 1 11 5 12
REMARK SMILES IDX 6 13 11 14 7 15 10 16 8 17 9 18 19 20 16 22
REMARK H PARENT 9 19 19 21 16 23
REMARK Flexibility Score: inf
ROOT
ATOM      1  C   UNL     1      12.270 -10.034 -29.245  1.00  0.00     0.131 C 
ATOM      2  C   UNL     1      13.258  -9.463 -28.220  1.00  0.00     0.211 C 
ATOM      3  O   UNL     1      12.692  -9.519 -26.911  1.00  0.00    -0.484 OA
ATOM      4  C   UNL     1      12.036 -10.661 -26.441  1.00  0.00     0.138 A 
ATOM      5  C   UNL     1      11.792 -10.781 -25.071  1.00  0.00     0.093 A 
ATOM      6  C   UNL     1      11.164 -11.918 -24.565  1.00  0.00     0.123 A 
ATOM      7  C   UNL     1      10.792 -12.949 -25.432  1.00  0.00     0.093 A 
ATOM      8  C   UNL     1      11.033 -12.855 -26.809  1.00  0.00     0.133 A 
ATOM      9  C   UNL     1      11.621 -11.670 -27.338  1.00  0.00     0.102 A 
ATOM     10  C   UNL     1      11.759 -11.375 -28.795  1.00  0.00     0.174 C 
ATOM     11  O   UNL     1      11.354 -12.179 -29.675  1.00  0.00    -0.294 OA
ENDROOT
BRANCH   2  12
ATOM     12  C   UNL     1      13.627  -8.041 -28.567  1.00  0.00    -0.007 A 
ATOM     13  C   UNL     1      14.775  -7.776 -29.331  1.00  0.00     0.011 A 
ATOM     14  C   UNL     1      12.800  -6.972 -28.179  1.00  0.00     0.011 A 
ATOM     15  C   UNL     1      15.105  -6.462 -29.679  1.00  0.00     0.046 A 
ATOM     16  C   UNL     1      13.131  -5.660 -28.529  1.00  0.00     0.046 A 
ATOM     17  C   UNL     1      14.286  -5.401 -29.278  1.00  0.00     0.115 A 
BRANCH  17  18
ATOM     18  O   UNL     1      14.626  -4.097 -29.633  1.00  0.00    -0.508 OA
ATOM     19  H   UNL     1      15.522  -3.696 -29.379  1.00  0.00     0.293 HD
ENDBRANCH  17  18
ENDBRANCH   2  12
BRANCH   8  20
ATOM     20  O   UNL     1      10.687 -13.962 -27.587  1.00  0.00    -0.507 OA
ATOM     21  H   UNL     1      11.202 -14.828 -27.610  1.00  0.00     0.293 HD
ENDBRANCH   8  20
BRANCH   6  22
ATOM     22  O   UNL     1      10.923 -12.018 -23.196  1.00  0.00    -0.508 OA
ATOM     23  H   UNL     1      11.634 -12.350 -22.556  1.00  0.00     0.293 HD
ENDBRANCH   6  22
TORSDOF 4
ENDMDL
