MODEL 1
REMARK VINA RESULT:    15.873      0.000      0.000
REMARK INTER + INTRA:          21.038
REMARK INTER:                  21.441
REMARK INTRA:                  -0.402
REMARK UNBOUND:                -0.402
REMARK SMILES O=c1c(-c2ccc(O)cc2)coc2c([C@H]3O[C@@H](CO)[C@@H](O)[C@@H](O)[C@@H]3O)c(O)ccc12
REMARK SMILES IDX 3 1 11 2 12 3 13 4 30 5 2 6 1 7 29 8 28 9 26 10 14 11 4 12
REMARK SMILES IDX 5 13 6 14 7 15 10 16 9 17 8 18 15 20 24 21 16 22 22 23 17 24
REMARK SMILES IDX 20 25 25 26 23 28 18 30 19 31 21 33 27 35
REMARK H PARENT 8 19 25 27 23 29 19 32 21 34 27 36
REMARK Flexibility Score: inf
ROOT
ATOM      1  C   UNL     1       1.399   8.396  22.357  1.00  0.00     0.065 A 
ATOM      2  C   UNL     1       1.067   9.758  22.346  1.00  0.00     0.208 A 
ATOM      3  O   UNL     1       1.396  10.533  21.321  1.00  0.00    -0.463 OA
ATOM      4  C   UNL     1       2.054  10.087  20.252  1.00  0.00     0.147 A 
ATOM      5  C   UNL     1       2.429   8.725  20.180  1.00  0.00     0.066 A 
ATOM      6  C   UNL     1       2.101   7.877  21.253  1.00  0.00     0.200 A 
ATOM      7  O   UNL     1       2.451   6.664  21.237  1.00  0.00    -0.288 OA
ATOM      8  C   UNL     1       3.113   8.254  19.049  1.00  0.00     0.020 A 
ATOM      9  C   UNL     1       3.409   9.118  17.997  1.00  0.00     0.047 A 
ATOM     10  C   UNL     1       3.038  10.466  18.056  1.00  0.00     0.125 A 
ATOM     11  C   UNL     1       2.372  10.972  19.196  1.00  0.00     0.069 A 
ENDROOT
BRANCH   1  12
ATOM     12  C   UNL     1       1.013   7.548  23.512  1.00  0.00    -0.011 A 
ATOM     13  C   UNL     1       1.298   7.966  24.824  1.00  0.00     0.013 A 
ATOM     14  C   UNL     1       0.928   7.174  25.915  1.00  0.00     0.047 A 
ATOM     15  C   UNL     1       0.263   5.958  25.709  1.00  0.00     0.115 A 
ATOM     16  C   UNL     1       0.338   6.330  23.315  1.00  0.00     0.013 A 
ATOM     17  C   UNL     1      -0.032   5.540  24.408  1.00  0.00     0.047 A 
BRANCH  15  18
ATOM     18  O   UNL     1      -0.111   5.161  26.789  1.00  0.00    -0.508 OA
ATOM     19  H   UNL     1       0.482   5.058  27.603  1.00  0.00     0.293 HD
ENDBRANCH  15  18
ENDBRANCH   1  12
BRANCH  11  20
ATOM     20  C   UNL     1       1.947  12.432  19.258  1.00  0.00     0.188 C 
ATOM     21  C   UNL     1       1.051  12.779  18.045  1.00  0.00     0.179 C 
ATOM     22  O   UNL     1       3.103  13.255  19.292  1.00  0.00    -0.362 OA
ATOM     23  C   UNL     1       0.693  14.279  18.069  1.00  0.00     0.177 C 
ATOM     24  C   UNL     1       2.750  14.616  19.468  1.00  0.00     0.176 C 
ATOM     25  C   UNL     1       1.961  15.127  18.241  1.00  0.00     0.177 C 
BRANCH  21  26
ATOM     26  O   UNL     1      -0.123  12.008  18.099  1.00  0.00    -0.387 OA
ATOM     27  H   UNL     1       0.155  11.056  18.123  1.00  0.00     0.211 HD
ENDBRANCH  21  26
BRANCH  23  28
ATOM     28  O   UNL     1       0.045  14.645  16.878  1.00  0.00    -0.387 OA
ATOM     29  H   UNL     1       0.010  13.834  16.306  1.00  0.00     0.211 HD
ENDBRANCH  23  28
BRANCH  24  30
ATOM     30  C   UNL     1       4.025  15.440  19.695  1.00  0.00     0.191 C 
BRANCH  30  31
ATOM     31  O   UNL     1       3.699  16.742  20.101  1.00  0.00    -0.394 OA
ATOM     32  H   UNL     1       3.493  17.257  19.278  1.00  0.00     0.210 HD
ENDBRANCH  30  31
ENDBRANCH  24  30
BRANCH  25  33
ATOM     33  O   UNL     1       2.750  15.035  17.078  1.00  0.00    -0.388 OA
ATOM     34  H   UNL     1       2.257  15.499  16.353  1.00  0.00     0.211 HD
ENDBRANCH  25  33
ENDBRANCH  11  20
BRANCH  10  35
ATOM     35  O   UNL     1       3.329  11.304  16.977  1.00  0.00    -0.507 OA
ATOM     36  H   UNL     1       3.641  10.936  16.085  1.00  0.00     0.293 HD
ENDBRANCH  10  35
TORSDOF 9
ENDMDL
