MODEL 1
REMARK VINA RESULT:     6.486      0.000      0.000
REMARK INTER + INTRA:          10.788
REMARK INTER:                  11.416
REMARK INTRA:                  -0.628
REMARK UNBOUND:                -0.628
REMARK SMILES CCCCCCCCCCCCCCC(=O)[O-]
REMARK SMILES IDX 9 1 10 2 11 3 12 4 13 5 14 6 15 7 16 8 17 9 8 10 7 11 6 12
REMARK SMILES IDX 5 13 4 14 3 15 2 16 1 17
REMARK H PARENT
REMARK Flexibility Score: inf
ROOT
ATOM      1  C   UNL     1      -6.384  21.551 -12.076  1.00  0.00     0.000 C 
ENDROOT
BRANCH   1   2
ATOM      2  C   UNL     1      -5.125  22.211 -11.476  1.00  0.00     0.000 C 
BRANCH   2   3
ATOM      3  C   UNL     1      -4.808  23.620 -12.013  1.00  0.00     0.000 C 
BRANCH   3   4
ATOM      4  C   UNL     1      -3.753  24.403 -11.206  1.00  0.00     0.000 C 
BRANCH   4   5
ATOM      5  C   UNL     1      -3.610  25.890 -11.588  1.00  0.00     0.006 C 
BRANCH   5   6
ATOM      6  C   UNL     1      -4.220  26.869 -10.572  1.00  0.00     0.053 C 
BRANCH   6   7
ATOM      7  C   UNL     1      -5.564  27.364 -11.008  1.00  0.00     0.041 C 
ATOM      8  O   UNL     1      -6.610  26.776 -10.628  1.00  0.00    -0.550 OA
ATOM      9  O   UNL     1      -5.662  28.455 -11.863  1.00  0.00    -0.550 OA
ENDBRANCH   6   7
ENDBRANCH   5   6
ENDBRANCH   4   5
ENDBRANCH   3   4
ENDBRANCH   2   3
ENDBRANCH   1   2
BRANCH   1  10
ATOM     10  C   UNL     1      -6.355  20.012 -12.124  1.00  0.00     0.000 C 
BRANCH  10  11
ATOM     11  C   UNL     1      -6.159  19.375 -10.737  1.00  0.00    -0.000 C 
BRANCH  11  12
ATOM     12  C   UNL     1      -5.533  17.973 -10.816  1.00  0.00    -0.000 C 
BRANCH  12  13
ATOM     13  C   UNL     1      -4.002  17.998 -10.703  1.00  0.00    -0.000 C 
BRANCH  13  14
ATOM     14  C   UNL     1      -3.421  16.581 -10.827  1.00  0.00    -0.000 C 
BRANCH  14  15
ATOM     15  C   UNL     1      -4.499  15.489 -10.747  1.00  0.00    -0.000 C 
BRANCH  15  16
ATOM     16  C   UNL     1      -3.991  14.205 -10.073  1.00  0.00    -0.003 C 
ATOM     17  C   UNL     1      -2.478  14.072 -10.214  1.00  0.00     0.004 C 
ENDBRANCH  15  16
ENDBRANCH  14  15
ENDBRANCH  13  14
ENDBRANCH  12  13
ENDBRANCH  11  12
ENDBRANCH  10  11
ENDBRANCH   1  10
TORSDOF 13
ENDMDL
MODEL 2
REMARK VINA RESULT:     7.088      4.887      9.728
REMARK INTER + INTRA:          11.846
REMARK INTER:                  12.399
REMARK INTRA:                  -0.553
REMARK UNBOUND:                -0.628
REMARK SMILES CCCCCCCCCCCCCCC(=O)[O-]
REMARK SMILES IDX 9 1 10 2 11 3 12 4 13 5 14 6 15 7 16 8 17 9 8 10 7 11 6 12
REMARK SMILES IDX 5 13 4 14 3 15 2 16 1 17
REMARK H PARENT
REMARK Flexibility Score: inf
ROOT
ATOM      1  C   UNL     1      -6.340  20.363 -10.829  1.00  0.00     0.000 C 
ENDROOT
BRANCH   1   2
ATOM      2  C   UNL     1      -5.687  18.995 -11.114  1.00  0.00     0.000 C 
BRANCH   2   3
ATOM      3  C   UNL     1      -4.191  18.898 -10.758  1.00  0.00     0.000 C 
BRANCH   3   4
ATOM      4  C   UNL     1      -3.626  17.465 -10.700  1.00  0.00     0.000 C 
BRANCH   4   5
ATOM      5  C   UNL     1      -4.686  16.345 -10.700  1.00  0.00     0.006 C 
BRANCH   5   6
ATOM      6  C   UNL     1      -4.173  14.985 -11.198  1.00  0.00     0.053 C 
BRANCH   6   7
ATOM      7  C   UNL     1      -3.439  14.236 -10.128  1.00  0.00     0.041 C 
ATOM      8  O   UNL     1      -4.032  13.905  -9.067  1.00  0.00    -0.550 OA
ATOM      9  O   UNL     1      -2.093  13.935 -10.286  1.00  0.00    -0.550 OA
ENDBRANCH   6   7
ENDBRANCH   5   6
ENDBRANCH   4   5
ENDBRANCH   3   4
ENDBRANCH   2   3
ENDBRANCH   1   2
BRANCH   1  10
ATOM     10  C   UNL     1      -6.009  21.470 -11.846  1.00  0.00     0.000 C 
BRANCH  10  11
ATOM     11  C   UNL     1      -4.786  22.309 -11.437  1.00  0.00    -0.000 C 
BRANCH  11  12
ATOM     12  C   UNL     1      -4.977  23.808 -11.721  1.00  0.00    -0.000 C 
BRANCH  12  13
ATOM     13  C   UNL     1      -3.719  24.636 -11.416  1.00  0.00    -0.000 C 
BRANCH  13  14
ATOM     14  C   UNL     1      -4.049  26.135 -11.373  1.00  0.00    -0.000 C 
BRANCH  14  15
ATOM     15  C   UNL     1      -5.278  26.448 -10.505  1.00  0.00    -0.000 C 
BRANCH  15  16
ATOM     16  C   UNL     1      -6.254  27.418 -11.188  1.00  0.00    -0.003 C 
ATOM     17  C   UNL     1      -5.510  28.583 -11.832  1.00  0.00     0.004 C 
ENDBRANCH  15  16
ENDBRANCH  14  15
ENDBRANCH  13  14
ENDBRANCH  12  13
ENDBRANCH  11  12
ENDBRANCH  10  11
ENDBRANCH   1  10
TORSDOF 13
ENDMDL
MODEL 3
REMARK VINA RESULT:     7.157     14.291     17.238
REMARK INTER + INTRA:          11.968
REMARK INTER:                  12.241
REMARK INTRA:                  -0.273
REMARK UNBOUND:                -0.628
REMARK SMILES CCCCCCCCCCCCCCC(=O)[O-]
REMARK SMILES IDX 9 1 10 2 11 3 12 4 13 5 14 6 15 7 16 8 17 9 8 10 7 11 6 12
REMARK SMILES IDX 5 13 4 14 3 15 2 16 1 17
REMARK H PARENT
REMARK Flexibility Score: inf
ROOT
ATOM      1  C   UNL     1     -15.517  31.493 -20.019  1.00  0.00     0.000 C 
ENDROOT
BRANCH   1   2
ATOM      2  C   UNL     1     -16.402  32.221 -18.986  1.00  0.00     0.000 C 
BRANCH   2   3
ATOM      3  C   UNL     1     -16.754  33.679 -19.339  1.00  0.00     0.000 C 
BRANCH   3   4
ATOM      4  C   UNL     1     -18.197  33.901 -19.832  1.00  0.00     0.000 C 
BRANCH   4   5
ATOM      5  C   UNL     1     -19.278  33.854 -18.733  1.00  0.00     0.006 C 
BRANCH   5   6
ATOM      6  C   UNL     1     -20.721  33.845 -19.259  1.00  0.00     0.053 C 
BRANCH   6   7
ATOM      7  C   UNL     1     -21.685  33.312 -18.244  1.00  0.00     0.041 C 
ATOM      8  O   UNL     1     -22.125  32.137 -18.344  1.00  0.00    -0.550 OA
ATOM      9  O   UNL     1     -22.125  34.125 -17.207  1.00  0.00    -0.550 OA
ENDBRANCH   6   7
ENDBRANCH   5   6
ENDBRANCH   4   5
ENDBRANCH   3   4
ENDBRANCH   2   3
ENDBRANCH   1   2
BRANCH   1  10
ATOM     10  C   UNL     1     -14.927  30.152 -19.545  1.00  0.00     0.000 C 
BRANCH  10  11
ATOM     11  C   UNL     1     -14.661  30.120 -18.030  1.00  0.00    -0.000 C 
BRANCH  11  12
ATOM     12  C   UNL     1     -14.991  28.755 -17.403  1.00  0.00    -0.000 C 
BRANCH  12  13
ATOM     13  C   UNL     1     -14.301  28.542 -16.047  1.00  0.00    -0.000 C 
BRANCH  13  14
ATOM     14  C   UNL     1     -12.806  28.242 -16.236  1.00  0.00    -0.000 C 
BRANCH  14  15
ATOM     15  C   UNL     1     -12.473  27.753 -17.654  1.00  0.00    -0.000 C 
BRANCH  15  16
ATOM     16  C   UNL     1     -12.856  26.282 -17.878  1.00  0.00    -0.003 C 
ATOM     17  C   UNL     1     -12.438  25.811 -19.268  1.00  0.00     0.004 C 
ENDBRANCH  15  16
ENDBRANCH  14  15
ENDBRANCH  13  14
ENDBRANCH  12  13
ENDBRANCH  11  12
ENDBRANCH  10  11
ENDBRANCH   1  10
TORSDOF 13
ENDMDL
MODEL 4
REMARK VINA RESULT:     7.332      5.004      6.261
REMARK INTER + INTRA:          12.277
REMARK INTER:                  13.085
REMARK INTRA:                  -0.808
REMARK UNBOUND:                -0.628
REMARK SMILES CCCCCCCCCCCCCCC(=O)[O-]
REMARK SMILES IDX 9 1 10 2 11 3 12 4 13 5 14 6 15 7 16 8 17 9 8 10 7 11 6 12
REMARK SMILES IDX 5 13 4 14 3 15 2 16 1 17
REMARK H PARENT
REMARK Flexibility Score: inf
ROOT
ATOM      1  C   UNL     1      -6.750  19.969 -12.427  1.00  0.00     0.000 C 
ENDROOT
BRANCH   1   2
ATOM      2  C   UNL     1      -6.422  21.390 -12.928  1.00  0.00     0.000 C 
BRANCH   2   3
ATOM      3  C   UNL     1      -6.655  21.622 -14.434  1.00  0.00     0.000 C 
BRANCH   3   4
ATOM      4  C   UNL     1      -6.637  20.347 -15.300  1.00  0.00     0.000 C 
BRANCH   4   5
ATOM      5  C   UNL     1      -5.722  20.413 -16.540  1.00  0.00     0.006 C 
BRANCH   5   6
ATOM      6  C   UNL     1      -6.301  19.738 -17.794  1.00  0.00     0.053 C 
BRANCH   6   7
ATOM      7  C   UNL     1      -5.842  18.319 -17.929  1.00  0.00     0.041 C 
ATOM      8  O   UNL     1      -4.613  18.045 -17.898  1.00  0.00    -0.550 OA
ATOM      9  O   UNL     1      -6.768  17.302 -18.124  1.00  0.00    -0.550 OA
ENDBRANCH   6   7
ENDBRANCH   5   6
ENDBRANCH   4   5
ENDBRANCH   3   4
ENDBRANCH   2   3
ENDBRANCH   1   2
BRANCH   1  10
ATOM     10  C   UNL     1      -6.031  19.550 -11.132  1.00  0.00     0.000 C 
BRANCH  10  11
ATOM     11  C   UNL     1      -4.640  20.191 -10.988  1.00  0.00    -0.000 C 
BRANCH  11  12
ATOM     12  C   UNL     1      -3.555  19.168 -10.614  1.00  0.00    -0.000 C 
BRANCH  12  13
ATOM     13  C   UNL     1      -3.701  17.842 -11.374  1.00  0.00    -0.000 C 
BRANCH  13  14
ATOM     14  C   UNL     1      -3.416  16.648 -10.451  1.00  0.00    -0.000 C 
BRANCH  14  15
ATOM     15  C   UNL     1      -4.483  15.547 -10.557  1.00  0.00    -0.000 C 
BRANCH  15  16
ATOM     16  C   UNL     1      -3.948  14.164 -10.160  1.00  0.00    -0.003 C 
ATOM     17  C   UNL     1      -2.423  14.131 -10.205  1.00  0.00     0.004 C 
ENDBRANCH  15  16
ENDBRANCH  14  15
ENDBRANCH  13  14
ENDBRANCH  12  13
ENDBRANCH  11  12
ENDBRANCH  10  11
ENDBRANCH   1  10
TORSDOF 13
ENDMDL
MODEL 5
REMARK VINA RESULT:     7.425     13.953     18.276
REMARK INTER + INTRA:          12.441
REMARK INTER:                  12.972
REMARK INTRA:                  -0.531
REMARK UNBOUND:                -0.628
REMARK SMILES CCCCCCCCCCCCCCC(=O)[O-]
REMARK SMILES IDX 9 1 10 2 11 3 12 4 13 5 14 6 15 7 16 8 17 9 8 10 7 11 6 12
REMARK SMILES IDX 5 13 4 14 3 15 2 16 1 17
REMARK H PARENT
REMARK Flexibility Score: inf
ROOT
ATOM      1  C   UNL     1     -14.662  30.571 -19.902  1.00  0.00     0.000 C 
ENDROOT
BRANCH   1   2
ATOM      2  C   UNL     1     -14.229  29.545 -18.834  1.00  0.00     0.000 C 
BRANCH   2   3
ATOM      3  C   UNL     1     -12.716  29.260 -18.779  1.00  0.00     0.000 C 
BRANCH   3   4
ATOM      4  C   UNL     1     -12.338  27.832 -18.336  1.00  0.00     0.000 C 
BRANCH   4   5
ATOM      5  C   UNL     1     -12.350  27.597 -16.812  1.00  0.00     0.006 C 
BRANCH   5   6
ATOM      6  C   UNL     1     -13.648  26.974 -16.275  1.00  0.00     0.053 C 
BRANCH   6   7
ATOM      7  C   UNL     1     -14.541  27.996 -15.642  1.00  0.00     0.041 C 
ATOM      8  O   UNL     1     -14.176  28.595 -14.596  1.00  0.00    -0.550 OA
ATOM      9  O   UNL     1     -15.791  28.264 -16.187  1.00  0.00    -0.550 OA
ENDBRANCH   6   7
ENDBRANCH   5   6
ENDBRANCH   4   5
ENDBRANCH   3   4
ENDBRANCH   2   3
ENDBRANCH   1   2
BRANCH   1  10
ATOM     10  C   UNL     1     -15.356  31.831 -19.355  1.00  0.00     0.000 C 
BRANCH  10  11
ATOM     11  C   UNL     1     -16.740  32.070 -19.981  1.00  0.00    -0.000 C 
BRANCH  11  12
ATOM     12  C   UNL     1     -17.651  32.931 -19.090  1.00  0.00    -0.000 C 
BRANCH  12  13
ATOM     13  C   UNL     1     -18.274  34.115 -19.844  1.00  0.00    -0.000 C 
BRANCH  13  14
ATOM     14  C   UNL     1     -19.801  34.125 -19.680  1.00  0.00    -0.000 C 
BRANCH  14  15
ATOM     15  C   UNL     1     -20.415  32.719 -19.759  1.00  0.00    -0.000 C 
BRANCH  15  16
ATOM     16  C   UNL     1     -21.882  32.688 -19.302  1.00  0.00    -0.003 C 
ATOM     17  C   UNL     1     -22.071  33.473 -18.008  1.00  0.00     0.004 C 
ENDBRANCH  15  16
ENDBRANCH  14  15
ENDBRANCH  13  14
ENDBRANCH  12  13
ENDBRANCH  11  12
ENDBRANCH  10  11
ENDBRANCH   1  10
TORSDOF 13
ENDMDL
MODEL 6
REMARK VINA RESULT:     7.451      5.326      8.150
REMARK INTER + INTRA:          12.486
REMARK INTER:                  13.150
REMARK INTRA:                  -0.665
REMARK UNBOUND:                -0.628
REMARK SMILES CCCCCCCCCCCCCCC(=O)[O-]
REMARK SMILES IDX 9 1 10 2 11 3 12 4 13 5 14 6 15 7 16 8 17 9 8 10 7 11 6 12
REMARK SMILES IDX 5 13 4 14 3 15 2 16 1 17
REMARK H PARENT
REMARK Flexibility Score: inf
ROOT
ATOM      1  C   UNL     1      -6.285  20.361 -11.389  1.00  0.00     0.000 C 
ENDROOT
BRANCH   1   2
ATOM      2  C   UNL     1      -4.887  20.942 -11.097  1.00  0.00     0.000 C 
BRANCH   2   3
ATOM      3  C   UNL     1      -3.790  19.897 -10.815  1.00  0.00     0.000 C 
BRANCH   3   4
ATOM      4  C   UNL     1      -4.289  18.442 -10.706  1.00  0.00     0.000 C 
BRANCH   4   5
ATOM      5  C   UNL     1      -3.242  17.365 -11.057  1.00  0.00     0.006 C 
BRANCH   5   6
ATOM      6  C   UNL     1      -3.161  16.206 -10.051  1.00  0.00     0.053 C 
BRANCH   6   7
ATOM      7  C   UNL     1      -4.024  15.051 -10.456  1.00  0.00     0.041 C 
ATOM      8  O   UNL     1      -3.692  13.875 -10.149  1.00  0.00    -0.550 OA
ATOM      9  O   UNL     1      -5.175  15.268 -11.201  1.00  0.00    -0.550 OA
ENDBRANCH   6   7
ENDBRANCH   5   6
ENDBRANCH   4   5
ENDBRANCH   3   4
ENDBRANCH   2   3
ENDBRANCH   1   2
BRANCH   1  10
ATOM     10  C   UNL     1      -6.702  20.374 -12.871  1.00  0.00     0.000 C 
BRANCH  10  11
ATOM     11  C   UNL     1      -6.710  21.788 -13.476  1.00  0.00    -0.000 C 
BRANCH  11  12
ATOM     12  C   UNL     1      -6.731  21.772 -15.013  1.00  0.00    -0.000 C 
BRANCH  12  13
ATOM     13  C   UNL     1      -6.651  20.352 -15.593  1.00  0.00    -0.000 C 
BRANCH  13  14
ATOM     14  C   UNL     1      -5.600  20.277 -16.711  1.00  0.00    -0.000 C 
BRANCH  14  15
ATOM     15  C   UNL     1      -6.103  19.516 -17.948  1.00  0.00    -0.000 C 
BRANCH  15  16
ATOM     16  C   UNL     1      -5.717  18.029 -17.925  1.00  0.00    -0.003 C 
ATOM     17  C   UNL     1      -6.919  17.145 -18.240  1.00  0.00     0.004 C 
ENDBRANCH  15  16
ENDBRANCH  14  15
ENDBRANCH  13  14
ENDBRANCH  12  13
ENDBRANCH  11  12
ENDBRANCH  10  11
ENDBRANCH   1  10
TORSDOF 13
ENDMDL
MODEL 7
REMARK VINA RESULT:     7.512      3.375      5.361
REMARK INTER + INTRA:          12.592
REMARK INTER:                  10.980
REMARK INTRA:                   1.612
REMARK UNBOUND:                -0.628
REMARK SMILES CCCCCCCCCCCCCCC(=O)[O-]
REMARK SMILES IDX 9 1 10 2 11 3 12 4 13 5 14 6 15 7 16 8 17 9 8 10 7 11 6 12
REMARK SMILES IDX 5 13 4 14 3 15 2 16 1 17
REMARK H PARENT
REMARK Flexibility Score: inf
ROOT
ATOM      1  C   UNL     1      -3.363  16.874 -10.776  1.00  0.00     0.000 C 
ENDROOT
BRANCH   1   2
ATOM      2  C   UNL     1      -3.060  18.384 -10.692  1.00  0.00     0.000 C 
BRANCH   2   3
ATOM      3  C   UNL     1      -4.233  19.308 -11.072  1.00  0.00     0.000 C 
BRANCH   3   4
ATOM      4  C   UNL     1      -4.012  20.802 -10.764  1.00  0.00     0.000 C 
BRANCH   4   5
ATOM      5  C   UNL     1      -4.964  21.768 -11.499  1.00  0.00     0.006 C 
BRANCH   5   6
ATOM      6  C   UNL     1      -6.423  21.291 -11.570  1.00  0.00     0.053 C 
BRANCH   6   7
ATOM      7  C   UNL     1      -6.771  20.753 -12.924  1.00  0.00     0.041 C 
ATOM      8  O   UNL     1      -7.091  19.543 -13.062  1.00  0.00    -0.550 OA
ATOM      9  O   UNL     1      -6.709  21.579 -14.039  1.00  0.00    -0.550 OA
ENDBRANCH   6   7
ENDBRANCH   5   6
ENDBRANCH   4   5
ENDBRANCH   3   4
ENDBRANCH   2   3
ENDBRANCH   1   2
BRANCH   1  10
ATOM     10  C   UNL     1      -2.541  15.988  -9.822  1.00  0.00     0.000 C 
BRANCH  10  11
ATOM     11  C   UNL     1      -2.663  14.489 -10.146  1.00  0.00    -0.000 C 
BRANCH  11  12
ATOM     12  C   UNL     1      -4.118  14.054 -10.387  1.00  0.00    -0.000 C 
BRANCH  12  13
ATOM     13  C   UNL     1      -4.868  14.994 -11.343  1.00  0.00    -0.000 C 
BRANCH  13  14
ATOM     14  C   UNL     1      -5.875  15.864 -10.577  1.00  0.00    -0.000 C 
BRANCH  14  15
ATOM     15  C   UNL     1      -6.818  16.641 -11.508  1.00  0.00    -0.000 C 
BRANCH  15  16
ATOM     16  C   UNL     1      -7.437  15.752 -12.598  1.00  0.00    -0.003 C 
ATOM     17  C   UNL     1      -8.504  16.508 -13.384  1.00  0.00     0.004 C 
ENDBRANCH  15  16
ENDBRANCH  14  15
ENDBRANCH  13  14
ENDBRANCH  12  13
ENDBRANCH  11  12
ENDBRANCH  10  11
ENDBRANCH   1  10
TORSDOF 13
ENDMDL
MODEL 8
REMARK VINA RESULT:     8.072      4.495      8.253
REMARK INTER + INTRA:          13.579
REMARK INTER:                  13.994
REMARK INTRA:                  -0.415
REMARK UNBOUND:                -0.628
REMARK SMILES CCCCCCCCCCCCCCC(=O)[O-]
REMARK SMILES IDX 9 1 10 2 11 3 12 4 13 5 14 6 15 7 16 8 17 9 8 10 7 11 6 12
REMARK SMILES IDX 5 13 4 14 3 15 2 16 1 17
REMARK H PARENT
REMARK Flexibility Score: inf
ROOT
ATOM      1  C   UNL     1      -3.060  16.339  -9.885  1.00  0.00     0.000 C 
ENDROOT
BRANCH   1   2
ATOM      2  C   UNL     1      -2.969  14.836 -10.217  1.00  0.00     0.000 C 
BRANCH   2   3
ATOM      3  C   UNL     1      -4.301  14.174 -10.620  1.00  0.00     0.000 C 
BRANCH   3   4
ATOM      4  C   UNL     1      -5.187  15.013 -11.562  1.00  0.00     0.000 C 
BRANCH   4   5
ATOM      5  C   UNL     1      -6.275  15.851 -10.861  1.00  0.00     0.006 C 
BRANCH   5   6
ATOM      6  C   UNL     1      -6.826  17.012 -11.704  1.00  0.00     0.053 C 
BRANCH   6   7
ATOM      7  C   UNL     1      -7.898  16.559 -12.647  1.00  0.00     0.041 C 
ATOM      8  O   UNL     1      -8.154  17.228 -13.683  1.00  0.00    -0.550 OA
ATOM      9  O   UNL     1      -8.639  15.419 -12.366  1.00  0.00    -0.550 OA
ENDBRANCH   6   7
ENDBRANCH   5   6
ENDBRANCH   4   5
ENDBRANCH   3   4
ENDBRANCH   2   3
ENDBRANCH   1   2
BRANCH   1  10
ATOM     10  C   UNL     1      -3.265  17.265 -11.098  1.00  0.00     0.000 C 
BRANCH  10  11
ATOM     11  C   UNL     1      -3.037  18.749 -10.761  1.00  0.00    -0.000 C 
BRANCH  11  12
ATOM     12  C   UNL     1      -4.342  19.561 -10.762  1.00  0.00    -0.000 C 
BRANCH  12  13
ATOM     13  C   UNL     1      -4.099  21.076 -10.844  1.00  0.00    -0.000 C 
BRANCH  13  14
ATOM     14  C   UNL     1      -5.289  21.785 -11.508  1.00  0.00    -0.000 C 
BRANCH  14  15
ATOM     15  C   UNL     1      -6.514  20.870 -11.663  1.00  0.00    -0.000 C 
BRANCH  15  16
ATOM     16  C   UNL     1      -6.743  20.428 -13.116  1.00  0.00    -0.003 C 
ATOM     17  C   UNL     1      -6.725  21.624 -14.063  1.00  0.00     0.004 C 
ENDBRANCH  15  16
ENDBRANCH  14  15
ENDBRANCH  13  14
ENDBRANCH  12  13
ENDBRANCH  11  12
ENDBRANCH  10  11
ENDBRANCH   1  10
TORSDOF 13
ENDMDL
