MODEL 1
REMARK VINA RESULT:    -2.997      0.000      0.000
REMARK INTER + INTRA:          -7.732
REMARK INTER:                  -5.625
REMARK INTRA:                  -2.107
REMARK UNBOUND:                -2.107
REMARK SMILES CCCCCCCCC=CCCCCCCCC(=O)[O-]
REMARK SMILES IDX 10 1 9 2 11 3 12 4 13 5 14 6 15 7 16 8 17 9 18 10 19 11
REMARK SMILES IDX 20 12 8 13 7 14 6 15 5 16 4 17 3 18 2 19 1 20
REMARK H PARENT
REMARK Flexibility Score: inf
ROOT
ATOM      1  C   UNL     1     121.436 125.952 124.282  1.00  0.00    -0.031 C 
ATOM      2  C   UNL     1     121.258 125.711 122.974  1.00  0.00    -0.031 C 
ENDROOT
BRANCH   1   3
ATOM      3  C   UNL     1     121.820 127.315 124.786  1.00  0.00     0.027 C 
BRANCH   3   4
ATOM      4  C   UNL     1     121.660 127.409 126.309  1.00  0.00     0.004 C 
BRANCH   4   5
ATOM      5  C   UNL     1     121.038 126.125 126.875  1.00  0.00     0.000 C 
BRANCH   5   6
ATOM      6  C   UNL     1     121.199 126.002 128.401  1.00  0.00     0.000 C 
BRANCH   6   7
ATOM      7  C   UNL     1     122.589 125.538 128.878  1.00  0.00     0.000 C 
BRANCH   7   8
ATOM      8  C   UNL     1     122.609 124.790 130.226  1.00  0.00     0.006 C 
BRANCH   8   9
ATOM      9  C   UNL     1     121.522 125.251 131.214  1.00  0.00     0.053 C 
BRANCH   9  10
ATOM     10  C   UNL     1     121.670 124.626 132.568  1.00  0.00     0.041 C 
ATOM     11  O   UNL     1     121.006 125.063 133.545  1.00  0.00    -0.550 OA
ATOM     12  O   UNL     1     122.512 123.535 132.744  1.00  0.00    -0.550 OA
ENDBRANCH   9  10
ENDBRANCH   8   9
ENDBRANCH   7   8
ENDBRANCH   6   7
ENDBRANCH   5   6
ENDBRANCH   4   5
ENDBRANCH   3   4
ENDBRANCH   1   3
BRANCH   2  13
ATOM     13  C   UNL     1     120.875 124.346 122.470  1.00  0.00     0.027 C 
BRANCH  13  14
ATOM     14  C   UNL     1     121.099 123.275 123.548  1.00  0.00     0.004 C 
BRANCH  14  15
ATOM     15  C   UNL     1     121.786 122.015 123.000  1.00  0.00     0.000 C 
BRANCH  15  16
ATOM     16  C   UNL     1     123.311 122.183 122.871  1.00  0.00     0.000 C 
BRANCH  16  17
ATOM     17  C   UNL     1     123.992 122.441 124.225  1.00  0.00    -0.000 C 
BRANCH  17  18
ATOM     18  C   UNL     1     124.535 123.872 124.355  1.00  0.00    -0.000 C 
BRANCH  18  19
ATOM     19  C   UNL     1     124.233 124.449 125.743  1.00  0.00    -0.003 C 
ATOM     20  C   UNL     1     125.207 125.568 126.099  1.00  0.00     0.004 C 
ENDBRANCH  18  19
ENDBRANCH  17  18
ENDBRANCH  16  17
ENDBRANCH  15  16
ENDBRANCH  14  15
ENDBRANCH  13  14
ENDBRANCH   2  13
TORSDOF 15
ENDMDL
MODEL 2
REMARK VINA RESULT:    -2.993      4.072      5.744
REMARK INTER + INTRA:          -7.724
REMARK INTER:                  -4.840
REMARK INTRA:                  -2.884
REMARK UNBOUND:                -2.107
REMARK SMILES CCCCCCCCC=CCCCCCCCC(=O)[O-]
REMARK SMILES IDX 10 1 9 2 11 3 12 4 13 5 14 6 15 7 16 8 17 9 18 10 19 11
REMARK SMILES IDX 20 12 8 13 7 14 6 15 5 16 4 17 3 18 2 19 1 20
REMARK H PARENT
REMARK Flexibility Score: inf
ROOT
ATOM      1  C   UNL     1     124.225 122.736 124.866  1.00  0.00    -0.031 C 
ATOM      2  C   UNL     1     124.609 122.110 123.744  1.00  0.00    -0.031 C 
ENDROOT
BRANCH   1   3
ATOM      3  C   UNL     1     125.226 123.246 125.866  1.00  0.00     0.027 C 
BRANCH   3   4
ATOM      4  C   UNL     1     125.028 124.743 126.137  1.00  0.00     0.004 C 
BRANCH   4   5
ATOM      5  C   UNL     1     123.765 125.264 125.438  1.00  0.00     0.000 C 
BRANCH   5   6
ATOM      6  C   UNL     1     123.079 126.404 126.212  1.00  0.00     0.000 C 
BRANCH   6   7
ATOM      7  C   UNL     1     121.630 126.708 125.785  1.00  0.00     0.000 C 
BRANCH   7   8
ATOM      8  C   UNL     1     121.407 128.091 125.143  1.00  0.00     0.006 C 
BRANCH   8   9
ATOM      9  C   UNL     1     122.218 128.322 123.855  1.00  0.00     0.053 C 
BRANCH   9  10
ATOM     10  C   UNL     1     123.134 129.504 123.954  1.00  0.00     0.041 C 
ATOM     11  O   UNL     1     122.850 130.579 123.363  1.00  0.00    -0.550 OA
ATOM     12  O   UNL     1     124.284 129.432 124.731  1.00  0.00    -0.550 OA
ENDBRANCH   9  10
ENDBRANCH   8   9
ENDBRANCH   7   8
ENDBRANCH   6   7
ENDBRANCH   5   6
ENDBRANCH   4   5
ENDBRANCH   3   4
ENDBRANCH   1   3
BRANCH   2  13
ATOM     13  C   UNL     1     123.606 121.600 122.745  1.00  0.00     0.027 C 
BRANCH  13  14
ATOM     14  C   UNL     1     122.186 121.613 123.330  1.00  0.00     0.004 C 
BRANCH  14  15
ATOM     15  C   UNL     1     121.235 122.542 122.559  1.00  0.00     0.000 C 
BRANCH  15  16
ATOM     16  C   UNL     1     121.010 123.885 123.278  1.00  0.00     0.000 C 
BRANCH  16  17
ATOM     17  C   UNL     1     121.370 125.092 122.399  1.00  0.00    -0.000 C 
BRANCH  17  18
ATOM     18  C   UNL     1     122.563 124.817 121.470  1.00  0.00    -0.000 C 
BRANCH  18  19
ATOM     19  C   UNL     1     123.807 125.585 121.934  1.00  0.00    -0.003 C 
ATOM     20  C   UNL     1     125.086 124.878 121.495  1.00  0.00     0.004 C 
ENDBRANCH  18  19
ENDBRANCH  17  18
ENDBRANCH  16  17
ENDBRANCH  15  16
ENDBRANCH  14  15
ENDBRANCH  13  14
ENDBRANCH   2  13
TORSDOF 15
ENDMDL
MODEL 3
REMARK VINA RESULT:    -2.950      1.811      3.757
REMARK INTER + INTRA:          -7.644
REMARK INTER:                  -5.798
REMARK INTRA:                  -1.846
REMARK UNBOUND:                -2.107
REMARK SMILES CCCCCCCCC=CCCCCCCCC(=O)[O-]
REMARK SMILES IDX 10 1 9 2 11 3 12 4 13 5 14 6 15 7 16 8 17 9 18 10 19 11
REMARK SMILES IDX 20 12 8 13 7 14 6 15 5 16 4 17 3 18 2 19 1 20
REMARK H PARENT
REMARK Flexibility Score: inf
ROOT
ATOM      1  C   UNL     1     124.950 123.640 125.817  1.00  0.00    -0.031 C 
ATOM      2  C   UNL     1     124.274 122.748 125.076  1.00  0.00    -0.031 C 
ENDROOT
BRANCH   1   3
ATOM      3  C   UNL     1     124.624 123.868 127.267  1.00  0.00     0.027 C 
BRANCH   3   4
ATOM      4  C   UNL     1     124.794 122.579 128.083  1.00  0.00     0.004 C 
BRANCH   4   5
ATOM      5  C   UNL     1     124.551 122.840 129.576  1.00  0.00     0.000 C 
BRANCH   5   6
ATOM      6  C   UNL     1     123.700 124.096 129.835  1.00  0.00     0.000 C 
BRANCH   6   7
ATOM      7  C   UNL     1     122.612 123.940 130.914  1.00  0.00     0.000 C 
BRANCH   7   8
ATOM      8  C   UNL     1     122.789 122.738 131.862  1.00  0.00     0.006 C 
BRANCH   8   9
ATOM      9  C   UNL     1     122.396 123.029 133.322  1.00  0.00     0.053 C 
BRANCH   9  10
ATOM     10  C   UNL     1     123.565 122.969 134.257  1.00  0.00     0.041 C 
ATOM     11  O   UNL     1     124.022 121.857 134.632  1.00  0.00    -0.550 OA
ATOM     12  O   UNL     1     124.177 124.141 134.686  1.00  0.00    -0.550 OA
ENDBRANCH   9  10
ENDBRANCH   8   9
ENDBRANCH   7   8
ENDBRANCH   6   7
ENDBRANCH   5   6
ENDBRANCH   4   5
ENDBRANCH   3   4
ENDBRANCH   1   3
BRANCH   2  13
ATOM     13  C   UNL     1     124.600 122.522 123.625  1.00  0.00     0.027 C 
BRANCH  13  14
ATOM     14  C   UNL     1     123.436 121.830 122.898  1.00  0.00     0.004 C 
BRANCH  14  15
ATOM     15  C   UNL     1     122.102 121.967 123.648  1.00  0.00     0.000 C 
BRANCH  15  16
ATOM     16  C   UNL     1     121.104 122.881 122.914  1.00  0.00     0.000 C 
BRANCH  16  17
ATOM     17  C   UNL     1     120.994 124.272 123.558  1.00  0.00    -0.000 C 
BRANCH  17  18
ATOM     18  C   UNL     1     122.018 125.270 122.995  1.00  0.00    -0.000 C 
BRANCH  18  19
ATOM     19  C   UNL     1     122.572 126.171 124.106  1.00  0.00    -0.003 C 
ATOM     20  C   UNL     1     121.929 125.846 125.451  1.00  0.00     0.004 C 
ENDBRANCH  18  19
ENDBRANCH  17  18
ENDBRANCH  16  17
ENDBRANCH  15  16
ENDBRANCH  14  15
ENDBRANCH  13  14
ENDBRANCH   2  13
TORSDOF 15
ENDMDL
MODEL 4
REMARK VINA RESULT:    -2.948      1.163      2.169
REMARK INTER + INTRA:          -7.639
REMARK INTER:                  -5.895
REMARK INTRA:                  -1.745
REMARK UNBOUND:                -2.107
REMARK SMILES CCCCCCCCC=CCCCCCCCC(=O)[O-]
REMARK SMILES IDX 10 1 9 2 11 3 12 4 13 5 14 6 15 7 16 8 17 9 18 10 19 11
REMARK SMILES IDX 20 12 8 13 7 14 6 15 5 16 4 17 3 18 2 19 1 20
REMARK H PARENT
REMARK Flexibility Score: inf
ROOT
ATOM      1  C   UNL     1     121.253 126.129 126.241  1.00  0.00    -0.031 C 
ATOM      2  C   UNL     1     121.956 126.538 125.174  1.00  0.00    -0.031 C 
ENDROOT
BRANCH   1   3
ATOM      3  C   UNL     1     121.466 126.732 127.602  1.00  0.00     0.027 C 
BRANCH   3   4
ATOM      4  C   UNL     1     122.783 126.248 128.224  1.00  0.00     0.004 C 
BRANCH   4   5
ATOM      5  C   UNL     1     122.529 125.128 129.243  1.00  0.00     0.000 C 
BRANCH   5   6
ATOM      6  C   UNL     1     121.168 125.258 129.950  1.00  0.00     0.000 C 
BRANCH   6   7
ATOM      7  C   UNL     1     121.166 126.143 131.211  1.00  0.00     0.000 C 
BRANCH   7   8
ATOM      8  C   UNL     1     120.875 125.408 132.534  1.00  0.00     0.006 C 
BRANCH   8   9
ATOM      9  C   UNL     1     121.947 124.374 132.924  1.00  0.00     0.053 C 
BRANCH   9  10
ATOM     10  C   UNL     1     122.431 124.547 134.332  1.00  0.00     0.041 C 
ATOM     11  O   UNL     1     121.612 124.769 135.262  1.00  0.00    -0.550 OA
ATOM     12  O   UNL     1     123.784 124.424 134.625  1.00  0.00    -0.550 OA
ENDBRANCH   9  10
ENDBRANCH   8   9
ENDBRANCH   7   8
ENDBRANCH   6   7
ENDBRANCH   5   6
ENDBRANCH   4   5
ENDBRANCH   3   4
ENDBRANCH   1   3
BRANCH   2  13
ATOM     13  C   UNL     1     121.743 125.934 123.813  1.00  0.00     0.027 C 
BRANCH  13  14
ATOM     14  C   UNL     1     120.918 124.641 123.904  1.00  0.00     0.004 C 
BRANCH  14  15
ATOM     15  C   UNL     1     121.138 123.710 122.702  1.00  0.00     0.000 C 
BRANCH  15  16
ATOM     16  C   UNL     1     121.626 122.311 123.120  1.00  0.00     0.000 C 
BRANCH  16  17
ATOM     17  C   UNL     1     122.913 122.361 123.958  1.00  0.00    -0.000 C 
BRANCH  17  18
ATOM     18  C   UNL     1     124.083 123.021 123.213  1.00  0.00    -0.000 C 
BRANCH  18  19
ATOM     19  C   UNL     1     125.027 123.730 124.192  1.00  0.00    -0.003 C 
ATOM     20  C   UNL     1     124.389 123.865 125.572  1.00  0.00     0.004 C 
ENDBRANCH  18  19
ENDBRANCH  17  18
ENDBRANCH  16  17
ENDBRANCH  15  16
ENDBRANCH  14  15
ENDBRANCH  13  14
ENDBRANCH   2  13
TORSDOF 15
ENDMDL
MODEL 5
REMARK VINA RESULT:    -2.932      3.394      5.795
REMARK INTER + INTRA:          -7.610
REMARK INTER:                  -4.852
REMARK INTRA:                  -2.758
REMARK UNBOUND:                -2.107
REMARK SMILES CCCCCCCCC=CCCCCCCCC(=O)[O-]
REMARK SMILES IDX 10 1 9 2 11 3 12 4 13 5 14 6 15 7 16 8 17 9 18 10 19 11
REMARK SMILES IDX 20 12 8 13 7 14 6 15 5 16 4 17 3 18 2 19 1 20
REMARK H PARENT
REMARK Flexibility Score: inf
ROOT
ATOM      1  C   UNL     1     121.612 123.158 122.438  1.00  0.00    -0.031 C 
ATOM      2  C   UNL     1     120.882 123.764 123.386  1.00  0.00    -0.031 C 
ENDROOT
BRANCH   1   3
ATOM      3  C   UNL     1     121.591 121.665 122.262  1.00  0.00     0.027 C 
BRANCH   3   4
ATOM      4  C   UNL     1     122.613 121.215 121.210  1.00  0.00     0.004 C 
BRANCH   4   5
ATOM      5  C   UNL     1     123.945 121.958 121.388  1.00  0.00     0.000 C 
BRANCH   5   6
ATOM      6  C   UNL     1     124.860 121.305 122.440  1.00  0.00     0.000 C 
BRANCH   6   7
ATOM      7  C   UNL     1     125.312 122.234 123.582  1.00  0.00     0.000 C 
BRANCH   7   8
ATOM      8  C   UNL     1     124.280 122.451 124.706  1.00  0.00     0.006 C 
BRANCH   8   9
ATOM      9  C   UNL     1     124.362 123.837 125.372  1.00  0.00     0.053 C 
BRANCH   9  10
ATOM     10  C   UNL     1     124.949 123.781 126.750  1.00  0.00     0.041 C 
ATOM     11  O   UNL     1     124.807 122.751 127.459  1.00  0.00    -0.550 OA
ATOM     12  O   UNL     1     125.688 124.853 127.237  1.00  0.00    -0.550 OA
ENDBRANCH   9  10
ENDBRANCH   8   9
ENDBRANCH   7   8
ENDBRANCH   6   7
ENDBRANCH   5   6
ENDBRANCH   4   5
ENDBRANCH   3   4
ENDBRANCH   1   3
BRANCH   2  13
ATOM     13  C   UNL     1     120.905 125.257 123.564  1.00  0.00     0.027 C 
BRANCH  13  14
ATOM     14  C   UNL     1     121.251 125.638 125.011  1.00  0.00     0.004 C 
BRANCH  14  15
ATOM     15  C   UNL     1     121.749 127.085 125.142  1.00  0.00     0.000 C 
BRANCH  15  16
ATOM     16  C   UNL     1     123.185 127.167 125.692  1.00  0.00     0.000 C 
BRANCH  16  17
ATOM     17  C   UNL     1     124.070 128.133 124.890  1.00  0.00    -0.000 C 
BRANCH  17  18
ATOM     18  C   UNL     1     124.063 127.834 123.383  1.00  0.00    -0.000 C 
BRANCH  18  19
ATOM     19  C   UNL     1     124.942 126.618 123.062  1.00  0.00    -0.003 C 
ATOM     20  C   UNL     1     124.254 125.689 122.066  1.00  0.00     0.004 C 
ENDBRANCH  18  19
ENDBRANCH  17  18
ENDBRANCH  16  17
ENDBRANCH  15  16
ENDBRANCH  14  15
ENDBRANCH  13  14
ENDBRANCH   2  13
TORSDOF 15
ENDMDL
MODEL 6
REMARK VINA RESULT:    -2.927      5.096      7.906
REMARK INTER + INTRA:          -7.600
REMARK INTER:                  -5.220
REMARK INTRA:                  -2.381
REMARK UNBOUND:                -2.107
REMARK SMILES CCCCCCCCC=CCCCCCCCC(=O)[O-]
REMARK SMILES IDX 10 1 9 2 11 3 12 4 13 5 14 6 15 7 16 8 17 9 18 10 19 11
REMARK SMILES IDX 20 12 8 13 7 14 6 15 5 16 4 17 3 18 2 19 1 20
REMARK H PARENT
REMARK Flexibility Score: inf
ROOT
ATOM      1  C   UNL     1     121.681 126.679 132.247  1.00  0.00    -0.031 C 
ATOM      2  C   UNL     1     120.875 126.187 131.294  1.00  0.00    -0.031 C 
ENDROOT
BRANCH   1   3
ATOM      3  C   UNL     1     121.367 127.966 132.957  1.00  0.00     0.027 C 
BRANCH   3   4
ATOM      4  C   UNL     1     122.198 128.111 134.238  1.00  0.00     0.004 C 
BRANCH   4   5
ATOM      5  C   UNL     1     123.044 126.854 134.488  1.00  0.00     0.000 C 
BRANCH   5   6
ATOM      6  C   UNL     1     123.279 126.577 135.984  1.00  0.00     0.000 C 
BRANCH   6   7
ATOM      7  C   UNL     1     122.009 126.286 136.805  1.00  0.00     0.000 C 
BRANCH   7   8
ATOM      8  C   UNL     1     122.237 125.537 138.133  1.00  0.00     0.006 C 
BRANCH   8   9
ATOM      9  C   UNL     1     123.693 125.087 138.355  1.00  0.00     0.053 C 
BRANCH   9  10
ATOM     10  C   UNL     1     123.853 123.598 138.293  1.00  0.00     0.041 C 
ATOM     11  O   UNL     1     124.196 123.040 137.218  1.00  0.00    -0.550 OA
ATOM     12  O   UNL     1     123.662 122.828 139.435  1.00  0.00    -0.550 OA
ENDBRANCH   9  10
ENDBRANCH   8   9
ENDBRANCH   7   8
ENDBRANCH   6   7
ENDBRANCH   5   6
ENDBRANCH   4   5
ENDBRANCH   3   4
ENDBRANCH   1   3
BRANCH   2  13
ATOM     13  C   UNL     1     121.191 124.899 130.583  1.00  0.00     0.027 C 
BRANCH  13  14
ATOM     14  C   UNL     1     122.460 125.037 129.727  1.00  0.00     0.004 C 
BRANCH  14  15
ATOM     15  C   UNL     1     123.530 123.993 130.082  1.00  0.00     0.000 C 
BRANCH  15  16
ATOM     16  C   UNL     1     123.173 123.186 131.343  1.00  0.00     0.000 C 
BRANCH  16  17
ATOM     17  C   UNL     1     123.882 123.713 132.601  1.00  0.00    -0.000 C 
BRANCH  17  18
ATOM     18  C   UNL     1     123.448 122.980 133.879  1.00  0.00    -0.000 C 
BRANCH  18  19
ATOM     19  C   UNL     1     121.952 122.643 133.836  1.00  0.00    -0.003 C 
ATOM     20  C   UNL     1     121.108 123.823 134.310  1.00  0.00     0.004 C 
ENDBRANCH  18  19
ENDBRANCH  17  18
ENDBRANCH  16  17
ENDBRANCH  15  16
ENDBRANCH  14  15
ENDBRANCH  13  14
ENDBRANCH   2  13
TORSDOF 15
ENDMDL
MODEL 7
REMARK VINA RESULT:    -2.905     16.163     18.654
REMARK INTER + INTRA:          -7.559
REMARK INTER:                  -5.205
REMARK INTRA:                  -2.355
REMARK UNBOUND:                -2.107
REMARK SMILES CCCCCCCCC=CCCCCCCCC(=O)[O-]
REMARK SMILES IDX 10 1 9 2 11 3 12 4 13 5 14 6 15 7 16 8 17 9 18 10 19 11
REMARK SMILES IDX 20 12 8 13 7 14 6 15 5 16 4 17 3 18 2 19 1 20
REMARK H PARENT
REMARK Flexibility Score: inf
ROOT
ATOM      1  C   UNL     1     138.839 123.373 127.853  1.00  0.00    -0.031 C 
ATOM      2  C   UNL     1     140.157 123.167 127.993  1.00  0.00    -0.031 C 
ENDROOT
BRANCH   1   3
ATOM      3  C   UNL     1     137.877 122.229 127.680  1.00  0.00     0.027 C 
BRANCH   3   4
ATOM      4  C   UNL     1     138.139 121.478 126.368  1.00  0.00     0.004 C 
BRANCH   4   5
ATOM      5  C   UNL     1     137.326 122.085 125.216  1.00  0.00     0.000 C 
BRANCH   5   6
ATOM      6  C   UNL     1     137.974 121.857 123.839  1.00  0.00     0.000 C 
BRANCH   6   7
ATOM      7  C   UNL     1     138.833 123.024 123.317  1.00  0.00     0.000 C 
BRANCH   7   8
ATOM      8  C   UNL     1     138.611 124.376 124.024  1.00  0.00     0.006 C 
BRANCH   8   9
ATOM      9  C   UNL     1     139.906 125.038 124.531  1.00  0.00     0.053 C 
BRANCH   9  10
ATOM     10  C   UNL     1     139.976 126.498 124.200  1.00  0.00     0.041 C 
ATOM     11  O   UNL     1     140.849 127.229 124.736  1.00  0.00    -0.550 OA
ATOM     12  O   UNL     1     139.100 127.045 123.269  1.00  0.00    -0.550 OA
ENDBRANCH   9  10
ENDBRANCH   8   9
ENDBRANCH   7   8
ENDBRANCH   6   7
ENDBRANCH   5   6
ENDBRANCH   4   5
ENDBRANCH   3   4
ENDBRANCH   1   3
BRANCH   2  13
ATOM     13  C   UNL     1     141.118 124.311 128.166  1.00  0.00     0.027 C 
BRANCH  13  14
ATOM     14  C   UNL     1     140.387 125.662 128.109  1.00  0.00     0.004 C 
BRANCH  14  15
ATOM     15  C   UNL     1     140.906 126.662 129.153  1.00  0.00     0.000 C 
BRANCH  15  16
ATOM     16  C   UNL     1     140.159 126.554 130.495  1.00  0.00     0.000 C 
BRANCH  16  17
ATOM     17  C   UNL     1     141.056 126.032 131.629  1.00  0.00    -0.000 C 
BRANCH  17  18
ATOM     18  C   UNL     1     140.871 124.529 131.889  1.00  0.00    -0.000 C 
BRANCH  18  19
ATOM     19  C   UNL     1     139.437 124.224 132.339  1.00  0.00    -0.003 C 
ATOM     20  C   UNL     1     138.825 123.103 131.504  1.00  0.00     0.004 C 
ENDBRANCH  18  19
ENDBRANCH  17  18
ENDBRANCH  16  17
ENDBRANCH  15  16
ENDBRANCH  14  15
ENDBRANCH  13  14
ENDBRANCH   2  13
TORSDOF 15
ENDMDL
MODEL 8
REMARK VINA RESULT:    -2.889     17.736     20.616
REMARK INTER + INTRA:          -7.529
REMARK INTER:                  -5.595
REMARK INTRA:                  -1.934
REMARK UNBOUND:                -2.107
REMARK SMILES CCCCCCCCC=CCCCCCCCC(=O)[O-]
REMARK SMILES IDX 10 1 9 2 11 3 12 4 13 5 14 6 15 7 16 8 17 9 18 10 19 11
REMARK SMILES IDX 20 12 8 13 7 14 6 15 5 16 4 17 3 18 2 19 1 20
REMARK H PARENT
REMARK Flexibility Score: inf
ROOT
ATOM      1  C   UNL     1     138.146 122.980 136.591  1.00  0.00    -0.031 C 
ATOM      2  C   UNL     1     137.588 122.803 137.798  1.00  0.00    -0.031 C 
ENDROOT
BRANCH   1   3
ATOM      3  C   UNL     1     137.343 123.462 135.414  1.00  0.00     0.027 C 
BRANCH   3   4
ATOM      4  C   UNL     1     137.440 122.482 134.238  1.00  0.00     0.004 C 
BRANCH   4   5
ATOM      5  C   UNL     1     138.180 123.119 133.054  1.00  0.00     0.000 C 
BRANCH   5   6
ATOM      6  C   UNL     1     138.360 124.640 133.206  1.00  0.00     0.000 C 
BRANCH   6   7
ATOM      7  C   UNL     1     139.772 125.169 132.893  1.00  0.00     0.000 C 
BRANCH   7   8
ATOM      8  C   UNL     1     140.555 124.372 131.830  1.00  0.00     0.006 C 
BRANCH   8   9
ATOM      9  C   UNL     1     140.251 124.794 130.381  1.00  0.00     0.053 C 
BRANCH   9  10
ATOM     10  C   UNL     1     140.067 123.623 129.465  1.00  0.00     0.041 C 
ATOM     11  O   UNL     1     139.612 122.536 129.908  1.00  0.00    -0.550 OA
ATOM     12  O   UNL     1     140.361 123.743 128.112  1.00  0.00    -0.550 OA
ENDBRANCH   9  10
ENDBRANCH   8   9
ENDBRANCH   7   8
ENDBRANCH   6   7
ENDBRANCH   5   6
ENDBRANCH   4   5
ENDBRANCH   3   4
ENDBRANCH   1   3
BRANCH   2  13
ATOM     13  C   UNL     1     138.391 122.321 138.974  1.00  0.00     0.027 C 
BRANCH  13  14
ATOM     14  C   UNL     1     139.828 121.969 138.557  1.00  0.00     0.004 C 
BRANCH  14  15
ATOM     15  C   UNL     1     140.880 122.505 139.540  1.00  0.00     0.000 C 
BRANCH  15  16
ATOM     16  C   UNL     1     140.357 123.686 140.377  1.00  0.00     0.000 C 
BRANCH  16  17
ATOM     17  C   UNL     1     140.968 125.029 139.949  1.00  0.00    -0.000 C 
BRANCH  17  18
ATOM     18  C   UNL     1     140.048 125.829 139.013  1.00  0.00    -0.000 C 
BRANCH  18  19
ATOM     19  C   UNL     1     140.833 126.387 137.819  1.00  0.00    -0.003 C 
ATOM     20  C   UNL     1     140.167 126.013 136.498  1.00  0.00     0.004 C 
ENDBRANCH  18  19
ENDBRANCH  17  18
ENDBRANCH  16  17
ENDBRANCH  15  16
ENDBRANCH  14  15
ENDBRANCH  13  14
ENDBRANCH   2  13
TORSDOF 15
ENDMDL
MODEL 9
REMARK VINA RESULT:    -2.879      1.131      3.049
REMARK INTER + INTRA:          -7.510
REMARK INTER:                  -5.215
REMARK INTRA:                  -2.296
REMARK UNBOUND:                -2.107
REMARK SMILES CCCCCCCCC=CCCCCCCCC(=O)[O-]
REMARK SMILES IDX 10 1 9 2 11 3 12 4 13 5 14 6 15 7 16 8 17 9 18 10 19 11
REMARK SMILES IDX 20 12 8 13 7 14 6 15 5 16 4 17 3 18 2 19 1 20
REMARK H PARENT
REMARK Flexibility Score: inf
ROOT
ATOM      1  C   UNL     1     124.631 122.854 125.526  1.00  0.00    -0.031 C 
ATOM      2  C   UNL     1     124.386 123.511 124.382  1.00  0.00    -0.031 C 
ENDROOT
BRANCH   1   3
ATOM      3  C   UNL     1     125.233 123.545 126.718  1.00  0.00     0.027 C 
BRANCH   3   4
ATOM      4  C   UNL     1     124.157 124.254 127.551  1.00  0.00     0.004 C 
BRANCH   4   5
ATOM      5  C   UNL     1     124.554 125.710 127.832  1.00  0.00     0.000 C 
BRANCH   5   6
ATOM      6  C   UNL     1     123.382 126.559 128.359  1.00  0.00     0.000 C 
BRANCH   6   7
ATOM      7  C   UNL     1     122.023 125.837 128.417  1.00  0.00     0.000 C 
BRANCH   7   8
ATOM      8  C   UNL     1     121.428 125.660 129.828  1.00  0.00     0.006 C 
BRANCH   8   9
ATOM      9  C   UNL     1     122.000 124.457 130.601  1.00  0.00     0.053 C 
BRANCH   9  10
ATOM     10  C   UNL     1     121.901 124.627 132.087  1.00  0.00     0.041 C 
ATOM     11  O   UNL     1     121.012 125.367 132.584  1.00  0.00    -0.550 OA
ATOM     12  O   UNL     1     122.767 123.936 132.927  1.00  0.00    -0.550 OA
ENDBRANCH   9  10
ENDBRANCH   8   9
ENDBRANCH   7   8
ENDBRANCH   6   7
ENDBRANCH   5   6
ENDBRANCH   4   5
ENDBRANCH   3   4
ENDBRANCH   1   3
BRANCH   2  13
ATOM     13  C   UNL     1     123.785 122.819 123.190  1.00  0.00     0.027 C 
BRANCH  13  14
ATOM     14  C   UNL     1     122.554 121.992 123.592  1.00  0.00     0.004 C 
BRANCH  14  15
ATOM     15  C   UNL     1     121.247 122.795 123.511  1.00  0.00     0.000 C 
BRANCH  15  16
ATOM     16  C   UNL     1     121.272 123.850 122.390  1.00  0.00     0.000 C 
BRANCH  16  17
ATOM     17  C   UNL     1     121.082 125.280 122.921  1.00  0.00    -0.000 C 
BRANCH  17  18
ATOM     18  C   UNL     1     121.231 125.372 124.448  1.00  0.00    -0.000 C 
BRANCH  18  19
ATOM     19  C   UNL     1     122.214 126.483 124.836  1.00  0.00    -0.003 C 
ATOM     20  C   UNL     1     123.050 126.923 123.637  1.00  0.00     0.004 C 
ENDBRANCH  18  19
ENDBRANCH  17  18
ENDBRANCH  16  17
ENDBRANCH  15  16
ENDBRANCH  14  15
ENDBRANCH  13  14
ENDBRANCH   2  13
TORSDOF 15
ENDMDL
