MODEL 1
REMARK VINA RESULT:    14.895      0.000      0.000
REMARK INTER + INTRA:          24.850
REMARK INTER:                  22.733
REMARK INTRA:                   2.117
REMARK UNBOUND:                 2.117
REMARK SMILES CC1=CCC[C@H](C)C(=O)C[C@@H](C(C)C)C(=O)C1
REMARK SMILES IDX 8 1 9 2 6 3 7 4 5 5 4 6 3 7 2 8 1 9 10 11 11 12 15 13 16 14
REMARK SMILES IDX 17 15 12 17 13 18 14 19
REMARK H PARENT
REMARK Flexibility Score: 70.00
ROOT
ATOM      1  C   UNL     1     -28.693  35.063 -12.116  1.00  0.00     0.136 C 
ATOM      2  O   UNL     1     -28.597  36.040 -12.846  1.00  0.00    -0.299 OA
ENDROOT
BRANCH   1   3
ATOM      3  C   UNL     1     -29.042  33.711 -12.707  1.00  0.00     0.053 C 
ATOM      4  C   UNL     1     -29.873  33.910 -13.979  1.00  0.00     0.016 C 
BRANCH   3   5
ATOM      5  C   UNL     1     -27.789  32.864 -13.017  1.00  0.00     0.015 C 
BRANCH   5   6
ATOM      6  C   UNL     1     -27.018  33.289 -14.279  1.00  0.00     0.028 C 
BRANCH   6   7
ATOM      7  C   UNL     1     -25.839  34.197 -14.008  1.00  0.00    -0.028 C 
ATOM      8  C   UNL     1     -25.381  34.644 -12.809  1.00  0.00    -0.070 CG0
ATOM      9  C   UNL     1     -24.246  35.642 -12.849  1.00  0.00     0.039 C 
ATOM     10  G   UNL     1     -25.835  34.152 -11.439  1.00  0.00     0.000 G0
ENDBRANCH   6   7
ENDBRANCH   5   6
ENDBRANCH   3   5
ENDBRANCH   1   3
BRANCH   1  11
ATOM     11  C   UNL     1     -28.518  35.237 -10.629  1.00  0.00     0.087 C 
BRANCH  11  12
ATOM     12  C   UNL     1     -27.243  36.038 -10.250  1.00  0.00     0.066 C 
BRANCH  12  13
ATOM     13  C   UNL     1     -25.974  35.203 -10.388  1.00  0.00     0.140 C 
ATOM     14  O   UNL     1     -25.113  35.288  -9.524  1.00  0.00    -0.299 OA
BRANCH  13  15
ATOM     15  C   UNL     1     -25.839  34.144 -11.454  1.00  0.00     0.106 CG0
ATOM     16  G   UNL     1     -25.375  34.636 -12.821  1.00  0.00     0.000 G0
ENDBRANCH  13  15
ENDBRANCH  12  13
BRANCH  12  17
ATOM     17  C   UNL     1     -27.340  36.637  -8.809  1.00  0.00    -0.006 C 
ATOM     18  C   UNL     1     -28.777  37.083  -8.477  1.00  0.00     0.008 C 
ATOM     19  C   UNL     1     -26.868  35.644  -7.731  1.00  0.00     0.008 C 
ENDBRANCH  12  17
ENDBRANCH  11  12
ENDBRANCH   1  11
TORSDOF 1
ENDMDL
MODEL 2
REMARK VINA RESULT:    16.022      1.686      3.379
REMARK INTER + INTRA:          26.569
REMARK INTER:                  25.640
REMARK INTRA:                   0.929
REMARK UNBOUND:                 2.117
REMARK SMILES CC1=CCC[C@H](C)C(=O)C[C@@H](C(C)C)C(=O)C1
REMARK SMILES IDX 8 1 9 2 6 3 7 4 5 5 4 6 3 7 2 8 1 9 10 11 11 12 15 13 16 14
REMARK SMILES IDX 17 15 12 17 13 18 14 19
REMARK H PARENT
REMARK Flexibility Score: 70.00
ROOT
ATOM      1  C   UNL     1     -25.408  34.280 -11.560  1.00  0.00     0.136 C 
ATOM      2  O   UNL     1     -25.431  33.067 -11.405  1.00  0.00    -0.299 OA
ENDROOT
BRANCH   1   3
ATOM      3  C   UNL     1     -25.386  34.861 -12.961  1.00  0.00     0.053 C 
ATOM      4  C   UNL     1     -23.948  35.237 -13.333  1.00  0.00     0.016 C 
BRANCH   3   5
ATOM      5  C   UNL     1     -25.972  33.891 -14.009  1.00  0.00     0.015 C 
BRANCH   5   6
ATOM      6  C   UNL     1     -27.435  34.166 -14.395  1.00  0.00     0.028 C 
BRANCH   6   7
ATOM      7  C   UNL     1     -28.435  33.836 -13.309  1.00  0.00    -0.028 C 
ATOM      8  C   UNL     1     -28.648  34.488 -12.136  1.00  0.00    -0.070 CG0
ATOM      9  C   UNL     1     -29.639  33.859 -11.184  1.00  0.00     0.039 C 
ATOM     10  G   UNL     1     -28.061  35.841 -11.747  1.00  0.00     0.000 G0
ENDBRANCH   6   7
ENDBRANCH   5   6
ENDBRANCH   3   5
ENDBRANCH   1   3
BRANCH   1  11
ATOM     11  C   UNL     1     -25.345  35.174 -10.348  1.00  0.00     0.087 C 
BRANCH  11  12
ATOM     12  C   UNL     1     -26.680  35.232  -9.557  1.00  0.00     0.066 C 
BRANCH  12  13
ATOM     13  C   UNL     1     -27.738  36.066 -10.271  1.00  0.00     0.140 C 
ATOM     14  O   UNL     1     -28.229  37.023  -9.689  1.00  0.00    -0.299 OA
BRANCH  13  15
ATOM     15  C   UNL     1     -28.055  35.858 -11.731  1.00  0.00     0.106 CG0
ATOM     16  G   UNL     1     -28.645  34.499 -12.093  1.00  0.00     0.000 G0
ENDBRANCH  13  15
ENDBRANCH  12  13
BRANCH  12  17
ATOM     17  C   UNL     1     -26.469  35.761  -8.101  1.00  0.00    -0.006 C 
ATOM     18  C   UNL     1     -26.870  34.705  -7.052  1.00  0.00     0.008 C 
ATOM     19  C   UNL     1     -25.014  36.190  -7.840  1.00  0.00     0.008 C 
ENDBRANCH  12  17
ENDBRANCH  11  12
ENDBRANCH   1  11
TORSDOF 1
ENDMDL
MODEL 3
REMARK VINA RESULT:    16.671      1.826      5.291
REMARK INTER + INTRA:          27.559
REMARK INTER:                  24.069
REMARK INTRA:                   3.491
REMARK UNBOUND:                 2.117
REMARK SMILES CC1=CCC[C@H](C)C(=O)C[C@@H](C(C)C)C(=O)C1
REMARK SMILES IDX 8 1 9 2 6 3 7 4 5 5 4 6 3 7 2 8 1 9 10 11 11 12 15 13 16 14
REMARK SMILES IDX 17 15 12 17 13 18 14 19
REMARK H PARENT
REMARK Flexibility Score: 70.00
ROOT
ATOM      1  C   UNL     1     -25.429  35.196  -9.241  1.00  0.00     0.136 C 
ATOM      2  O   UNL     1     -24.740  36.061  -9.763  1.00  0.00    -0.299 OA
ENDROOT
BRANCH   1   3
ATOM      3  C   UNL     1     -25.471  35.075  -7.729  1.00  0.00     0.053 C 
ATOM      4  C   UNL     1     -24.987  36.385  -7.100  1.00  0.00     0.016 C 
BRANCH   3   5
ATOM      5  C   UNL     1     -26.881  34.722  -7.208  1.00  0.00     0.015 C 
BRANCH   5   6
ATOM      6  C   UNL     1     -27.856  35.910  -7.130  1.00  0.00     0.028 C 
BRANCH   6   7
ATOM      7  C   UNL     1     -27.643  36.957  -8.201  1.00  0.00    -0.028 C 
ATOM      8  C   UNL     1     -27.990  36.899  -9.513  1.00  0.00    -0.070 CG0
ATOM      9  C   UNL     1     -27.544  38.053 -10.381  1.00  0.00     0.039 C 
ATOM     10  G   UNL     1     -28.873  35.835 -10.158  1.00  0.00     0.000 G0
ENDBRANCH   6   7
ENDBRANCH   5   6
ENDBRANCH   3   5
ENDBRANCH   1   3
BRANCH   1  11
ATOM     11  C   UNL     1     -26.180  34.227 -10.118  1.00  0.00     0.087 C 
BRANCH  11  12
ATOM     12  C   UNL     1     -26.742  34.877 -11.411  1.00  0.00     0.066 C 
BRANCH  12  13
ATOM     13  C   UNL     1     -28.247  35.109 -11.333  1.00  0.00     0.140 C 
ATOM     14  O   UNL     1     -28.975  34.549 -12.142  1.00  0.00    -0.299 OA
BRANCH  13  15
ATOM     15  C   UNL     1     -28.873  35.852 -10.179  1.00  0.00     0.106 CG0
ATOM     16  G   UNL     1     -27.992  36.904  -9.514  1.00  0.00     0.000 G0
ENDBRANCH  13  15
ENDBRANCH  12  13
BRANCH  12  17
ATOM     17  C   UNL     1     -26.391  34.039 -12.683  1.00  0.00    -0.006 C 
ATOM     18  C   UNL     1     -27.506  34.124 -13.743  1.00  0.00     0.008 C 
ATOM     19  C   UNL     1     -25.062  34.480 -13.325  1.00  0.00     0.008 C 
ENDBRANCH  12  17
ENDBRANCH  11  12
ENDBRANCH   1  11
TORSDOF 1
ENDMDL
MODEL 4
REMARK VINA RESULT:    17.316      1.829      4.781
REMARK INTER + INTRA:          28.544
REMARK INTER:                  27.854
REMARK INTRA:                   0.690
REMARK UNBOUND:                 2.117
REMARK SMILES CC1=CCC[C@H](C)C(=O)C[C@@H](C(C)C)C(=O)C1
REMARK SMILES IDX 8 1 9 2 6 3 7 4 5 5 4 6 3 7 2 8 1 9 10 11 11 12 15 13 16 14
REMARK SMILES IDX 17 15 12 17 13 18 14 19
REMARK H PARENT
REMARK Flexibility Score: 70.00
ROOT
ATOM      1  C   UNL     1     -26.058  33.748 -13.236  1.00  0.00     0.136 C 
ATOM      2  O   UNL     1     -25.637  33.631 -14.379  1.00  0.00    -0.299 OA
ENDROOT
BRANCH   1   3
ATOM      3  C   UNL     1     -25.164  34.334 -12.160  1.00  0.00     0.053 C 
ATOM      4  C   UNL     1     -24.956  35.828 -12.428  1.00  0.00     0.016 C 
BRANCH   3   5
ATOM      5  C   UNL     1     -25.736  34.121 -10.741  1.00  0.00     0.015 C 
BRANCH   5   6
ATOM      6  C   UNL     1     -25.469  35.275  -9.759  1.00  0.00     0.028 C 
BRANCH   6   7
ATOM      7  C   UNL     1     -26.720  35.915  -9.201  1.00  0.00    -0.028 C 
ATOM      8  C   UNL     1     -27.771  36.442  -9.884  1.00  0.00    -0.070 CG0
ATOM      9  C   UNL     1     -28.837  37.126  -9.060  1.00  0.00     0.039 C 
ATOM     10  G   UNL     1     -28.017  36.313 -11.383  1.00  0.00     0.000 G0
ENDBRANCH   6   7
ENDBRANCH   5   6
ENDBRANCH   3   5
ENDBRANCH   1   3
BRANCH   1  11
ATOM     11  C   UNL     1     -27.443  33.252 -12.909  1.00  0.00     0.087 C 
BRANCH  11  12
ATOM     12  C   UNL     1     -28.544  34.330 -13.107  1.00  0.00     0.066 C 
BRANCH  12  13
ATOM     13  C   UNL     1     -28.847  35.088 -11.819  1.00  0.00     0.140 C 
ATOM     14  O   UNL     1     -29.662  34.621 -11.036  1.00  0.00    -0.299 OA
BRANCH  13  15
ATOM     15  C   UNL     1     -28.037  36.290 -11.401  1.00  0.00     0.106 CG0
ATOM     16  G   UNL     1     -27.769  36.420  -9.906  1.00  0.00     0.000 G0
ENDBRANCH  13  15
ENDBRANCH  12  13
BRANCH  12  17
ATOM     17  C   UNL     1     -29.857  33.717 -13.694  1.00  0.00    -0.006 C 
ATOM     18  C   UNL     1     -29.864  33.763 -15.234  1.00  0.00     0.008 C 
ATOM     19  C   UNL     1     -30.077  32.262 -13.241  1.00  0.00     0.008 C 
ENDBRANCH  12  17
ENDBRANCH  11  12
ENDBRANCH   1  11
TORSDOF 1
ENDMDL
MODEL 5
REMARK VINA RESULT:    17.750      1.514      4.795
REMARK INTER + INTRA:          29.206
REMARK INTER:                  27.423
REMARK INTRA:                   1.784
REMARK UNBOUND:                 2.117
REMARK SMILES CC1=CCC[C@H](C)C(=O)C[C@@H](C(C)C)C(=O)C1
REMARK SMILES IDX 8 1 9 2 6 3 7 4 5 5 4 6 3 7 2 8 1 9 10 11 11 12 15 13 16 14
REMARK SMILES IDX 17 15 12 17 13 18 14 19
REMARK H PARENT
REMARK Flexibility Score: 70.00
ROOT
ATOM      1  C   UNL     1     -25.635  35.362  -9.601  1.00  0.00     0.136 C 
ATOM      2  O   UNL     1     -24.854  36.212  -9.195  1.00  0.00    -0.299 OA
ENDROOT
BRANCH   1   3
ATOM      3  C   UNL     1     -27.009  35.236  -8.969  1.00  0.00     0.053 C 
ATOM      4  C   UNL     1     -26.878  35.328  -7.445  1.00  0.00     0.016 C 
BRANCH   3   5
ATOM      5  C   UNL     1     -27.994  36.306  -9.485  1.00  0.00     0.015 C 
BRANCH   5   6
ATOM      6  C   UNL     1     -28.001  36.492 -11.012  1.00  0.00     0.028 C 
BRANCH   6   7
ATOM      7  C   UNL     1     -29.017  35.636 -11.736  1.00  0.00    -0.028 C 
ATOM      8  C   UNL     1     -28.819  34.447 -12.363  1.00  0.00    -0.070 CG0
ATOM      9  C   UNL     1     -30.002  33.871 -13.108  1.00  0.00     0.039 C 
ATOM     10  G   UNL     1     -27.553  33.600 -12.294  1.00  0.00     0.000 G0
ENDBRANCH   6   7
ENDBRANCH   5   6
ENDBRANCH   3   5
ENDBRANCH   1   3
BRANCH   1  11
ATOM     11  C   UNL     1     -25.193  34.417 -10.689  1.00  0.00     0.087 C 
BRANCH  11  12
ATOM     12  C   UNL     1     -25.386  34.992 -12.119  1.00  0.00     0.066 C 
BRANCH  12  13
ATOM     13  C   UNL     1     -26.385  34.180 -12.937  1.00  0.00     0.140 C 
ATOM     14  O   UNL     1     -26.098  33.876 -14.087  1.00  0.00    -0.299 OA
BRANCH  13  15
ATOM     15  C   UNL     1     -27.622  33.586 -12.310  1.00  0.00     0.106 CG0
ATOM     16  G   UNL     1     -28.867  34.466 -12.342  1.00  0.00     0.000 G0
ENDBRANCH  13  15
ENDBRANCH  12  13
BRANCH  12  17
ATOM     17  C   UNL     1     -24.029  35.110 -12.886  1.00  0.00    -0.006 C 
ATOM     18  C   UNL     1     -23.965  34.132 -14.075  1.00  0.00     0.008 C 
ATOM     19  C   UNL     1     -23.772  36.537 -13.403  1.00  0.00     0.008 C 
ENDBRANCH  12  17
ENDBRANCH  11  12
ENDBRANCH   1  11
TORSDOF 1
ENDMDL
