MODEL 1
REMARK VINA RESULT:    -2.672      0.000      0.000
REMARK INTER + INTRA:          -5.469
REMARK INTER:                  -4.234
REMARK INTRA:                  -1.235
REMARK UNBOUND:                -1.235
REMARK SMILES CCCCCCCCCCCC(=O)[O-]
REMARK SMILES IDX 7 1 8 2 9 3 10 4 11 5 12 6 13 7 14 8 6 9 5 10 4 11 3 12 2 13
REMARK SMILES IDX 1 14
REMARK H PARENT
REMARK Flexibility Score: inf
ROOT
ATOM      1  C   UNL     1      19.048 -16.691  11.447  1.00  0.00     0.000 C 
ENDROOT
BRANCH   1   2
ATOM      2  C   UNL     1      17.693 -17.417  11.412  1.00  0.00     0.000 C 
BRANCH   2   3
ATOM      3  C   UNL     1      17.030 -17.494  12.799  1.00  0.00     0.000 C 
BRANCH   3   4
ATOM      4  C   UNL     1      17.624 -16.484  13.799  1.00  0.00     0.006 C 
BRANCH   4   5
ATOM      5  C   UNL     1      17.778 -17.022  15.231  1.00  0.00     0.053 C 
BRANCH   5   6
ATOM      6  C   UNL     1      17.938 -15.919  16.232  1.00  0.00     0.041 C 
ATOM      7  O   UNL     1      19.081 -15.616  16.663  1.00  0.00    -0.550 OA
ATOM      8  O   UNL     1      16.821 -15.249  16.713  1.00  0.00    -0.550 OA
ENDBRANCH   5   6
ENDBRANCH   4   5
ENDBRANCH   3   4
ENDBRANCH   2   3
ENDBRANCH   1   2
BRANCH   1   9
ATOM      9  C   UNL     1      20.169 -17.502  10.775  1.00  0.00     0.000 C 
BRANCH   9  10
ATOM     10  C   UNL     1      21.356 -17.758  11.717  1.00  0.00    -0.000 C 
BRANCH  10  11
ATOM     11  C   UNL     1      20.924 -17.920  13.186  1.00  0.00    -0.000 C 
BRANCH  11  12
ATOM     12  C   UNL     1      21.753 -17.053  14.151  1.00  0.00    -0.000 C 
BRANCH  12  13
ATOM     13  C   UNL     1      21.407 -15.553  14.126  1.00  0.00    -0.003 C 
ATOM     14  C   UNL     1      22.293 -14.720  15.051  1.00  0.00     0.004 C 
ENDBRANCH  12  13
ENDBRANCH  11  12
ENDBRANCH  10  11
ENDBRANCH   9  10
ENDBRANCH   1   9
TORSDOF 10
ENDMDL
MODEL 2
REMARK VINA RESULT:    -2.668      2.077      4.211
REMARK INTER + INTRA:          -5.462
REMARK INTER:                  -4.423
REMARK INTRA:                  -1.039
REMARK UNBOUND:                -1.235
REMARK SMILES CCCCCCCCCCCC(=O)[O-]
REMARK SMILES IDX 7 1 8 2 9 3 10 4 11 5 12 6 13 7 14 8 6 9 5 10 4 11 3 12 2 13
REMARK SMILES IDX 1 14
REMARK H PARENT
REMARK Flexibility Score: inf
ROOT
ATOM      1  C   UNL     1      17.724 -16.290  13.837  1.00  0.00     0.000 C 
ENDROOT
BRANCH   1   2
ATOM      2  C   UNL     1      17.872 -15.901  15.318  1.00  0.00     0.000 C 
BRANCH   2   3
ATOM      3  C   UNL     1      18.519 -17.017  16.158  1.00  0.00     0.000 C 
BRANCH   3   4
ATOM      4  C   UNL     1      19.769 -16.538  16.920  1.00  0.00     0.006 C 
BRANCH   4   5
ATOM      5  C   UNL     1      21.101 -16.864  16.225  1.00  0.00     0.053 C 
BRANCH   5   6
ATOM      6  C   UNL     1      21.926 -15.636  15.984  1.00  0.00     0.041 C 
ATOM      7  O   UNL     1      22.873 -15.348  16.761  1.00  0.00    -0.550 OA
ATOM      8  O   UNL     1      21.624 -14.794  14.922  1.00  0.00    -0.550 OA
ENDBRANCH   5   6
ENDBRANCH   4   5
ENDBRANCH   3   4
ENDBRANCH   2   3
ENDBRANCH   1   2
BRANCH   1   9
ATOM      9  C   UNL     1      18.916 -15.826  12.983  1.00  0.00     0.000 C 
BRANCH   9  10
ATOM     10  C   UNL     1      19.864 -16.979  12.620  1.00  0.00    -0.000 C 
BRANCH  10  11
ATOM     11  C   UNL     1      19.918 -17.249  11.105  1.00  0.00    -0.000 C 
BRANCH  11  12
ATOM     12  C   UNL     1      18.622 -17.882  10.566  1.00  0.00    -0.000 C 
BRANCH  12  13
ATOM     13  C   UNL     1      17.849 -17.008   9.562  1.00  0.00    -0.003 C 
ATOM     14  C   UNL     1      18.533 -15.670   9.284  1.00  0.00     0.004 C 
ENDBRANCH  12  13
ENDBRANCH  11  12
ENDBRANCH  10  11
ENDBRANCH   9  10
ENDBRANCH   1   9
TORSDOF 10
ENDMDL
MODEL 3
REMARK VINA RESULT:    -2.665      3.080      4.479
REMARK INTER + INTRA:          -5.457
REMARK INTER:                  -4.107
REMARK INTRA:                  -1.351
REMARK UNBOUND:                -1.235
REMARK SMILES CCCCCCCCCCCC(=O)[O-]
REMARK SMILES IDX 7 1 8 2 9 3 10 4 11 5 12 6 13 7 14 8 6 9 5 10 4 11 3 12 2 13
REMARK SMILES IDX 1 14
REMARK H PARENT
REMARK Flexibility Score: inf
ROOT
ATOM      1  C   UNL     1      18.102 -15.867  14.473  1.00  0.00     0.000 C 
ENDROOT
BRANCH   1   2
ATOM      2  C   UNL     1      17.481 -17.016  13.662  1.00  0.00     0.000 C 
BRANCH   2   3
ATOM      3  C   UNL     1      18.522 -18.067  13.237  1.00  0.00     0.000 C 
BRANCH   3   4
ATOM      4  C   UNL     1      18.872 -17.985  11.739  1.00  0.00     0.006 C 
BRANCH   4   5
ATOM      5  C   UNL     1      19.076 -16.556  11.211  1.00  0.00     0.053 C 
BRANCH   5   6
ATOM      6  C   UNL     1      18.469 -16.365   9.855  1.00  0.00     0.041 C 
ATOM      7  O   UNL     1      18.699 -15.316   9.200  1.00  0.00    -0.550 OA
ATOM      8  O   UNL     1      17.621 -17.333   9.330  1.00  0.00    -0.550 OA
ENDBRANCH   5   6
ENDBRANCH   4   5
ENDBRANCH   3   4
ENDBRANCH   2   3
ENDBRANCH   1   2
BRANCH   1   9
ATOM      9  C   UNL     1      18.868 -16.365  15.711  1.00  0.00     0.000 C 
BRANCH   9  10
ATOM     10  C   UNL     1      20.293 -15.796  15.790  1.00  0.00    -0.000 C 
BRANCH  10  11
ATOM     11  C   UNL     1      20.769 -15.201  14.453  1.00  0.00    -0.000 C 
BRANCH  11  12
ATOM     12  C   UNL     1      22.128 -15.763  13.999  1.00  0.00    -0.000 C 
BRANCH  12  13
ATOM     13  C   UNL     1      22.098 -17.237  13.554  1.00  0.00    -0.003 C 
ATOM     14  C   UNL     1      22.629 -17.444  12.136  1.00  0.00     0.004 C 
ENDBRANCH  12  13
ENDBRANCH  11  12
ENDBRANCH  10  11
ENDBRANCH   9  10
ENDBRANCH   1   9
TORSDOF 10
ENDMDL
MODEL 4
REMARK VINA RESULT:    -2.654      1.973      4.000
REMARK INTER + INTRA:          -5.441
REMARK INTER:                  -4.715
REMARK INTRA:                  -0.726
REMARK UNBOUND:                -1.235
REMARK SMILES CCCCCCCCCCCC(=O)[O-]
REMARK SMILES IDX 7 1 8 2 9 3 10 4 11 5 12 6 13 7 14 8 6 9 5 10 4 11 3 12 2 13
REMARK SMILES IDX 1 14
REMARK H PARENT
REMARK Flexibility Score: inf
ROOT
ATOM      1  C   UNL     1      18.729 -15.476  13.326  1.00  0.00     0.000 C 
ENDROOT
BRANCH   1   2
ATOM      2  C   UNL     1      19.702 -15.511  14.516  1.00  0.00     0.000 C 
BRANCH   2   3
ATOM      3  C   UNL     1      19.599 -16.818  15.322  1.00  0.00     0.000 C 
BRANCH   3   4
ATOM      4  C   UNL     1      19.110 -16.589  16.765  1.00  0.00     0.006 C 
BRANCH   4   5
ATOM      5  C   UNL     1      17.819 -17.342  17.125  1.00  0.00     0.053 C 
BRANCH   5   6
ATOM      6  C   UNL     1      16.596 -16.508  16.889  1.00  0.00     0.041 C 
ATOM      7  O   UNL     1      16.683 -15.254  16.850  1.00  0.00    -0.550 OA
ATOM      8  O   UNL     1      15.357 -17.118  16.747  1.00  0.00    -0.550 OA
ENDBRANCH   5   6
ENDBRANCH   4   5
ENDBRANCH   3   4
ENDBRANCH   2   3
ENDBRANCH   1   2
BRANCH   1   9
ATOM      9  C   UNL     1      17.602 -16.515  13.455  1.00  0.00     0.000 C 
BRANCH   9  10
ATOM     10  C   UNL     1      17.848 -17.761  12.590  1.00  0.00    -0.000 C 
BRANCH  10  11
ATOM     11  C   UNL     1      16.967 -17.791  11.328  1.00  0.00    -0.000 C 
BRANCH  11  12
ATOM     12  C   UNL     1      17.788 -17.750  10.026  1.00  0.00    -0.000 C 
BRANCH  12  13
ATOM     13  C   UNL     1      18.775 -16.573   9.926  1.00  0.00    -0.003 C 
ATOM     14  C   UNL     1      18.316 -15.489   8.952  1.00  0.00     0.004 C 
ENDBRANCH  12  13
ENDBRANCH  11  12
ENDBRANCH  10  11
ENDBRANCH   9  10
ENDBRANCH   1   9
TORSDOF 10
ENDMDL
MODEL 5
REMARK VINA RESULT:    -2.635      3.006      4.533
REMARK INTER + INTRA:          -5.411
REMARK INTER:                  -4.244
REMARK INTRA:                  -1.167
REMARK UNBOUND:                -1.235
REMARK SMILES CCCCCCCCCCCC(=O)[O-]
REMARK SMILES IDX 7 1 8 2 9 3 10 4 11 5 12 6 13 7 14 8 6 9 5 10 4 11 3 12 2 13
REMARK SMILES IDX 1 14
REMARK H PARENT
REMARK Flexibility Score: inf
ROOT
ATOM      1  C   UNL     1      17.323 -17.008  15.462  1.00  0.00     0.000 C 
ENDROOT
BRANCH   1   2
ATOM      2  C   UNL     1      17.432 -16.941  13.930  1.00  0.00     0.000 C 
BRANCH   2   3
ATOM      3  C   UNL     1      18.319 -18.058  13.352  1.00  0.00     0.000 C 
BRANCH   3   4
ATOM      4  C   UNL     1      19.417 -17.521  12.415  1.00  0.00     0.006 C 
BRANCH   4   5
ATOM      5  C   UNL     1      19.057 -16.208  11.701  1.00  0.00     0.053 C 
BRANCH   5   6
ATOM      6  C   UNL     1      18.628 -16.438  10.283  1.00  0.00     0.041 C 
ATOM      7  O   UNL     1      18.659 -15.494   9.452  1.00  0.00    -0.550 OA
ATOM      8  O   UNL     1      18.161 -17.686   9.892  1.00  0.00    -0.550 OA
ENDBRANCH   5   6
ENDBRANCH   4   5
ENDBRANCH   3   4
ENDBRANCH   2   3
ENDBRANCH   1   2
BRANCH   1   9
ATOM      9  C   UNL     1      17.731 -15.690  16.141  1.00  0.00     0.000 C 
BRANCH   9  10
ATOM     10  C   UNL     1      18.979 -15.844  17.024  1.00  0.00    -0.000 C 
BRANCH  10  11
ATOM     11  C   UNL     1      20.140 -16.544  16.295  1.00  0.00    -0.000 C 
BRANCH  11  12
ATOM     12  C   UNL     1      21.307 -15.591  15.978  1.00  0.00    -0.000 C 
BRANCH  12  13
ATOM     13  C   UNL     1      21.388 -15.140  14.509  1.00  0.00    -0.003 C 
ATOM     14  C   UNL     1      22.703 -15.529  13.836  1.00  0.00     0.004 C 
ENDBRANCH  12  13
ENDBRANCH  11  12
ENDBRANCH  10  11
ENDBRANCH   9  10
ENDBRANCH   1   9
TORSDOF 10
ENDMDL
MODEL 6
REMARK VINA RESULT:    -2.621      2.254      4.884
REMARK INTER + INTRA:          -5.387
REMARK INTER:                  -4.403
REMARK INTRA:                  -0.984
REMARK UNBOUND:                -1.235
REMARK SMILES CCCCCCCCCCCC(=O)[O-]
REMARK SMILES IDX 7 1 8 2 9 3 10 4 11 5 12 6 13 7 14 8 6 9 5 10 4 11 3 12 2 13
REMARK SMILES IDX 1 14
REMARK H PARENT
REMARK Flexibility Score: inf
ROOT
ATOM      1  C   UNL     1      17.576 -15.950  15.876  1.00  0.00     0.000 C 
ENDROOT
BRANCH   1   2
ATOM      2  C   UNL     1      18.943 -15.734  16.546  1.00  0.00     0.000 C 
BRANCH   2   3
ATOM      3  C   UNL     1      19.697 -17.054  16.788  1.00  0.00     0.000 C 
BRANCH   3   4
ATOM      4  C   UNL     1      21.176 -16.980  16.367  1.00  0.00     0.006 C 
BRANCH   4   5
ATOM      5  C   UNL     1      21.415 -16.339  14.990  1.00  0.00     0.053 C 
BRANCH   5   6
ATOM      6  C   UNL     1      22.393 -15.206  15.058  1.00  0.00     0.041 C 
ATOM      7  O   UNL     1      22.729 -14.726  16.172  1.00  0.00    -0.550 OA
ATOM      8  O   UNL     1      22.906 -14.660  13.889  1.00  0.00    -0.550 OA
ENDBRANCH   5   6
ENDBRANCH   4   5
ENDBRANCH   3   4
ENDBRANCH   2   3
ENDBRANCH   1   2
BRANCH   1   9
ATOM      9  C   UNL     1      17.566 -17.166  14.934  1.00  0.00     0.000 C 
BRANCH   9  10
ATOM     10  C   UNL     1      17.324 -16.773  13.468  1.00  0.00    -0.000 C 
BRANCH  10  11
ATOM     11  C   UNL     1      18.463 -15.915  12.888  1.00  0.00    -0.000 C 
BRANCH  11  12
ATOM     12  C   UNL     1      19.274 -16.653  11.807  1.00  0.00    -0.000 C 
BRANCH  12  13
ATOM     13  C   UNL     1      18.739 -16.483  10.374  1.00  0.00    -0.003 C 
ATOM     14  C   UNL     1      17.838 -17.636   9.932  1.00  0.00     0.004 C 
ENDBRANCH  12  13
ENDBRANCH  11  12
ENDBRANCH  10  11
ENDBRANCH   9  10
ENDBRANCH   1   9
TORSDOF 10
ENDMDL
MODEL 7
REMARK VINA RESULT:    -2.565      1.645      3.849
REMARK INTER + INTRA:          -5.299
REMARK INTER:                  -4.035
REMARK INTRA:                  -1.264
REMARK UNBOUND:                -1.235
REMARK SMILES CCCCCCCCCCCC(=O)[O-]
REMARK SMILES IDX 7 1 8 2 9 3 10 4 11 5 12 6 13 7 14 8 6 9 5 10 4 11 3 12 2 13
REMARK SMILES IDX 1 14
REMARK H PARENT
REMARK Flexibility Score: inf
ROOT
ATOM      1  C   UNL     1      18.483 -17.014  10.813  1.00  0.00     0.000 C 
ENDROOT
BRANCH   1   2
ATOM      2  C   UNL     1      19.974 -17.373  10.702  1.00  0.00     0.000 C 
BRANCH   2   3
ATOM      3  C   UNL     1      20.506 -18.080  11.961  1.00  0.00     0.000 C 
BRANCH   3   4
ATOM      4  C   UNL     1      21.628 -17.288  12.658  1.00  0.00     0.006 C 
BRANCH   4   5
ATOM      5  C   UNL     1      21.359 -16.973  14.139  1.00  0.00     0.053 C 
BRANCH   5   6
ATOM      6  C   UNL     1      21.118 -15.512  14.368  1.00  0.00     0.041 C 
ATOM      7  O   UNL     1      20.189 -14.920  13.760  1.00  0.00    -0.550 OA
ATOM      8  O   UNL     1      21.941 -14.798  15.229  1.00  0.00    -0.550 OA
ENDBRANCH   5   6
ENDBRANCH   4   5
ENDBRANCH   3   4
ENDBRANCH   2   3
ENDBRANCH   1   2
BRANCH   1   9
ATOM      9  C   UNL     1      17.658 -18.125  11.486  1.00  0.00     0.000 C 
BRANCH   9  10
ATOM     10  C   UNL     1      16.664 -17.576  12.522  1.00  0.00    -0.000 C 
BRANCH  10  11
ATOM     11  C   UNL     1      17.361 -16.832  13.675  1.00  0.00    -0.000 C 
BRANCH  11  12
ATOM     12  C   UNL     1      17.886 -17.783  14.767  1.00  0.00    -0.000 C 
BRANCH  12  13
ATOM     13  C   UNL     1      17.798 -17.227  16.200  1.00  0.00    -0.003 C 
ATOM     14  C   UNL     1      17.728 -15.701  16.246  1.00  0.00     0.004 C 
ENDBRANCH  12  13
ENDBRANCH  11  12
ENDBRANCH  10  11
ENDBRANCH   9  10
ENDBRANCH   1   9
TORSDOF 10
ENDMDL
MODEL 8
REMARK VINA RESULT:    -2.540      2.927      4.369
REMARK INTER + INTRA:          -5.260
REMARK INTER:                  -4.135
REMARK INTRA:                  -1.125
REMARK UNBOUND:                -1.235
REMARK SMILES CCCCCCCCCCCC(=O)[O-]
REMARK SMILES IDX 7 1 8 2 9 3 10 4 11 5 12 6 13 7 14 8 6 9 5 10 4 11 3 12 2 13
REMARK SMILES IDX 1 14
REMARK H PARENT
REMARK Flexibility Score: inf
ROOT
ATOM      1  C   UNL     1      20.639 -16.772  13.583  1.00  0.00     0.000 C 
ENDROOT
BRANCH   1   2
ATOM      2  C   UNL     1      19.845 -15.462  13.453  1.00  0.00     0.000 C 
BRANCH   2   3
ATOM      3  C   UNL     1      18.377 -15.700  13.055  1.00  0.00     0.000 C 
BRANCH   3   4
ATOM      4  C   UNL     1      18.079 -17.178  12.741  1.00  0.00     0.006 C 
BRANCH   4   5
ATOM      5  C   UNL     1      17.816 -17.472  11.255  1.00  0.00     0.053 C 
BRANCH   5   6
ATOM      6  C   UNL     1      18.872 -16.882  10.370  1.00  0.00     0.041 C 
ATOM      7  O   UNL     1      20.033 -17.367  10.360  1.00  0.00    -0.550 OA
ATOM      8  O   UNL     1      18.580 -15.776   9.583  1.00  0.00    -0.550 OA
ENDBRANCH   5   6
ENDBRANCH   4   5
ENDBRANCH   3   4
ENDBRANCH   2   3
ENDBRANCH   1   2
BRANCH   1   9
ATOM      9  C   UNL     1      22.060 -16.549  14.128  1.00  0.00     0.000 C 
BRANCH   9  10
ATOM     10  C   UNL     1      22.212 -15.196  14.841  1.00  0.00    -0.000 C 
BRANCH  10  11
ATOM     11  C   UNL     1      22.423 -15.346  16.358  1.00  0.00    -0.000 C 
BRANCH  11  12
ATOM     12  C   UNL     1      21.431 -16.329  17.005  1.00  0.00    -0.000 C 
BRANCH  12  13
ATOM     13  C   UNL     1      19.989 -15.801  17.125  1.00  0.00    -0.003 C 
ATOM     14  C   UNL     1      18.936 -16.861  16.802  1.00  0.00     0.004 C 
ENDBRANCH  12  13
ENDBRANCH  11  12
ENDBRANCH  10  11
ENDBRANCH   9  10
ENDBRANCH   1   9
TORSDOF 10
ENDMDL
MODEL 9
REMARK VINA RESULT:    -2.419     16.114     17.344
REMARK INTER + INTRA:          -5.068
REMARK INTER:                  -4.490
REMARK INTRA:                  -0.578
REMARK UNBOUND:                -1.235
REMARK SMILES CCCCCCCCCCCC(=O)[O-]
REMARK SMILES IDX 7 1 8 2 9 3 10 4 11 5 12 6 13 7 14 8 6 9 5 10 4 11 3 12 2 13
REMARK SMILES IDX 1 14
REMARK H PARENT
REMARK Flexibility Score: inf
ROOT
ATOM      1  C   UNL     1      20.562 -13.905  -1.647  1.00  0.00     0.000 C 
ENDROOT
BRANCH   1   2
ATOM      2  C   UNL     1      21.510 -13.228  -2.650  1.00  0.00     0.000 C 
BRANCH   2   3
ATOM      3  C   UNL     1      22.150 -11.947  -2.084  1.00  0.00     0.000 C 
BRANCH   3   4
ATOM      4  C   UNL     1      21.403 -10.670  -2.512  1.00  0.00     0.006 C 
BRANCH   4   5
ATOM      5  C   UNL     1      20.295 -10.226  -1.543  1.00  0.00     0.053 C 
BRANCH   5   6
ATOM      6  C   UNL     1      18.939 -10.269  -2.180  1.00  0.00     0.041 C 
ATOM      7  O   UNL     1      18.275 -11.338  -2.183  1.00  0.00    -0.550 OA
ATOM      8  O   UNL     1      18.426  -9.137  -2.799  1.00  0.00    -0.550 OA
ENDBRANCH   5   6
ENDBRANCH   4   5
ENDBRANCH   3   4
ENDBRANCH   2   3
ENDBRANCH   1   2
BRANCH   1   9
ATOM      9  C   UNL     1      19.979 -15.223  -2.183  1.00  0.00     0.000 C 
BRANCH   9  10
ATOM     10  C   UNL     1      18.777 -15.000  -3.114  1.00  0.00    -0.000 C 
BRANCH  10  11
ATOM     11  C   UNL     1      17.441 -14.931  -2.352  1.00  0.00    -0.000 C 
BRANCH  11  12
ATOM     12  C   UNL     1      16.305 -15.681  -3.071  1.00  0.00    -0.000 C 
BRANCH  12  13
ATOM     13  C   UNL     1      14.903 -15.443  -2.479  1.00  0.00    -0.003 C 
ATOM     14  C   UNL     1      14.246 -14.164  -2.996  1.00  0.00     0.004 C 
ENDBRANCH  12  13
ENDBRANCH  11  12
ENDBRANCH  10  11
ENDBRANCH   9  10
ENDBRANCH   1   9
TORSDOF 10
ENDMDL
