MODEL 1
REMARK VINA RESULT:    -4.185      0.000      0.000
REMARK INTER + INTRA:         -10.121
REMARK INTER:                  -7.610
REMARK INTRA:                  -2.511
REMARK UNBOUND:                -2.511
REMARK SMILES CCCCCCCCCCCCCC[C@@H](C)C(=O)[O-]
REMARK SMILES IDX 9 1 10 2 11 3 12 4 13 5 14 6 15 7 16 8 17 9 18 10 19 11 8 12
REMARK SMILES IDX 7 13 6 14 5 15 4 16 3 17 2 18 1 19
REMARK H PARENT
REMARK Flexibility Score: inf
ROOT
ATOM      1  C   UNL     1     -36.941  83.740 -18.038  1.00  0.00     0.000 C 
ENDROOT
BRANCH   1   2
ATOM      2  C   UNL     1     -35.976  84.733 -17.376  1.00  0.00     0.000 C 
BRANCH   2   3
ATOM      3  C   UNL     1     -34.736  84.959 -18.253  1.00  0.00     0.000 C 
BRANCH   3   4
ATOM      4  C   UNL     1     -35.015  84.744 -19.752  1.00  0.00     0.000 C 
BRANCH   4   5
ATOM      5  C   UNL     1     -34.178  83.639 -20.424  1.00  0.00     0.001 C 
BRANCH   5   6
ATOM      6  C   UNL     1     -33.227  82.844 -19.500  1.00  0.00     0.009 C 
BRANCH   6   7
ATOM      7  C   UNL     1     -33.230  81.299 -19.632  1.00  0.00     0.032 C 
ATOM      8  C   UNL     1     -33.770  80.803 -20.982  1.00  0.00     0.014 C 
BRANCH   7   9
ATOM      9  C   UNL     1     -31.901  80.677 -19.288  1.00  0.00     0.044 C 
ATOM     10  O   UNL     1     -30.837  81.086 -19.824  1.00  0.00    -0.550 OA
ATOM     11  O   UNL     1     -31.840  79.676 -18.327  1.00  0.00    -0.550 OA
ENDBRANCH   7   9
ENDBRANCH   6   7
ENDBRANCH   5   6
ENDBRANCH   4   5
ENDBRANCH   3   4
ENDBRANCH   2   3
ENDBRANCH   1   2
BRANCH   1  12
ATOM     12  C   UNL     1     -36.503  82.277 -17.860  1.00  0.00     0.000 C 
BRANCH  12  13
ATOM     13  C   UNL     1     -36.911  81.390 -19.045  1.00  0.00    -0.000 C 
BRANCH  13  14
ATOM     14  C   UNL     1     -37.699  82.192 -20.087  1.00  0.00    -0.000 C 
BRANCH  14  15
ATOM     15  C   UNL     1     -37.393  81.697 -21.509  1.00  0.00    -0.000 C 
BRANCH  15  16
ATOM     16  C   UNL     1     -37.113  82.847 -22.491  1.00  0.00    -0.000 C 
BRANCH  16  17
ATOM     17  C   UNL     1     -37.678  84.192 -22.004  1.00  0.00    -0.000 C 
BRANCH  17  18
ATOM     18  C   UNL     1     -38.349  84.992 -23.131  1.00  0.00    -0.003 C 
ATOM     19  C   UNL     1     -39.156  84.112 -24.085  1.00  0.00     0.004 C 
ENDBRANCH  17  18
ENDBRANCH  16  17
ENDBRANCH  15  16
ENDBRANCH  14  15
ENDBRANCH  13  14
ENDBRANCH  12  13
ENDBRANCH   1  12
TORSDOF 14
ENDMDL
MODEL 2
REMARK VINA RESULT:    -4.027      1.221      2.711
REMARK INTER + INTRA:          -9.834
REMARK INTER:                  -7.582
REMARK INTRA:                  -2.252
REMARK UNBOUND:                -2.511
REMARK SMILES CCCCCCCCCCCCCC[C@@H](C)C(=O)[O-]
REMARK SMILES IDX 9 1 10 2 11 3 12 4 13 5 14 6 15 7 16 8 17 9 18 10 19 11 8 12
REMARK SMILES IDX 7 13 6 14 5 15 4 16 3 17 2 18 1 19
REMARK H PARENT
REMARK Flexibility Score: inf
ROOT
ATOM      1  C   UNL     1     -34.731  84.510 -18.943  1.00  0.00     0.000 C 
ENDROOT
BRANCH   1   2
ATOM      2  C   UNL     1     -33.279  84.423 -18.454  1.00  0.00     0.000 C 
BRANCH   2   3
ATOM      3  C   UNL     1     -32.469  83.442 -19.314  1.00  0.00     0.000 C 
BRANCH   3   4
ATOM      4  C   UNL     1     -33.355  82.564 -20.216  1.00  0.00     0.000 C 
BRANCH   4   5
ATOM      5  C   UNL     1     -33.219  81.046 -19.989  1.00  0.00     0.001 C 
BRANCH   5   6
ATOM      6  C   UNL     1     -32.245  80.605 -18.872  1.00  0.00     0.009 C 
BRANCH   6   7
ATOM      7  C   UNL     1     -30.989  79.801 -19.297  1.00  0.00     0.032 C 
ATOM      8  C   UNL     1     -31.233  78.286 -19.376  1.00  0.00     0.014 C 
BRANCH   7   9
ATOM      9  C   UNL     1     -30.343  80.339 -20.547  1.00  0.00     0.044 C 
ATOM     10  O   UNL     1     -30.359  79.679 -21.620  1.00  0.00    -0.550 OA
ATOM     11  O   UNL     1     -29.767  81.602 -20.532  1.00  0.00    -0.550 OA
ENDBRANCH   7   9
ENDBRANCH   6   7
ENDBRANCH   5   6
ENDBRANCH   4   5
ENDBRANCH   3   4
ENDBRANCH   2   3
ENDBRANCH   1   2
BRANCH   1  12
ATOM     12  C   UNL     1     -35.731  84.726 -17.795  1.00  0.00     0.000 C 
BRANCH  12  13
ATOM     13  C   UNL     1     -36.786  83.613 -17.713  1.00  0.00    -0.000 C 
BRANCH  13  14
ATOM     14  C   UNL     1     -36.127  82.228 -17.733  1.00  0.00    -0.000 C 
BRANCH  14  15
ATOM     15  C   UNL     1     -36.663  81.381 -18.897  1.00  0.00    -0.000 C 
BRANCH  15  16
ATOM     16  C   UNL     1     -37.682  82.139 -19.764  1.00  0.00    -0.000 C 
BRANCH  16  17
ATOM     17  C   UNL     1     -37.150  82.440 -21.176  1.00  0.00    -0.000 C 
BRANCH  17  18
ATOM     18  C   UNL     1     -37.205  83.937 -21.518  1.00  0.00    -0.003 C 
ATOM     19  C   UNL     1     -37.964  84.223 -22.813  1.00  0.00     0.004 C 
ENDBRANCH  17  18
ENDBRANCH  16  17
ENDBRANCH  15  16
ENDBRANCH  14  15
ENDBRANCH  13  14
ENDBRANCH  12  13
ENDBRANCH   1  12
TORSDOF 14
ENDMDL
MODEL 3
REMARK VINA RESULT:    -3.888      1.529      3.313
REMARK INTER + INTRA:          -9.582
REMARK INTER:                  -7.266
REMARK INTRA:                  -2.316
REMARK UNBOUND:                -2.511
REMARK SMILES CCCCCCCCCCCCCC[C@@H](C)C(=O)[O-]
REMARK SMILES IDX 9 1 10 2 11 3 12 4 13 5 14 6 15 7 16 8 17 9 18 10 19 11 8 12
REMARK SMILES IDX 7 13 6 14 5 15 4 16 3 17 2 18 1 19
REMARK H PARENT
REMARK Flexibility Score: inf
ROOT
ATOM      1  C   UNL     1     -37.682  81.731 -20.051  1.00  0.00     0.000 C 
ENDROOT
BRANCH   1   2
ATOM      2  C   UNL     1     -36.693  80.880 -20.858  1.00  0.00     0.000 C 
BRANCH   2   3
ATOM      3  C   UNL     1     -35.621  80.270 -19.943  1.00  0.00     0.000 C 
BRANCH   3   4
ATOM      4  C   UNL     1     -34.212  80.824 -20.221  1.00  0.00     0.000 C 
BRANCH   4   5
ATOM      5  C   UNL     1     -33.332  81.033 -18.973  1.00  0.00     0.001 C 
BRANCH   5   6
ATOM      6  C   UNL     1     -32.210  82.091 -19.097  1.00  0.00     0.009 C 
BRANCH   6   7
ATOM      7  C   UNL     1     -30.829  81.608 -19.611  1.00  0.00     0.032 C 
ATOM      8  C   UNL     1     -30.682  80.079 -19.622  1.00  0.00     0.014 C 
BRANCH   7   9
ATOM      9  C   UNL     1     -30.444  82.227 -20.929  1.00  0.00     0.044 C 
ATOM     10  O   UNL     1     -30.034  83.416 -20.992  1.00  0.00    -0.550 OA
ATOM     11  O   UNL     1     -30.490  81.460 -22.086  1.00  0.00    -0.550 OA
ENDBRANCH   7   9
ENDBRANCH   6   7
ENDBRANCH   5   6
ENDBRANCH   4   5
ENDBRANCH   3   4
ENDBRANCH   2   3
ENDBRANCH   1   2
BRANCH   1  12
ATOM     12  C   UNL     1     -37.158  82.083 -18.650  1.00  0.00     0.000 C 
BRANCH  12  13
ATOM     13  C   UNL     1     -37.114  83.596 -18.397  1.00  0.00    -0.000 C 
BRANCH  13  14
ATOM     14  C   UNL     1     -35.732  84.030 -17.892  1.00  0.00    -0.000 C 
BRANCH  14  15
ATOM     15  C   UNL     1     -35.028  84.929 -18.920  1.00  0.00    -0.000 C 
BRANCH  15  16
ATOM     16  C   UNL     1     -34.933  84.279 -20.311  1.00  0.00    -0.000 C 
BRANCH  16  17
ATOM     17  C   UNL     1     -35.611  85.121 -21.405  1.00  0.00    -0.000 C 
BRANCH  17  18
ATOM     18  C   UNL     1     -36.412  84.262 -22.396  1.00  0.00    -0.003 C 
ATOM     19  C   UNL     1     -37.882  84.671 -22.483  1.00  0.00     0.004 C 
ENDBRANCH  17  18
ENDBRANCH  16  17
ENDBRANCH  15  16
ENDBRANCH  14  15
ENDBRANCH  13  14
ENDBRANCH  12  13
ENDBRANCH   1  12
TORSDOF 14
ENDMDL
MODEL 4
REMARK VINA RESULT:    -3.883      1.316      3.752
REMARK INTER + INTRA:          -9.571
REMARK INTER:                  -7.015
REMARK INTRA:                  -2.556
REMARK UNBOUND:                -2.511
REMARK SMILES CCCCCCCCCCCCCC[C@@H](C)C(=O)[O-]
REMARK SMILES IDX 9 1 10 2 11 3 12 4 13 5 14 6 15 7 16 8 17 9 18 10 19 11 8 12
REMARK SMILES IDX 7 13 6 14 5 15 4 16 3 17 2 18 1 19
REMARK H PARENT
REMARK Flexibility Score: inf
ROOT
ATOM      1  C   UNL     1     -37.288  83.215 -23.303  1.00  0.00     0.000 C 
ENDROOT
BRANCH   1   2
ATOM      2  C   UNL     1     -37.431  84.123 -22.074  1.00  0.00     0.000 C 
BRANCH   2   3
ATOM      3  C   UNL     1     -36.056  84.592 -21.576  1.00  0.00     0.000 C 
BRANCH   3   4
ATOM      4  C   UNL     1     -34.896  83.754 -22.144  1.00  0.00     0.000 C 
BRANCH   4   5
ATOM      5  C   UNL     1     -34.273  82.745 -21.159  1.00  0.00     0.001 C 
BRANCH   5   6
ATOM      6  C   UNL     1     -33.389  83.340 -20.038  1.00  0.00     0.009 C 
BRANCH   6   7
ATOM      7  C   UNL     1     -32.594  82.345 -19.154  1.00  0.00     0.032 C 
ATOM      8  C   UNL     1     -33.371  81.059 -18.831  1.00  0.00     0.014 C 
BRANCH   7   9
ATOM      9  C   UNL     1     -31.215  82.057 -19.688  1.00  0.00     0.044 C 
ATOM     10  O   UNL     1     -30.697  80.915 -19.562  1.00  0.00    -0.550 OA
ATOM     11  O   UNL     1     -30.524  83.047 -20.375  1.00  0.00    -0.550 OA
ENDBRANCH   7   9
ENDBRANCH   6   7
ENDBRANCH   5   6
ENDBRANCH   4   5
ENDBRANCH   3   4
ENDBRANCH   2   3
ENDBRANCH   1   2
BRANCH   1  12
ATOM     12  C   UNL     1     -37.962  81.846 -23.112  1.00  0.00     0.000 C 
BRANCH  12  13
ATOM     13  C   UNL     1     -37.282  80.998 -22.027  1.00  0.00    -0.000 C 
BRANCH  13  14
ATOM     14  C   UNL     1     -38.315  80.178 -21.243  1.00  0.00    -0.000 C 
BRANCH  14  15
ATOM     15  C   UNL     1     -38.386  80.639 -19.779  1.00  0.00    -0.000 C 
BRANCH  15  16
ATOM     16  C   UNL     1     -37.071  81.268 -19.290  1.00  0.00    -0.000 C 
BRANCH  16  17
ATOM     17  C   UNL     1     -37.257  82.706 -18.779  1.00  0.00    -0.000 C 
BRANCH  17  18
ATOM     18  C   UNL     1     -36.304  83.048 -17.623  1.00  0.00    -0.003 C 
ATOM     19  C   UNL     1     -35.968  84.537 -17.551  1.00  0.00     0.004 C 
ENDBRANCH  17  18
ENDBRANCH  16  17
ENDBRANCH  15  16
ENDBRANCH  14  15
ENDBRANCH  13  14
ENDBRANCH  12  13
ENDBRANCH   1  12
TORSDOF 14
ENDMDL
MODEL 5
REMARK VINA RESULT:    -3.846     15.841     17.621
REMARK INTER + INTRA:          -9.504
REMARK INTER:                  -7.452
REMARK INTRA:                  -2.052
REMARK UNBOUND:                -2.511
REMARK SMILES CCCCCCCCCCCCCC[C@@H](C)C(=O)[O-]
REMARK SMILES IDX 9 1 10 2 11 3 12 4 13 5 14 6 15 7 16 8 17 9 18 10 19 11 8 12
REMARK SMILES IDX 7 13 6 14 5 15 4 16 3 17 2 18 1 19
REMARK H PARENT
REMARK Flexibility Score: inf
ROOT
ATOM      1  C   UNL     1     -24.673  92.779 -31.953  1.00  0.00     0.000 C 
ENDROOT
BRANCH   1   2
ATOM      2  C   UNL     1     -24.797  91.652 -30.919  1.00  0.00     0.000 C 
BRANCH   2   3
ATOM      3  C   UNL     1     -23.689  90.607 -31.112  1.00  0.00     0.000 C 
BRANCH   3   4
ATOM      4  C   UNL     1     -22.780  90.464 -29.877  1.00  0.00     0.000 C 
BRANCH   4   5
ATOM      5  C   UNL     1     -23.257  91.218 -28.621  1.00  0.00     0.001 C 
BRANCH   5   6
ATOM      6  C   UNL     1     -23.212  90.430 -27.291  1.00  0.00     0.009 C 
BRANCH   6   7
ATOM      7  C   UNL     1     -24.376  89.447 -27.005  1.00  0.00     0.032 C 
ATOM      8  C   UNL     1     -25.714  89.892 -27.615  1.00  0.00     0.014 C 
BRANCH   7   9
ATOM      9  C   UNL     1     -24.039  88.020 -27.354  1.00  0.00     0.044 C 
ATOM     10  O   UNL     1     -24.323  87.546 -28.485  1.00  0.00    -0.550 OA
ATOM     11  O   UNL     1     -23.357  87.232 -26.436  1.00  0.00    -0.550 OA
ENDBRANCH   7   9
ENDBRANCH   6   7
ENDBRANCH   5   6
ENDBRANCH   4   5
ENDBRANCH   3   4
ENDBRANCH   2   3
ENDBRANCH   1   2
BRANCH   1  12
ATOM     12  C   UNL     1     -23.297  93.464 -31.922  1.00  0.00     0.000 C 
BRANCH  12  13
ATOM     13  C   UNL     1     -23.394  94.974 -31.660  1.00  0.00    -0.000 C 
BRANCH  13  14
ATOM     14  C   UNL     1     -24.694  95.322 -30.924  1.00  0.00    -0.000 C 
BRANCH  14  15
ATOM     15  C   UNL     1     -24.438  96.349 -29.810  1.00  0.00    -0.000 C 
BRANCH  15  16
ATOM     16  C   UNL     1     -24.903  95.857 -28.429  1.00  0.00    -0.000 C 
BRANCH  16  17
ATOM     17  C   UNL     1     -24.745  94.337 -28.259  1.00  0.00    -0.000 C 
BRANCH  17  18
ATOM     18  C   UNL     1     -25.869  93.719 -27.414  1.00  0.00    -0.003 C 
ATOM     19  C   UNL     1     -26.520  94.725 -26.464  1.00  0.00     0.004 C 
ENDBRANCH  17  18
ENDBRANCH  16  17
ENDBRANCH  15  16
ENDBRANCH  14  15
ENDBRANCH  13  14
ENDBRANCH  12  13
ENDBRANCH   1  12
TORSDOF 14
ENDMDL
MODEL 6
REMARK VINA RESULT:    -3.812     14.788     16.504
REMARK INTER + INTRA:          -9.443
REMARK INTER:                  -7.263
REMARK INTRA:                  -2.180
REMARK UNBOUND:                -2.511
REMARK SMILES CCCCCCCCCCCCCC[C@@H](C)C(=O)[O-]
REMARK SMILES IDX 9 1 10 2 11 3 12 4 13 5 14 6 15 7 16 8 17 9 18 10 19 11 8 12
REMARK SMILES IDX 7 13 6 14 5 15 4 16 3 17 2 18 1 19
REMARK H PARENT
REMARK Flexibility Score: inf
ROOT
ATOM      1  C   UNL     1     -25.460  94.838 -27.725  1.00  0.00     0.000 C 
ENDROOT
BRANCH   1   2
ATOM      2  C   UNL     1     -26.538  94.873 -26.633  1.00  0.00     0.000 C 
BRANCH   2   3
ATOM      3  C   UNL     1     -27.713  93.953 -26.993  1.00  0.00     0.000 C 
BRANCH   3   4
ATOM      4  C   UNL     1     -27.408  93.033 -28.189  1.00  0.00     0.000 C 
BRANCH   4   5
ATOM      5  C   UNL     1     -27.448  91.524 -27.883  1.00  0.00     0.001 C 
BRANCH   5   6
ATOM      6  C   UNL     1     -26.818  91.081 -26.542  1.00  0.00     0.009 C 
BRANCH   6   7
ATOM      7  C   UNL     1     -26.669  89.557 -26.293  1.00  0.00     0.032 C 
ATOM      8  C   UNL     1     -25.475  88.933 -27.030  1.00  0.00     0.014 C 
BRANCH   7   9
ATOM      9  C   UNL     1     -26.687  89.197 -24.830  1.00  0.00     0.044 C 
ATOM     10  O   UNL     1     -27.708  89.408 -24.124  1.00  0.00    -0.550 OA
ATOM     11  O   UNL     1     -25.583  88.575 -24.263  1.00  0.00    -0.550 OA
ENDBRANCH   7   9
ENDBRANCH   6   7
ENDBRANCH   5   6
ENDBRANCH   4   5
ENDBRANCH   3   4
ENDBRANCH   2   3
ENDBRANCH   1   2
BRANCH   1  12
ATOM     12  C   UNL     1     -25.161  96.229 -28.309  1.00  0.00     0.000 C 
BRANCH  12  13
ATOM     13  C   UNL     1     -24.304  96.165 -29.581  1.00  0.00    -0.000 C 
BRANCH  13  14
ATOM     14  C   UNL     1     -24.885  95.160 -30.584  1.00  0.00    -0.000 C 
BRANCH  14  15
ATOM     15  C   UNL     1     -23.799  94.655 -31.547  1.00  0.00    -0.000 C 
BRANCH  15  16
ATOM     16  C   UNL     1     -23.437  93.179 -31.312  1.00  0.00    -0.000 C 
BRANCH  16  17
ATOM     17  C   UNL     1     -24.470  92.448 -30.439  1.00  0.00    -0.000 C 
BRANCH  17  18
ATOM     18  C   UNL     1     -23.825  91.405 -29.513  1.00  0.00    -0.003 C 
ATOM     19  C   UNL     1     -23.590  91.932 -28.097  1.00  0.00     0.004 C 
ENDBRANCH  17  18
ENDBRANCH  16  17
ENDBRANCH  15  16
ENDBRANCH  14  15
ENDBRANCH  13  14
ENDBRANCH  12  13
ENDBRANCH   1  12
TORSDOF 14
ENDMDL
MODEL 7
REMARK VINA RESULT:    -3.776      2.794      5.312
REMARK INTER + INTRA:          -9.377
REMARK INTER:                  -7.332
REMARK INTRA:                  -2.045
REMARK UNBOUND:                -2.511
REMARK SMILES CCCCCCCCCCCCCC[C@@H](C)C(=O)[O-]
REMARK SMILES IDX 9 1 10 2 11 3 12 4 13 5 14 6 15 7 16 8 17 9 18 10 19 11 8 12
REMARK SMILES IDX 7 13 6 14 5 15 4 16 3 17 2 18 1 19
REMARK H PARENT
REMARK Flexibility Score: inf
ROOT
ATOM      1  C   UNL     1     -34.684  85.130 -18.259  1.00  0.00     0.000 C 
ENDROOT
BRANCH   1   2
ATOM      2  C   UNL     1     -35.942  84.988 -17.392  1.00  0.00     0.000 C 
BRANCH   2   3
ATOM      3  C   UNL     1     -36.878  83.909 -17.957  1.00  0.00     0.000 C 
BRANCH   3   4
ATOM      4  C   UNL     1     -36.392  82.479 -17.658  1.00  0.00     0.000 C 
BRANCH   4   5
ATOM      5  C   UNL     1     -36.608  81.462 -18.794  1.00  0.00     0.001 C 
BRANCH   5   6
ATOM      6  C   UNL     1     -37.480  81.936 -19.981  1.00  0.00     0.009 C 
BRANCH   6   7
ATOM      7  C   UNL     1     -37.929  80.865 -21.008  1.00  0.00     0.032 C 
ATOM      8  C   UNL     1     -36.965  80.716 -22.195  1.00  0.00     0.014 C 
BRANCH   7   9
ATOM      9  C   UNL     1     -38.256  79.540 -20.371  1.00  0.00     0.044 C 
ATOM     10  O   UNL     1     -37.477  78.557 -20.484  1.00  0.00    -0.550 OA
ATOM     11  O   UNL     1     -39.406  79.413 -19.602  1.00  0.00    -0.550 OA
ENDBRANCH   7   9
ENDBRANCH   6   7
ENDBRANCH   5   6
ENDBRANCH   4   5
ENDBRANCH   3   4
ENDBRANCH   2   3
ENDBRANCH   1   2
BRANCH   1  12
ATOM     12  C   UNL     1     -34.882  84.594 -19.686  1.00  0.00     0.000 C 
BRANCH  12  13
ATOM     13  C   UNL     1     -33.802  83.583 -20.095  1.00  0.00    -0.000 C 
BRANCH  13  14
ATOM     14  C   UNL     1     -32.621  83.616 -19.116  1.00  0.00    -0.000 C 
BRANCH  14  15
ATOM     15  C   UNL     1     -31.895  82.262 -19.085  1.00  0.00    -0.000 C 
BRANCH  15  16
ATOM     16  C   UNL     1     -32.850  81.081 -18.844  1.00  0.00    -0.000 C 
BRANCH  16  17
ATOM     17  C   UNL     1     -32.626  79.928 -19.836  1.00  0.00    -0.000 C 
BRANCH  17  18
ATOM     18  C   UNL     1     -33.593  79.981 -21.029  1.00  0.00    -0.003 C 
ATOM     19  C   UNL     1     -33.993  78.594 -21.532  1.00  0.00     0.004 C 
ENDBRANCH  17  18
ENDBRANCH  16  17
ENDBRANCH  15  16
ENDBRANCH  14  15
ENDBRANCH  13  14
ENDBRANCH  12  13
ENDBRANCH   1  12
TORSDOF 14
ENDMDL
MODEL 8
REMARK VINA RESULT:    -3.744      1.687      2.900
REMARK INTER + INTRA:          -9.319
REMARK INTER:                  -7.239
REMARK INTRA:                  -2.080
REMARK UNBOUND:                -2.511
REMARK SMILES CCCCCCCCCCCCCC[C@@H](C)C(=O)[O-]
REMARK SMILES IDX 9 1 10 2 11 3 12 4 13 5 14 6 15 7 16 8 17 9 18 10 19 11 8 12
REMARK SMILES IDX 7 13 6 14 5 15 4 16 3 17 2 18 1 19
REMARK H PARENT
REMARK Flexibility Score: inf
ROOT
ATOM      1  C   UNL     1     -35.582  84.528 -20.374  1.00  0.00     0.000 C 
ENDROOT
BRANCH   1   2
ATOM      2  C   UNL     1     -35.311  84.412 -18.868  1.00  0.00     0.000 C 
BRANCH   2   3
ATOM      3  C   UNL     1     -36.467  83.695 -18.156  1.00  0.00     0.000 C 
BRANCH   3   4
ATOM      4  C   UNL     1     -36.079  82.298 -17.641  1.00  0.00     0.000 C 
BRANCH   4   5
ATOM      5  C   UNL     1     -35.385  81.388 -18.673  1.00  0.00     0.001 C 
BRANCH   5   6
ATOM      6  C   UNL     1     -33.903  81.046 -18.397  1.00  0.00     0.009 C 
BRANCH   6   7
ATOM      7  C   UNL     1     -32.952  80.955 -19.619  1.00  0.00     0.032 C 
ATOM      8  C   UNL     1     -33.471  81.709 -20.853  1.00  0.00     0.014 C 
BRANCH   7   9
ATOM      9  C   UNL     1     -31.529  81.321 -19.285  1.00  0.00     0.044 C 
ATOM     10  O   UNL     1     -30.577  80.548 -19.575  1.00  0.00    -0.550 OA
ATOM     11  O   UNL     1     -31.256  82.549 -18.698  1.00  0.00    -0.550 OA
ENDBRANCH   7   9
ENDBRANCH   6   7
ENDBRANCH   5   6
ENDBRANCH   4   5
ENDBRANCH   3   4
ENDBRANCH   2   3
ENDBRANCH   1   2
BRANCH   1  12
ATOM     12  C   UNL     1     -36.962  83.979 -20.772  1.00  0.00     0.000 C 
BRANCH  12  13
ATOM     13  C   UNL     1     -36.892  83.006 -21.957  1.00  0.00    -0.000 C 
BRANCH  13  14
ATOM     14  C   UNL     1     -37.628  83.573 -23.178  1.00  0.00    -0.000 C 
BRANCH  14  15
ATOM     15  C   UNL     1     -38.184  84.974 -22.883  1.00  0.00    -0.000 C 
BRANCH  15  16
ATOM     16  C   UNL     1     -37.613  86.050 -23.822  1.00  0.00    -0.000 C 
BRANCH  16  17
ATOM     17  C   UNL     1     -36.438  86.818 -23.195  1.00  0.00    -0.000 C 
BRANCH  17  18
ATOM     18  C   UNL     1     -35.154  86.716 -24.034  1.00  0.00    -0.003 C 
ATOM     19  C   UNL     1     -34.422  85.389 -23.838  1.00  0.00     0.004 C 
ENDBRANCH  17  18
ENDBRANCH  16  17
ENDBRANCH  15  16
ENDBRANCH  14  15
ENDBRANCH  13  14
ENDBRANCH  12  13
ENDBRANCH   1  12
TORSDOF 14
ENDMDL
MODEL 9
REMARK VINA RESULT:    -3.740     16.856     18.344
REMARK INTER + INTRA:          -9.313
REMARK INTER:                  -6.846
REMARK INTRA:                  -2.467
REMARK UNBOUND:                -2.511
REMARK SMILES CCCCCCCCCCCCCC[C@@H](C)C(=O)[O-]
REMARK SMILES IDX 9 1 10 2 11 3 12 4 13 5 14 6 15 7 16 8 17 9 18 10 19 11 8 12
REMARK SMILES IDX 7 13 6 14 5 15 4 16 3 17 2 18 1 19
REMARK H PARENT
REMARK Flexibility Score: inf
ROOT
ATOM      1  C   UNL     1     -24.416  96.476 -30.228  1.00  0.00     0.000 C 
ENDROOT
BRANCH   1   2
ATOM      2  C   UNL     1     -24.385  95.833 -28.835  1.00  0.00     0.000 C 
BRANCH   2   3
ATOM      3  C   UNL     1     -25.692  95.078 -28.551  1.00  0.00     0.000 C 
BRANCH   3   4
ATOM      4  C   UNL     1     -25.458  93.616 -28.130  1.00  0.00     0.000 C 
BRANCH   4   5
ATOM      5  C   UNL     1     -24.056  93.059 -28.443  1.00  0.00     0.001 C 
BRANCH   5   6
ATOM      6  C   UNL     1     -23.692  91.711 -27.779  1.00  0.00     0.009 C 
BRANCH   6   7
ATOM      7  C   UNL     1     -23.757  90.439 -28.665  1.00  0.00     0.032 C 
ATOM      8  C   UNL     1     -22.607  90.341 -29.678  1.00  0.00     0.014 C 
BRANCH   7   9
ATOM      9  C   UNL     1     -23.920  89.173 -27.864  1.00  0.00     0.044 C 
ATOM     10  O   UNL     1     -23.474  89.089 -26.689  1.00  0.00    -0.550 OA
ATOM     11  O   UNL     1     -24.617  88.102 -28.407  1.00  0.00    -0.550 OA
ENDBRANCH   7   9
ENDBRANCH   6   7
ENDBRANCH   5   6
ENDBRANCH   4   5
ENDBRANCH   3   4
ENDBRANCH   2   3
ENDBRANCH   1   2
BRANCH   1  12
ATOM     12  C   UNL     1     -23.259  96.005 -31.125  1.00  0.00     0.000 C 
BRANCH  12  13
ATOM     13  C   UNL     1     -23.639  95.971 -32.612  1.00  0.00    -0.000 C 
BRANCH  13  14
ATOM     14  C   UNL     1     -23.378  94.585 -33.214  1.00  0.00    -0.000 C 
BRANCH  14  15
ATOM     15  C   UNL     1     -23.207  93.529 -32.111  1.00  0.00    -0.000 C 
BRANCH  15  16
ATOM     16  C   UNL     1     -23.987  92.236 -32.401  1.00  0.00    -0.000 C 
BRANCH  16  17
ATOM     17  C   UNL     1     -25.321  92.166 -31.639  1.00  0.00    -0.000 C 
BRANCH  17  18
ATOM     18  C   UNL     1     -26.489  92.760 -32.442  1.00  0.00    -0.003 C 
ATOM     19  C   UNL     1     -26.870  94.167 -31.984  1.00  0.00     0.004 C 
ENDBRANCH  17  18
ENDBRANCH  16  17
ENDBRANCH  15  16
ENDBRANCH  14  15
ENDBRANCH  13  14
ENDBRANCH  12  13
ENDBRANCH   1  12
TORSDOF 14
ENDMDL
