MODEL 1
REMARK VINA RESULT:    -6.162      0.000      0.000
REMARK INTER + INTRA:          -6.930
REMARK INTER:                  -6.882
REMARK INTRA:                  -0.048
REMARK UNBOUND:                -0.048
REMARK SMILES COc1cc2ccc(=O)oc2cc1OC
REMARK SMILES IDX 3 1 13 2 12 3 11 4 5 5 4 6 6 7 7 8 8 9 9 10 10 11 2 12 1 13
REMARK SMILES IDX 14 14 15 15
REMARK H PARENT
REMARK Flexibility Score: inf
ROOT
ATOM      1  C   UNL     1      29.129  23.964  49.600  1.00  0.00     0.161 A 
ATOM      2  C   UNL     1      27.741  23.906  49.817  1.00  0.00     0.164 A 
ATOM      3  C   UNL     1      26.856  24.164  48.752  1.00  0.00     0.098 A 
ATOM      4  C   UNL     1      27.349  24.477  47.483  1.00  0.00     0.142 A 
ATOM      5  C   UNL     1      28.740  24.536  47.265  1.00  0.00     0.022 A 
ATOM      6  C   UNL     1      29.624  24.280  48.319  1.00  0.00     0.062 A 
ATOM      7  C   UNL     1      29.202  24.853  45.982  1.00  0.00     0.019 A 
ATOM      8  C   UNL     1      28.281  25.099  44.964  1.00  0.00     0.094 A 
ATOM      9  C   UNL     1      26.914  25.023  45.255  1.00  0.00     0.336 A 
ATOM     10  O   UNL     1      26.066  25.242  44.350  1.00  0.00    -0.246 OA
ATOM     11  O   UNL     1      26.503  24.719  46.483  1.00  0.00    -0.423 OA
ENDROOT
BRANCH   1  12
ATOM     12  O   UNL     1      29.982  23.701  50.684  1.00  0.00    -0.493 OA
ATOM     13  C   UNL     1      30.935  22.644  50.724  1.00  0.00     0.278 C 
ENDBRANCH   1  12
BRANCH   2  14
ATOM     14  O   UNL     1      27.282  23.588  51.105  1.00  0.00    -0.493 OA
ATOM     15  C   UNL     1      27.229  22.269  51.640  1.00  0.00     0.278 C 
ENDBRANCH   2  14
TORSDOF 2
ENDMDL
MODEL 2
REMARK VINA RESULT:    -6.022      1.891      3.556
REMARK INTER + INTRA:          -6.774
REMARK INTER:                  -6.686
REMARK INTRA:                  -0.088
REMARK UNBOUND:                -0.048
REMARK SMILES COc1cc2ccc(=O)oc2cc1OC
REMARK SMILES IDX 3 1 13 2 12 3 11 4 5 5 4 6 6 7 7 8 8 9 9 10 10 11 2 12 1 13
REMARK SMILES IDX 14 14 15 15
REMARK H PARENT
REMARK Flexibility Score: inf
ROOT
ATOM      1  C   UNL     1      28.314  22.319  51.775  1.00  0.00     0.161 A 
ATOM      2  C   UNL     1      29.636  22.136  51.333  1.00  0.00     0.164 A 
ATOM      3  C   UNL     1      30.037  22.669  50.092  1.00  0.00     0.098 A 
ATOM      4  C   UNL     1      29.130  23.377  49.300  1.00  0.00     0.142 A 
ATOM      5  C   UNL     1      27.805  23.561  49.743  1.00  0.00     0.022 A 
ATOM      6  C   UNL     1      27.401  23.034  50.975  1.00  0.00     0.062 A 
ATOM      7  C   UNL     1      26.921  24.275  48.926  1.00  0.00     0.019 A 
ATOM      8  C   UNL     1      27.372  24.781  47.707  1.00  0.00     0.094 A 
ATOM      9  C   UNL     1      28.702  24.559  47.333  1.00  0.00     0.336 A 
ATOM     10  O   UNL     1      29.128  25.007  46.236  1.00  0.00    -0.246 OA
ATOM     11  O   UNL     1      29.521  23.877  48.129  1.00  0.00    -0.423 OA
ENDROOT
BRANCH   1  12
ATOM     12  O   UNL     1      27.948  21.774  53.017  1.00  0.00    -0.493 OA
ATOM     13  C   UNL     1      28.034  22.465  54.259  1.00  0.00     0.278 C 
ENDBRANCH   1  12
BRANCH   2  14
ATOM     14  O   UNL     1      30.519  21.420  52.155  1.00  0.00    -0.493 OA
ATOM     15  C   UNL     1      31.851  21.068  51.795  1.00  0.00     0.278 C 
ENDBRANCH   2  14
TORSDOF 2
ENDMDL
MODEL 3
REMARK VINA RESULT:    -6.004      1.547      5.442
REMARK INTER + INTRA:          -6.755
REMARK INTER:                  -6.661
REMARK INTRA:                  -0.093
REMARK UNBOUND:                -0.048
REMARK SMILES COc1cc2ccc(=O)oc2cc1OC
REMARK SMILES IDX 3 1 13 2 12 3 11 4 5 5 4 6 6 7 7 8 8 9 9 10 10 11 2 12 1 13
REMARK SMILES IDX 14 14 15 15
REMARK H PARENT
REMARK Flexibility Score: inf
ROOT
ATOM      1  C   UNL     1      27.835  24.438  46.528  1.00  0.00     0.161 A 
ATOM      2  C   UNL     1      29.002  24.832  47.204  1.00  0.00     0.164 A 
ATOM      3  C   UNL     1      29.210  24.423  48.536  1.00  0.00     0.098 A 
ATOM      4  C   UNL     1      28.263  23.629  49.187  1.00  0.00     0.142 A 
ATOM      5  C   UNL     1      27.092  23.233  48.510  1.00  0.00     0.022 A 
ATOM      6  C   UNL     1      26.881  23.637  47.186  1.00  0.00     0.062 A 
ATOM      7  C   UNL     1      26.163  22.438  49.190  1.00  0.00     0.019 A 
ATOM      8  C   UNL     1      26.420  22.061  50.508  1.00  0.00     0.094 A 
ATOM      9  C   UNL     1      27.603  22.492  51.117  1.00  0.00     0.336 A 
ATOM     10  O   UNL     1      27.853  22.163  52.307  1.00  0.00    -0.246 OA
ATOM     11  O   UNL     1      28.470  23.247  50.447  1.00  0.00    -0.423 OA
ENDROOT
BRANCH   1  12
ATOM     12  O   UNL     1      27.660  24.864  45.201  1.00  0.00    -0.493 OA
ATOM     13  C   UNL     1      26.414  25.263  44.638  1.00  0.00     0.278 C 
ENDBRANCH   1  12
BRANCH   2  14
ATOM     14  O   UNL     1      29.931  25.630  46.518  1.00  0.00    -0.493 OA
ATOM     15  C   UNL     1      31.028  25.124  45.763  1.00  0.00     0.278 C 
ENDBRANCH   2  14
TORSDOF 2
ENDMDL
MODEL 4
REMARK VINA RESULT:    -5.823      2.114      3.255
REMARK INTER + INTRA:          -6.552
REMARK INTER:                  -6.435
REMARK INTRA:                  -0.117
REMARK UNBOUND:                -0.048
REMARK SMILES COc1cc2ccc(=O)oc2cc1OC
REMARK SMILES IDX 3 1 13 2 12 3 11 4 5 5 4 6 6 7 7 8 8 9 9 10 10 11 2 12 1 13
REMARK SMILES IDX 14 14 15 15
REMARK H PARENT
REMARK Flexibility Score: inf
ROOT
ATOM      1  C   UNL     1      26.674  22.359  49.476  1.00  0.00     0.161 A 
ATOM      2  C   UNL     1      27.942  22.400  50.080  1.00  0.00     0.164 A 
ATOM      3  C   UNL     1      28.997  23.083  49.444  1.00  0.00     0.098 A 
ATOM      4  C   UNL     1      28.791  23.716  48.216  1.00  0.00     0.142 A 
ATOM      5  C   UNL     1      27.519  23.674  47.609  1.00  0.00     0.022 A 
ATOM      6  C   UNL     1      26.467  22.998  48.238  1.00  0.00     0.062 A 
ATOM      7  C   UNL     1      27.345  24.319  46.379  1.00  0.00     0.019 A 
ATOM      8  C   UNL     1      28.425  24.979  45.793  1.00  0.00     0.094 A 
ATOM      9  C   UNL     1      29.658  24.979  46.454  1.00  0.00     0.336 A 
ATOM     10  O   UNL     1      30.645  25.569  45.942  1.00  0.00    -0.246 OA
ATOM     11  O   UNL     1      29.796  24.358  47.623  1.00  0.00    -0.423 OA
ENDROOT
BRANCH   1  12
ATOM     12  O   UNL     1      25.645  21.670  50.139  1.00  0.00    -0.493 OA
ATOM     13  C   UNL     1      24.366  21.391  49.576  1.00  0.00     0.278 C 
ENDBRANCH   1  12
BRANCH   2  14
ATOM     14  O   UNL     1      28.113  21.752  51.314  1.00  0.00    -0.493 OA
ATOM     15  C   UNL     1      28.137  22.412  52.576  1.00  0.00     0.278 C 
ENDBRANCH   2  14
TORSDOF 2
ENDMDL
MODEL 5
REMARK VINA RESULT:    -5.798      1.302      5.069
REMARK INTER + INTRA:          -6.524
REMARK INTER:                  -6.564
REMARK INTRA:                   0.040
REMARK UNBOUND:                -0.048
REMARK SMILES COc1cc2ccc(=O)oc2cc1OC
REMARK SMILES IDX 3 1 13 2 12 3 11 4 5 5 4 6 6 7 7 8 8 9 9 10 10 11 2 12 1 13
REMARK SMILES IDX 14 14 15 15
REMARK H PARENT
REMARK Flexibility Score: inf
ROOT
ATOM      1  C   UNL     1      28.951  24.426  47.463  1.00  0.00     0.161 A 
ATOM      2  C   UNL     1      27.564  24.532  47.665  1.00  0.00     0.164 A 
ATOM      3  C   UNL     1      26.992  24.052  48.859  1.00  0.00     0.098 A 
ATOM      4  C   UNL     1      27.795  23.469  49.843  1.00  0.00     0.142 A 
ATOM      5  C   UNL     1      29.186  23.361  49.641  1.00  0.00     0.022 A 
ATOM      6  C   UNL     1      29.759  23.838  48.457  1.00  0.00     0.062 A 
ATOM      7  C   UNL     1      29.962  22.773  50.646  1.00  0.00     0.019 A 
ATOM      8  C   UNL     1      29.344  22.314  51.809  1.00  0.00     0.094 A 
ATOM      9  C   UNL     1      27.958  22.454  51.939  1.00  0.00     0.336 A 
ATOM     10  O   UNL     1      27.380  22.046  52.981  1.00  0.00    -0.246 OA
ATOM     11  O   UNL     1      27.244  23.018  50.968  1.00  0.00    -0.423 OA
ENDROOT
BRANCH   1  12
ATOM     12  O   UNL     1      29.487  24.915  46.261  1.00  0.00    -0.493 OA
ATOM     13  C   UNL     1      30.839  25.326  46.088  1.00  0.00     0.278 C 
ENDBRANCH   1  12
BRANCH   2  14
ATOM     14  O   UNL     1      26.789  25.123  46.655  1.00  0.00    -0.493 OA
ATOM     15  C   UNL     1      26.441  24.489  45.428  1.00  0.00     0.278 C 
ENDBRANCH   2  14
TORSDOF 2
ENDMDL
MODEL 6
REMARK VINA RESULT:    -5.649     12.099     14.203
REMARK INTER + INTRA:          -6.357
REMARK INTER:                  -6.252
REMARK INTRA:                  -0.106
REMARK UNBOUND:                -0.048
REMARK SMILES COc1cc2ccc(=O)oc2cc1OC
REMARK SMILES IDX 3 1 13 2 12 3 11 4 5 5 4 6 6 7 7 8 8 9 9 10 10 11 2 12 1 13
REMARK SMILES IDX 14 14 15 15
REMARK H PARENT
REMARK Flexibility Score: inf
ROOT
ATOM      1  C   UNL     1      16.777  21.959  42.986  1.00  0.00     0.161 A 
ATOM      2  C   UNL     1      15.421  22.278  43.172  1.00  0.00     0.164 A 
ATOM      3  C   UNL     1      14.578  21.378  43.853  1.00  0.00     0.098 A 
ATOM      4  C   UNL     1      15.082  20.171  44.344  1.00  0.00     0.142 A 
ATOM      5  C   UNL     1      16.441  19.850  44.157  1.00  0.00     0.022 A 
ATOM      6  C   UNL     1      17.283  20.741  43.481  1.00  0.00     0.062 A 
ATOM      7  C   UNL     1      16.914  18.633  44.660  1.00  0.00     0.019 A 
ATOM      8  C   UNL     1      16.036  17.779  45.327  1.00  0.00     0.094 A 
ATOM      9  C   UNL     1      14.699  18.165  45.474  1.00  0.00     0.336 A 
ATOM     10  O   UNL     1      13.890  17.408  46.073  1.00  0.00    -0.246 OA
ATOM     11  O   UNL     1      14.275  19.328  44.986  1.00  0.00    -0.423 OA
ENDROOT
BRANCH   1  12
ATOM     12  O   UNL     1      17.588  22.879  42.302  1.00  0.00    -0.493 OA
ATOM     13  C   UNL     1      19.010  22.908  42.369  1.00  0.00     0.278 C 
ENDBRANCH   1  12
BRANCH   2  14
ATOM     14  O   UNL     1      14.950  23.500  42.666  1.00  0.00    -0.493 OA
ATOM     15  C   UNL     1      13.964  24.310  43.299  1.00  0.00     0.278 C 
ENDBRANCH   2  14
TORSDOF 2
ENDMDL
MODEL 7
REMARK VINA RESULT:    -5.423      1.636      2.527
REMARK INTER + INTRA:          -6.105
REMARK INTER:                  -6.027
REMARK INTRA:                  -0.078
REMARK UNBOUND:                -0.048
REMARK SMILES COc1cc2ccc(=O)oc2cc1OC
REMARK SMILES IDX 3 1 13 2 12 3 11 4 5 5 4 6 6 7 7 8 8 9 9 10 10 11 2 12 1 13
REMARK SMILES IDX 14 14 15 15
REMARK H PARENT
REMARK Flexibility Score: inf
ROOT
ATOM      1  C   UNL     1      29.832  22.159  51.328  1.00  0.00     0.161 A 
ATOM      2  C   UNL     1      28.480  22.286  51.687  1.00  0.00     0.164 A 
ATOM      3  C   UNL     1      27.586  22.951  50.824  1.00  0.00     0.098 A 
ATOM      4  C   UNL     1      28.038  23.486  49.615  1.00  0.00     0.142 A 
ATOM      5  C   UNL     1      29.394  23.360  49.255  1.00  0.00     0.022 A 
ATOM      6  C   UNL     1      30.286  22.700  50.108  1.00  0.00     0.062 A 
ATOM      7  C   UNL     1      29.814  23.907  48.037  1.00  0.00     0.019 A 
ATOM      8  C   UNL     1      28.887  24.556  47.221  1.00  0.00     0.094 A 
ATOM      9  C   UNL     1      27.557  24.642  47.645  1.00  0.00     0.336 A 
ATOM     10  O   UNL     1      26.704  25.224  46.923  1.00  0.00    -0.246 OA
ATOM     11  O   UNL     1      27.184  24.113  48.807  1.00  0.00    -0.423 OA
ENDROOT
BRANCH   1  12
ATOM     12  O   UNL     1      30.695  21.490  52.212  1.00  0.00    -0.493 OA
ATOM     13  C   UNL     1      31.926  20.882  51.834  1.00  0.00     0.278 C 
ENDBRANCH   1  12
BRANCH   2  14
ATOM     14  O   UNL     1      28.062  21.735  52.909  1.00  0.00    -0.493 OA
ATOM     15  C   UNL     1      28.073  22.429  54.153  1.00  0.00     0.278 C 
ENDBRANCH   2  14
TORSDOF 2
ENDMDL
MODEL 8
REMARK VINA RESULT:    -5.286      2.114      5.688
REMARK INTER + INTRA:          -5.952
REMARK INTER:                  -5.838
REMARK INTRA:                  -0.114
REMARK UNBOUND:                -0.048
REMARK SMILES COc1cc2ccc(=O)oc2cc1OC
REMARK SMILES IDX 3 1 13 2 12 3 11 4 5 5 4 6 6 7 7 8 8 9 9 10 10 11 2 12 1 13
REMARK SMILES IDX 14 14 15 15
REMARK H PARENT
REMARK Flexibility Score: inf
ROOT
ATOM      1  C   UNL     1      29.809  23.119  48.965  1.00  0.00     0.161 A 
ATOM      2  C   UNL     1      28.418  22.948  48.859  1.00  0.00     0.164 A 
ATOM      3  C   UNL     1      27.662  22.642  50.008  1.00  0.00     0.098 A 
ATOM      4  C   UNL     1      28.288  22.507  51.250  1.00  0.00     0.142 A 
ATOM      5  C   UNL     1      29.683  22.677  51.356  1.00  0.00     0.022 A 
ATOM      6  C   UNL     1      30.438  22.982  50.218  1.00  0.00     0.062 A 
ATOM      7  C   UNL     1      30.278  22.535  52.615  1.00  0.00     0.019 A 
ATOM      8  C   UNL     1      29.482  22.231  53.719  1.00  0.00     0.094 A 
ATOM      9  C   UNL     1      28.104  22.076  53.537  1.00  0.00     0.336 A 
ATOM     10  O   UNL     1      27.368  21.801  54.522  1.00  0.00    -0.246 OA
ATOM     11  O   UNL     1      27.563  22.217  52.330  1.00  0.00    -0.423 OA
ENDROOT
BRANCH   1  12
ATOM     12  O   UNL     1      30.531  23.423  47.799  1.00  0.00    -0.493 OA
ATOM     13  C   UNL     1      31.902  23.100  47.590  1.00  0.00     0.278 C 
ENDBRANCH   1  12
BRANCH   2  14
ATOM     14  O   UNL     1      27.824  23.092  47.595  1.00  0.00    -0.493 OA
ATOM     15  C   UNL     1      27.177  24.275  47.137  1.00  0.00     0.278 C 
ENDBRANCH   2  14
TORSDOF 2
ENDMDL
MODEL 9
REMARK VINA RESULT:    -5.216      2.364      6.383
REMARK INTER + INTRA:          -5.874
REMARK INTER:                  -5.766
REMARK INTRA:                  -0.108
REMARK UNBOUND:                -0.048
REMARK SMILES COc1cc2ccc(=O)oc2cc1OC
REMARK SMILES IDX 3 1 13 2 12 3 11 4 5 5 4 6 6 7 7 8 8 9 9 10 10 11 2 12 1 13
REMARK SMILES IDX 14 14 15 15
REMARK H PARENT
REMARK Flexibility Score: inf
ROOT
ATOM      1  C   UNL     1      28.469  22.652  49.088  1.00  0.00     0.161 A 
ATOM      2  C   UNL     1      29.834  22.973  49.172  1.00  0.00     0.164 A 
ATOM      3  C   UNL     1      30.462  23.034  50.432  1.00  0.00     0.098 A 
ATOM      4  C   UNL     1      29.734  22.779  51.597  1.00  0.00     0.142 A 
ATOM      5  C   UNL     1      28.364  22.458  51.514  1.00  0.00     0.022 A 
ATOM      6  C   UNL     1      27.736  22.395  50.264  1.00  0.00     0.062 A 
ATOM      7  C   UNL     1      27.664  22.208  52.699  1.00  0.00     0.019 A 
ATOM      8  C   UNL     1      28.335  22.282  53.920  1.00  0.00     0.094 A 
ATOM      9  C   UNL     1      29.696  22.607  53.925  1.00  0.00     0.336 A 
ATOM     10  O   UNL     1      30.320  22.679  55.017  1.00  0.00    -0.246 OA
ATOM     11  O   UNL     1      30.338  22.839  52.783  1.00  0.00    -0.423 OA
ENDROOT
BRANCH   1  12
ATOM     12  O   UNL     1      27.876  22.600  47.816  1.00  0.00    -0.493 OA
ATOM     13  C   UNL     1      27.174  23.680  47.207  1.00  0.00     0.278 C 
ENDBRANCH   1  12
BRANCH   2  14
ATOM     14  O   UNL     1      30.534  23.223  47.981  1.00  0.00    -0.493 OA
ATOM     15  C   UNL     1      31.916  22.945  47.782  1.00  0.00     0.278 C 
ENDBRANCH   2  14
TORSDOF 2
ENDMDL
