MODEL 1
REMARK VINA RESULT:    -5.080      0.000      0.000
REMARK INTER + INTRA:         -11.997
REMARK INTER:                  -9.535
REMARK INTRA:                  -2.462
REMARK UNBOUND:                -2.462
REMARK SMILES CCCCCCCCC=CCCCCCCCC(=O)[O-]
REMARK SMILES IDX 10 1 9 2 11 3 12 4 13 5 14 6 15 7 16 8 17 9 18 10 19 11
REMARK SMILES IDX 20 12 8 13 7 14 6 15 5 16 4 17 3 18 2 19 1 20
REMARK H PARENT
REMARK Flexibility Score: inf
ROOT
ATOM      1  C   UNL     1      39.132  19.184  31.235  1.00  0.00    -0.031 C 
ATOM      2  C   UNL     1      37.938  18.810  30.751  1.00  0.00    -0.031 C 
ENDROOT
BRANCH   1   3
ATOM      3  C   UNL     1      39.252  20.077  32.442  1.00  0.00     0.027 C 
BRANCH   3   4
ATOM      4  C   UNL     1      40.213  19.489  33.483  1.00  0.00     0.004 C 
BRANCH   4   5
ATOM      5  C   UNL     1      40.817  18.151  33.024  1.00  0.00     0.000 C 
BRANCH   5   6
ATOM      6  C   UNL     1      40.452  16.986  33.958  1.00  0.00     0.000 C 
BRANCH   6   7
ATOM      7  C   UNL     1      39.088  16.362  33.614  1.00  0.00     0.000 C 
BRANCH   7   8
ATOM      8  C   UNL     1      37.968  16.838  34.552  1.00  0.00     0.006 C 
BRANCH   8   9
ATOM      9  C   UNL     1      36.660  17.141  33.809  1.00  0.00     0.053 C 
BRANCH   9  10
ATOM     10  C   UNL     1      35.837  18.123  34.581  1.00  0.00     0.041 C 
ATOM     11  O   UNL     1      34.584  18.007  34.622  1.00  0.00    -0.550 OA
ATOM     12  O   UNL     1      36.451  19.200  35.212  1.00  0.00    -0.550 OA
ENDBRANCH   9  10
ENDBRANCH   8   9
ENDBRANCH   7   8
ENDBRANCH   6   7
ENDBRANCH   5   6
ENDBRANCH   4   5
ENDBRANCH   3   4
ENDBRANCH   1   3
BRANCH   2  13
ATOM     13  C   UNL     1      37.821  17.885  29.568  1.00  0.00     0.027 C 
BRANCH  13  14
ATOM     14  C   UNL     1      36.997  18.500  28.427  1.00  0.00     0.004 C 
BRANCH  14  15
ATOM     15  C   UNL     1      36.221  17.436  27.636  1.00  0.00     0.000 C 
BRANCH  15  16
ATOM     16  C   UNL     1      36.379  16.051  28.278  1.00  0.00     0.000 C 
BRANCH  16  17
ATOM     17  C   UNL     1      35.029  15.401  28.637  1.00  0.00    -0.000 C 
BRANCH  17  18
ATOM     18  C   UNL     1      34.496  15.735  30.046  1.00  0.00    -0.000 C 
BRANCH  18  19
ATOM     19  C   UNL     1      33.669  17.029  30.138  1.00  0.00    -0.003 C 
ATOM     20  C   UNL     1      34.268  18.052  31.103  1.00  0.00     0.004 C 
ENDBRANCH  18  19
ENDBRANCH  17  18
ENDBRANCH  16  17
ENDBRANCH  15  16
ENDBRANCH  14  15
ENDBRANCH  13  14
ENDBRANCH   2  13
TORSDOF 15
ENDMDL
MODEL 2
REMARK VINA RESULT:    -5.023      2.480      4.251
REMARK INTER + INTRA:         -11.889
REMARK INTER:                  -9.371
REMARK INTRA:                  -2.519
REMARK UNBOUND:                -2.462
REMARK SMILES CCCCCCCCC=CCCCCCCCC(=O)[O-]
REMARK SMILES IDX 10 1 9 2 11 3 12 4 13 5 14 6 15 7 16 8 17 9 18 10 19 11
REMARK SMILES IDX 20 12 8 13 7 14 6 15 5 16 4 17 3 18 2 19 1 20
REMARK H PARENT
REMARK Flexibility Score: inf
ROOT
ATOM      1  C   UNL     1      38.113  19.249  33.623  1.00  0.00    -0.031 C 
ATOM      2  C   UNL     1      37.842  17.953  33.839  1.00  0.00    -0.031 C 
ENDROOT
BRANCH   1   3
ATOM      3  C   UNL     1      39.431  19.697  33.049  1.00  0.00     0.027 C 
BRANCH   3   4
ATOM      4  C   UNL     1      39.421  19.654  31.516  1.00  0.00     0.004 C 
BRANCH   4   5
ATOM      5  C   UNL     1      40.659  18.938  30.949  1.00  0.00     0.000 C 
BRANCH   5   6
ATOM      6  C   UNL     1      40.293  17.727  30.074  1.00  0.00     0.000 C 
BRANCH   6   7
ATOM      7  C   UNL     1      39.460  16.682  30.837  1.00  0.00     0.000 C 
BRANCH   7   8
ATOM      8  C   UNL     1      38.162  16.313  30.102  1.00  0.00     0.006 C 
BRANCH   8   9
ATOM      9  C   UNL     1      38.161  16.764  28.635  1.00  0.00     0.053 C 
BRANCH   9  10
ATOM     10  C   UNL     1      37.058  17.745  28.393  1.00  0.00     0.041 C 
ATOM     11  O   UNL     1      36.244  17.563  27.449  1.00  0.00    -0.550 OA
ATOM     12  O   UNL     1      36.962  18.890  29.175  1.00  0.00    -0.550 OA
ENDBRANCH   9  10
ENDBRANCH   8   9
ENDBRANCH   7   8
ENDBRANCH   6   7
ENDBRANCH   5   6
ENDBRANCH   4   5
ENDBRANCH   3   4
ENDBRANCH   1   3
BRANCH   2  13
ATOM     13  C   UNL     1      36.508  17.505  34.376  1.00  0.00     0.027 C 
BRANCH  13  14
ATOM     14  C   UNL     1      35.336  18.015  33.525  1.00  0.00     0.004 C 
BRANCH  14  15
ATOM     15  C   UNL     1      35.306  17.365  32.133  1.00  0.00     0.000 C 
BRANCH  15  16
ATOM     16  C   UNL     1      34.141  17.914  31.296  1.00  0.00     0.000 C 
BRANCH  16  17
ATOM     17  C   UNL     1      33.827  17.043  30.065  1.00  0.00    -0.000 C 
BRANCH  17  18
ATOM     18  C   UNL     1      34.350  15.594  30.138  1.00  0.00    -0.000 C 
BRANCH  18  19
ATOM     19  C   UNL     1      34.347  14.834  28.800  1.00  0.00    -0.003 C 
ATOM     20  C   UNL     1      35.623  14.026  28.571  1.00  0.00     0.004 C 
ENDBRANCH  18  19
ENDBRANCH  17  18
ENDBRANCH  16  17
ENDBRANCH  15  16
ENDBRANCH  14  15
ENDBRANCH  13  14
ENDBRANCH   2  13
TORSDOF 15
ENDMDL
MODEL 3
REMARK VINA RESULT:    -5.002      1.354      2.804
REMARK INTER + INTRA:         -11.850
REMARK INTER:                  -8.894
REMARK INTRA:                  -2.956
REMARK UNBOUND:                -2.462
REMARK SMILES CCCCCCCCC=CCCCCCCCC(=O)[O-]
REMARK SMILES IDX 10 1 9 2 11 3 12 4 13 5 14 6 15 7 16 8 17 9 18 10 19 11
REMARK SMILES IDX 20 12 8 13 7 14 6 15 5 16 4 17 3 18 2 19 1 20
REMARK H PARENT
REMARK Flexibility Score: inf
ROOT
ATOM      1  C   UNL     1      36.190  18.246  29.883  1.00  0.00    -0.031 C 
ATOM      2  C   UNL     1      35.368  18.204  30.942  1.00  0.00    -0.031 C 
ENDROOT
BRANCH   1   3
ATOM      3  C   UNL     1      37.628  18.674  30.014  1.00  0.00     0.027 C 
BRANCH   3   4
ATOM      4  C   UNL     1      37.851  19.521  31.273  1.00  0.00     0.004 C 
BRANCH   4   5
ATOM      5  C   UNL     1      39.299  19.429  31.783  1.00  0.00     0.000 C 
BRANCH   5   6
ATOM      6  C   UNL     1      39.388  18.867  33.212  1.00  0.00     0.000 C 
BRANCH   6   7
ATOM      7  C   UNL     1      38.997  17.381  33.283  1.00  0.00     0.000 C 
BRANCH   7   8
ATOM      8  C   UNL     1      38.014  17.084  34.427  1.00  0.00     0.006 C 
BRANCH   8   9
ATOM      9  C   UNL     1      36.550  17.087  33.968  1.00  0.00     0.053 C 
BRANCH   9  10
ATOM     10  C   UNL     1      35.797  18.194  34.635  1.00  0.00     0.041 C 
ATOM     11  O   UNL     1      34.537  18.189  34.642  1.00  0.00    -0.550 OA
ATOM     12  O   UNL     1      36.485  19.260  35.203  1.00  0.00    -0.550 OA
ENDBRANCH   9  10
ENDBRANCH   8   9
ENDBRANCH   7   8
ENDBRANCH   6   7
ENDBRANCH   5   6
ENDBRANCH   4   5
ENDBRANCH   3   4
ENDBRANCH   1   3
BRANCH   2  13
ATOM     13  C   UNL     1      33.942  17.737  30.815  1.00  0.00     0.027 C 
BRANCH  13  14
ATOM     14  C   UNL     1      33.681  17.017  29.484  1.00  0.00     0.004 C 
BRANCH  14  15
ATOM     15  C   UNL     1      33.600  15.493  29.656  1.00  0.00     0.000 C 
BRANCH  15  16
ATOM     16  C   UNL     1      34.491  14.777  28.631  1.00  0.00     0.000 C 
BRANCH  16  17
ATOM     17  C   UNL     1      35.951  14.635  29.104  1.00  0.00    -0.000 C 
BRANCH  17  18
ATOM     18  C   UNL     1      36.128  14.402  30.618  1.00  0.00    -0.000 C 
BRANCH  18  19
ATOM     19  C   UNL     1      37.479  14.863  31.193  1.00  0.00    -0.003 C 
ATOM     20  C   UNL     1      38.545  15.068  30.117  1.00  0.00     0.004 C 
ENDBRANCH  18  19
ENDBRANCH  17  18
ENDBRANCH  16  17
ENDBRANCH  15  16
ENDBRANCH  14  15
ENDBRANCH  13  14
ENDBRANCH   2  13
TORSDOF 15
ENDMDL
MODEL 4
REMARK VINA RESULT:    -4.951      2.042      4.373
REMARK INTER + INTRA:         -11.755
REMARK INTER:                  -9.133
REMARK INTRA:                  -2.622
REMARK UNBOUND:                -2.462
REMARK SMILES CCCCCCCCC=CCCCCCCCC(=O)[O-]
REMARK SMILES IDX 10 1 9 2 11 3 12 4 13 5 14 6 15 7 16 8 17 9 18 10 19 11
REMARK SMILES IDX 20 12 8 13 7 14 6 15 5 16 4 17 3 18 2 19 1 20
REMARK H PARENT
REMARK Flexibility Score: inf
ROOT
ATOM      1  C   UNL     1      34.086  17.436  30.088  1.00  0.00    -0.031 C 
ATOM      2  C   UNL     1      33.630  16.181  29.960  1.00  0.00    -0.031 C 
ENDROOT
BRANCH   1   3
ATOM      3  C   UNL     1      34.181  18.111  31.431  1.00  0.00     0.027 C 
BRANCH   3   4
ATOM      4  C   UNL     1      35.150  17.373  32.364  1.00  0.00     0.004 C 
BRANCH   4   5
ATOM      5  C   UNL     1      35.026  17.850  33.821  1.00  0.00     0.000 C 
BRANCH   5   6
ATOM      6  C   UNL     1      36.391  17.998  34.514  1.00  0.00     0.000 C 
BRANCH   6   7
ATOM      7  C   UNL     1      37.532  17.362  33.702  1.00  0.00     0.000 C 
BRANCH   7   8
ATOM      8  C   UNL     1      38.776  18.262  33.627  1.00  0.00     0.006 C 
BRANCH   8   9
ATOM      9  C   UNL     1      38.474  19.642  33.027  1.00  0.00     0.053 C 
BRANCH   9  10
ATOM     10  C   UNL     1      38.443  19.565  31.533  1.00  0.00     0.041 C 
ATOM     11  O   UNL     1      37.358  19.723  30.913  1.00  0.00    -0.550 OA
ATOM     12  O   UNL     1      39.603  19.263  30.828  1.00  0.00    -0.550 OA
ENDBRANCH   9  10
ENDBRANCH   8   9
ENDBRANCH   7   8
ENDBRANCH   6   7
ENDBRANCH   5   6
ENDBRANCH   4   5
ENDBRANCH   3   4
ENDBRANCH   1   3
BRANCH   2  13
ATOM     13  C   UNL     1      33.573  15.495  28.621  1.00  0.00     0.027 C 
BRANCH  13  14
ATOM     14  C   UNL     1      34.854  14.704  28.317  1.00  0.00     0.004 C 
BRANCH  14  15
ATOM     15  C   UNL     1      35.577  14.260  29.597  1.00  0.00     0.000 C 
BRANCH  15  16
ATOM     16  C   UNL     1      37.047  13.924  29.309  1.00  0.00     0.000 C 
BRANCH  16  17
ATOM     17  C   UNL     1      38.025  14.953  29.908  1.00  0.00    -0.000 C 
BRANCH  17  18
ATOM     18  C   UNL     1      37.612  16.429  29.730  1.00  0.00    -0.000 C 
BRANCH  18  19
ATOM     19  C   UNL     1      37.925  17.030  28.349  1.00  0.00    -0.003 C 
ATOM     20  C   UNL     1      36.872  18.034  27.884  1.00  0.00     0.004 C 
ENDBRANCH  18  19
ENDBRANCH  17  18
ENDBRANCH  16  17
ENDBRANCH  15  16
ENDBRANCH  14  15
ENDBRANCH  13  14
ENDBRANCH   2  13
TORSDOF 15
ENDMDL
MODEL 5
REMARK VINA RESULT:    -4.939      2.464      3.887
REMARK INTER + INTRA:         -11.732
REMARK INTER:                  -8.847
REMARK INTRA:                  -2.885
REMARK UNBOUND:                -2.462
REMARK SMILES CCCCCCCCC=CCCCCCCCC(=O)[O-]
REMARK SMILES IDX 10 1 9 2 11 3 12 4 13 5 14 6 15 7 16 8 17 9 18 10 19 11
REMARK SMILES IDX 20 12 8 13 7 14 6 15 5 16 4 17 3 18 2 19 1 20
REMARK H PARENT
REMARK Flexibility Score: inf
ROOT
ATOM      1  C   UNL     1      35.743  18.024  30.969  1.00  0.00    -0.031 C 
ATOM      2  C   UNL     1      36.857  17.463  30.475  1.00  0.00    -0.031 C 
ENDROOT
BRANCH   1   3
ATOM      3  C   UNL     1      35.287  17.769  32.381  1.00  0.00     0.027 C 
BRANCH   3   4
ATOM      4  C   UNL     1      36.463  17.396  33.294  1.00  0.00     0.004 C 
BRANCH   4   5
ATOM      5  C   UNL     1      36.939  18.589  34.140  1.00  0.00     0.000 C 
BRANCH   5   6
ATOM      6  C   UNL     1      38.378  19.015  33.803  1.00  0.00     0.000 C 
BRANCH   6   7
ATOM      7  C   UNL     1      38.429  20.096  32.709  1.00  0.00     0.000 C 
BRANCH   7   8
ATOM      8  C   UNL     1      39.499  19.807  31.644  1.00  0.00     0.006 C 
BRANCH   8   9
ATOM      9  C   UNL     1      40.499  18.729  32.085  1.00  0.00     0.053 C 
BRANCH   9  10
ATOM     10  C   UNL     1      40.507  17.596  31.108  1.00  0.00     0.041 C 
ATOM     11  O   UNL     1      40.245  16.426  31.493  1.00  0.00    -0.550 OA
ATOM     12  O   UNL     1      40.859  17.824  29.783  1.00  0.00    -0.550 OA
ENDBRANCH   9  10
ENDBRANCH   8   9
ENDBRANCH   7   8
ENDBRANCH   6   7
ENDBRANCH   5   6
ENDBRANCH   4   5
ENDBRANCH   3   4
ENDBRANCH   1   3
BRANCH   2  13
ATOM     13  C   UNL     1      37.332  17.751  29.076  1.00  0.00     0.027 C 
BRANCH  13  14
ATOM     14  C   UNL     1      36.218  18.328  28.190  1.00  0.00     0.004 C 
BRANCH  14  15
ATOM     15  C   UNL     1      35.722  17.312  27.149  1.00  0.00     0.000 C 
BRANCH  15  16
ATOM     16  C   UNL     1      34.188  17.252  27.128  1.00  0.00     0.000 C 
BRANCH  16  17
ATOM     17  C   UNL     1      33.633  15.939  27.711  1.00  0.00    -0.000 C 
BRANCH  17  18
ATOM     18  C   UNL     1      33.413  15.942  29.238  1.00  0.00    -0.000 C 
BRANCH  18  19
ATOM     19  C   UNL     1      34.015  14.738  29.983  1.00  0.00    -0.003 C 
ATOM     20  C   UNL     1      35.391  14.336  29.453  1.00  0.00     0.004 C 
ENDBRANCH  18  19
ENDBRANCH  17  18
ENDBRANCH  16  17
ENDBRANCH  15  16
ENDBRANCH  14  15
ENDBRANCH  13  14
ENDBRANCH   2  13
TORSDOF 15
ENDMDL
MODEL 6
REMARK VINA RESULT:    -4.929      0.930      1.336
REMARK INTER + INTRA:         -11.714
REMARK INTER:                  -8.776
REMARK INTRA:                  -2.939
REMARK UNBOUND:                -2.462
REMARK SMILES CCCCCCCCC=CCCCCCCCC(=O)[O-]
REMARK SMILES IDX 10 1 9 2 11 3 12 4 13 5 14 6 15 7 16 8 17 9 18 10 19 11
REMARK SMILES IDX 20 12 8 13 7 14 6 15 5 16 4 17 3 18 2 19 1 20
REMARK H PARENT
REMARK Flexibility Score: inf
ROOT
ATOM      1  C   UNL     1      38.687  19.422  31.344  1.00  0.00    -0.031 C 
ATOM      2  C   UNL     1      37.413  19.301  30.941  1.00  0.00    -0.031 C 
ENDROOT
BRANCH   1   3
ATOM      3  C   UNL     1      39.048  20.117  32.630  1.00  0.00     0.027 C 
BRANCH   3   4
ATOM      4  C   UNL     1      39.954  19.244  33.507  1.00  0.00     0.004 C 
BRANCH   4   5
ATOM      5  C   UNL     1      40.423  17.976  32.771  1.00  0.00     0.000 C 
BRANCH   5   6
ATOM      6  C   UNL     1      39.873  16.687  33.404  1.00  0.00     0.000 C 
BRANCH   6   7
ATOM      7  C   UNL     1      38.922  15.931  32.461  1.00  0.00     0.000 C 
BRANCH   7   8
ATOM      8  C   UNL     1      37.442  16.166  32.803  1.00  0.00     0.006 C 
BRANCH   8   9
ATOM      9  C   UNL     1      37.241  16.708  34.225  1.00  0.00     0.053 C 
BRANCH   9  10
ATOM     10  C   UNL     1      36.297  17.869  34.210  1.00  0.00     0.041 C 
ATOM     11  O   UNL     1      36.538  18.890  34.907  1.00  0.00    -0.550 OA
ATOM     12  O   UNL     1      35.122  17.800  33.470  1.00  0.00    -0.550 OA
ENDBRANCH   9  10
ENDBRANCH   8   9
ENDBRANCH   7   8
ENDBRANCH   6   7
ENDBRANCH   5   6
ENDBRANCH   4   5
ENDBRANCH   3   4
ENDBRANCH   1   3
BRANCH   2  13
ATOM     13  C   UNL     1      37.051  18.571  29.675  1.00  0.00     0.027 C 
BRANCH  13  14
ATOM     14  C   UNL     1      38.100  17.517  29.290  1.00  0.00     0.004 C 
BRANCH  14  15
ATOM     15  C   UNL     1      37.526  16.446  28.351  1.00  0.00     0.000 C 
BRANCH  15  16
ATOM     16  C   UNL     1      37.230  15.148  29.116  1.00  0.00     0.000 C 
BRANCH  16  17
ATOM     17  C   UNL     1      35.795  14.635  28.890  1.00  0.00    -0.000 C 
BRANCH  17  18
ATOM     18  C   UNL     1      34.852  14.773  30.102  1.00  0.00    -0.000 C 
BRANCH  18  19
ATOM     19  C   UNL     1      33.590  15.617  29.852  1.00  0.00    -0.003 C 
ATOM     20  C   UNL     1      33.785  17.094  30.194  1.00  0.00     0.004 C 
ENDBRANCH  18  19
ENDBRANCH  17  18
ENDBRANCH  16  17
ENDBRANCH  15  16
ENDBRANCH  14  15
ENDBRANCH  13  14
ENDBRANCH   2  13
TORSDOF 15
ENDMDL
MODEL 7
REMARK VINA RESULT:    -4.894      1.184      5.247
REMARK INTER + INTRA:         -11.647
REMARK INTER:                  -8.910
REMARK INTRA:                  -2.737
REMARK UNBOUND:                -2.462
REMARK SMILES CCCCCCCCC=CCCCCCCCC(=O)[O-]
REMARK SMILES IDX 10 1 9 2 11 3 12 4 13 5 14 6 15 7 16 8 17 9 18 10 19 11
REMARK SMILES IDX 20 12 8 13 7 14 6 15 5 16 4 17 3 18 2 19 1 20
REMARK H PARENT
REMARK Flexibility Score: inf
ROOT
ATOM      1  C   UNL     1      37.954  17.399  29.035  1.00  0.00    -0.031 C 
ATOM      2  C   UNL     1      37.847  18.551  29.714  1.00  0.00    -0.031 C 
ENDROOT
BRANCH   1   3
ATOM      3  C   UNL     1      37.050  17.078  27.874  1.00  0.00     0.027 C 
BRANCH   3   4
ATOM      4  C   UNL     1      35.652  16.661  28.348  1.00  0.00     0.004 C 
BRANCH   4   5
ATOM      5  C   UNL     1      35.709  15.559  29.421  1.00  0.00     0.000 C 
BRANCH   5   6
ATOM      6  C   UNL     1      34.696  15.785  30.555  1.00  0.00     0.000 C 
BRANCH   6   7
ATOM      7  C   UNL     1      33.958  17.129  30.424  1.00  0.00     0.000 C 
BRANCH   7   8
ATOM      8  C   UNL     1      34.427  18.162  31.461  1.00  0.00     0.006 C 
BRANCH   8   9
ATOM      9  C   UNL     1      35.208  17.528  32.619  1.00  0.00     0.053 C 
BRANCH   9  10
ATOM     10  C   UNL     1      34.683  18.018  33.931  1.00  0.00     0.041 C 
ATOM     11  O   UNL     1      33.469  18.336  34.050  1.00  0.00    -0.550 OA
ATOM     12  O   UNL     1      35.545  18.177  35.010  1.00  0.00    -0.550 OA
ENDBRANCH   9  10
ENDBRANCH   8   9
ENDBRANCH   7   8
ENDBRANCH   6   7
ENDBRANCH   5   6
ENDBRANCH   4   5
ENDBRANCH   3   4
ENDBRANCH   1   3
BRANCH   2  13
ATOM     13  C   UNL     1      38.778  18.887  30.849  1.00  0.00     0.027 C 
BRANCH  13  14
ATOM     14  C   UNL     1      38.076  19.676  31.964  1.00  0.00     0.004 C 
BRANCH  14  15
ATOM     15  C   UNL     1      38.533  19.231  33.362  1.00  0.00     0.000 C 
BRANCH  15  16
ATOM     16  C   UNL     1      40.057  19.051  33.411  1.00  0.00     0.000 C 
BRANCH  16  17
ATOM     17  C   UNL     1      40.478  17.655  33.908  1.00  0.00    -0.000 C 
BRANCH  17  18
ATOM     18  C   UNL     1      40.619  16.584  32.807  1.00  0.00    -0.000 C 
BRANCH  18  19
ATOM     19  C   UNL     1      39.689  15.368  32.960  1.00  0.00    -0.003 C 
ATOM     20  C   UNL     1      38.326  15.574  32.299  1.00  0.00     0.004 C 
ENDBRANCH  18  19
ENDBRANCH  17  18
ENDBRANCH  16  17
ENDBRANCH  15  16
ENDBRANCH  14  15
ENDBRANCH  13  14
ENDBRANCH   2  13
TORSDOF 15
ENDMDL
MODEL 8
REMARK VINA RESULT:    -4.892      2.012      5.226
REMARK INTER + INTRA:         -11.644
REMARK INTER:                  -8.672
REMARK INTRA:                  -2.972
REMARK UNBOUND:                -2.462
REMARK SMILES CCCCCCCCC=CCCCCCCCC(=O)[O-]
REMARK SMILES IDX 10 1 9 2 11 3 12 4 13 5 14 6 15 7 16 8 17 9 18 10 19 11
REMARK SMILES IDX 20 12 8 13 7 14 6 15 5 16 4 17 3 18 2 19 1 20
REMARK H PARENT
REMARK Flexibility Score: inf
ROOT
ATOM      1  C   UNL     1      37.500  19.266  30.926  1.00  0.00    -0.031 C 
ATOM      2  C   UNL     1      38.817  19.371  31.155  1.00  0.00    -0.031 C 
ENDROOT
BRANCH   1   3
ATOM      3  C   UNL     1      36.958  18.440  29.789  1.00  0.00     0.027 C 
BRANCH   3   4
ATOM      4  C   UNL     1      37.996  17.431  29.281  1.00  0.00     0.004 C 
BRANCH   4   5
ATOM      5  C   UNL     1      37.339  16.217  28.601  1.00  0.00     0.000 C 
BRANCH   5   6
ATOM      6  C   UNL     1      37.418  14.944  29.460  1.00  0.00     0.000 C 
BRANCH   6   7
ATOM      7  C   UNL     1      36.098  14.154  29.459  1.00  0.00     0.000 C 
BRANCH   7   8
ATOM      8  C   UNL     1      35.075  14.713  30.461  1.00  0.00     0.006 C 
BRANCH   8   9
ATOM      9  C   UNL     1      33.720  15.028  29.813  1.00  0.00     0.053 C 
BRANCH   9  10
ATOM     10  C   UNL     1      33.646  16.474  29.437  1.00  0.00     0.041 C 
ATOM     11  O   UNL     1      33.613  16.813  28.225  1.00  0.00    -0.550 OA
ATOM     12  O   UNL     1      33.667  17.451  30.426  1.00  0.00    -0.550 OA
ENDBRANCH   9  10
ENDBRANCH   8   9
ENDBRANCH   7   8
ENDBRANCH   6   7
ENDBRANCH   5   6
ENDBRANCH   4   5
ENDBRANCH   3   4
ENDBRANCH   1   3
BRANCH   2  13
ATOM     13  C   UNL     1      39.355  20.165  32.316  1.00  0.00     0.027 C 
BRANCH  13  14
ATOM     14  C   UNL     1      39.693  19.277  33.523  1.00  0.00     0.004 C 
BRANCH  14  15
ATOM     15  C   UNL     1      40.495  18.032  33.118  1.00  0.00     0.000 C 
BRANCH  15  16
ATOM     16  C   UNL     1      39.863  16.759  33.699  1.00  0.00     0.000 C 
BRANCH  16  17
ATOM     17  C   UNL     1      38.981  16.011  32.682  1.00  0.00    -0.000 C 
BRANCH  17  18
ATOM     18  C   UNL     1      37.462  16.130  32.921  1.00  0.00    -0.000 C 
BRANCH  18  19
ATOM     19  C   UNL     1      37.063  16.753  34.270  1.00  0.00    -0.003 C 
ATOM     20  C   UNL     1      36.164  17.980  34.117  1.00  0.00     0.004 C 
ENDBRANCH  18  19
ENDBRANCH  17  18
ENDBRANCH  16  17
ENDBRANCH  15  16
ENDBRANCH  14  15
ENDBRANCH  13  14
ENDBRANCH   2  13
TORSDOF 15
ENDMDL
MODEL 9
REMARK VINA RESULT:    -4.822      1.620      2.674
REMARK INTER + INTRA:         -11.513
REMARK INTER:                  -9.219
REMARK INTRA:                  -2.294
REMARK UNBOUND:                -2.462
REMARK SMILES CCCCCCCCC=CCCCCCCCC(=O)[O-]
REMARK SMILES IDX 10 1 9 2 11 3 12 4 13 5 14 6 15 7 16 8 17 9 18 10 19 11
REMARK SMILES IDX 20 12 8 13 7 14 6 15 5 16 4 17 3 18 2 19 1 20
REMARK H PARENT
REMARK Flexibility Score: inf
ROOT
ATOM      1  C   UNL     1      37.696  17.813  29.981  1.00  0.00    -0.031 C 
ATOM      2  C   UNL     1      37.324  17.995  28.705  1.00  0.00    -0.031 C 
ENDROOT
BRANCH   1   3
ATOM      3  C   UNL     1      39.146  17.748  30.381  1.00  0.00     0.027 C 
BRANCH   3   4
ATOM      4  C   UNL     1      39.597  19.038  31.077  1.00  0.00     0.004 C 
BRANCH   4   5
ATOM      5  C   UNL     1      38.435  19.740  31.802  1.00  0.00     0.000 C 
BRANCH   5   6
ATOM      6  C   UNL     1      38.499  19.565  33.329  1.00  0.00     0.000 C 
BRANCH   6   7
ATOM      7  C   UNL     1      38.066  18.158  33.776  1.00  0.00     0.000 C 
BRANCH   7   8
ATOM      8  C   UNL     1      36.564  18.075  34.090  1.00  0.00     0.006 C 
BRANCH   8   9
ATOM      9  C   UNL     1      35.765  17.366  32.988  1.00  0.00     0.053 C 
BRANCH   9  10
ATOM     10  C   UNL     1      34.446  18.043  32.784  1.00  0.00     0.041 C 
ATOM     11  O   UNL     1      33.697  18.280  33.769  1.00  0.00    -0.550 OA
ATOM     12  O   UNL     1      34.020  18.363  31.500  1.00  0.00    -0.550 OA
ENDBRANCH   9  10
ENDBRANCH   8   9
ENDBRANCH   7   8
ENDBRANCH   6   7
ENDBRANCH   5   6
ENDBRANCH   4   5
ENDBRANCH   3   4
ENDBRANCH   1   3
BRANCH   2  13
ATOM     13  C   UNL     1      35.873  18.099  28.313  1.00  0.00     0.027 C 
BRANCH  13  14
ATOM     14  C   UNL     1      35.519  17.174  27.140  1.00  0.00     0.004 C 
BRANCH  14  15
ATOM     15  C   UNL     1      34.003  16.966  27.004  1.00  0.00     0.000 C 
BRANCH  15  16
ATOM     16  C   UNL     1      33.567  15.656  27.676  1.00  0.00     0.000 C 
BRANCH  16  17
ATOM     17  C   UNL     1      33.264  15.824  29.177  1.00  0.00    -0.000 C 
BRANCH  17  18
ATOM     18  C   UNL     1      34.120  14.954  30.119  1.00  0.00    -0.000 C 
BRANCH  18  19
ATOM     19  C   UNL     1      35.438  14.442  29.513  1.00  0.00    -0.003 C 
ATOM     20  C   UNL     1      36.559  14.318  30.543  1.00  0.00     0.004 C 
ENDBRANCH  18  19
ENDBRANCH  17  18
ENDBRANCH  16  17
ENDBRANCH  15  16
ENDBRANCH  14  15
ENDBRANCH  13  14
ENDBRANCH   2  13
TORSDOF 15
ENDMDL
