MODEL 1
REMARK VINA RESULT:    -2.378      0.000      0.000
REMARK INTER + INTRA:          -2.378
REMARK INTER:                  -2.378
REMARK INTRA:                   0.000
REMARK UNBOUND:                 0.000
REMARK SMILES CC(=O)[O-]
REMARK SMILES IDX 1 1 2 2 3 3 4 4
REMARK H PARENT
REMARK Flexibility Score: inf
ROOT
ATOM      1  C   UNL     1     -14.580   0.684   9.100  1.00  0.00     0.063 C 
ATOM      2  C   UNL     1     -14.168  -0.710   8.771  1.00  0.00     0.038 C 
ATOM      3  O   UNL     1     -14.564  -1.670   9.483  1.00  0.00    -0.550 OA
ATOM      4  O   UNL     1     -13.301  -0.949   7.713  1.00  0.00    -0.550 OA
ENDROOT
TORSDOF 0
ENDMDL
MODEL 2
REMARK VINA RESULT:    -2.317      1.835      2.283
REMARK INTER + INTRA:          -2.317
REMARK INTER:                  -2.317
REMARK INTRA:                   0.000
REMARK UNBOUND:                 0.000
REMARK SMILES CC(=O)[O-]
REMARK SMILES IDX 1 1 2 2 3 3 4 4
REMARK H PARENT
REMARK Flexibility Score: inf
ROOT
ATOM      1  C   UNL     1     -12.301  -1.328   8.166  1.00  0.00     0.063 C 
ATOM      2  C   UNL     1     -13.180  -1.584   9.343  1.00  0.00     0.038 C 
ATOM      3  O   UNL     1     -12.678  -1.954  10.437  1.00  0.00    -0.550 OA
ATOM      4  O   UNL     1     -14.558  -1.468   9.220  1.00  0.00    -0.550 OA
ENDROOT
TORSDOF 0
ENDMDL
MODEL 3
REMARK VINA RESULT:    -2.271     10.767     11.203
REMARK INTER + INTRA:          -2.271
REMARK INTER:                  -2.271
REMARK INTRA:                   0.000
REMARK UNBOUND:                 0.000
REMARK SMILES CC(=O)[O-]
REMARK SMILES IDX 1 1 2 2 3 3 4 4
REMARK H PARENT
REMARK Flexibility Score: inf
ROOT
ATOM      1  C   UNL     1     -11.595  11.122   5.974  1.00  0.00     0.063 C 
ATOM      2  C   UNL     1     -12.355  10.009   6.610  1.00  0.00     0.038 C 
ATOM      3  O   UNL     1     -13.112   9.283   5.913  1.00  0.00    -0.550 OA
ATOM      4  O   UNL     1     -12.274   9.804   7.981  1.00  0.00    -0.550 OA
ENDROOT
TORSDOF 0
ENDMDL
MODEL 4
REMARK VINA RESULT:    -2.264     11.564     12.101
REMARK INTER + INTRA:          -2.264
REMARK INTER:                  -2.264
REMARK INTRA:                   0.000
REMARK UNBOUND:                 0.000
REMARK SMILES CC(=O)[O-]
REMARK SMILES IDX 1 1 2 2 3 3 4 4
REMARK H PARENT
REMARK Flexibility Score: inf
ROOT
ATOM      1  C   UNL     1     -11.685  11.252   7.124  1.00  0.00     0.063 C 
ATOM      2  C   UNL     1     -12.870  11.215   8.027  1.00  0.00     0.038 C 
ATOM      3  O   UNL     1     -13.274  12.271   8.582  1.00  0.00    -0.550 OA
ATOM      4  O   UNL     1     -13.498  10.008   8.303  1.00  0.00    -0.550 OA
ENDROOT
TORSDOF 0
ENDMDL
MODEL 5
REMARK VINA RESULT:    -2.251     10.726     11.090
REMARK INTER + INTRA:          -2.251
REMARK INTER:                  -2.251
REMARK INTRA:                   0.000
REMARK UNBOUND:                 0.000
REMARK SMILES CC(=O)[O-]
REMARK SMILES IDX 1 1 2 2 3 3 4 4
REMARK H PARENT
REMARK Flexibility Score: inf
ROOT
ATOM      1  C   UNL     1     -11.571  11.148   6.257  1.00  0.00     0.063 C 
ATOM      2  C   UNL     1     -12.376  10.000   6.762  1.00  0.00     0.038 C 
ATOM      3  O   UNL     1     -12.337   9.689   7.981  1.00  0.00    -0.550 OA
ATOM      4  O   UNL     1     -13.130   9.236   5.880  1.00  0.00    -0.550 OA
ENDROOT
TORSDOF 0
ENDMDL
MODEL 6
REMARK VINA RESULT:    -2.242     11.264     11.802
REMARK INTER + INTRA:          -2.242
REMARK INTER:                  -2.242
REMARK INTRA:                   0.000
REMARK UNBOUND:                 0.000
REMARK SMILES CC(=O)[O-]
REMARK SMILES IDX 1 1 2 2 3 3 4 4
REMARK H PARENT
REMARK Flexibility Score: inf
ROOT
ATOM      1  C   UNL     1     -11.633  11.200   7.591  1.00  0.00     0.063 C 
ATOM      2  C   UNL     1     -11.919  10.587   6.263  1.00  0.00     0.038 C 
ATOM      3  O   UNL     1     -12.693   9.598   6.177  1.00  0.00    -0.550 OA
ATOM      4  O   UNL     1     -11.290  11.071   5.123  1.00  0.00    -0.550 OA
ENDROOT
TORSDOF 0
ENDMDL
MODEL 7
REMARK VINA RESULT:    -2.240      1.799      2.056
REMARK INTER + INTRA:          -2.240
REMARK INTER:                  -2.240
REMARK INTRA:                   0.000
REMARK UNBOUND:                 0.000
REMARK SMILES CC(=O)[O-]
REMARK SMILES IDX 1 1 2 2 3 3 4 4
REMARK H PARENT
REMARK Flexibility Score: inf
ROOT
ATOM      1  C   UNL     1     -12.750  -1.561   9.933  1.00  0.00     0.063 C 
ATOM      2  C   UNL     1     -12.889  -1.157   8.505  1.00  0.00     0.038 C 
ATOM      3  O   UNL     1     -13.884  -0.479   8.135  1.00  0.00    -0.550 OA
ATOM      4  O   UNL     1     -11.952  -1.573   7.569  1.00  0.00    -0.550 OA
ENDROOT
TORSDOF 0
ENDMDL
MODEL 8
REMARK VINA RESULT:    -2.214      1.652      2.255
REMARK INTER + INTRA:          -2.214
REMARK INTER:                  -2.214
REMARK INTRA:                   0.000
REMARK UNBOUND:                 0.000
REMARK SMILES CC(=O)[O-]
REMARK SMILES IDX 1 1 2 2 3 3 4 4
REMARK H PARENT
REMARK Flexibility Score: inf
ROOT
ATOM      1  C   UNL     1     -14.149  -0.604   8.818  1.00  0.00     0.063 C 
ATOM      2  C   UNL     1     -12.758  -1.071   9.077  1.00  0.00     0.038 C 
ATOM      3  O   UNL     1     -12.071  -1.558   8.141  1.00  0.00    -0.550 OA
ATOM      4  O   UNL     1     -12.234  -1.021  10.362  1.00  0.00    -0.550 OA
ENDROOT
TORSDOF 0
ENDMDL
MODEL 9
REMARK VINA RESULT:    -2.150      9.032      9.538
REMARK INTER + INTRA:          -2.150
REMARK INTER:                  -2.150
REMARK INTRA:                   0.000
REMARK UNBOUND:                 0.000
REMARK SMILES CC(=O)[O-]
REMARK SMILES IDX 1 1 2 2 3 3 4 4
REMARK H PARENT
REMARK Flexibility Score: inf
ROOT
ATOM      1  C   UNL     1     -12.636   9.541   6.557  1.00  0.00     0.063 C 
ATOM      2  C   UNL     1     -13.525   8.636   7.338  1.00  0.00     0.038 C 
ATOM      3  O   UNL     1     -13.924   8.976   8.483  1.00  0.00    -0.550 OA
ATOM      4  O   UNL     1     -13.871   7.391   6.830  1.00  0.00    -0.550 OA
ENDROOT
TORSDOF 0
ENDMDL
