MODEL 1
REMARK VINA RESULT:    -3.911      0.000      0.000
REMARK INTER + INTRA:          -6.085
REMARK INTER:                  -5.739
REMARK INTRA:                  -0.346
REMARK UNBOUND:                -0.346
REMARK SMILES O=C([O-])CCCCCCCC(=O)[O-]
REMARK SMILES IDX 7 1 6 2 5 3 4 4 2 5 1 6 3 7 8 8 9 9 10 10 11 11 12 12 13 13
REMARK H PARENT
REMARK Flexibility Score: inf
ROOT
ATOM      1  C   UNL     1      40.994  51.345   8.878  1.00  0.00     0.000 C 
ENDROOT
BRANCH   1   2
ATOM      2  C   UNL     1      42.416  50.953   8.447  1.00  0.00     0.000 C 
BRANCH   2   3
ATOM      3  C   UNL     1      42.660  49.435   8.522  1.00  0.00     0.006 C 
BRANCH   3   4
ATOM      4  C   UNL     1      44.152  49.085   8.452  1.00  0.00     0.053 C 
BRANCH   4   5
ATOM      5  C   UNL     1      44.434  47.727   9.017  1.00  0.00     0.041 C 
ATOM      6  O   UNL     1      44.490  46.724   8.258  1.00  0.00    -0.550 OA
ATOM      7  O   UNL     1      44.665  47.573  10.378  1.00  0.00    -0.550 OA
ENDBRANCH   4   5
ENDBRANCH   3   4
ENDBRANCH   2   3
ENDBRANCH   1   2
BRANCH   1   8
ATOM      8  C   UNL     1      40.835  52.861   9.093  1.00  0.00     0.000 C 
BRANCH   8   9
ATOM      9  C   UNL     1      41.507  53.687   7.985  1.00  0.00     0.006 C 
BRANCH   9  10
ATOM     10  C   UNL     1      42.588  54.630   8.526  1.00  0.00     0.053 C 
BRANCH  10  11
ATOM     11  C   UNL     1      43.898  54.364   7.854  1.00  0.00     0.041 C 
ATOM     12  O   UNL     1      43.927  53.842   6.708  1.00  0.00    -0.550 OA
ATOM     13  O   UNL     1      45.088  54.645   8.513  1.00  0.00    -0.550 OA
ENDBRANCH  10  11
ENDBRANCH   9  10
ENDBRANCH   8   9
ENDBRANCH   1   8
TORSDOF 8
ENDMDL
MODEL 2
REMARK VINA RESULT:    -3.810     19.186     20.687
REMARK INTER + INTRA:          -5.937
REMARK INTER:                  -5.472
REMARK INTRA:                  -0.465
REMARK UNBOUND:                -0.346
REMARK SMILES O=C([O-])CCCCCCCC(=O)[O-]
REMARK SMILES IDX 7 1 6 2 5 3 4 4 2 5 1 6 3 7 8 8 9 9 10 10 11 11 12 12 13 13
REMARK H PARENT
REMARK Flexibility Score: inf
ROOT
ATOM      1  C   UNL     1      33.455  52.797  25.363  1.00  0.00     0.000 C 
ENDROOT
BRANCH   1   2
ATOM      2  C   UNL     1      32.331  53.769  25.753  1.00  0.00     0.000 C 
BRANCH   2   3
ATOM      3  C   UNL     1      31.164  53.756  24.750  1.00  0.00     0.006 C 
BRANCH   3   4
ATOM      4  C   UNL     1      29.901  53.115  25.340  1.00  0.00     0.053 C 
BRANCH   4   5
ATOM      5  C   UNL     1      29.778  51.672  24.960  1.00  0.00     0.041 C 
ATOM      6  O   UNL     1      29.086  50.888  25.663  1.00  0.00    -0.550 OA
ATOM      7  O   UNL     1      30.401  51.198  23.812  1.00  0.00    -0.550 OA
ENDBRANCH   4   5
ENDBRANCH   3   4
ENDBRANCH   2   3
ENDBRANCH   1   2
BRANCH   1   8
ATOM      8  C   UNL     1      33.303  51.416  26.026  1.00  0.00     0.000 C 
BRANCH   8   9
ATOM      9  C   UNL     1      34.245  50.363  25.420  1.00  0.00     0.006 C 
BRANCH   9  10
ATOM     10  C   UNL     1      33.491  49.150  24.862  1.00  0.00     0.053 C 
BRANCH  10  11
ATOM     11  C   UNL     1      34.176  47.881  25.260  1.00  0.00     0.041 C 
ATOM     12  O   UNL     1      33.501  46.892  25.649  1.00  0.00    -0.550 OA
ATOM     13  O   UNL     1      35.563  47.807  25.249  1.00  0.00    -0.550 OA
ENDBRANCH  10  11
ENDBRANCH   9  10
ENDBRANCH   8   9
ENDBRANCH   1   8
TORSDOF 8
ENDMDL
MODEL 3
REMARK VINA RESULT:    -3.663     19.375     20.903
REMARK INTER + INTRA:          -5.722
REMARK INTER:                  -5.265
REMARK INTRA:                  -0.457
REMARK UNBOUND:                -0.346
REMARK SMILES O=C([O-])CCCCCCCC(=O)[O-]
REMARK SMILES IDX 7 1 6 2 5 3 4 4 2 5 1 6 3 7 8 8 9 9 10 10 11 11 12 12 13 13
REMARK H PARENT
REMARK Flexibility Score: inf
ROOT
ATOM      1  C   UNL     1      34.066  50.669  26.042  1.00  0.00     0.000 C 
ENDROOT
BRANCH   1   2
ATOM      2  C   UNL     1      32.885  51.519  25.548  1.00  0.00     0.000 C 
BRANCH   2   3
ATOM      3  C   UNL     1      32.012  50.778  24.519  1.00  0.00     0.006 C 
BRANCH   3   4
ATOM      4  C   UNL     1      30.836  51.636  24.035  1.00  0.00     0.053 C 
BRANCH   4   5
ATOM      5  C   UNL     1      29.813  51.839  25.110  1.00  0.00     0.041 C 
ATOM      6  O   UNL     1      29.323  52.982  25.309  1.00  0.00    -0.550 OA
ATOM      7  O   UNL     1      29.379  50.761  25.872  1.00  0.00    -0.550 OA
ENDBRANCH   4   5
ENDBRANCH   3   4
ENDBRANCH   2   3
ENDBRANCH   1   2
BRANCH   1   8
ATOM      8  C   UNL     1      34.585  49.694  24.969  1.00  0.00     0.000 C 
BRANCH   8   9
ATOM      9  C   UNL     1      34.779  48.269  25.511  1.00  0.00     0.006 C 
BRANCH   9  10
ATOM     10  C   UNL     1      33.448  47.548  25.761  1.00  0.00     0.053 C 
BRANCH  10  11
ATOM     11  C   UNL     1      33.574  46.093  25.438  1.00  0.00     0.041 C 
ATOM     12  O   UNL     1      34.558  45.433  25.863  1.00  0.00    -0.550 OA
ATOM     13  O   UNL     1      32.631  45.477  24.626  1.00  0.00    -0.550 OA
ENDBRANCH  10  11
ENDBRANCH   9  10
ENDBRANCH   8   9
ENDBRANCH   1   8
TORSDOF 8
ENDMDL
MODEL 4
REMARK VINA RESULT:    -3.578     12.780     14.413
REMARK INTER + INTRA:          -5.598
REMARK INTER:                  -4.801
REMARK INTRA:                  -0.797
REMARK UNBOUND:                -0.346
REMARK SMILES O=C([O-])CCCCCCCC(=O)[O-]
REMARK SMILES IDX 7 1 6 2 5 3 4 4 2 5 1 6 3 7 8 8 9 9 10 10 11 11 12 12 13 13
REMARK H PARENT
REMARK Flexibility Score: inf
ROOT
ATOM      1  C   UNL     1      31.237  46.147   8.344  1.00  0.00     0.000 C 
ENDROOT
BRANCH   1   2
ATOM      2  C   UNL     1      31.743  47.590   8.189  1.00  0.00     0.000 C 
BRANCH   2   3
ATOM      3  C   UNL     1      31.696  48.080   6.731  1.00  0.00     0.006 C 
BRANCH   3   4
ATOM      4  C   UNL     1      30.977  49.429   6.597  1.00  0.00     0.053 C 
BRANCH   4   5
ATOM      5  C   UNL     1      31.546  50.459   7.522  1.00  0.00     0.041 C 
ATOM      6  O   UNL     1      32.741  50.835   7.394  1.00  0.00    -0.550 OA
ATOM      7  O   UNL     1      30.748  51.028   8.508  1.00  0.00    -0.550 OA
ENDBRANCH   4   5
ENDBRANCH   3   4
ENDBRANCH   2   3
ENDBRANCH   1   2
BRANCH   1   8
ATOM      8  C   UNL     1      30.190  45.768   7.281  1.00  0.00     0.000 C 
BRANCH   8   9
ATOM      9  C   UNL     1      28.754  45.809   7.828  1.00  0.00     0.006 C 
BRANCH   9  10
ATOM     10  C   UNL     1      28.077  47.167   7.604  1.00  0.00     0.053 C 
BRANCH  10  11
ATOM     11  C   UNL     1      27.786  47.827   8.914  1.00  0.00     0.041 C 
ATOM     12  O   UNL     1      26.651  47.707   9.446  1.00  0.00    -0.550 OA
ATOM     13  O   UNL     1      28.752  48.619   9.523  1.00  0.00    -0.550 OA
ENDBRANCH  10  11
ENDBRANCH   9  10
ENDBRANCH   8   9
ENDBRANCH   1   8
TORSDOF 8
ENDMDL
MODEL 5
REMARK VINA RESULT:    -3.570     11.876     13.210
REMARK INTER + INTRA:          -5.585
REMARK INTER:                  -4.753
REMARK INTRA:                  -0.832
REMARK UNBOUND:                -0.346
REMARK SMILES O=C([O-])CCCCCCCC(=O)[O-]
REMARK SMILES IDX 7 1 6 2 5 3 4 4 2 5 1 6 3 7 8 8 9 9 10 10 11 11 12 12 13 13
REMARK H PARENT
REMARK Flexibility Score: inf
ROOT
ATOM      1  C   UNL     1      31.952  47.801   8.128  1.00  0.00     0.000 C 
ENDROOT
BRANCH   1   2
ATOM      2  C   UNL     1      30.977  46.933   8.939  1.00  0.00     0.000 C 
BRANCH   2   3
ATOM      3  C   UNL     1      29.514  47.120   8.499  1.00  0.00     0.006 C 
BRANCH   3   4
ATOM      4  C   UNL     1      28.774  48.143   9.370  1.00  0.00     0.053 C 
BRANCH   4   5
ATOM      5  C   UNL     1      28.733  49.496   8.730  1.00  0.00     0.041 C 
ATOM      6  O   UNL     1      29.354  50.461   9.247  1.00  0.00    -0.550 OA
ATOM      7  O   UNL     1      28.032  49.685   7.545  1.00  0.00    -0.550 OA
ENDBRANCH   4   5
ENDBRANCH   3   4
ENDBRANCH   2   3
ENDBRANCH   1   2
BRANCH   1   8
ATOM      8  C   UNL     1      31.472  48.046   6.687  1.00  0.00     0.000 C 
BRANCH   8   9
ATOM      9  C   UNL     1      31.549  49.527   6.282  1.00  0.00     0.006 C 
BRANCH   9  10
ATOM     10  C   UNL     1      32.328  50.375   7.296  1.00  0.00     0.053 C 
BRANCH  10  11
ATOM     11  C   UNL     1      32.092  51.831   7.050  1.00  0.00     0.041 C 
ATOM     12  O   UNL     1      30.923  52.260   6.859  1.00  0.00    -0.550 OA
ATOM     13  O   UNL     1      33.167  52.708   6.980  1.00  0.00    -0.550 OA
ENDBRANCH  10  11
ENDBRANCH   9  10
ENDBRANCH   8   9
ENDBRANCH   1   8
TORSDOF 8
ENDMDL
MODEL 6
REMARK VINA RESULT:    -3.523     19.110     20.562
REMARK INTER + INTRA:          -5.517
REMARK INTER:                  -4.968
REMARK INTRA:                  -0.549
REMARK UNBOUND:                -0.346
REMARK SMILES O=C([O-])CCCCCCCC(=O)[O-]
REMARK SMILES IDX 7 1 6 2 5 3 4 4 2 5 1 6 3 7 8 8 9 9 10 10 11 11 12 12 13 13
REMARK H PARENT
REMARK Flexibility Score: inf
ROOT
ATOM      1  C   UNL     1      32.811  50.183  24.627  1.00  0.00     0.000 C 
ENDROOT
BRANCH   1   2
ATOM      2  C   UNL     1      31.891  50.309  25.852  1.00  0.00     0.000 C 
BRANCH   2   3
ATOM      3  C   UNL     1      30.901  51.480  25.730  1.00  0.00     0.006 C 
BRANCH   3   4
ATOM      4  C   UNL     1      31.081  52.254  24.418  1.00  0.00     0.053 C 
BRANCH   4   5
ATOM      5  C   UNL     1      31.640  53.624  24.650  1.00  0.00     0.041 C 
ATOM      6  O   UNL     1      32.753  53.766  25.221  1.00  0.00    -0.550 OA
ATOM      7  O   UNL     1      30.945  54.744  24.208  1.00  0.00    -0.550 OA
ENDBRANCH   4   5
ENDBRANCH   3   4
ENDBRANCH   2   3
ENDBRANCH   1   2
BRANCH   1   8
ATOM      8  C   UNL     1      34.301  50.330  24.985  1.00  0.00     0.000 C 
BRANCH   8   9
ATOM      9  C   UNL     1      34.736  49.372  26.105  1.00  0.00     0.006 C 
BRANCH   9  10
ATOM     10  C   UNL     1      35.492  48.148  25.573  1.00  0.00     0.053 C 
BRANCH  10  11
ATOM     11  C   UNL     1      34.686  46.906  25.778  1.00  0.00     0.041 C 
ATOM     12  O   UNL     1      33.440  46.981  25.950  1.00  0.00    -0.550 OA
ATOM     13  O   UNL     1      35.315  45.669  25.832  1.00  0.00    -0.550 OA
ENDBRANCH  10  11
ENDBRANCH   9  10
ENDBRANCH   8   9
ENDBRANCH   1   8
TORSDOF 8
ENDMDL
MODEL 7
REMARK VINA RESULT:    -3.513     19.237     20.358
REMARK INTER + INTRA:          -5.502
REMARK INTER:                  -5.195
REMARK INTRA:                  -0.307
REMARK UNBOUND:                -0.346
REMARK SMILES O=C([O-])CCCCCCCC(=O)[O-]
REMARK SMILES IDX 7 1 6 2 5 3 4 4 2 5 1 6 3 7 8 8 9 9 10 10 11 11 12 12 13 13
REMARK H PARENT
REMARK Flexibility Score: inf
ROOT
ATOM      1  C   UNL     1      31.828  50.626  24.275  1.00  0.00     0.000 C 
ENDROOT
BRANCH   1   2
ATOM      2  C   UNL     1      32.842  51.006  25.365  1.00  0.00     0.000 C 
BRANCH   2   3
ATOM      3  C   UNL     1      34.267  50.525  25.041  1.00  0.00     0.006 C 
BRANCH   3   4
ATOM      4  C   UNL     1      34.821  49.587  26.121  1.00  0.00     0.053 C 
BRANCH   4   5
ATOM      5  C   UNL     1      34.884  48.167  25.649  1.00  0.00     0.041 C 
ATOM      6  O   UNL     1      33.823  47.511  25.473  1.00  0.00    -0.550 OA
ATOM      7  O   UNL     1      36.111  47.578  25.375  1.00  0.00    -0.550 OA
ENDBRANCH   4   5
ENDBRANCH   3   4
ENDBRANCH   2   3
ENDBRANCH   1   2
BRANCH   1   8
ATOM      8  C   UNL     1      30.898  51.793  23.896  1.00  0.00     0.000 C 
BRANCH   8   9
ATOM      9  C   UNL     1      29.558  51.747  24.647  1.00  0.00     0.006 C 
BRANCH   9  10
ATOM     10  C   UNL     1      29.607  52.496  25.985  1.00  0.00     0.053 C 
BRANCH  10  11
ATOM     11  C   UNL     1      29.377  53.959  25.773  1.00  0.00     0.041 C 
ATOM     12  O   UNL     1      28.204  54.415  25.716  1.00  0.00    -0.550 OA
ATOM     13  O   UNL     1      30.457  54.812  25.588  1.00  0.00    -0.550 OA
ENDBRANCH  10  11
ENDBRANCH   9  10
ENDBRANCH   8   9
ENDBRANCH   1   8
TORSDOF 8
ENDMDL
MODEL 8
REMARK VINA RESULT:    -3.441     19.158     19.832
REMARK INTER + INTRA:          -5.397
REMARK INTER:                  -5.032
REMARK INTRA:                  -0.365
REMARK UNBOUND:                -0.346
REMARK SMILES O=C([O-])CCCCCCCC(=O)[O-]
REMARK SMILES IDX 7 1 6 2 5 3 4 4 2 5 1 6 3 7 8 8 9 9 10 10 11 11 12 12 13 13
REMARK H PARENT
REMARK Flexibility Score: inf
ROOT
ATOM      1  C   UNL     1      32.778  50.326  24.815  1.00  0.00     0.000 C 
ENDROOT
BRANCH   1   2
ATOM      2  C   UNL     1      34.254  50.470  25.219  1.00  0.00     0.000 C 
BRANCH   2   3
ATOM      3  C   UNL     1      34.929  49.114  25.487  1.00  0.00     0.006 C 
BRANCH   3   4
ATOM      4  C   UNL     1      33.944  47.944  25.367  1.00  0.00     0.053 C 
BRANCH   4   5
ATOM      5  C   UNL     1      34.589  46.634  25.700  1.00  0.00     0.041 C 
ATOM      6  O   UNL     1      33.880  45.621  25.939  1.00  0.00    -0.550 OA
ATOM      7  O   UNL     1      35.974  46.524  25.717  1.00  0.00    -0.550 OA
ENDBRANCH   4   5
ENDBRANCH   3   4
ENDBRANCH   2   3
ENDBRANCH   1   2
BRANCH   1   8
ATOM      8  C   UNL     1      31.935  51.557  25.193  1.00  0.00     0.000 C 
BRANCH   8   9
ATOM      9  C   UNL     1      32.783  52.831  25.336  1.00  0.00     0.006 C 
BRANCH   9  10
ATOM     10  C   UNL     1      31.992  54.001  25.936  1.00  0.00     0.053 C 
BRANCH  10  11
ATOM     11  C   UNL     1      30.864  54.385  25.033  1.00  0.00     0.041 C 
ATOM     12  O   UNL     1      31.094  54.740  23.846  1.00  0.00    -0.550 OA
ATOM     13  O   UNL     1      29.561  54.401  25.515  1.00  0.00    -0.550 OA
ENDBRANCH  10  11
ENDBRANCH   9  10
ENDBRANCH   8   9
ENDBRANCH   1   8
TORSDOF 8
ENDMDL
