MODEL 1
REMARK VINA RESULT:    -6.731      0.000      0.000
REMARK INTER + INTRA:          -6.731
REMARK INTER:                  -6.731
REMARK INTRA:                   0.000
REMARK UNBOUND:                 0.000
REMARK SMILES C[NH+]1CCN(C2=[NH+]c3ccccc3Oc3ccc(Cl)cc32)CC1
REMARK SMILES IDX 7 1 6 2 21 3 5 4 8 5 9 6 13 7 10 8 12 9 14 10 11 11 15 12
REMARK SMILES IDX 16 13 17 14 18 15 20 16 19 17 4 18 22 19 3 20 23 21 2 22
REMARK SMILES IDX 1 23
REMARK H PARENT 7 24 2 25
REMARK Flexibility Score: inf
ROOT
ATOM      1  N   UNL     1     101.626 115.353  88.887  1.00  0.00    -0.237 N 
ATOM      2  C   UNL     1     102.228 115.347  90.047  1.00  0.00     0.286 C 
ATOM      3  C   UNL     1     103.603 114.820  90.258  1.00  0.00     0.108 A 
ATOM      4  N   UNL     1     101.509 115.851  91.190  1.00  0.00    -0.250 N 
ATOM      5  C   UNL     1     102.144 114.890  87.629  1.00  0.00     0.168 A 
ATOM      6  C   UNL     1     101.239 114.352  86.696  1.00  0.00     0.056 A 
ATOM      7  C   UNL     1     103.474 115.133  87.226  1.00  0.00     0.173 A 
ATOM      8  C   UNL     1     101.647 114.052  85.395  1.00  0.00     0.005 A 
ATOM      9  C   UNL     1     103.865 114.861  85.909  1.00  0.00     0.052 A 
ATOM     10  O   UNL     1     104.433 115.636  88.100  1.00  0.00    -0.452 OA
ATOM     11  C   UNL     1     102.959 114.315  84.999  1.00  0.00     0.004 A 
ATOM     12  C   UNL     1     104.654 115.077  89.355  1.00  0.00     0.143 A 
ATOM     13  C   UNL     1     105.971 114.752  89.703  1.00  0.00     0.049 A 
ATOM     14  C   UNL     1     106.249 114.118  90.915  1.00  0.00     0.024 A 
ATOM     15  C   UNL     1     105.210 113.813  91.793  1.00  0.00     0.042 A 
ATOM     16  C   UNL     1     103.897 114.166  91.470  1.00  0.00     0.041 A 
ATOM     17  Cl  UNL     1     105.554 113.009  93.314  1.00  0.00    -0.084 Cl
ATOM     18  C   UNL     1     102.123 116.845  92.072  1.00  0.00     0.298 C 
ATOM     19  C   UNL     1     100.284 115.188  91.643  1.00  0.00     0.298 C 
ATOM     20  C   UNL     1     101.061 117.846  92.541  1.00  0.00     0.308 C 
ATOM     21  C   UNL     1      99.277 116.239  92.124  1.00  0.00     0.308 C 
ATOM     22  N   UNL     1      99.893 117.145  93.119  1.00  0.00    -0.331 N 
ATOM     23  C   UNL     1      98.900 118.125  93.591  1.00  0.00     0.332 C 
ATOM     24  H   UNL     1     100.642 115.706  88.864  1.00  0.00     0.312 HD
ATOM     25  H   UNL     1     100.205 116.583  93.946  1.00  0.00     0.348 HD
ENDROOT
TORSDOF 0
ENDMDL
MODEL 2
REMARK VINA RESULT:    -6.484      2.561      4.617
REMARK INTER + INTRA:          -6.484
REMARK INTER:                  -6.484
REMARK INTRA:                   0.000
REMARK UNBOUND:                 0.000
REMARK SMILES C[NH+]1CCN(C2=[NH+]c3ccccc3Oc3ccc(Cl)cc32)CC1
REMARK SMILES IDX 7 1 6 2 21 3 5 4 8 5 9 6 13 7 10 8 12 9 14 10 11 11 15 12
REMARK SMILES IDX 16 13 17 14 18 15 20 16 19 17 4 18 22 19 3 20 23 21 2 22
REMARK SMILES IDX 1 23
REMARK H PARENT 7 24 2 25
REMARK Flexibility Score: inf
ROOT
ATOM      1  N   UNL     1     103.498 114.828  90.898  1.00  0.00    -0.237 N 
ATOM      2  C   UNL     1     102.617 115.318  90.066  1.00  0.00     0.286 C 
ATOM      3  C   UNL     1     102.598 115.007  88.611  1.00  0.00     0.108 A 
ATOM      4  N   UNL     1     101.629 116.233  90.580  1.00  0.00    -0.250 N 
ATOM      5  C   UNL     1     104.571 113.918  90.603  1.00  0.00     0.168 A 
ATOM      6  C   UNL     1     105.751 114.015  91.362  1.00  0.00     0.056 A 
ATOM      7  C   UNL     1     104.411 112.823  89.729  1.00  0.00     0.173 A 
ATOM      8  C   UNL     1     106.756 113.051  91.248  1.00  0.00     0.005 A 
ATOM      9  C   UNL     1     105.409 111.843  89.648  1.00  0.00     0.052 A 
ATOM     10  O   UNL     1     103.285 112.674  88.925  1.00  0.00    -0.452 OA
ATOM     11  C   UNL     1     106.580 111.961  90.397  1.00  0.00     0.004 A 
ATOM     12  C   UNL     1     102.813 113.705  88.118  1.00  0.00     0.143 A 
ATOM     13  C   UNL     1     102.567 113.418  86.769  1.00  0.00     0.049 A 
ATOM     14  C   UNL     1     102.167 114.426  85.891  1.00  0.00     0.024 A 
ATOM     15  C   UNL     1     102.001 115.729  86.359  1.00  0.00     0.042 A 
ATOM     16  C   UNL     1     102.209 116.017  87.710  1.00  0.00     0.041 A 
ATOM     17  Cl  UNL     1     101.506 117.001  85.256  1.00  0.00    -0.084 Cl
ATOM     18  C   UNL     1     100.209 116.025  90.296  1.00  0.00     0.298 C 
ATOM     19  C   UNL     1     102.040 117.518  91.152  1.00  0.00     0.298 C 
ATOM     20  C   UNL     1      99.376 116.407  91.525  1.00  0.00     0.308 C 
ATOM     21  C   UNL     1     101.152 117.853  92.356  1.00  0.00     0.308 C 
ATOM     22  N   UNL     1      99.719 117.767  91.995  1.00  0.00    -0.331 N 
ATOM     23  C   UNL     1      98.885 118.125  93.155  1.00  0.00     0.332 C 
ATOM     24  H   UNL     1     103.445 115.151  91.891  1.00  0.00     0.312 HD
ATOM     25  H   UNL     1      99.516 118.456  91.232  1.00  0.00     0.348 HD
ENDROOT
TORSDOF 0
ENDMDL
MODEL 3
REMARK VINA RESULT:    -6.298      6.912      9.968
REMARK INTER + INTRA:          -6.298
REMARK INTER:                  -6.298
REMARK INTRA:                   0.000
REMARK UNBOUND:                 0.000
REMARK SMILES C[NH+]1CCN(C2=[NH+]c3ccccc3Oc3ccc(Cl)cc32)CC1
REMARK SMILES IDX 7 1 6 2 21 3 5 4 8 5 9 6 13 7 10 8 12 9 14 10 11 11 15 12
REMARK SMILES IDX 16 13 17 14 18 15 20 16 19 17 4 18 22 19 3 20 23 21 2 22
REMARK SMILES IDX 1 23
REMARK H PARENT 7 24 2 25
REMARK Flexibility Score: inf
ROOT
ATOM      1  N   UNL     1     104.242 115.976  80.135  1.00  0.00    -0.237 N 
ATOM      2  C   UNL     1     104.516 115.589  81.353  1.00  0.00     0.286 C 
ATOM      3  C   UNL     1     103.507 115.535  82.445  1.00  0.00     0.108 A 
ATOM      4  N   UNL     1     105.875 115.223  81.662  1.00  0.00    -0.250 N 
ATOM      5  C   UNL     1     102.970 116.396  79.614  1.00  0.00     0.168 A 
ATOM      6  C   UNL     1     102.957 117.360  78.590  1.00  0.00     0.056 A 
ATOM      7  C   UNL     1     101.767 115.742  79.949  1.00  0.00     0.173 A 
ATOM      8  C   UNL     1     101.774 117.677  77.921  1.00  0.00     0.005 A 
ATOM      9  C   UNL     1     100.591 116.042  79.248  1.00  0.00     0.052 A 
ATOM     10  O   UNL     1     101.694 114.798  80.969  1.00  0.00    -0.452 OA
ATOM     11  C   UNL     1     100.592 117.011  78.244  1.00  0.00     0.004 A 
ATOM     12  C   UNL     1     102.203 115.045  82.241  1.00  0.00     0.143 A 
ATOM     13  C   UNL     1     101.365 114.807  83.337  1.00  0.00     0.049 A 
ATOM     14  C   UNL     1     101.788 115.108  84.633  1.00  0.00     0.024 A 
ATOM     15  C   UNL     1     103.059 115.642  84.841  1.00  0.00     0.042 A 
ATOM     16  C   UNL     1     103.915 115.849  83.757  1.00  0.00     0.041 A 
ATOM     17  Cl  UNL     1     103.593 116.028  86.467  1.00  0.00    -0.084 Cl
ATOM     18  C   UNL     1     106.166 113.954  82.332  1.00  0.00     0.298 C 
ATOM     19  C   UNL     1     106.948 116.216  81.566  1.00  0.00     0.298 C 
ATOM     20  C   UNL     1     107.462 113.358  81.768  1.00  0.00     0.308 C 
ATOM     21  C   UNL     1     108.219 115.552  81.024  1.00  0.00     0.308 C 
ATOM     22  N   UNL     1     108.561 114.347  81.812  1.00  0.00    -0.331 N 
ATOM     23  C   UNL     1     109.802 113.744  81.296  1.00  0.00     0.332 C 
ATOM     24  H   UNL     1     105.039 116.018  79.459  1.00  0.00     0.312 HD
ATOM     25  H   UNL     1     108.733 114.626  82.807  1.00  0.00     0.348 HD
ENDROOT
TORSDOF 0
ENDMDL
MODEL 4
REMARK VINA RESULT:    -6.297      3.314      6.233
REMARK INTER + INTRA:          -6.297
REMARK INTER:                  -6.297
REMARK INTRA:                   0.000
REMARK UNBOUND:                 0.000
REMARK SMILES C[NH+]1CCN(C2=[NH+]c3ccccc3Oc3ccc(Cl)cc32)CC1
REMARK SMILES IDX 7 1 6 2 21 3 5 4 8 5 9 6 13 7 10 8 12 9 14 10 11 11 15 12
REMARK SMILES IDX 16 13 17 14 18 15 20 16 19 17 4 18 22 19 3 20 23 21 2 22
REMARK SMILES IDX 1 23
REMARK H PARENT 7 24 2 25
REMARK Flexibility Score: inf
ROOT
ATOM      1  N   UNL     1     100.112 114.761  90.183  1.00  0.00    -0.237 N 
ATOM      2  C   UNL     1     100.673 114.491  89.034  1.00  0.00     0.286 C 
ATOM      3  C   UNL     1     101.518 115.458  88.283  1.00  0.00     0.108 A 
ATOM      4  N   UNL     1     100.436 113.195  88.448  1.00  0.00    -0.250 N 
ATOM      5  C   UNL     1     100.200 115.982  90.935  1.00  0.00     0.168 A 
ATOM      6  C   UNL     1      99.095 116.360  91.720  1.00  0.00     0.056 A 
ATOM      7  C   UNL     1     101.406 116.700  91.067  1.00  0.00     0.173 A 
ATOM      8  C   UNL     1      99.183 117.433  92.609  1.00  0.00     0.005 A 
ATOM      9  C   UNL     1     101.495 117.754  91.987  1.00  0.00     0.052 A 
ATOM     10  O   UNL     1     102.532 116.405  90.304  1.00  0.00    -0.452 OA
ATOM     11  C   UNL     1     100.386 118.125  92.748  1.00  0.00     0.004 A 
ATOM     12  C   UNL     1     102.473 116.274  88.920  1.00  0.00     0.143 A 
ATOM     13  C   UNL     1     103.393 117.002  88.155  1.00  0.00     0.049 A 
ATOM     14  C   UNL     1     103.336 116.975  86.761  1.00  0.00     0.024 A 
ATOM     15  C   UNL     1     102.361 116.210  86.121  1.00  0.00     0.042 A 
ATOM     16  C   UNL     1     101.462 115.452  86.876  1.00  0.00     0.041 A 
ATOM     17  Cl  UNL     1     102.281 116.179  84.369  1.00  0.00    -0.084 Cl
ATOM     18  C   UNL     1     101.556 112.377  87.981  1.00  0.00     0.298 C 
ATOM     19  C   UNL     1      99.080 112.797  88.060  1.00  0.00     0.298 C 
ATOM     20  C   UNL     1     101.276 110.900  88.280  1.00  0.00     0.308 C 
ATOM     21  C   UNL     1      98.875 111.307  88.359  1.00  0.00     0.308 C 
ATOM     22  N   UNL     1      99.954 110.495  87.755  1.00  0.00    -0.331 N 
ATOM     23  C   UNL     1      99.721 109.066  88.025  1.00  0.00     0.332 C 
ATOM     24  H   UNL     1      99.500 114.021  90.599  1.00  0.00     0.312 HD
ATOM     25  H   UNL     1      99.943 110.629  86.716  1.00  0.00     0.348 HD
ENDROOT
TORSDOF 0
ENDMDL
MODEL 5
REMARK VINA RESULT:    -5.889      2.885      5.964
REMARK INTER + INTRA:          -5.889
REMARK INTER:                  -5.889
REMARK INTRA:                   0.000
REMARK UNBOUND:                 0.000
REMARK SMILES C[NH+]1CCN(C2=[NH+]c3ccccc3Oc3ccc(Cl)cc32)CC1
REMARK SMILES IDX 7 1 6 2 21 3 5 4 8 5 9 6 13 7 10 8 12 9 14 10 11 11 15 12
REMARK SMILES IDX 16 13 17 14 18 15 20 16 19 17 4 18 22 19 3 20 23 21 2 22
REMARK SMILES IDX 1 23
REMARK H PARENT 7 24 2 25
REMARK Flexibility Score: inf
ROOT
ATOM      1  N   UNL     1     102.307 114.304  91.305  1.00  0.00    -0.237 N 
ATOM      2  C   UNL     1     103.201 114.253  90.353  1.00  0.00     0.286 C 
ATOM      3  C   UNL     1     103.184 115.143  89.161  1.00  0.00     0.108 A 
ATOM      4  N   UNL     1     104.243 113.262  90.449  1.00  0.00    -0.250 N 
ATOM      5  C   UNL     1     101.183 115.194  91.405  1.00  0.00     0.168 A 
ATOM      6  C   UNL     1     100.020 114.726  92.043  1.00  0.00     0.056 A 
ATOM      7  C   UNL     1     101.273 116.561  91.069  1.00  0.00     0.173 A 
ATOM      8  C   UNL     1      98.964 115.594  92.331  1.00  0.00     0.005 A 
ATOM      9  C   UNL     1     100.223 117.430  91.394  1.00  0.00     0.052 A 
ATOM     10  O   UNL     1     102.378 117.092  90.411  1.00  0.00    -0.452 OA
ATOM     11  C   UNL     1      99.070 116.948  92.014  1.00  0.00     0.004 A 
ATOM     12  C   UNL     1     102.894 116.518  89.253  1.00  0.00     0.143 A 
ATOM     13  C   UNL     1     103.106 117.353  88.149  1.00  0.00     0.049 A 
ATOM     14  C   UNL     1     103.547 116.826  86.934  1.00  0.00     0.024 A 
ATOM     15  C   UNL     1     103.789 115.458  86.818  1.00  0.00     0.042 A 
ATOM     16  C   UNL     1     103.614 114.622  87.924  1.00  0.00     0.041 A 
ATOM     17  Cl  UNL     1     104.336 114.790  85.291  1.00  0.00    -0.084 Cl
ATOM     18  C   UNL     1     105.647 113.645  90.291  1.00  0.00     0.298 C 
ATOM     19  C   UNL     1     103.909 111.835  90.429  1.00  0.00     0.298 C 
ATOM     20  C   UNL     1     106.515 112.831  91.257  1.00  0.00     0.308 C 
ATOM     21  C   UNL     1     104.829 111.077  91.392  1.00  0.00     0.308 C 
ATOM     22  N   UNL     1     106.251 111.383  91.115  1.00  0.00    -0.331 N 
ATOM     23  C   UNL     1     107.118 110.619  92.028  1.00  0.00     0.332 C 
ATOM     24  H   UNL     1     102.390 113.599  92.073  1.00  0.00     0.312 HD
ATOM     25  H   UNL     1     106.480 111.087  90.136  1.00  0.00     0.348 HD
ENDROOT
TORSDOF 0
ENDMDL
MODEL 6
REMARK VINA RESULT:    -5.742      2.732      6.488
REMARK INTER + INTRA:          -5.742
REMARK INTER:                  -5.742
REMARK INTRA:                   0.000
REMARK UNBOUND:                 0.000
REMARK SMILES C[NH+]1CCN(C2=[NH+]c3ccccc3Oc3ccc(Cl)cc32)CC1
REMARK SMILES IDX 7 1 6 2 21 3 5 4 8 5 9 6 13 7 10 8 12 9 14 10 11 11 15 12
REMARK SMILES IDX 16 13 17 14 18 15 20 16 19 17 4 18 22 19 3 20 23 21 2 22
REMARK SMILES IDX 1 23
REMARK H PARENT 7 24 2 25
REMARK Flexibility Score: inf
ROOT
ATOM      1  N   UNL     1     101.665 116.003  89.582  1.00  0.00    -0.237 N 
ATOM      2  C   UNL     1     101.648 114.795  89.085  1.00  0.00     0.286 C 
ATOM      3  C   UNL     1     100.918 113.659  89.709  1.00  0.00     0.108 A 
ATOM      4  N   UNL     1     102.403 114.542  87.883  1.00  0.00    -0.250 N 
ATOM      5  C   UNL     1     101.002 116.472  90.768  1.00  0.00     0.168 A 
ATOM      6  C   UNL     1     101.611 117.505  91.505  1.00  0.00     0.056 A 
ATOM      7  C   UNL     1      99.690 116.078  91.103  1.00  0.00     0.173 A 
ATOM      8  C   UNL     1     100.937 118.125  92.559  1.00  0.00     0.005 A 
ATOM      9  C   UNL     1      99.009 116.730  92.140  1.00  0.00     0.052 A 
ATOM     10  O   UNL     1      99.033 115.046  90.441  1.00  0.00    -0.452 OA
ATOM     11  C   UNL     1      99.632 117.743  92.871  1.00  0.00     0.004 A 
ATOM     12  C   UNL     1      99.623 113.801  90.245  1.00  0.00     0.143 A 
ATOM     13  C   UNL     1      98.891 112.667  90.618  1.00  0.00     0.049 A 
ATOM     14  C   UNL     1      99.456 111.394  90.520  1.00  0.00     0.024 A 
ATOM     15  C   UNL     1     100.757 111.247  90.039  1.00  0.00     0.042 A 
ATOM     16  C   UNL     1     101.481 112.370  89.631  1.00  0.00     0.041 A 
ATOM     17  Cl  UNL     1     101.473 109.650  89.922  1.00  0.00    -0.084 Cl
ATOM     18  C   UNL     1     101.776 113.872  86.742  1.00  0.00     0.298 C 
ATOM     19  C   UNL     1     103.860 114.695  87.881  1.00  0.00     0.298 C 
ATOM     20  C   UNL     1     102.293 114.486  85.436  1.00  0.00     0.308 C 
ATOM     21  C   UNL     1     104.313 115.285  86.540  1.00  0.00     0.308 C 
ATOM     22  N   UNL     1     103.772 114.501  85.408  1.00  0.00    -0.331 N 
ATOM     23  C   UNL     1     104.246 115.064  84.132  1.00  0.00     0.332 C 
ATOM     24  H   UNL     1     102.249 116.714  89.085  1.00  0.00     0.312 HD
ATOM     25  H   UNL     1     104.126 113.517  85.473  1.00  0.00     0.348 HD
ENDROOT
TORSDOF 0
ENDMDL
MODEL 7
REMARK VINA RESULT:    -5.741      6.004      9.728
REMARK INTER + INTRA:          -5.741
REMARK INTER:                  -5.741
REMARK INTRA:                   0.000
REMARK UNBOUND:                 0.000
REMARK SMILES C[NH+]1CCN(C2=[NH+]c3ccccc3Oc3ccc(Cl)cc32)CC1
REMARK SMILES IDX 7 1 6 2 21 3 5 4 8 5 9 6 13 7 10 8 12 9 14 10 11 11 15 12
REMARK SMILES IDX 16 13 17 14 18 15 20 16 19 17 4 18 22 19 3 20 23 21 2 22
REMARK SMILES IDX 1 23
REMARK H PARENT 7 24 2 25
REMARK Flexibility Score: inf
ROOT
ATOM      1  N   UNL     1     103.300 115.805  82.849  1.00  0.00    -0.237 N 
ATOM      2  C   UNL     1     104.141 115.533  81.886  1.00  0.00     0.286 C 
ATOM      3  C   UNL     1     105.575 115.209  82.114  1.00  0.00     0.108 A 
ATOM      4  N   UNL     1     103.660 115.577  80.528  1.00  0.00    -0.250 N 
ATOM      5  C   UNL     1     103.563 115.833  84.261  1.00  0.00     0.168 A 
ATOM      6  C   UNL     1     102.834 116.736  85.055  1.00  0.00     0.056 A 
ATOM      7  C   UNL     1     104.371 114.866  84.896  1.00  0.00     0.173 A 
ATOM      8  C   UNL     1     102.912 116.689  86.449  1.00  0.00     0.005 A 
ATOM      9  C   UNL     1     104.416 114.805  86.295  1.00  0.00     0.052 A 
ATOM     10  O   UNL     1     105.143 113.958  84.179  1.00  0.00    -0.452 OA
ATOM     11  C   UNL     1     103.697 115.717  87.068  1.00  0.00     0.004 A 
ATOM     12  C   UNL     1     105.998 114.361  83.157  1.00  0.00     0.143 A 
ATOM     13  C   UNL     1     107.323 113.910  83.198  1.00  0.00     0.049 A 
ATOM     14  C   UNL     1     108.249 114.341  82.247  1.00  0.00     0.024 A 
ATOM     15  C   UNL     1     107.853 115.221  81.240  1.00  0.00     0.042 A 
ATOM     16  C   UNL     1     106.524 115.648  81.170  1.00  0.00     0.041 A 
ATOM     17  Cl  UNL     1     109.016 115.771  80.047  1.00  0.00    -0.084 Cl
ATOM     18  C   UNL     1     103.905 114.457  79.619  1.00  0.00     0.298 C 
ATOM     19  C   UNL     1     103.170 116.836  79.960  1.00  0.00     0.298 C 
ATOM     20  C   UNL     1     102.683 114.249  78.715  1.00  0.00     0.308 C 
ATOM     21  C   UNL     1     101.970 116.556  79.047  1.00  0.00     0.308 C 
ATOM     22  N   UNL     1     102.297 115.513  78.050  1.00  0.00    -0.331 N 
ATOM     23  C   UNL     1     101.143 115.283  77.163  1.00  0.00     0.332 C 
ATOM     24  H   UNL     1     102.325 116.063  82.570  1.00  0.00     0.312 HD
ATOM     25  H   UNL     1     103.094 115.845  77.456  1.00  0.00     0.348 HD
ENDROOT
TORSDOF 0
ENDMDL
MODEL 8
REMARK VINA RESULT:    -5.659      2.557      4.939
REMARK INTER + INTRA:          -5.659
REMARK INTER:                  -5.659
REMARK INTRA:                   0.000
REMARK UNBOUND:                 0.000
REMARK SMILES C[NH+]1CCN(C2=[NH+]c3ccccc3Oc3ccc(Cl)cc32)CC1
REMARK SMILES IDX 7 1 6 2 21 3 5 4 8 5 9 6 13 7 10 8 12 9 14 10 11 11 15 12
REMARK SMILES IDX 16 13 17 14 18 15 20 16 19 17 4 18 22 19 3 20 23 21 2 22
REMARK SMILES IDX 1 23
REMARK H PARENT 7 24 2 25
REMARK Flexibility Score: inf
ROOT
ATOM      1  N   UNL     1     103.847 114.375  87.993  1.00  0.00    -0.237 N 
ATOM      2  C   UNL     1     103.362 114.521  89.198  1.00  0.00     0.286 C 
ATOM      3  C   UNL     1     102.071 115.200  89.489  1.00  0.00     0.108 A 
ATOM      4  N   UNL     1     104.135 114.022  90.308  1.00  0.00    -0.250 N 
ATOM      5  C   UNL     1     103.258 114.804  86.754  1.00  0.00     0.168 A 
ATOM      6  C   UNL     1     104.118 115.182  85.706  1.00  0.00     0.056 A 
ATOM      7  C   UNL     1     101.879 114.673  86.491  1.00  0.00     0.173 A 
ATOM      8  C   UNL     1     103.618 115.435  84.427  1.00  0.00     0.005 A 
ATOM      9  C   UNL     1     101.392 114.896  85.196  1.00  0.00     0.052 A 
ATOM     10  O   UNL     1     100.963 114.332  87.481  1.00  0.00    -0.452 OA
ATOM     11  C   UNL     1     102.255 115.284  84.171  1.00  0.00     0.004 A 
ATOM     12  C   UNL     1     100.919 114.993  88.705  1.00  0.00     0.143 A 
ATOM     13  C   UNL     1      99.679 115.475  89.143  1.00  0.00     0.049 A 
ATOM     14  C   UNL     1      99.581 116.214  90.322  1.00  0.00     0.024 A 
ATOM     15  C   UNL     1     100.724 116.468  91.080  1.00  0.00     0.042 A 
ATOM     16  C   UNL     1     101.959 115.960  90.670  1.00  0.00     0.041 A 
ATOM     17  Cl  UNL     1     100.606 117.403  92.560  1.00  0.00    -0.084 Cl
ATOM     18  C   UNL     1     103.515 113.158  91.314  1.00  0.00     0.298 C 
ATOM     19  C   UNL     1     105.457 114.584  90.599  1.00  0.00     0.298 C 
ATOM     20  C   UNL     1     104.516 112.087  91.761  1.00  0.00     0.308 C 
ATOM     21  C   UNL     1     106.399 113.469  91.067  1.00  0.00     0.308 C 
ATOM     22  N   UNL     1     105.796 112.700  92.179  1.00  0.00    -0.331 N 
ATOM     23  C   UNL     1     106.730 111.656  92.635  1.00  0.00     0.332 C 
ATOM     24  H   UNL     1     104.786 113.921  87.910  1.00  0.00     0.312 HD
ATOM     25  H   UNL     1     105.620 113.345  92.985  1.00  0.00     0.348 HD
ENDROOT
TORSDOF 0
ENDMDL
MODEL 9
REMARK VINA RESULT:    -5.588      3.120      5.579
REMARK INTER + INTRA:          -5.588
REMARK INTER:                  -5.588
REMARK INTRA:                   0.000
REMARK UNBOUND:                 0.000
REMARK SMILES C[NH+]1CCN(C2=[NH+]c3ccccc3Oc3ccc(Cl)cc32)CC1
REMARK SMILES IDX 7 1 6 2 21 3 5 4 8 5 9 6 13 7 10 8 12 9 14 10 11 11 15 12
REMARK SMILES IDX 16 13 17 14 18 15 20 16 19 17 4 18 22 19 3 20 23 21 2 22
REMARK SMILES IDX 1 23
REMARK H PARENT 7 24 2 25
REMARK Flexibility Score: inf
ROOT
ATOM      1  N   UNL     1     102.232 113.430  92.160  1.00  0.00    -0.237 N 
ATOM      2  C   UNL     1     103.394 113.132  91.639  1.00  0.00     0.286 C 
ATOM      3  C   UNL     1     103.892 113.705  90.359  1.00  0.00     0.108 A 
ATOM      4  N   UNL     1     104.223 112.175  92.327  1.00  0.00    -0.250 N 
ATOM      5  C   UNL     1     101.247 114.339  91.642  1.00  0.00     0.168 A 
ATOM      6  C   UNL     1      99.891 114.063  91.894  1.00  0.00     0.056 A 
ATOM      7  C   UNL     1     101.594 115.581  91.070  1.00  0.00     0.173 A 
ATOM      8  C   UNL     1      98.900 114.994  91.576  1.00  0.00     0.005 A 
ATOM      9  C   UNL     1     100.596 116.522  90.786  1.00  0.00     0.052 A 
ATOM     10  O   UNL     1     102.910 115.914  90.764  1.00  0.00    -0.452 OA
ATOM     11  C   UNL     1      99.254 116.228  91.030  1.00  0.00     0.004 A 
ATOM     12  C   UNL     1     103.736 115.066  90.033  1.00  0.00     0.143 A 
ATOM     13  C   UNL     1     104.411 115.603  88.930  1.00  0.00     0.049 A 
ATOM     14  C   UNL     1     105.193 114.787  88.110  1.00  0.00     0.024 A 
ATOM     15  C   UNL     1     105.312 113.427  88.395  1.00  0.00     0.042 A 
ATOM     16  C   UNL     1     104.672 112.890  89.515  1.00  0.00     0.041 A 
ATOM     17  Cl  UNL     1     106.288 112.397  87.363  1.00  0.00    -0.084 Cl
ATOM     18  C   UNL     1     105.625 112.482  92.615  1.00  0.00     0.298 C 
ATOM     19  C   UNL     1     103.767 110.793  92.500  1.00  0.00     0.298 C 
ATOM     20  C   UNL     1     106.006 111.912  93.986  1.00  0.00     0.308 C 
ATOM     21  C   UNL     1     104.204 110.276  93.876  1.00  0.00     0.308 C 
ATOM     22  N   UNL     1     105.656 110.478  94.079  1.00  0.00    -0.331 N 
ATOM     23  C   UNL     1     106.060 109.944  95.391  1.00  0.00     0.332 C 
ATOM     24  H   UNL     1     101.964 112.933  93.040  1.00  0.00     0.312 HD
ATOM     25  H   UNL     1     106.182 109.948  93.344  1.00  0.00     0.348 HD
ENDROOT
TORSDOF 0
ENDMDL
