MODEL 1
REMARK VINA RESULT:    -3.782      0.000      0.000
REMARK INTER + INTRA:          -8.906
REMARK INTER:                  -7.099
REMARK INTRA:                  -1.808
REMARK UNBOUND:                -1.808
REMARK SMILES O=C([O-])CCCCCCCCCCCCCCC(=O)[O-]
REMARK SMILES IDX 10 1 9 2 8 3 7 4 6 5 5 6 4 7 2 8 1 9 3 10 11 11 12 12 13 13
REMARK SMILES IDX 14 14 15 15 16 16 17 17 18 18 19 19 20 20
REMARK H PARENT
REMARK Flexibility Score: inf
ROOT
ATOM      1  C   UNL     1      32.024 157.824 120.604  1.00  0.00     0.000 C 
ENDROOT
BRANCH   1   2
ATOM      2  C   UNL     1      31.235 157.717 121.919  1.00  0.00     0.000 C 
BRANCH   2   3
ATOM      3  C   UNL     1      29.735 157.467 121.689  1.00  0.00     0.000 C 
BRANCH   3   4
ATOM      4  C   UNL     1      28.909 158.761 121.707  1.00  0.00     0.000 C 
BRANCH   4   5
ATOM      5  C   UNL     1      27.808 158.724 120.636  1.00  0.00     0.000 C 
BRANCH   5   6
ATOM      6  C   UNL     1      27.013 157.406 120.644  1.00  0.00     0.006 C 
BRANCH   6   7
ATOM      7  C   UNL     1      25.737 157.431 119.787  1.00  0.00     0.053 C 
BRANCH   7   8
ATOM      8  C   UNL     1      25.691 156.294 118.812  1.00  0.00     0.041 C 
ATOM      9  O   UNL     1      25.288 156.485 117.635  1.00  0.00    -0.550 OA
ATOM     10  O   UNL     1      26.059 155.016 119.216  1.00  0.00    -0.550 OA
ENDBRANCH   7   8
ENDBRANCH   6   7
ENDBRANCH   5   6
ENDBRANCH   4   5
ENDBRANCH   3   4
ENDBRANCH   2   3
ENDBRANCH   1   2
BRANCH   1  11
ATOM     11  C   UNL     1      32.231 159.279 120.145  1.00  0.00     0.000 C 
BRANCH  11  12
ATOM     12  C   UNL     1      32.387 159.469 118.625  1.00  0.00     0.000 C 
BRANCH  12  13
ATOM     13  C   UNL     1      31.233 160.265 117.999  1.00  0.00     0.000 C 
BRANCH  13  14
ATOM     14  C   UNL     1      30.593 161.206 119.028  1.00  0.00     0.000 C 
BRANCH  14  15
ATOM     15  C   UNL     1      29.125 161.482 118.683  1.00  0.00     0.000 C 
BRANCH  15  16
ATOM     16  C   UNL     1      28.623 160.516 117.603  1.00  0.00     0.006 C 
BRANCH  16  17
ATOM     17  C   UNL     1      27.346 161.045 116.942  1.00  0.00     0.053 C 
BRANCH  17  18
ATOM     18  C   UNL     1      26.346 159.945 116.779  1.00  0.00     0.041 C 
ATOM     19  O   UNL     1      26.581 158.985 115.999  1.00  0.00    -0.550 OA
ATOM     20  O   UNL     1      25.131 160.005 117.450  1.00  0.00    -0.550 OA
ENDBRANCH  17  18
ENDBRANCH  16  17
ENDBRANCH  15  16
ENDBRANCH  14  15
ENDBRANCH  13  14
ENDBRANCH  12  13
ENDBRANCH  11  12
ENDBRANCH   1  11
TORSDOF 15
ENDMDL
MODEL 2
REMARK VINA RESULT:    -3.746      2.578      4.988
REMARK INTER + INTRA:          -8.839
REMARK INTER:                  -7.016
REMARK INTRA:                  -1.823
REMARK UNBOUND:                -1.808
REMARK SMILES O=C([O-])CCCCCCCCCCCCCCC(=O)[O-]
REMARK SMILES IDX 10 1 9 2 8 3 7 4 6 5 5 6 4 7 2 8 1 9 3 10 11 11 12 12 13 13
REMARK SMILES IDX 14 14 15 15 16 16 17 17 18 18 19 19 20 20
REMARK H PARENT
REMARK Flexibility Score: inf
ROOT
ATOM      1  C   UNL     1      28.985 160.291 117.936  1.00  0.00     0.000 C 
ENDROOT
BRANCH   1   2
ATOM      2  C   UNL     1      27.620 160.810 117.457  1.00  0.00     0.000 C 
BRANCH   2   3
ATOM      3  C   UNL     1      26.943 159.855 116.458  1.00  0.00     0.000 C 
BRANCH   3   4
ATOM      4  C   UNL     1      26.008 158.848 117.144  1.00  0.00     0.000 C 
BRANCH   4   5
ATOM      5  C   UNL     1      25.683 159.289 118.579  1.00  0.00     0.000 C 
BRANCH   5   6
ATOM      6  C   UNL     1      25.453 158.102 119.531  1.00  0.00     0.006 C 
BRANCH   6   7
ATOM      7  C   UNL     1      25.602 156.722 118.872  1.00  0.00     0.053 C 
BRANCH   7   8
ATOM      8  C   UNL     1      26.168 155.705 119.815  1.00  0.00     0.041 C 
ATOM      9  O   UNL     1      26.319 154.511 119.443  1.00  0.00    -0.550 OA
ATOM     10  O   UNL     1      26.497 156.068 121.115  1.00  0.00    -0.550 OA
ENDBRANCH   7   8
ENDBRANCH   6   7
ENDBRANCH   5   6
ENDBRANCH   4   5
ENDBRANCH   3   4
ENDBRANCH   2   3
ENDBRANCH   1   2
BRANCH   1  11
ATOM     11  C   UNL     1      29.394 160.858 119.308  1.00  0.00     0.000 C 
BRANCH  11  12
ATOM     12  C   UNL     1      28.653 160.252 120.514  1.00  0.00     0.000 C 
BRANCH  12  13
ATOM     13  C   UNL     1      28.925 158.751 120.691  1.00  0.00     0.000 C 
BRANCH  13  14
ATOM     14  C   UNL     1      29.978 158.508 121.780  1.00  0.00     0.000 C 
BRANCH  14  15
ATOM     15  C   UNL     1      30.864 157.307 121.429  1.00  0.00     0.000 C 
BRANCH  15  16
ATOM     16  C   UNL     1      32.109 157.751 120.650  1.00  0.00     0.006 C 
BRANCH  16  17
ATOM     17  C   UNL     1      32.585 159.130 121.115  1.00  0.00     0.053 C 
BRANCH  17  18
ATOM     18  C   UNL     1      32.747 160.050 119.947  1.00  0.00     0.041 C 
ATOM     19  O   UNL     1      32.622 159.612 118.772  1.00  0.00    -0.550 OA
ATOM     20  O   UNL     1      33.087 161.382 120.152  1.00  0.00    -0.550 OA
ENDBRANCH  17  18
ENDBRANCH  16  17
ENDBRANCH  15  16
ENDBRANCH  14  15
ENDBRANCH  13  14
ENDBRANCH  12  13
ENDBRANCH  11  12
ENDBRANCH   1  11
TORSDOF 15
ENDMDL
MODEL 3
REMARK VINA RESULT:    -3.734      2.554      5.825
REMARK INTER + INTRA:          -8.816
REMARK INTER:                  -6.380
REMARK INTRA:                  -2.436
REMARK UNBOUND:                -1.808
REMARK SMILES O=C([O-])CCCCCCCCCCCCCCC(=O)[O-]
REMARK SMILES IDX 10 1 9 2 8 3 7 4 6 5 5 6 4 7 2 8 1 9 3 10 11 11 12 12 13 13
REMARK SMILES IDX 14 14 15 15 16 16 17 17 18 18 19 19 20 20
REMARK H PARENT
REMARK Flexibility Score: inf
ROOT
ATOM      1  C   UNL     1      28.020 160.260 116.705  1.00  0.00     0.000 C 
ENDROOT
BRANCH   1   2
ATOM      2  C   UNL     1      29.063 160.251 117.835  1.00  0.00     0.000 C 
BRANCH   2   3
ATOM      3  C   UNL     1      28.843 161.387 118.849  1.00  0.00     0.000 C 
BRANCH   3   4
ATOM      4  C   UNL     1      28.988 160.917 120.304  1.00  0.00     0.000 C 
BRANCH   4   5
ATOM      5  C   UNL     1      29.445 159.452 120.364  1.00  0.00     0.000 C 
BRANCH   5   6
ATOM      6  C   UNL     1      30.821 159.283 121.033  1.00  0.00     0.006 C 
BRANCH   6   7
ATOM      7  C   UNL     1      31.935 158.819 120.082  1.00  0.00     0.053 C 
BRANCH   7   8
ATOM      8  C   UNL     1      32.391 159.917 119.169  1.00  0.00     0.041 C 
ATOM      9  O   UNL     1      32.689 159.662 117.972  1.00  0.00    -0.550 OA
ATOM     10  O   UNL     1      32.521 161.213 119.651  1.00  0.00    -0.550 OA
ENDBRANCH   7   8
ENDBRANCH   6   7
ENDBRANCH   5   6
ENDBRANCH   4   5
ENDBRANCH   3   4
ENDBRANCH   2   3
ENDBRANCH   1   2
BRANCH   1  11
ATOM     11  C   UNL     1      27.188 161.555 116.666  1.00  0.00     0.000 C 
BRANCH  11  12
ATOM     12  C   UNL     1      25.667 161.359 116.792  1.00  0.00     0.000 C 
BRANCH  12  13
ATOM     13  C   UNL     1      25.289 160.108 117.600  1.00  0.00     0.000 C 
BRANCH  13  14
ATOM     14  C   UNL     1      25.150 160.439 119.092  1.00  0.00     0.000 C 
BRANCH  14  15
ATOM     15  C   UNL     1      25.689 159.297 119.961  1.00  0.00     0.000 C 
BRANCH  15  16
ATOM     16  C   UNL     1      26.164 158.123 119.095  1.00  0.00     0.006 C 
BRANCH  16  17
ATOM     17  C   UNL     1      25.355 156.858 119.394  1.00  0.00     0.053 C 
BRANCH  17  18
ATOM     18  C   UNL     1      26.222 155.820 120.033  1.00  0.00     0.041 C 
ATOM     19  O   UNL     1      26.774 156.051 121.142  1.00  0.00    -0.550 OA
ATOM     20  O   UNL     1      26.462 154.617 119.382  1.00  0.00    -0.550 OA
ENDBRANCH  17  18
ENDBRANCH  16  17
ENDBRANCH  15  16
ENDBRANCH  14  15
ENDBRANCH  13  14
ENDBRANCH  12  13
ENDBRANCH  11  12
ENDBRANCH   1  11
TORSDOF 15
ENDMDL
MODEL 4
REMARK VINA RESULT:    -3.724      2.485      5.344
REMARK INTER + INTRA:          -8.798
REMARK INTER:                  -6.641
REMARK INTRA:                  -2.157
REMARK UNBOUND:                -1.808
REMARK SMILES O=C([O-])CCCCCCCCCCCCCCC(=O)[O-]
REMARK SMILES IDX 10 1 9 2 8 3 7 4 6 5 5 6 4 7 2 8 1 9 3 10 11 11 12 12 13 13
REMARK SMILES IDX 14 14 15 15 16 16 17 17 18 18 19 19 20 20
REMARK H PARENT
REMARK Flexibility Score: inf
ROOT
ATOM      1  C   UNL     1      29.341 161.301 118.740  1.00  0.00     0.000 C 
ENDROOT
BRANCH   1   2
ATOM      2  C   UNL     1      28.529 161.105 120.031  1.00  0.00     0.000 C 
BRANCH   2   3
ATOM      3  C   UNL     1      29.324 160.365 121.121  1.00  0.00     0.000 C 
BRANCH   3   4
ATOM      4  C   UNL     1      28.837 158.924 121.334  1.00  0.00     0.000 C 
BRANCH   4   5
ATOM      5  C   UNL     1      30.003 157.930 121.225  1.00  0.00     0.000 C 
BRANCH   5   6
ATOM      6  C   UNL     1      31.373 158.587 121.470  1.00  0.00     0.006 C 
BRANCH   6   7
ATOM      7  C   UNL     1      32.383 158.391 120.329  1.00  0.00     0.053 C 
BRANCH   7   8
ATOM      8  C   UNL     1      32.578 159.641 119.526  1.00  0.00     0.041 C 
ATOM      9  O   UNL     1      32.738 160.747 120.107  1.00  0.00    -0.550 OA
ATOM     10  O   UNL     1      32.546 159.589 118.139  1.00  0.00    -0.550 OA
ENDBRANCH   7   8
ENDBRANCH   6   7
ENDBRANCH   5   6
ENDBRANCH   4   5
ENDBRANCH   3   4
ENDBRANCH   2   3
ENDBRANCH   1   2
BRANCH   1  11
ATOM     11  C   UNL     1      29.064 160.211 117.688  1.00  0.00     0.000 C 
BRANCH  11  12
ATOM     12  C   UNL     1      27.901 160.513 116.725  1.00  0.00     0.000 C 
BRANCH  12  13
ATOM     13  C   UNL     1      26.758 159.492 116.828  1.00  0.00     0.000 C 
BRANCH  13  14
ATOM     14  C   UNL     1      25.586 160.060 117.639  1.00  0.00     0.000 C 
BRANCH  14  15
ATOM     15  C   UNL     1      25.512 159.412 119.026  1.00  0.00     0.000 C 
BRANCH  15  16
ATOM     16  C   UNL     1      26.284 158.087 119.057  1.00  0.00     0.006 C 
BRANCH  16  17
ATOM     17  C   UNL     1      25.363 156.923 119.429  1.00  0.00     0.053 C 
BRANCH  17  18
ATOM     18  C   UNL     1      26.149 155.805 120.037  1.00  0.00     0.041 C 
ATOM     19  O   UNL     1      26.285 154.716 119.419  1.00  0.00    -0.550 OA
ATOM     20  O   UNL     1      26.690 155.947 121.308  1.00  0.00    -0.550 OA
ENDBRANCH  17  18
ENDBRANCH  16  17
ENDBRANCH  15  16
ENDBRANCH  14  15
ENDBRANCH  13  14
ENDBRANCH  12  13
ENDBRANCH  11  12
ENDBRANCH   1  11
TORSDOF 15
ENDMDL
MODEL 5
REMARK VINA RESULT:    -3.656      1.047      4.321
REMARK INTER + INTRA:          -8.669
REMARK INTER:                  -6.643
REMARK INTRA:                  -2.027
REMARK UNBOUND:                -1.808
REMARK SMILES O=C([O-])CCCCCCCCCCCCCCC(=O)[O-]
REMARK SMILES IDX 10 1 9 2 8 3 7 4 6 5 5 6 4 7 2 8 1 9 3 10 11 11 12 12 13 13
REMARK SMILES IDX 14 14 15 15 16 16 17 17 18 18 19 19 20 20
REMARK H PARENT
REMARK Flexibility Score: inf
ROOT
ATOM      1  C   UNL     1      32.598 157.997 120.342  1.00  0.00     0.000 C 
ENDROOT
BRANCH   1   2
ATOM      2  C   UNL     1      32.777 159.440 120.842  1.00  0.00     0.000 C 
BRANCH   2   3
ATOM      3  C   UNL     1      32.425 160.483 119.769  1.00  0.00     0.000 C 
BRANCH   3   4
ATOM      4  C   UNL     1      32.390 159.889 118.353  1.00  0.00     0.000 C 
BRANCH   4   5
ATOM      5  C   UNL     1      31.074 160.242 117.642  1.00  0.00     0.000 C 
BRANCH   5   6
ATOM      6  C   UNL     1      29.841 160.064 118.545  1.00  0.00     0.006 C 
BRANCH   6   7
ATOM      7  C   UNL     1      28.795 161.183 118.419  1.00  0.00     0.053 C 
BRANCH   7   8
ATOM      8  C   UNL     1      27.732 160.851 117.416  1.00  0.00     0.041 C 
ATOM      9  O   UNL     1      27.241 161.755 116.690  1.00  0.00    -0.550 OA
ATOM     10  O   UNL     1      27.260 159.548 117.309  1.00  0.00    -0.550 OA
ENDBRANCH   7   8
ENDBRANCH   6   7
ENDBRANCH   5   6
ENDBRANCH   4   5
ENDBRANCH   3   4
ENDBRANCH   2   3
ENDBRANCH   1   2
BRANCH   1  11
ATOM     11  C   UNL     1      31.426 157.267 121.024  1.00  0.00     0.000 C 
BRANCH  11  12
ATOM     12  C   UNL     1      30.509 158.160 121.881  1.00  0.00     0.000 C 
BRANCH  12  13
ATOM     13  C   UNL     1      29.021 157.988 121.545  1.00  0.00     0.000 C 
BRANCH  13  14
ATOM     14  C   UNL     1      28.251 159.295 121.775  1.00  0.00     0.000 C 
BRANCH  14  15
ATOM     15  C   UNL     1      26.887 159.260 121.077  1.00  0.00     0.000 C 
BRANCH  15  16
ATOM     16  C   UNL     1      26.476 157.820 120.744  1.00  0.00     0.006 C 
BRANCH  16  17
ATOM     17  C   UNL     1      25.404 157.793 119.651  1.00  0.00     0.053 C 
BRANCH  17  18
ATOM     18  C   UNL     1      25.592 156.607 118.761  1.00  0.00     0.041 C 
ATOM     19  O   UNL     1      25.290 156.677 117.540  1.00  0.00    -0.550 OA
ATOM     20  O   UNL     1      26.054 155.408 119.288  1.00  0.00    -0.550 OA
ENDBRANCH  17  18
ENDBRANCH  16  17
ENDBRANCH  15  16
ENDBRANCH  14  15
ENDBRANCH  13  14
ENDBRANCH  12  13
ENDBRANCH  11  12
ENDBRANCH   1  11
TORSDOF 15
ENDMDL
MODEL 6
REMARK VINA RESULT:    -3.624      3.170      5.323
REMARK INTER + INTRA:          -8.610
REMARK INTER:                  -6.797
REMARK INTRA:                  -1.814
REMARK UNBOUND:                -1.808
REMARK SMILES O=C([O-])CCCCCCCCCCCCCCC(=O)[O-]
REMARK SMILES IDX 10 1 9 2 8 3 7 4 6 5 5 6 4 7 2 8 1 9 3 10 11 11 12 12 13 13
REMARK SMILES IDX 14 14 15 15 16 16 17 17 18 18 19 19 20 20
REMARK H PARENT
REMARK Flexibility Score: inf
ROOT
ATOM      1  C   UNL     1      25.576 157.184 117.731  1.00  0.00     0.000 C 
ENDROOT
BRANCH   1   2
ATOM      2  C   UNL     1      25.369 156.930 119.234  1.00  0.00     0.000 C 
BRANCH   2   3
ATOM      3  C   UNL     1      26.540 156.163 119.869  1.00  0.00     0.000 C 
BRANCH   3   4
ATOM      4  C   UNL     1      26.427 156.068 121.398  1.00  0.00     0.000 C 
BRANCH   4   5
ATOM      5  C   UNL     1      27.554 156.858 122.081  1.00  0.00     0.000 C 
BRANCH   5   6
ATOM      6  C   UNL     1      28.349 157.736 121.098  1.00  0.00     0.006 C 
BRANCH   6   7
ATOM      7  C   UNL     1      29.421 158.616 121.759  1.00  0.00     0.053 C 
BRANCH   7   8
ATOM      8  C   UNL     1      30.804 158.082 121.537  1.00  0.00     0.041 C 
ATOM      9  O   UNL     1      30.968 156.923 121.074  1.00  0.00    -0.550 OA
ATOM     10  O   UNL     1      31.909 158.852 121.875  1.00  0.00    -0.550 OA
ENDBRANCH   7   8
ENDBRANCH   6   7
ENDBRANCH   5   6
ENDBRANCH   4   5
ENDBRANCH   3   4
ENDBRANCH   2   3
ENDBRANCH   1   2
BRANCH   1  11
ATOM     11  C   UNL     1      26.042 158.619 117.424  1.00  0.00     0.000 C 
BRANCH  11  12
ATOM     12  C   UNL     1      25.477 159.704 118.359  1.00  0.00     0.000 C 
BRANCH  12  13
ATOM     13  C   UNL     1      26.545 160.324 119.271  1.00  0.00     0.000 C 
BRANCH  13  14
ATOM     14  C   UNL     1      27.897 160.412 118.553  1.00  0.00     0.000 C 
BRANCH  14  15
ATOM     15  C   UNL     1      28.636 161.703 118.926  1.00  0.00     0.000 C 
BRANCH  15  16
ATOM     16  C   UNL     1      30.154 161.482 118.945  1.00  0.00     0.006 C 
BRANCH  16  17
ATOM     17  C   UNL     1      30.533 160.204 118.193  1.00  0.00     0.053 C 
BRANCH  17  18
ATOM     18  C   UNL     1      32.018 160.104 118.043  1.00  0.00     0.041 C 
ATOM     19  O   UNL     1      32.742 159.871 119.047  1.00  0.00    -0.550 OA
ATOM     20  O   UNL     1      32.607 160.319 116.804  1.00  0.00    -0.550 OA
ENDBRANCH  17  18
ENDBRANCH  16  17
ENDBRANCH  15  16
ENDBRANCH  14  15
ENDBRANCH  13  14
ENDBRANCH  12  13
ENDBRANCH  11  12
ENDBRANCH   1  11
TORSDOF 15
ENDMDL
MODEL 7
REMARK VINA RESULT:    -3.620      2.143      4.672
REMARK INTER + INTRA:          -8.602
REMARK INTER:                  -7.309
REMARK INTRA:                  -1.292
REMARK UNBOUND:                -1.808
REMARK SMILES O=C([O-])CCCCCCCCCCCCCCC(=O)[O-]
REMARK SMILES IDX 10 1 9 2 8 3 7 4 6 5 5 6 4 7 2 8 1 9 3 10 11 11 12 12 13 13
REMARK SMILES IDX 14 14 15 15 16 16 17 17 18 18 19 19 20 20
REMARK H PARENT
REMARK Flexibility Score: inf
ROOT
ATOM      1  C   UNL     1      28.086 156.814 121.696  1.00  0.00     0.000 C 
ENDROOT
BRANCH   1   2
ATOM      2  C   UNL     1      26.601 156.527 121.420  1.00  0.00     0.000 C 
BRANCH   2   3
ATOM      3  C   UNL     1      26.393 155.608 120.205  1.00  0.00     0.000 C 
BRANCH   3   4
ATOM      4  C   UNL     1      25.560 156.270 119.097  1.00  0.00     0.000 C 
BRANCH   4   5
ATOM      5  C   UNL     1      25.724 157.797 119.127  1.00  0.00     0.000 C 
BRANCH   5   6
ATOM      6  C   UNL     1      25.829 158.414 117.720  1.00  0.00     0.006 C 
BRANCH   6   7
ATOM      7  C   UNL     1      26.596 159.744 117.667  1.00  0.00     0.053 C 
BRANCH   7   8
ATOM      8  C   UNL     1      26.541 160.373 116.308  1.00  0.00     0.041 C 
ATOM      9  O   UNL     1      25.785 161.358 116.096  1.00  0.00    -0.550 OA
ATOM     10  O   UNL     1      27.297 159.848 115.267  1.00  0.00    -0.550 OA
ENDBRANCH   7   8
ENDBRANCH   6   7
ENDBRANCH   5   6
ENDBRANCH   4   5
ENDBRANCH   3   4
ENDBRANCH   2   3
ENDBRANCH   1   2
BRANCH   1  11
ATOM     11  C   UNL     1      28.424 158.316 121.655  1.00  0.00     0.000 C 
BRANCH  11  12
ATOM     12  C   UNL     1      29.911 158.657 121.865  1.00  0.00     0.000 C 
BRANCH  12  13
ATOM     13  C   UNL     1      30.842 157.462 121.609  1.00  0.00     0.000 C 
BRANCH  13  14
ATOM     14  C   UNL     1      31.993 157.854 120.674  1.00  0.00     0.000 C 
BRANCH  14  15
ATOM     15  C   UNL     1      32.657 159.157 121.136  1.00  0.00     0.000 C 
BRANCH  15  16
ATOM     16  C   UNL     1      32.971 160.068 119.942  1.00  0.00     0.006 C 
BRANCH  16  17
ATOM     17  C   UNL     1      31.697 160.722 119.401  1.00  0.00     0.053 C 
BRANCH  17  18
ATOM     18  C   UNL     1      31.447 160.296 117.989  1.00  0.00     0.041 C 
ATOM     19  O   UNL     1      32.402 160.215 117.173  1.00  0.00    -0.550 OA
ATOM     20  O   UNL     1      30.151 160.035 117.561  1.00  0.00    -0.550 OA
ENDBRANCH  17  18
ENDBRANCH  16  17
ENDBRANCH  15  16
ENDBRANCH  14  15
ENDBRANCH  13  14
ENDBRANCH  12  13
ENDBRANCH  11  12
ENDBRANCH   1  11
TORSDOF 15
ENDMDL
MODEL 8
REMARK VINA RESULT:    -3.462      2.640      4.877
REMARK INTER + INTRA:          -8.305
REMARK INTER:                  -6.108
REMARK INTRA:                  -2.197
REMARK UNBOUND:                -1.808
REMARK SMILES O=C([O-])CCCCCCCCCCCCCCC(=O)[O-]
REMARK SMILES IDX 10 1 9 2 8 3 7 4 6 5 5 6 4 7 2 8 1 9 3 10 11 11 12 12 13 13
REMARK SMILES IDX 14 14 15 15 16 16 17 17 18 18 19 19 20 20
REMARK H PARENT
REMARK Flexibility Score: inf
ROOT
ATOM      1  C   UNL     1      27.119 156.955 121.847  1.00  0.00     0.000 C 
ENDROOT
BRANCH   1   2
ATOM      2  C   UNL     1      26.618 156.064 120.699  1.00  0.00     0.000 C 
BRANCH   2   3
ATOM      3  C   UNL     1      25.728 156.829 119.704  1.00  0.00     0.000 C 
BRANCH   3   4
ATOM      4  C   UNL     1      25.273 158.192 120.244  1.00  0.00     0.000 C 
BRANCH   4   5
ATOM      5  C   UNL     1      25.555 159.307 119.225  1.00  0.00     0.000 C 
BRANCH   5   6
ATOM      6  C   UNL     1      26.512 158.864 118.105  1.00  0.00     0.006 C 
BRANCH   6   7
ATOM      7  C   UNL     1      26.132 159.375 116.706  1.00  0.00     0.053 C 
BRANCH   7   8
ATOM      8  C   UNL     1      27.079 160.426 116.213  1.00  0.00     0.041 C 
ATOM      9  O   UNL     1      27.933 160.145 115.331  1.00  0.00    -0.550 OA
ATOM     10  O   UNL     1      27.042 161.705 116.754  1.00  0.00    -0.550 OA
ENDBRANCH   7   8
ENDBRANCH   6   7
ENDBRANCH   5   6
ENDBRANCH   4   5
ENDBRANCH   3   4
ENDBRANCH   2   3
ENDBRANCH   1   2
BRANCH   1  11
ATOM     11  C   UNL     1      28.650 156.925 122.005  1.00  0.00     0.000 C 
BRANCH  11  12
ATOM     12  C   UNL     1      29.332 158.305 122.032  1.00  0.00     0.000 C 
BRANCH  12  13
ATOM     13  C   UNL     1      28.335 159.468 121.922  1.00  0.00     0.000 C 
BRANCH  13  14
ATOM     14  C   UNL     1      28.712 160.407 120.768  1.00  0.00     0.000 C 
BRANCH  14  15
ATOM     15  C   UNL     1      29.678 159.722 119.794  1.00  0.00     0.000 C 
BRANCH  15  16
ATOM     16  C   UNL     1      29.933 160.600 118.563  1.00  0.00     0.006 C 
BRANCH  16  17
ATOM     17  C   UNL     1      31.261 161.352 118.691  1.00  0.00     0.053 C 
BRANCH  17  18
ATOM     18  C   UNL     1      32.387 160.393 118.915  1.00  0.00     0.041 C 
ATOM     19  O   UNL     1      32.686 159.549 118.029  1.00  0.00    -0.550 OA
ATOM     20  O   UNL     1      33.075 160.398 120.121  1.00  0.00    -0.550 OA
ENDBRANCH  17  18
ENDBRANCH  16  17
ENDBRANCH  15  16
ENDBRANCH  14  15
ENDBRANCH  13  14
ENDBRANCH  12  13
ENDBRANCH  11  12
ENDBRANCH   1  11
TORSDOF 15
ENDMDL
