MODEL 1
REMARK VINA RESULT:    -2.731      0.000      0.000
REMARK INTER + INTRA:          -3.837
REMARK INTER:                  -3.689
REMARK INTRA:                  -0.148
REMARK UNBOUND:                -0.148
REMARK SMILES [NH3+]CCCC[C@@H]([NH3+])C(=O)[O-]
REMARK SMILES IDX 4 1 3 2 2 3 1 4 5 8 6 9 7 10 8 14 9 15 10 16
REMARK H PARENT 1 5 1 6 1 7 7 11 7 12 7 13
REMARK Flexibility Score: inf
ROOT
ATOM      1  C   UNL     1      -0.815  26.954  18.055  1.00  0.00     0.012 C 
ENDROOT
BRANCH   1   2
ATOM      2  C   UNL     1      -0.376  25.664  18.759  1.00  0.00     0.061 C 
BRANCH   2   3
ATOM      3  C   UNL     1      -1.026  25.542  20.143  1.00  0.00     0.258 C 
BRANCH   3   4
ATOM      4  N   UNL     1      -1.970  26.633  20.376  1.00  0.00    -0.358 N 
ATOM      5  H   UNL     1      -1.443  27.480  20.694  1.00  0.00     0.344 HD
ATOM      6  H   UNL     1      -2.477  26.864  19.491  1.00  0.00     0.344 HD
ATOM      7  H   UNL     1      -2.656  26.363  21.119  1.00  0.00     0.344 HD
ENDBRANCH   3   4
ENDBRANCH   2   3
ENDBRANCH   1   2
BRANCH   1   8
ATOM      8  C   UNL     1      -0.995  26.724  16.546  1.00  0.00     0.072 C 
BRANCH   8   9
ATOM      9  C   UNL     1      -2.347  26.057  16.213  1.00  0.00     0.227 C 
BRANCH   9  10
ATOM     10  N   UNL     1      -2.233  24.597  16.295  1.00  0.00    -0.350 N 
ATOM     11  H   UNL     1      -1.229  24.302  16.279  1.00  0.00     0.345 HD
ATOM     12  H   UNL     1      -2.732  24.156  15.487  1.00  0.00     0.345 HD
ATOM     13  H   UNL     1      -2.679  24.254  17.178  1.00  0.00     0.345 HD
ENDBRANCH   9  10
BRANCH   9  14
ATOM     14  C   UNL     1      -3.431  26.541  17.142  1.00  0.00     0.099 C 
ATOM     15  O   UNL     1      -3.798  25.826  18.111  1.00  0.00    -0.544 OA
ATOM     16  O   UNL     1      -4.034  27.775  16.935  1.00  0.00    -0.544 OA
ENDBRANCH   9  14
ENDBRANCH   8   9
ENDBRANCH   1   8
TORSDOF 7
ENDMDL
MODEL 2
REMARK VINA RESULT:    -2.665      2.127      3.653
REMARK INTER + INTRA:          -3.748
REMARK INTER:                  -3.642
REMARK INTRA:                  -0.105
REMARK UNBOUND:                -0.148
REMARK SMILES [NH3+]CCCC[C@@H]([NH3+])C(=O)[O-]
REMARK SMILES IDX 4 1 3 2 2 3 1 4 5 8 6 9 7 10 8 14 9 15 10 16
REMARK H PARENT 1 5 1 6 1 7 7 11 7 12 7 13
REMARK Flexibility Score: inf
ROOT
ATOM      1  C   UNL     1      -2.850  25.728  16.813  1.00  0.00     0.012 C 
ENDROOT
BRANCH   1   2
ATOM      2  C   UNL     1      -1.987  24.464  16.722  1.00  0.00     0.061 C 
BRANCH   2   3
ATOM      3  C   UNL     1      -1.236  24.402  15.385  1.00  0.00     0.258 C 
BRANCH   3   4
ATOM      4  N   UNL     1      -1.486  25.602  14.590  1.00  0.00    -0.358 N 
ATOM      5  H   UNL     1      -1.912  26.336  15.201  1.00  0.00     0.344 HD
ATOM      6  H   UNL     1      -0.586  25.968  14.200  1.00  0.00     0.344 HD
ATOM      7  H   UNL     1      -2.148  25.385  13.809  1.00  0.00     0.344 HD
ENDBRANCH   3   4
ENDBRANCH   2   3
ENDBRANCH   1   2
BRANCH   1   8
ATOM      8  C   UNL     1      -2.800  26.329  18.226  1.00  0.00     0.072 C 
BRANCH   8   9
ATOM      9  C   UNL     1      -1.471  27.064  18.502  1.00  0.00     0.227 C 
BRANCH   9  10
ATOM     10  N   UNL     1      -0.437  26.112  18.926  1.00  0.00    -0.350 N 
ATOM     11  H   UNL     1       0.498  26.387  18.546  1.00  0.00     0.345 HD
ATOM     12  H   UNL     1      -0.677  25.153  18.582  1.00  0.00     0.345 HD
ATOM     13  H   UNL     1      -0.389  26.081  19.971  1.00  0.00     0.345 HD
ENDBRANCH   9  10
BRANCH   9  14
ATOM     14  C   UNL     1      -1.006  27.817  17.282  1.00  0.00     0.099 C 
ATOM     15  O   UNL     1      -0.038  27.384  16.603  1.00  0.00    -0.544 OA
ATOM     16  O   UNL     1      -1.638  28.994  16.900  1.00  0.00    -0.544 OA
ENDBRANCH   9  14
ENDBRANCH   8   9
ENDBRANCH   1   8
TORSDOF 7
ENDMDL
MODEL 3
REMARK VINA RESULT:    -2.315      2.562      3.467
REMARK INTER + INTRA:          -3.274
REMARK INTER:                  -3.579
REMARK INTRA:                   0.304
REMARK UNBOUND:                -0.148
REMARK SMILES [NH3+]CCCC[C@@H]([NH3+])C(=O)[O-]
REMARK SMILES IDX 4 1 3 2 2 3 1 4 5 8 6 9 7 10 8 14 9 15 10 16
REMARK H PARENT 1 5 1 6 1 7 7 11 7 12 7 13
REMARK Flexibility Score: inf
ROOT
ATOM      1  C   UNL     1      -1.164  26.664  15.904  1.00  0.00     0.012 C 
ENDROOT
BRANCH   1   2
ATOM      2  C   UNL     1      -0.386  27.662  16.770  1.00  0.00     0.061 C 
BRANCH   2   3
ATOM      3  C   UNL     1      -0.800  29.106  16.455  1.00  0.00     0.258 C 
BRANCH   3   4
ATOM      4  N   UNL     1       0.071  30.061  17.136  1.00  0.00    -0.358 N 
ATOM      5  H   UNL     1      -0.051  31.006  16.704  1.00  0.00     0.344 HD
ATOM      6  H   UNL     1      -0.181  30.118  18.150  1.00  0.00     0.344 HD
ATOM      7  H   UNL     1       1.072  29.770  17.036  1.00  0.00     0.344 HD
ENDBRANCH   3   4
ENDBRANCH   2   3
ENDBRANCH   1   2
BRANCH   1   8
ATOM      8  C   UNL     1      -2.165  25.863  16.752  1.00  0.00     0.072 C 
BRANCH   8   9
ATOM      9  C   UNL     1      -2.572  26.612  18.039  1.00  0.00     0.227 C 
BRANCH   9  10
ATOM     10  N   UNL     1      -3.997  26.404  18.324  1.00  0.00    -0.350 N 
ATOM     11  H   UNL     1      -4.564  26.471  17.447  1.00  0.00     0.345 HD
ATOM     12  H   UNL     1      -4.332  27.127  19.003  1.00  0.00     0.345 HD
ATOM     13  H   UNL     1      -4.139  25.462  18.755  1.00  0.00     0.345 HD
ENDBRANCH   9  10
BRANCH   9  14
ATOM     14  C   UNL     1      -1.743  26.160  19.213  1.00  0.00     0.099 C 
ATOM     15  O   UNL     1      -1.940  26.654  20.354  1.00  0.00    -0.544 OA
ATOM     16  O   UNL     1      -0.754  25.198  19.045  1.00  0.00    -0.544 OA
ENDBRANCH   9  14
ENDBRANCH   8   9
ENDBRANCH   1   8
TORSDOF 7
ENDMDL
MODEL 4
REMARK VINA RESULT:    -2.221      2.068      2.971
REMARK INTER + INTRA:          -3.148
REMARK INTER:                  -3.135
REMARK INTRA:                  -0.014
REMARK UNBOUND:                -0.148
REMARK SMILES [NH3+]CCCC[C@@H]([NH3+])C(=O)[O-]
REMARK SMILES IDX 4 1 3 2 2 3 1 4 5 8 6 9 7 10 8 14 9 15 10 16
REMARK H PARENT 1 5 1 6 1 7 7 11 7 12 7 13
REMARK Flexibility Score: inf
ROOT
ATOM      1  C   UNL     1      -0.813  26.572  17.172  1.00  0.00     0.012 C 
ENDROOT
BRANCH   1   2
ATOM      2  C   UNL     1      -0.469  27.840  16.381  1.00  0.00     0.061 C 
BRANCH   2   3
ATOM      3  C   UNL     1      -0.899  29.100  17.143  1.00  0.00     0.258 C 
BRANCH   3   4
ATOM      4  N   UNL     1       0.148  30.119  17.101  1.00  0.00    -0.358 N 
ATOM      5  H   UNL     1      -0.251  31.033  17.419  1.00  0.00     0.344 HD
ATOM      6  H   UNL     1       0.934  29.854  17.737  1.00  0.00     0.344 HD
ATOM      7  H   UNL     1       0.504  30.228  16.123  1.00  0.00     0.344 HD
ENDBRANCH   3   4
ENDBRANCH   2   3
ENDBRANCH   1   2
BRANCH   1   8
ATOM      8  C   UNL     1      -2.121  25.944  16.666  1.00  0.00     0.072 C 
BRANCH   8   9
ATOM      9  C   UNL     1      -3.287  26.142  17.660  1.00  0.00     0.227 C 
BRANCH   9  10
ATOM     10  N   UNL     1      -2.774  26.501  18.987  1.00  0.00    -0.350 N 
ATOM     11  H   UNL     1      -1.737  26.371  19.031  1.00  0.00     0.345 HD
ATOM     12  H   UNL     1      -3.225  25.900  19.716  1.00  0.00     0.345 HD
ATOM     13  H   UNL     1      -3.006  27.499  19.199  1.00  0.00     0.345 HD
ENDBRANCH   9  10
BRANCH   9  14
ATOM     14  C   UNL     1      -4.238  27.204  17.172  1.00  0.00     0.099 C 
ATOM     15  O   UNL     1      -3.856  28.401  17.080  1.00  0.00    -0.544 OA
ATOM     16  O   UNL     1      -5.541  26.873  16.824  1.00  0.00    -0.544 OA
ENDBRANCH   9  14
ENDBRANCH   8   9
ENDBRANCH   1   8
TORSDOF 7
ENDMDL
MODEL 5
REMARK VINA RESULT:    -2.198      2.097      3.159
REMARK INTER + INTRA:          -3.116
REMARK INTER:                  -3.218
REMARK INTRA:                   0.101
REMARK UNBOUND:                -0.148
REMARK SMILES [NH3+]CCCC[C@@H]([NH3+])C(=O)[O-]
REMARK SMILES IDX 4 1 3 2 2 3 1 4 5 8 6 9 7 10 8 14 9 15 10 16
REMARK H PARENT 1 5 1 6 1 7 7 11 7 12 7 13
REMARK Flexibility Score: inf
ROOT
ATOM      1  C   UNL     1      -0.738  26.873  16.466  1.00  0.00     0.012 C 
ENDROOT
BRANCH   1   2
ATOM      2  C   UNL     1      -0.745  28.351  16.056  1.00  0.00     0.061 C 
BRANCH   2   3
ATOM      3  C   UNL     1      -0.870  29.263  17.283  1.00  0.00     0.258 C 
BRANCH   3   4
ATOM      4  N   UNL     1       0.197  30.262  17.303  1.00  0.00    -0.358 N 
ATOM      5  H   UNL     1       0.371  30.558  18.292  1.00  0.00     0.344 HD
ATOM      6  H   UNL     1       1.077  29.856  16.912  1.00  0.00     0.344 HD
ATOM      7  H   UNL     1      -0.085  31.101  16.744  1.00  0.00     0.344 HD
ENDBRANCH   3   4
ENDBRANCH   2   3
ENDBRANCH   1   2
BRANCH   1   8
ATOM      8  C   UNL     1      -0.477  26.720  17.972  1.00  0.00     0.072 C 
BRANCH   8   9
ATOM      9  C   UNL     1      -1.616  25.962  18.688  1.00  0.00     0.227 C 
BRANCH   9  10
ATOM     10  N   UNL     1      -2.050  26.696  19.882  1.00  0.00    -0.350 N 
ATOM     11  H   UNL     1      -1.339  26.615  20.646  1.00  0.00     0.345 HD
ATOM     12  H   UNL     1      -2.962  26.312  20.222  1.00  0.00     0.345 HD
ATOM     13  H   UNL     1      -2.189  27.706  19.648  1.00  0.00     0.345 HD
ENDBRANCH   9  10
BRANCH   9  14
ATOM     14  C   UNL     1      -2.787  25.748  17.764  1.00  0.00     0.099 C 
ATOM     15  O   UNL     1      -2.787  24.781  16.957  1.00  0.00    -0.544 OA
ATOM     16  O   UNL     1      -3.871  26.616  17.792  1.00  0.00    -0.544 OA
ENDBRANCH   9  14
ENDBRANCH   8   9
ENDBRANCH   1   8
TORSDOF 7
ENDMDL
MODEL 6
REMARK VINA RESULT:    -2.120      2.679      3.489
REMARK INTER + INTRA:          -3.012
REMARK INTER:                  -3.438
REMARK INTRA:                   0.426
REMARK UNBOUND:                -0.148
REMARK SMILES [NH3+]CCCC[C@@H]([NH3+])C(=O)[O-]
REMARK SMILES IDX 4 1 3 2 2 3 1 4 5 8 6 9 7 10 8 14 9 15 10 16
REMARK H PARENT 1 5 1 6 1 7 7 11 7 12 7 13
REMARK Flexibility Score: inf
ROOT
ATOM      1  C   UNL     1      -2.718  26.590  18.904  1.00  0.00     0.012 C 
ENDROOT
BRANCH   1   2
ATOM      2  C   UNL     1      -3.806  26.203  17.897  1.00  0.00     0.061 C 
BRANCH   2   3
ATOM      3  C   UNL     1      -4.646  27.424  17.495  1.00  0.00     0.258 C 
BRANCH   3   4
ATOM      4  N   UNL     1      -5.795  27.024  16.685  1.00  0.00    -0.358 N 
ATOM      5  H   UNL     1      -6.312  27.880  16.378  1.00  0.00     0.344 HD
ATOM      6  H   UNL     1      -5.473  26.503  15.837  1.00  0.00     0.344 HD
ATOM      7  H   UNL     1      -6.440  26.422  17.247  1.00  0.00     0.344 HD
ENDBRANCH   3   4
ENDBRANCH   2   3
ENDBRANCH   1   2
BRANCH   1   8
ATOM      8  C   UNL     1      -1.333  26.613  18.238  1.00  0.00     0.072 C 
BRANCH   8   9
ATOM      9  C   UNL     1      -1.424  26.803  16.708  1.00  0.00     0.227 C 
BRANCH   9  10
ATOM     10  N   UNL     1      -0.330  27.658  16.232  1.00  0.00    -0.350 N 
ATOM     11  H   UNL     1      -0.381  28.605  16.675  1.00  0.00     0.345 HD
ATOM     12  H   UNL     1      -0.390  27.764  15.193  1.00  0.00     0.345 HD
ATOM     13  H   UNL     1       0.591  27.219  16.462  1.00  0.00     0.345 HD
ENDBRANCH   9  10
BRANCH   9  14
ATOM     14  C   UNL     1      -1.384  25.475  15.996  1.00  0.00     0.099 C 
ATOM     15  O   UNL     1      -1.347  24.404  16.657  1.00  0.00    -0.544 OA
ATOM     16  O   UNL     1      -1.384  25.423  14.608  1.00  0.00    -0.544 OA
ENDBRANCH   9  14
ENDBRANCH   8   9
ENDBRANCH   1   8
TORSDOF 7
ENDMDL
MODEL 7
REMARK VINA RESULT:    -2.047      2.332      3.162
REMARK INTER + INTRA:          -2.913
REMARK INTER:                  -2.981
REMARK INTRA:                   0.067
REMARK UNBOUND:                -0.148
REMARK SMILES [NH3+]CCCC[C@@H]([NH3+])C(=O)[O-]
REMARK SMILES IDX 4 1 3 2 2 3 1 4 5 8 6 9 7 10 8 14 9 15 10 16
REMARK H PARENT 1 5 1 6 1 7 7 11 7 12 7 13
REMARK Flexibility Score: inf
ROOT
ATOM      1  C   UNL     1      -1.611  25.170  17.685  1.00  0.00     0.012 C 
ENDROOT
BRANCH   1   2
ATOM      2  C   UNL     1      -3.066  25.377  17.248  1.00  0.00     0.061 C 
BRANCH   2   3
ATOM      3  C   UNL     1      -3.770  26.406  18.142  1.00  0.00     0.258 C 
BRANCH   3   4
ATOM      4  N   UNL     1      -4.662  27.257  17.357  1.00  0.00    -0.358 N 
ATOM      5  H   UNL     1      -4.405  27.183  16.346  1.00  0.00     0.344 HD
ATOM      6  H   UNL     1      -5.654  26.945  17.478  1.00  0.00     0.344 HD
ATOM      7  H   UNL     1      -4.565  28.255  17.658  1.00  0.00     0.344 HD
ENDBRANCH   3   4
ENDBRANCH   2   3
ENDBRANCH   1   2
BRANCH   1   8
ATOM      8  C   UNL     1      -0.947  26.509  18.042  1.00  0.00     0.072 C 
BRANCH   8   9
ATOM      9  C   UNL     1      -0.533  27.310  16.788  1.00  0.00     0.227 C 
BRANCH   9  10
ATOM     10  N   UNL     1      -1.038  26.658  15.574  1.00  0.00    -0.350 N 
ATOM     11  H   UNL     1      -0.436  25.842  15.314  1.00  0.00     0.345 HD
ATOM     12  H   UNL     1      -1.046  27.342  14.782  1.00  0.00     0.345 HD
ATOM     13  H   UNL     1      -2.018  26.327  15.729  1.00  0.00     0.345 HD
ENDBRANCH   9  10
BRANCH   9  14
ATOM     14  C   UNL     1      -1.043  28.726  16.859  1.00  0.00     0.099 C 
ATOM     15  O   UNL     1      -2.272  28.964  16.721  1.00  0.00    -0.544 OA
ATOM     16  O   UNL     1      -0.162  29.779  17.073  1.00  0.00    -0.544 OA
ENDBRANCH   9  14
ENDBRANCH   8   9
ENDBRANCH   1   8
TORSDOF 7
ENDMDL
MODEL 8
REMARK VINA RESULT:    -1.951      2.743      3.427
REMARK INTER + INTRA:          -2.784
REMARK INTER:                  -2.979
REMARK INTRA:                   0.195
REMARK UNBOUND:                -0.148
REMARK SMILES [NH3+]CCCC[C@@H]([NH3+])C(=O)[O-]
REMARK SMILES IDX 4 1 3 2 2 3 1 4 5 8 6 9 7 10 8 14 9 15 10 16
REMARK H PARENT 1 5 1 6 1 7 7 11 7 12 7 13
REMARK Flexibility Score: inf
ROOT
ATOM      1  C   UNL     1      -1.000  27.173  18.223  1.00  0.00     0.012 C 
ENDROOT
BRANCH   1   2
ATOM      2  C   UNL     1      -0.498  27.818  16.926  1.00  0.00     0.061 C 
BRANCH   2   3
ATOM      3  C   UNL     1      -0.938  29.285  16.832  1.00  0.00     0.258 C 
BRANCH   3   4
ATOM      4  N   UNL     1       0.163  30.185  17.170  1.00  0.00    -0.358 N 
ATOM      5  H   UNL     1      -0.217  31.145  17.336  1.00  0.00     0.344 HD
ATOM      6  H   UNL     1       0.641  29.856  18.041  1.00  0.00     0.344 HD
ATOM      7  H   UNL     1       0.850  30.224  16.382  1.00  0.00     0.344 HD
ENDBRANCH   3   4
ENDBRANCH   2   3
ENDBRANCH   1   2
BRANCH   1   8
ATOM      8  C   UNL     1      -0.841  25.645  18.176  1.00  0.00     0.072 C 
BRANCH   8   9
ATOM      9  C   UNL     1      -1.994  24.961  17.411  1.00  0.00     0.227 C 
BRANCH   9  10
ATOM     10  N   UNL     1      -3.251  25.688  17.620  1.00  0.00    -0.350 N 
ATOM     11  H   UNL     1      -3.813  25.718  16.738  1.00  0.00     0.345 HD
ATOM     12  H   UNL     1      -3.047  26.667  17.929  1.00  0.00     0.345 HD
ATOM     13  H   UNL     1      -3.811  25.221  18.370  1.00  0.00     0.345 HD
ENDBRANCH   9  10
BRANCH   9  14
ATOM     14  C   UNL     1      -1.689  24.877  15.937  1.00  0.00     0.099 C 
ATOM     15  O   UNL     1      -2.123  25.760  15.150  1.00  0.00    -0.544 OA
ATOM     16  O   UNL     1      -0.931  23.826  15.435  1.00  0.00    -0.544 OA
ENDBRANCH   9  14
ENDBRANCH   8   9
ENDBRANCH   1   8
TORSDOF 7
ENDMDL
MODEL 9
REMARK VINA RESULT:    -1.900      1.616      1.999
REMARK INTER + INTRA:          -2.715
REMARK INTER:                  -2.519
REMARK INTRA:                  -0.196
REMARK UNBOUND:                -0.148
REMARK SMILES [NH3+]CCCC[C@@H]([NH3+])C(=O)[O-]
REMARK SMILES IDX 4 1 3 2 2 3 1 4 5 8 6 9 7 10 8 14 9 15 10 16
REMARK H PARENT 1 5 1 6 1 7 7 11 7 12 7 13
REMARK Flexibility Score: inf
ROOT
ATOM      1  C   UNL     1      -1.114  25.026  17.604  1.00  0.00     0.012 C 
ENDROOT
BRANCH   1   2
ATOM      2  C   UNL     1      -0.369  25.608  18.810  1.00  0.00     0.061 C 
BRANCH   2   3
ATOM      3  C   UNL     1      -1.208  25.486  20.089  1.00  0.00     0.258 C 
BRANCH   3   4
ATOM      4  N   UNL     1      -1.980  26.703  20.327  1.00  0.00    -0.358 N 
ATOM      5  H   UNL     1      -1.354  27.534  20.211  1.00  0.00     0.344 HD
ATOM      6  H   UNL     1      -2.764  26.772  19.639  1.00  0.00     0.344 HD
ATOM      7  H   UNL     1      -2.362  26.702  21.302  1.00  0.00     0.344 HD
ENDBRANCH   3   4
ENDBRANCH   2   3
ENDBRANCH   1   2
BRANCH   1   8
ATOM      8  C   UNL     1      -1.329  26.095  16.521  1.00  0.00     0.072 C 
BRANCH   8   9
ATOM      9  C   UNL     1      -1.583  27.494  17.122  1.00  0.00     0.227 C 
BRANCH   9  10
ATOM     10  N   UNL     1      -0.863  28.519  16.357  1.00  0.00    -0.350 N 
ATOM     11  H   UNL     1      -1.486  29.335  16.154  1.00  0.00     0.345 HD
ATOM     12  H   UNL     1      -0.525  28.114  15.453  1.00  0.00     0.345 HD
ATOM     13  H   UNL     1      -0.031  28.848  16.898  1.00  0.00     0.345 HD
ENDBRANCH   9  10
BRANCH   9  14
ATOM     14  C   UNL     1      -3.056  27.812  17.147  1.00  0.00     0.099 C 
ATOM     15  O   UNL     1      -3.464  28.944  16.777  1.00  0.00    -0.544 OA
ATOM     16  O   UNL     1      -3.972  26.862  17.582  1.00  0.00    -0.544 OA
ENDBRANCH   9  14
ENDBRANCH   8   9
ENDBRANCH   1   8
TORSDOF 7
ENDMDL
