MODEL 1
REMARK VINA RESULT:    -3.681      0.000      0.000
REMARK INTER + INTRA:          -4.918
REMARK INTER:                  -4.972
REMARK INTRA:                   0.054
REMARK UNBOUND:                 0.054
REMARK SMILES C=C1CCC=C(C)CC[C@H]2[C@@H]1CC2(C)C
REMARK SMILES IDX 11 1 12 2 13 3 10 4 14 5 15 6 9 7 8 8 6 9 7 10 5 11 2 13
REMARK SMILES IDX 1 14 3 15 4 16
REMARK H PARENT
REMARK Flexibility Score: 70.00
ROOT
ATOM      1  C   UNL     1     140.117 143.143 135.064  1.00  0.00     0.018 C 
ATOM      2  C   UNL     1     138.770 143.616 134.495  1.00  0.00     0.015 C 
ATOM      3  C   UNL     1     138.704 142.371 133.592  1.00  0.00    -0.031 C 
ATOM      4  C   UNL     1     140.036 141.859 134.205  1.00  0.00     0.002 C 
ATOM      5  C   UNL     1     137.505 141.464 133.930  1.00  0.00     0.011 C 
ATOM      6  C   UNL     1     138.722 142.722 132.090  1.00  0.00     0.011 C 
ENDROOT
BRANCH   4   7
ATOM      7  C   UNL     1     141.215 141.554 133.239  1.00  0.00     0.009 C 
BRANCH   7   8
ATOM      8  C   UNL     1     142.265 140.553 133.782  1.00  0.00     0.030 C 
BRANCH   8   9
ATOM      9  C   UNL     1     143.635 141.131 134.106  1.00  0.00    -0.077 C 
ATOM     10  C   UNL     1     144.813 140.729 133.252  1.00  0.00     0.039 C 
ATOM     11  C   UNL     1     143.856 142.018 135.100  1.00  0.00    -0.028 CG0
ATOM     12  G   UNL     1     142.827 142.509 136.086  1.00  0.00     0.000 G0
ENDBRANCH   8   9
ENDBRANCH   7   8
ENDBRANCH   4   7
BRANCH   1  13
ATOM     13  C   UNL     1     141.309 144.082 134.850  1.00  0.00    -0.074 C 
ATOM     14  C   UNL     1     141.404 144.943 133.817  1.00  0.00     0.008 C 
BRANCH  13  15
ATOM     15  C   UNL     1     142.474 143.990 135.810  1.00  0.00     0.035 C 
BRANCH  15  16
ATOM     16  C   UNL     1     142.836 142.528 136.097  1.00  0.00     0.032 CG0
ATOM     17  G   UNL     1     143.842 142.021 135.095  1.00  0.00     0.000 G0
ENDBRANCH  15  16
ENDBRANCH  13  15
ENDBRANCH   1  13
TORSDOF 0
ENDMDL
MODEL 2
REMARK VINA RESULT:    -3.662      2.562      5.494
REMARK INTER + INTRA:          -4.892
REMARK INTER:                  -4.988
REMARK INTRA:                   0.096
REMARK UNBOUND:                 0.054
REMARK SMILES C=C1CCC=C(C)CC[C@H]2[C@@H]1CC2(C)C
REMARK SMILES IDX 11 1 12 2 13 3 10 4 14 5 15 6 9 7 8 8 6 9 7 10 5 11 2 13
REMARK SMILES IDX 1 14 3 15 4 16
REMARK H PARENT
REMARK Flexibility Score: 70.00
ROOT
ATOM      1  C   UNL     1     142.123 139.058 134.829  1.00  0.00     0.018 C 
ATOM      2  C   UNL     1     143.439 138.567 134.206  1.00  0.00     0.015 C 
ATOM      3  C   UNL     1     143.498 139.822 133.317  1.00  0.00    -0.031 C 
ATOM      4  C   UNL     1     142.199 140.351 133.983  1.00  0.00     0.002 C 
ATOM      5  C   UNL     1     144.725 140.701 133.623  1.00  0.00     0.011 C 
ATOM      6  C   UNL     1     143.420 139.491 131.812  1.00  0.00     0.011 C 
ENDROOT
BRANCH   4   7
ATOM      7  C   UNL     1     140.993 140.691 133.064  1.00  0.00     0.009 C 
BRANCH   7   8
ATOM      8  C   UNL     1     140.028 141.769 133.620  1.00  0.00     0.030 C 
BRANCH   8   9
ATOM      9  C   UNL     1     138.654 141.277 134.053  1.00  0.00    -0.077 C 
ATOM     10  C   UNL     1     137.437 141.781 133.316  1.00  0.00     0.039 C 
ATOM     11  C   UNL     1     138.459 140.381 135.044  1.00  0.00    -0.028 CG0
ATOM     12  G   UNL     1     139.533 139.794 135.924  1.00  0.00     0.000 G0
ENDBRANCH   8   9
ENDBRANCH   7   8
ENDBRANCH   4   7
BRANCH   1  13
ATOM     13  C   UNL     1     140.905 138.144 134.646  1.00  0.00    -0.074 C 
ATOM     14  C   UNL     1     140.792 137.246 133.648  1.00  0.00     0.008 C 
BRANCH  13  15
ATOM     15  C   UNL     1     139.740 138.308 135.595  1.00  0.00     0.035 C 
BRANCH  15  16
ATOM     16  C   UNL     1     139.511 139.786 135.937  1.00  0.00     0.032 CG0
ATOM     17  G   UNL     1     138.454 140.383 135.045  1.00  0.00     0.000 G0
ENDBRANCH  15  16
ENDBRANCH  13  15
ENDBRANCH   1  13
TORSDOF 0
ENDMDL
MODEL 3
REMARK VINA RESULT:    -3.644      2.206      4.005
REMARK INTER + INTRA:          -4.868
REMARK INTER:                  -4.938
REMARK INTRA:                   0.070
REMARK UNBOUND:                 0.054
REMARK SMILES C=C1CCC=C(C)CC[C@H]2[C@@H]1CC2(C)C
REMARK SMILES IDX 11 1 12 2 13 3 10 4 14 5 15 6 9 7 8 8 6 9 7 10 5 11 2 13
REMARK SMILES IDX 1 14 3 15 4 16
REMARK H PARENT
REMARK Flexibility Score: 70.00
ROOT
ATOM      1  C   UNL     1     143.142 141.979 134.792  1.00  0.00     0.018 C 
ATOM      2  C   UNL     1     143.664 143.313 134.233  1.00  0.00     0.015 C 
ATOM      3  C   UNL     1     142.378 143.478 133.402  1.00  0.00    -0.031 C 
ATOM      4  C   UNL     1     141.822 142.160 134.006  1.00  0.00     0.002 C 
ATOM      5  C   UNL     1     141.564 144.717 133.822  1.00  0.00     0.011 C 
ATOM      6  C   UNL     1     142.647 143.484 131.883  1.00  0.00     0.011 C 
ENDROOT
BRANCH   4   7
ATOM      7  C   UNL     1     141.396 141.031 133.028  1.00  0.00     0.009 C 
BRANCH   7   8
ATOM      8  C   UNL     1     140.362 140.027 133.597  1.00  0.00     0.030 C 
BRANCH   8   9
ATOM      9  C   UNL     1     140.873 138.616 133.857  1.00  0.00    -0.077 C 
ATOM     10  C   UNL     1     140.357 137.487 132.998  1.00  0.00     0.039 C 
ATOM     11  C   UNL     1     141.796 138.317 134.797  1.00  0.00    -0.028 CG0
ATOM     12  G   UNL     1     142.398 139.289 135.778  1.00  0.00     0.000 G0
ENDBRANCH   8   9
ENDBRANCH   7   8
ENDBRANCH   4   7
BRANCH   1  13
ATOM     13  C   UNL     1     143.996 140.741 134.494  1.00  0.00    -0.074 C 
ATOM     14  C   UNL     1     144.800 140.632 133.418  1.00  0.00     0.008 C 
BRANCH  13  15
ATOM     15  C   UNL     1     143.876 139.551 135.420  1.00  0.00     0.035 C 
BRANCH  15  16
ATOM     16  C   UNL     1     142.411 139.280 135.782  1.00  0.00     0.032 CG0
ATOM     17  G   UNL     1     141.789 138.317 134.805  1.00  0.00     0.000 G0
ENDBRANCH  15  16
ENDBRANCH  13  15
ENDBRANCH   1  13
TORSDOF 0
ENDMDL
MODEL 4
REMARK VINA RESULT:    -3.613      2.384      4.809
REMARK INTER + INTRA:          -4.827
REMARK INTER:                  -4.900
REMARK INTRA:                   0.074
REMARK UNBOUND:                 0.054
REMARK SMILES C=C1CCC=C(C)CC[C@H]2[C@@H]1CC2(C)C
REMARK SMILES IDX 11 1 12 2 13 3 10 4 14 5 15 6 9 7 8 8 6 9 7 10 5 11 2 13
REMARK SMILES IDX 1 14 3 15 4 16
REMARK H PARENT
REMARK Flexibility Score: 70.00
ROOT
ATOM      1  C   UNL     1     142.699 139.430 132.223  1.00  0.00     0.018 C 
ATOM      2  C   UNL     1     142.937 138.057 132.872  1.00  0.00     0.015 C 
ATOM      3  C   UNL     1     141.738 138.282 133.810  1.00  0.00    -0.031 C 
ATOM      4  C   UNL     1     141.457 139.644 133.120  1.00  0.00     0.002 C 
ATOM      5  C   UNL     1     140.613 137.255 133.581  1.00  0.00     0.011 C 
ATOM      6  C   UNL     1     142.144 138.330 135.298  1.00  0.00     0.011 C 
ENDROOT
BRANCH   4   7
ATOM      7  C   UNL     1     141.413 140.918 134.009  1.00  0.00     0.009 C 
BRANCH   7   8
ATOM      8  C   UNL     1     140.605 142.102 133.419  1.00  0.00     0.030 C 
BRANCH   8   9
ATOM      9  C   UNL     1     141.416 143.316 132.990  1.00  0.00    -0.077 C 
ATOM     10  C   UNL     1     141.269 144.600 133.770  1.00  0.00     0.039 C 
ATOM     11  C   UNL     1     142.295 143.305 131.964  1.00  0.00    -0.028 CG0
ATOM     12  G   UNL     1     142.553 142.142 131.041  1.00  0.00     0.000 G0
ENDBRANCH   8   9
ENDBRANCH   7   8
ENDBRANCH   4   7
BRANCH   1  13
ATOM     13  C   UNL     1     143.850 140.437 132.329  1.00  0.00    -0.074 C 
ATOM     14  C   UNL     1     144.754 140.434 133.329  1.00  0.00     0.008 C 
BRANCH  13  15
ATOM     15  C   UNL     1     143.935 141.537 131.294  1.00  0.00     0.035 C 
BRANCH  15  16
ATOM     16  C   UNL     1     142.555 142.150 131.027  1.00  0.00     0.032 CG0
ATOM     17  G   UNL     1     142.289 143.295 131.970  1.00  0.00     0.000 G0
ENDBRANCH  15  16
ENDBRANCH  13  15
ENDBRANCH   1  13
TORSDOF 0
ENDMDL
MODEL 5
REMARK VINA RESULT:    -3.600      2.220      3.260
REMARK INTER + INTRA:          -4.809
REMARK INTER:                  -5.002
REMARK INTRA:                   0.193
REMARK UNBOUND:                 0.054
REMARK SMILES C=C1CCC=C(C)CC[C@H]2[C@@H]1CC2(C)C
REMARK SMILES IDX 11 1 12 2 13 3 10 4 14 5 15 6 9 7 8 8 6 9 7 10 5 11 2 13
REMARK SMILES IDX 1 14 3 15 4 16
REMARK H PARENT
REMARK Flexibility Score: 70.00
ROOT
ATOM      1  C   UNL     1     139.126 143.910 132.946  1.00  0.00     0.018 C 
ATOM      2  C   UNL     1     138.947 144.865 131.755  1.00  0.00     0.015 C 
ATOM      3  C   UNL     1     139.223 143.710 130.775  1.00  0.00    -0.031 C 
ATOM      4  C   UNL     1     139.348 142.729 131.971  1.00  0.00     0.002 C 
ATOM      5  C   UNL     1     138.011 143.402 129.876  1.00  0.00     0.011 C 
ATOM      6  C   UNL     1     140.493 143.937 129.928  1.00  0.00     0.011 C 
ENDROOT
BRANCH   4   7
ATOM      7  C   UNL     1     140.661 141.909 132.110  1.00  0.00     0.009 C 
BRANCH   7   8
ATOM      8  C   UNL     1     140.505 140.535 132.809  1.00  0.00     0.030 C 
BRANCH   8   9
ATOM      9  C   UNL     1     139.541 140.490 133.986  1.00  0.00    -0.077 C 
ATOM     10  C   UNL     1     138.361 139.550 133.923  1.00  0.00     0.039 C 
ATOM     11  C   UNL     1     139.697 141.224 135.109  1.00  0.00    -0.028 CG0
ATOM     12  G   UNL     1     140.777 142.247 135.348  1.00  0.00     0.000 G0
ENDBRANCH   8   9
ENDBRANCH   7   8
ENDBRANCH   4   7
BRANCH   1  13
ATOM     13  C   UNL     1     140.250 144.258 133.929  1.00  0.00    -0.074 C 
ATOM     14  C   UNL     1     141.323 145.004 133.600  1.00  0.00     0.008 C 
BRANCH  13  15
ATOM     15  C   UNL     1     140.186 143.674 135.322  1.00  0.00     0.035 C 
BRANCH  15  16
ATOM     16  C   UNL     1     140.768 142.255 135.352  1.00  0.00     0.032 CG0
ATOM     17  G   UNL     1     139.690 141.231 135.110  1.00  0.00     0.000 G0
ENDBRANCH  15  16
ENDBRANCH  13  15
ENDBRANCH   1  13
TORSDOF 0
ENDMDL
MODEL 6
REMARK VINA RESULT:    -3.594      2.749      4.793
REMARK INTER + INTRA:          -4.801
REMARK INTER:                  -4.945
REMARK INTRA:                   0.144
REMARK UNBOUND:                 0.054
REMARK SMILES C=C1CCC=C(C)CC[C@H]2[C@@H]1CC2(C)C
REMARK SMILES IDX 11 1 12 2 13 3 10 4 14 5 15 6 9 7 8 8 6 9 7 10 5 11 2 13
REMARK SMILES IDX 1 14 3 15 4 16
REMARK H PARENT
REMARK Flexibility Score: 70.00
ROOT
ATOM      1  C   UNL     1     144.746 140.944 134.475  1.00  0.00     0.018 C 
ATOM      2  C   UNL     1     144.693 140.642 132.969  1.00  0.00     0.015 C 
ATOM      3  C   UNL     1     143.946 141.964 132.720  1.00  0.00    -0.031 C 
ATOM      4  C   UNL     1     144.046 142.303 134.232  1.00  0.00     0.002 C 
ATOM      5  C   UNL     1     144.752 142.936 131.837  1.00  0.00     0.011 C 
ATOM      6  C   UNL     1     142.528 141.751 132.151  1.00  0.00     0.011 C 
ENDROOT
BRANCH   4   7
ATOM      7  C   UNL     1     142.730 142.592 135.005  1.00  0.00     0.009 C 
BRANCH   7   8
ATOM      8  C   UNL     1     142.873 143.564 136.203  1.00  0.00     0.030 C 
BRANCH   8   9
ATOM      9  C   UNL     1     142.719 142.948 137.586  1.00  0.00    -0.077 C 
ATOM     10  C   UNL     1     141.604 143.437 138.479  1.00  0.00     0.039 C 
ATOM     11  C   UNL     1     143.506 141.956 138.055  1.00  0.00    -0.028 CG0
ATOM     12  G   UNL     1     144.693 141.364 137.340  1.00  0.00     0.000 G0
ENDBRANCH   8   9
ENDBRANCH   7   8
ENDBRANCH   4   7
BRANCH   1  13
ATOM     13  C   UNL     1     144.055 139.929 135.394  1.00  0.00    -0.074 C 
ATOM     14  C   UNL     1     143.105 139.070 134.974  1.00  0.00     0.008 C 
BRANCH  13  15
ATOM     15  C   UNL     1     144.408 139.940 136.864  1.00  0.00     0.035 C 
BRANCH  15  16
ATOM     16  C   UNL     1     144.712 141.363 137.347  1.00  0.00     0.032 CG0
ATOM     17  G   UNL     1     143.518 141.953 138.053  1.00  0.00     0.000 G0
ENDBRANCH  15  16
ENDBRANCH  13  15
ENDBRANCH   1  13
TORSDOF 0
ENDMDL
MODEL 7
REMARK VINA RESULT:    -3.582      2.650      4.401
REMARK INTER + INTRA:          -4.784
REMARK INTER:                  -4.850
REMARK INTRA:                   0.066
REMARK UNBOUND:                 0.054
REMARK SMILES C=C1CCC=C(C)CC[C@H]2[C@@H]1CC2(C)C
REMARK SMILES IDX 11 1 12 2 13 3 10 4 14 5 15 6 9 7 8 8 6 9 7 10 5 11 2 13
REMARK SMILES IDX 1 14 3 15 4 16
REMARK H PARENT
REMARK Flexibility Score: 70.00
ROOT
ATOM      1  C   UNL     1     139.547 139.461 132.042  1.00  0.00     0.018 C 
ATOM      2  C   UNL     1     138.168 139.161 132.651  1.00  0.00     0.015 C 
ATOM      3  C   UNL     1     138.333 140.338 133.629  1.00  0.00    -0.031 C 
ATOM      4  C   UNL     1     139.701 140.681 132.981  1.00  0.00     0.002 C 
ATOM      5  C   UNL     1     137.276 141.437 133.408  1.00  0.00     0.011 C 
ATOM      6  C   UNL     1     138.359 139.888 135.105  1.00  0.00     0.011 C 
ENDROOT
BRANCH   4   7
ATOM      7  C   UNL     1     140.952 140.739 133.901  1.00  0.00     0.009 C 
BRANCH   7   8
ATOM      8  C   UNL     1     142.139 141.564 133.343  1.00  0.00     0.030 C 
BRANCH   8   9
ATOM      9  C   UNL     1     143.378 140.772 132.952  1.00  0.00    -0.077 C 
ATOM     10  C   UNL     1     144.620 140.900 133.802  1.00  0.00     0.039 C 
ATOM     11  C   UNL     1     143.425 139.928 131.900  1.00  0.00    -0.028 CG0
ATOM     12  G   UNL     1     142.313 139.695 130.910  1.00  0.00     0.000 G0
ENDBRANCH   8   9
ENDBRANCH   7   8
ENDBRANCH   4   7
BRANCH   1  13
ATOM     13  C   UNL     1     140.588 138.339 132.138  1.00  0.00    -0.074 C 
ATOM     14  C   UNL     1     140.608 137.424 133.128  1.00  0.00     0.008 C 
BRANCH  13  15
ATOM     15  C   UNL     1     141.692 138.299 131.107  1.00  0.00     0.035 C 
BRANCH  15  16
ATOM     16  C   UNL     1     142.309 139.689 130.904  1.00  0.00     0.032 CG0
ATOM     17  G   UNL     1     143.427 139.925 131.887  1.00  0.00     0.000 G0
ENDBRANCH  15  16
ENDBRANCH  13  15
ENDBRANCH   1  13
TORSDOF 0
ENDMDL
MODEL 8
REMARK VINA RESULT:    -3.572      2.239      3.910
REMARK INTER + INTRA:          -4.771
REMARK INTER:                  -4.848
REMARK INTRA:                   0.077
REMARK UNBOUND:                 0.054
REMARK SMILES C=C1CCC=C(C)CC[C@H]2[C@@H]1CC2(C)C
REMARK SMILES IDX 11 1 12 2 13 3 10 4 14 5 15 6 9 7 8 8 6 9 7 10 5 11 2 13
REMARK SMILES IDX 1 14 3 15 4 16
REMARK H PARENT
REMARK Flexibility Score: 70.00
ROOT
ATOM      1  C   UNL     1     141.056 144.740 134.624  1.00  0.00     0.018 C 
ATOM      2  C   UNL     1     141.425 144.723 133.131  1.00  0.00     0.015 C 
ATOM      3  C   UNL     1     140.133 143.950 132.811  1.00  0.00    -0.031 C 
ATOM      4  C   UNL     1     139.727 144.014 134.308  1.00  0.00     0.002 C 
ATOM      5  C   UNL     1     139.182 144.750 131.900  1.00  0.00     0.011 C 
ATOM      6  C   UNL     1     140.406 142.549 132.225  1.00  0.00     0.011 C 
ENDROOT
BRANCH   4   7
ATOM      7  C   UNL     1     139.436 142.676 135.043  1.00  0.00     0.009 C 
BRANCH   7   8
ATOM      8  C   UNL     1     138.499 142.794 136.272  1.00  0.00     0.030 C 
BRANCH   8   9
ATOM      9  C   UNL     1     139.144 142.555 137.630  1.00  0.00    -0.077 C 
ATOM     10  C   UNL     1     138.727 141.344 138.429  1.00  0.00     0.039 C 
ATOM     11  C   UNL     1     140.102 143.351 138.153  1.00  0.00    -0.028 CG0
ATOM     12  G   UNL     1     140.621 144.624 137.535  1.00  0.00     0.000 G0
ENDBRANCH   8   9
ENDBRANCH   7   8
ENDBRANCH   4   7
BRANCH   1  13
ATOM     13  C   UNL     1     142.046 144.055 135.573  1.00  0.00    -0.074 C 
ATOM     14  C   UNL     1     142.872 143.059 135.197  1.00  0.00     0.008 C 
BRANCH  13  15
ATOM     15  C   UNL     1     142.046 144.472 137.027  1.00  0.00     0.035 C 
BRANCH  15  16
ATOM     16  C   UNL     1     140.615 144.638 137.553  1.00  0.00     0.032 CG0
ATOM     17  G   UNL     1     140.110 143.346 138.142  1.00  0.00     0.000 G0
ENDBRANCH  15  16
ENDBRANCH  13  15
ENDBRANCH   1  13
TORSDOF 0
ENDMDL
MODEL 9
REMARK VINA RESULT:    -3.564      2.711      4.506
REMARK INTER + INTRA:          -4.760
REMARK INTER:                  -4.833
REMARK INTRA:                   0.073
REMARK UNBOUND:                 0.054
REMARK SMILES C=C1CCC=C(C)CC[C@H]2[C@@H]1CC2(C)C
REMARK SMILES IDX 11 1 12 2 13 3 10 4 14 5 15 6 9 7 8 8 6 9 7 10 5 11 2 13
REMARK SMILES IDX 1 14 3 15 4 16
REMARK H PARENT
REMARK Flexibility Score: 70.00
ROOT
ATOM      1  C   UNL     1     139.374 142.417 132.586  1.00  0.00     0.018 C 
ATOM      2  C   UNL     1     139.054 143.803 133.167  1.00  0.00     0.015 C 
ATOM      3  C   UNL     1     140.209 143.658 134.174  1.00  0.00    -0.031 C 
ATOM      4  C   UNL     1     140.573 142.282 133.554  1.00  0.00     0.002 C 
ATOM      5  C   UNL     1     141.308 144.717 133.962  1.00  0.00     0.011 C 
ATOM      6  C   UNL     1     139.726 143.652 135.639  1.00  0.00     0.011 C 
ENDROOT
BRANCH   4   7
ATOM      7  C   UNL     1     140.615 141.046 134.494  1.00  0.00     0.009 C 
BRANCH   7   8
ATOM      8  C   UNL     1     141.504 139.877 134.000  1.00  0.00     0.030 C 
BRANCH   8   9
ATOM      9  C   UNL     1     140.770 138.615 133.569  1.00  0.00    -0.077 C 
ATOM     10  C   UNL     1     140.926 137.364 134.400  1.00  0.00     0.039 C 
ATOM     11  C   UNL     1     139.951 138.555 132.496  1.00  0.00    -0.028 CG0
ATOM     12  G   UNL     1     139.698 139.675 131.520  1.00  0.00     0.000 G0
ENDBRANCH   8   9
ENDBRANCH   7   8
ENDBRANCH   4   7
BRANCH   1  13
ATOM     13  C   UNL     1     138.255 141.372 132.672  1.00  0.00    -0.074 C 
ATOM     14  C   UNL     1     137.292 141.388 133.615  1.00  0.00     0.008 C 
BRANCH  13  15
ATOM     15  C   UNL     1     138.273 140.224 131.689  1.00  0.00     0.035 C 
BRANCH  15  16
ATOM     16  C   UNL     1     139.692 139.672 131.511  1.00  0.00     0.032 CG0
ATOM     17  G   UNL     1     139.954 138.548 132.480  1.00  0.00     0.000 G0
ENDBRANCH  15  16
ENDBRANCH  13  15
ENDBRANCH   1  13
TORSDOF 0
ENDMDL
