MODEL 1
REMARK VINA RESULT:    -5.560      0.000      0.000
REMARK INTER + INTRA:          -8.921
REMARK INTER:                  -8.486
REMARK INTRA:                  -0.435
REMARK UNBOUND:                -0.435
REMARK SMILES CCCCCCCCCCC(=O)[O-]
REMARK SMILES IDX 7 1 8 2 9 3 10 4 11 5 12 6 13 7 6 8 5 9 4 10 3 11 2 12 1 13
REMARK H PARENT
REMARK Flexibility Score: inf
ROOT
ATOM      1  C   UNL     1       2.896   9.184  18.547  1.00  0.00     0.000 C 
ENDROOT
BRANCH   1   2
ATOM      2  C   UNL     1       2.073   8.103  19.261  1.00  0.00     0.000 C 
BRANCH   2   3
ATOM      3  C   UNL     1       2.177   6.722  18.590  1.00  0.00     0.006 C 
BRANCH   3   4
ATOM      4  C   UNL     1       2.469   5.571  19.569  1.00  0.00     0.053 C 
BRANCH   4   5
ATOM      5  C   UNL     1       2.265   4.220  18.952  1.00  0.00     0.041 C 
ATOM      6  O   UNL     1       1.329   3.476  19.347  1.00  0.00    -0.550 OA
ATOM      7  O   UNL     1       3.129   3.770  17.963  1.00  0.00    -0.550 OA
ENDBRANCH   4   5
ENDBRANCH   3   4
ENDBRANCH   2   3
ENDBRANCH   1   2
BRANCH   1   8
ATOM      8  C   UNL     1       3.083   8.844  17.063  1.00  0.00     0.000 C 
BRANCH   8   9
ATOM      9  C   UNL     1       4.566   8.611  16.736  1.00  0.00    -0.000 C 
BRANCH   9  10
ATOM     10  C   UNL     1       4.769   7.745  15.482  1.00  0.00    -0.000 C 
BRANCH  10  11
ATOM     11  C   UNL     1       6.255   7.509  15.162  1.00  0.00    -0.000 C 
BRANCH  11  12
ATOM     12  C   UNL     1       6.674   8.131  13.820  1.00  0.00    -0.003 C 
ATOM     13  C   UNL     1       5.552   8.937  13.165  1.00  0.00     0.004 C 
ENDBRANCH  11  12
ENDBRANCH  10  11
ENDBRANCH   9  10
ENDBRANCH   8   9
ENDBRANCH   1   8
TORSDOF 9
ENDMDL
MODEL 2
REMARK VINA RESULT:    -5.373      1.259      1.501
REMARK INTER + INTRA:          -8.635
REMARK INTER:                  -8.153
REMARK INTRA:                  -0.481
REMARK UNBOUND:                -0.435
REMARK SMILES CCCCCCCCCCC(=O)[O-]
REMARK SMILES IDX 7 1 8 2 9 3 10 4 11 5 12 6 13 7 6 8 5 9 4 10 3 11 2 12 1 13
REMARK H PARENT
REMARK Flexibility Score: inf
ROOT
ATOM      1  C   UNL     1       3.019   8.639  17.798  1.00  0.00     0.000 C 
ENDROOT
BRANCH   1   2
ATOM      2  C   UNL     1       2.205   7.817  18.808  1.00  0.00     0.000 C 
BRANCH   2   3
ATOM      3  C   UNL     1       2.153   6.318  18.463  1.00  0.00     0.006 C 
BRANCH   3   4
ATOM      4  C   UNL     1       2.475   5.392  19.649  1.00  0.00     0.053 C 
BRANCH   4   5
ATOM      5  C   UNL     1       2.417   3.940  19.283  1.00  0.00     0.041 C 
ATOM      6  O   UNL     1       1.649   3.157  19.902  1.00  0.00    -0.550 OA
ATOM      7  O   UNL     1       3.236   3.444  18.277  1.00  0.00    -0.550 OA
ENDBRANCH   4   5
ENDBRANCH   3   4
ENDBRANCH   2   3
ENDBRANCH   1   2
BRANCH   1   8
ATOM      8  C   UNL     1       3.692   7.730  16.762  1.00  0.00     0.000 C 
BRANCH   8   9
ATOM      9  C   UNL     1       4.616   8.539  15.840  1.00  0.00    -0.000 C 
BRANCH   9  10
ATOM     10  C   UNL     1       5.630   7.658  15.093  1.00  0.00    -0.000 C 
BRANCH  10  11
ATOM     11  C   UNL     1       5.475   7.743  13.565  1.00  0.00    -0.000 C 
BRANCH  11  12
ATOM     12  C   UNL     1       5.184   6.376  12.926  1.00  0.00    -0.003 C 
ATOM     13  C   UNL     1       4.616   5.365  13.922  1.00  0.00     0.004 C 
ENDBRANCH  11  12
ENDBRANCH  10  11
ENDBRANCH   9  10
ENDBRANCH   8   9
ENDBRANCH   1   8
TORSDOF 9
ENDMDL
MODEL 3
REMARK VINA RESULT:    -5.348      2.389      3.813
REMARK INTER + INTRA:          -8.597
REMARK INTER:                  -7.818
REMARK INTRA:                  -0.779
REMARK UNBOUND:                -0.435
REMARK SMILES CCCCCCCCCCC(=O)[O-]
REMARK SMILES IDX 7 1 8 2 9 3 10 4 11 5 12 6 13 7 6 8 5 9 4 10 3 11 2 12 1 13
REMARK H PARENT
REMARK Flexibility Score: inf
ROOT
ATOM      1  C   UNL     1       3.364   3.941  14.073  1.00  0.00     0.000 C 
ENDROOT
BRANCH   1   2
ATOM      2  C   UNL     1       3.999   4.109  15.460  1.00  0.00     0.000 C 
BRANCH   2   3
ATOM      3  C   UNL     1       2.980   4.496  16.548  1.00  0.00     0.006 C 
BRANCH   3   4
ATOM      4  C   UNL     1       2.979   3.557  17.767  1.00  0.00     0.053 C 
BRANCH   4   5
ATOM      5  C   UNL     1       2.407   4.199  18.994  1.00  0.00     0.041 C 
ATOM      6  O   UNL     1       2.546   5.436  19.188  1.00  0.00    -0.550 OA
ATOM      7  O   UNL     1       1.746   3.427  19.939  1.00  0.00    -0.550 OA
ENDBRANCH   4   5
ENDBRANCH   3   4
ENDBRANCH   2   3
ENDBRANCH   1   2
BRANCH   1   8
ATOM      8  C   UNL     1       4.152   4.717  13.009  1.00  0.00     0.000 C 
BRANCH   8   9
ATOM      9  C   UNL     1       5.138   5.696  13.662  1.00  0.00    -0.000 C 
BRANCH   9  10
ATOM     10  C   UNL     1       5.090   7.097  13.032  1.00  0.00    -0.000 C 
BRANCH  10  11
ATOM     11  C   UNL     1       5.414   8.211  14.043  1.00  0.00    -0.000 C 
BRANCH  11  12
ATOM     12  C   UNL     1       5.345   7.723  15.499  1.00  0.00    -0.003 C 
ATOM     13  C   UNL     1       4.223   8.391  16.295  1.00  0.00     0.004 C 
ENDBRANCH  11  12
ENDBRANCH  10  11
ENDBRANCH   9  10
ENDBRANCH   8   9
ENDBRANCH   1   8
TORSDOF 9
ENDMDL
MODEL 4
REMARK VINA RESULT:    -5.336      3.236      4.578
REMARK INTER + INTRA:          -8.578
REMARK INTER:                  -8.128
REMARK INTRA:                  -0.450
REMARK UNBOUND:                -0.435
REMARK SMILES CCCCCCCCCCC(=O)[O-]
REMARK SMILES IDX 7 1 8 2 9 3 10 4 11 5 12 6 13 7 6 8 5 9 4 10 3 11 2 12 1 13
REMARK H PARENT
REMARK Flexibility Score: inf
ROOT
ATOM      1  C   UNL     1       2.779   3.832  18.879  1.00  0.00     0.000 C 
ENDROOT
BRANCH   1   2
ATOM      2  C   UNL     1       2.540   5.176  19.582  1.00  0.00     0.000 C 
BRANCH   2   3
ATOM      3  C   UNL     1       2.230   6.323  18.603  1.00  0.00     0.006 C 
BRANCH   3   4
ATOM      4  C   UNL     1       2.151   7.708  19.268  1.00  0.00     0.053 C 
BRANCH   4   5
ATOM      5  C   UNL     1       2.413   8.828  18.307  1.00  0.00     0.041 C 
ATOM      6  O   UNL     1       1.814   9.929  18.434  1.00  0.00    -0.550 OA
ATOM      7  O   UNL     1       3.297   8.646  17.252  1.00  0.00    -0.550 OA
ENDBRANCH   4   5
ENDBRANCH   3   4
ENDBRANCH   2   3
ENDBRANCH   1   2
BRANCH   1   8
ATOM      8  C   UNL     1       3.005   4.030  17.374  1.00  0.00     0.000 C 
BRANCH   8   9
ATOM      9  C   UNL     1       3.043   2.679  16.643  1.00  0.00    -0.000 C 
BRANCH   9  10
ATOM     10  C   UNL     1       3.499   2.808  15.181  1.00  0.00    -0.000 C 
BRANCH  10  11
ATOM     11  C   UNL     1       3.125   4.167  14.563  1.00  0.00    -0.000 C 
BRANCH  11  12
ATOM     12  C   UNL     1       3.891   4.452  13.261  1.00  0.00    -0.003 C 
ATOM     13  C   UNL     1       4.854   5.634  13.388  1.00  0.00     0.004 C 
ENDBRANCH  11  12
ENDBRANCH  10  11
ENDBRANCH   9  10
ENDBRANCH   8   9
ENDBRANCH   1   8
TORSDOF 9
ENDMDL
MODEL 5
REMARK VINA RESULT:    -5.331      2.563      5.103
REMARK INTER + INTRA:          -8.570
REMARK INTER:                  -8.137
REMARK INTRA:                  -0.433
REMARK UNBOUND:                -0.435
REMARK SMILES CCCCCCCCCCC(=O)[O-]
REMARK SMILES IDX 7 1 8 2 9 3 10 4 11 5 12 6 13 7 6 8 5 9 4 10 3 11 2 12 1 13
REMARK H PARENT
REMARK Flexibility Score: inf
ROOT
ATOM      1  C   UNL     1       5.746   6.736  13.469  1.00  0.00     0.000 C 
ENDROOT
BRANCH   1   2
ATOM      2  C   UNL     1       4.576   5.923  12.900  1.00  0.00     0.000 C 
BRANCH   2   3
ATOM      3  C   UNL     1       4.551   4.468  13.402  1.00  0.00     0.006 C 
BRANCH   3   4
ATOM      4  C   UNL     1       3.505   4.203  14.500  1.00  0.00     0.053 C 
BRANCH   4   5
ATOM      5  C   UNL     1       3.660   2.855  15.135  1.00  0.00     0.041 C 
ATOM      6  O   UNL     1       3.798   1.827  14.421  1.00  0.00    -0.550 OA
ATOM      7  O   UNL     1       3.621   2.729  16.518  1.00  0.00    -0.550 OA
ENDBRANCH   4   5
ENDBRANCH   3   4
ENDBRANCH   2   3
ENDBRANCH   1   2
BRANCH   1   8
ATOM      8  C   UNL     1       5.245   8.003  14.175  1.00  0.00     0.000 C 
BRANCH   8   9
ATOM      9  C   UNL     1       4.970   7.731  15.661  1.00  0.00    -0.000 C 
BRANCH   9  10
ATOM     10  C   UNL     1       4.038   8.777  16.294  1.00  0.00    -0.000 C 
BRANCH  10  11
ATOM     11  C   UNL     1       3.176   8.192  17.426  1.00  0.00    -0.000 C 
BRANCH  11  12
ATOM     12  C   UNL     1       2.744   9.257  18.448  1.00  0.00    -0.003 C 
ATOM     13  C   UNL     1       2.060   8.656  19.676  1.00  0.00     0.004 C 
ENDBRANCH  11  12
ENDBRANCH  10  11
ENDBRANCH   9  10
ENDBRANCH   8   9
ENDBRANCH   1   8
TORSDOF 9
ENDMDL
MODEL 6
REMARK VINA RESULT:    -5.306      3.122      4.812
REMARK INTER + INTRA:          -8.532
REMARK INTER:                  -7.738
REMARK INTRA:                  -0.795
REMARK UNBOUND:                -0.435
REMARK SMILES CCCCCCCCCCC(=O)[O-]
REMARK SMILES IDX 7 1 8 2 9 3 10 4 11 5 12 6 13 7 6 8 5 9 4 10 3 11 2 12 1 13
REMARK H PARENT
REMARK Flexibility Score: inf
ROOT
ATOM      1  C   UNL     1       5.690   7.411  15.299  1.00  0.00     0.000 C 
ENDROOT
BRANCH   1   2
ATOM      2  C   UNL     1       4.588   8.430  15.619  1.00  0.00     0.000 C 
BRANCH   2   3
ATOM      3  C   UNL     1       3.853   8.130  16.938  1.00  0.00     0.006 C 
BRANCH   3   4
ATOM      4  C   UNL     1       2.921   9.262  17.406  1.00  0.00     0.053 C 
BRANCH   4   5
ATOM      5  C   UNL     1       2.925   9.438  18.894  1.00  0.00     0.041 C 
ATOM      6  O   UNL     1       3.651  10.318  19.429  1.00  0.00    -0.550 OA
ATOM      7  O   UNL     1       2.150   8.609  19.695  1.00  0.00    -0.550 OA
ENDBRANCH   4   5
ENDBRANCH   3   4
ENDBRANCH   2   3
ENDBRANCH   1   2
BRANCH   1   8
ATOM      8  C   UNL     1       6.104   7.492  13.824  1.00  0.00     0.000 C 
BRANCH   8   9
ATOM      9  C   UNL     1       5.057   6.820  12.922  1.00  0.00    -0.000 C 
BRANCH   9  10
ATOM     10  C   UNL     1       5.092   5.287  13.012  1.00  0.00    -0.000 C 
BRANCH  10  11
ATOM     11  C   UNL     1       3.848   4.706  13.705  1.00  0.00    -0.000 C 
BRANCH  11  12
ATOM     12  C   UNL     1       4.168   4.105  15.084  1.00  0.00    -0.003 C 
ATOM     13  C   UNL     1       3.111   4.440  16.136  1.00  0.00     0.004 C 
ENDBRANCH  11  12
ENDBRANCH  10  11
ENDBRANCH   9  10
ENDBRANCH   8   9
ENDBRANCH   1   8
TORSDOF 9
ENDMDL
MODEL 7
REMARK VINA RESULT:    -5.299      3.700      6.827
REMARK INTER + INTRA:          -8.522
REMARK INTER:                  -8.035
REMARK INTRA:                  -0.487
REMARK UNBOUND:                -0.435
REMARK SMILES CCCCCCCCCCC(=O)[O-]
REMARK SMILES IDX 7 1 8 2 9 3 10 4 11 5 12 6 13 7 6 8 5 9 4 10 3 11 2 12 1 13
REMARK H PARENT
REMARK Flexibility Score: inf
ROOT
ATOM      1  C   UNL     1       4.069   4.305  15.028  1.00  0.00     0.000 C 
ENDROOT
BRANCH   1   2
ATOM      2  C   UNL     1       4.082   4.572  13.517  1.00  0.00     0.000 C 
BRANCH   2   3
ATOM      3  C   UNL     1       4.814   5.872  13.139  1.00  0.00     0.006 C 
BRANCH   3   4
ATOM      4  C   UNL     1       5.306   6.687  14.349  1.00  0.00     0.053 C 
BRANCH   4   5
ATOM      5  C   UNL     1       5.901   8.005  13.956  1.00  0.00     0.041 C 
ATOM      6  O   UNL     1       5.161   9.005  13.763  1.00  0.00    -0.550 OA
ATOM      7  O   UNL     1       7.273   8.121  13.774  1.00  0.00    -0.550 OA
ENDBRANCH   4   5
ENDBRANCH   3   4
ENDBRANCH   2   3
ENDBRANCH   1   2
BRANCH   1   8
ATOM      8  C   UNL     1       4.342   2.826  15.329  1.00  0.00     0.000 C 
BRANCH   8   9
ATOM      9  C   UNL     1       3.652   2.394  16.632  1.00  0.00    -0.000 C 
BRANCH   9  10
ATOM     10  C   UNL     1       3.065   3.579  17.415  1.00  0.00    -0.000 C 
BRANCH  10  11
ATOM     11  C   UNL     1       3.068   3.343  18.935  1.00  0.00    -0.000 C 
BRANCH  11  12
ATOM     12  C   UNL     1       2.742   4.617  19.730  1.00  0.00    -0.003 C 
ATOM     13  C   UNL     1       2.218   5.749  18.846  1.00  0.00     0.004 C 
ENDBRANCH  11  12
ENDBRANCH  10  11
ENDBRANCH   9  10
ENDBRANCH   8   9
ENDBRANCH   1   8
TORSDOF 9
ENDMDL
MODEL 8
REMARK VINA RESULT:    -5.193      2.047      4.002
REMARK INTER + INTRA:          -8.361
REMARK INTER:                  -7.639
REMARK INTRA:                  -0.722
REMARK UNBOUND:                -0.435
REMARK SMILES CCCCCCCCCCC(=O)[O-]
REMARK SMILES IDX 7 1 8 2 9 3 10 4 11 5 12 6 13 7 6 8 5 9 4 10 3 11 2 12 1 13
REMARK H PARENT
REMARK Flexibility Score: inf
ROOT
ATOM      1  C   UNL     1       4.770   5.275  14.674  1.00  0.00     0.000 C 
ENDROOT
BRANCH   1   2
ATOM      2  C   UNL     1       3.800   4.135  14.335  1.00  0.00     0.000 C 
BRANCH   2   3
ATOM      3  C   UNL     1       3.080   3.567  15.571  1.00  0.00     0.006 C 
BRANCH   3   4
ATOM      4  C   UNL     1       3.041   4.531  16.770  1.00  0.00     0.053 C 
BRANCH   4   5
ATOM      5  C   UNL     1       2.905   3.819  18.082  1.00  0.00     0.041 C 
ATOM      6  O   UNL     1       3.389   2.667  18.234  1.00  0.00    -0.550 OA
ATOM      7  O   UNL     1       2.217   4.417  19.129  1.00  0.00    -0.550 OA
ENDBRANCH   4   5
ENDBRANCH   3   4
ENDBRANCH   2   3
ENDBRANCH   1   2
BRANCH   1   8
ATOM      8  C   UNL     1       4.901   6.255  13.500  1.00  0.00     0.000 C 
BRANCH   8   9
ATOM      9  C   UNL     1       5.257   7.663  13.998  1.00  0.00    -0.000 C 
BRANCH   9  10
ATOM     10  C   UNL     1       5.323   7.753  15.531  1.00  0.00    -0.000 C 
BRANCH  10  11
ATOM     11  C   UNL     1       4.315   8.762  16.108  1.00  0.00    -0.000 C 
BRANCH  11  12
ATOM     12  C   UNL     1       3.399   8.136  17.173  1.00  0.00    -0.003 C 
ATOM     13  C   UNL     1       2.770   9.177  18.099  1.00  0.00     0.004 C 
ENDBRANCH  11  12
ENDBRANCH  10  11
ENDBRANCH   9  10
ENDBRANCH   8   9
ENDBRANCH   1   8
TORSDOF 9
ENDMDL
MODEL 9
REMARK VINA RESULT:    -5.188      3.247      5.408
REMARK INTER + INTRA:          -8.352
REMARK INTER:                  -7.853
REMARK INTRA:                  -0.499
REMARK UNBOUND:                -0.435
REMARK SMILES CCCCCCCCCCC(=O)[O-]
REMARK SMILES IDX 7 1 8 2 9 3 10 4 11 5 12 6 13 7 6 8 5 9 4 10 3 11 2 12 1 13
REMARK H PARENT
REMARK Flexibility Score: inf
ROOT
ATOM      1  C   UNL     1       2.927   4.532  16.973  1.00  0.00     0.000 C 
ENDROOT
BRANCH   1   2
ATOM      2  C   UNL     1       3.688   3.476  16.159  1.00  0.00     0.000 C 
BRANCH   2   3
ATOM      3  C   UNL     1       3.492   2.045  16.693  1.00  0.00     0.006 C 
BRANCH   3   4
ATOM      4  C   UNL     1       4.799   1.243  16.825  1.00  0.00     0.053 C 
BRANCH   4   5
ATOM      5  C   UNL     1       4.649  -0.184  16.393  1.00  0.00     0.041 C 
ATOM      6  O   UNL     1       4.019  -0.468  15.340  1.00  0.00    -0.550 OA
ATOM      7  O   UNL     1       5.178  -1.205  17.171  1.00  0.00    -0.550 OA
ENDBRANCH   4   5
ENDBRANCH   3   4
ENDBRANCH   2   3
ENDBRANCH   1   2
BRANCH   1   8
ATOM      8  C   UNL     1       2.940   4.189  18.469  1.00  0.00     0.000 C 
BRANCH   8   9
ATOM      9  C   UNL     1       2.260   5.294  19.291  1.00  0.00    -0.000 C 
BRANCH   9  10
ATOM     10  C   UNL     1       2.075   6.597  18.497  1.00  0.00    -0.000 C 
BRANCH  10  11
ATOM     11  C   UNL     1       2.117   7.846  19.394  1.00  0.00    -0.000 C 
BRANCH  11  12
ATOM     12  C   UNL     1       2.481   9.120  18.613  1.00  0.00    -0.003 C 
ATOM     13  C   UNL     1       3.287   8.829  17.348  1.00  0.00     0.004 C 
ENDBRANCH  11  12
ENDBRANCH  10  11
ENDBRANCH   9  10
ENDBRANCH   8   9
ENDBRANCH   1   8
TORSDOF 9
ENDMDL
