MODEL 1
REMARK VINA RESULT:    -5.276      0.000      0.000
REMARK INTER + INTRA:          -8.553
REMARK INTER:                  -7.127
REMARK INTRA:                  -1.426
REMARK UNBOUND:                -1.426
REMARK SMILES C=CC(C)=CCC=C(C)CCC=C(C)C
REMARK SMILES IDX 8 1 7 2 9 3 10 4 11 5 12 6 14 7 13 8 15 9 6 10 5 11 3 12
REMARK SMILES IDX 4 13 2 14 1 15
REMARK H PARENT
REMARK Flexibility Score: inf
ROOT
ATOM      1  C   UNL     1     -47.609 -48.388  17.399  1.00  0.00    -0.077 C 
ATOM      2  C   UNL     1     -48.506 -47.598  18.032  1.00  0.00    -0.024 C 
ATOM      3  C   UNL     1     -47.271 -48.079  15.964  1.00  0.00     0.039 C 
ENDROOT
BRANCH   1   4
ATOM      4  C   UNL     1     -46.983 -49.609  18.045  1.00  0.00     0.034 C 
BRANCH   4   5
ATOM      5  C   UNL     1     -47.925 -50.814  17.946  1.00  0.00     0.032 C 
BRANCH   5   6
ATOM      6  C   UNL     1     -48.101 -51.237  16.510  1.00  0.00    -0.028 C 
ATOM      7  C   UNL     1     -50.577 -50.861  16.533  1.00  0.00     0.039 C 
ATOM      8  C   UNL     1     -49.282 -51.240  15.853  1.00  0.00    -0.080 C 
ATOM      9  C   UNL     1     -49.297 -51.651  14.404  1.00  0.00     0.039 C 
ENDBRANCH   5   6
ENDBRANCH   4   5
ENDBRANCH   1   4
BRANCH   2  10
ATOM     10  C   UNL     1     -48.948 -47.772  19.465  1.00  0.00     0.055 C 
BRANCH  10  11
ATOM     11  C   UNL     1     -50.210 -48.590  19.566  1.00  0.00    -0.020 C 
ATOM     12  C   UNL     1     -50.506 -49.438  20.572  1.00  0.00    -0.055 C 
ATOM     13  C   UNL     1     -49.569 -49.652  21.739  1.00  0.00     0.044 C 
BRANCH  12  14
ATOM     14  C   UNL     1     -51.768 -50.216  20.474  1.00  0.00    -0.005 C 
ATOM     15  C   UNL     1     -51.828 -51.469  20.025  1.00  0.00     0.009 C 
ENDBRANCH  12  14
ENDBRANCH  10  11
ENDBRANCH   2  10
TORSDOF 6
ENDMDL
MODEL 2
REMARK VINA RESULT:    -5.261     10.630     13.541
REMARK INTER + INTRA:          -8.533
REMARK INTER:                  -6.698
REMARK INTRA:                  -1.835
REMARK UNBOUND:                -1.426
REMARK SMILES C=CC(C)=CCC=C(C)CCC=C(C)C
REMARK SMILES IDX 8 1 7 2 9 3 10 4 11 5 12 6 14 7 13 8 15 9 6 10 5 11 3 12
REMARK SMILES IDX 4 13 2 14 1 15
REMARK H PARENT
REMARK Flexibility Score: inf
ROOT
ATOM      1  C   UNL     1     -43.898 -49.152  26.825  1.00  0.00    -0.077 C 
ATOM      2  C   UNL     1     -42.725 -48.851  26.221  1.00  0.00    -0.024 C 
ATOM      3  C   UNL     1     -44.773 -50.207  26.202  1.00  0.00     0.039 C 
ENDROOT
BRANCH   1   4
ATOM      4  C   UNL     1     -44.401 -48.426  28.057  1.00  0.00     0.034 C 
BRANCH   4   5
ATOM      5  C   UNL     1     -44.563 -49.401  29.228  1.00  0.00     0.032 C 
BRANCH   5   6
ATOM      6  C   UNL     1     -43.394 -49.296  30.175  1.00  0.00    -0.028 C 
ATOM      7  C   UNL     1     -42.266 -51.340  29.267  1.00  0.00     0.039 C 
ATOM      8  C   UNL     1     -42.342 -50.144  30.188  1.00  0.00    -0.080 C 
ATOM      9  C   UNL     1     -41.225 -49.889  31.166  1.00  0.00     0.039 C 
ENDBRANCH   5   6
ENDBRANCH   4   5
ENDBRANCH   1   4
BRANCH   2  10
ATOM     10  C   UNL     1     -41.737 -47.824  26.718  1.00  0.00     0.055 C 
BRANCH  10  11
ATOM     11  C   UNL     1     -40.594 -48.462  27.465  1.00  0.00    -0.020 C 
ATOM     12  C   UNL     1     -39.727 -47.806  28.265  1.00  0.00    -0.055 C 
ATOM     13  C   UNL     1     -39.828 -46.316  28.501  1.00  0.00     0.044 C 
BRANCH  12  14
ATOM     14  C   UNL     1     -38.616 -48.585  28.868  1.00  0.00    -0.005 C 
ATOM     15  C   UNL     1     -37.333 -48.240  28.766  1.00  0.00     0.009 C 
ENDBRANCH  12  14
ENDBRANCH  10  11
ENDBRANCH   2  10
TORSDOF 6
ENDMDL
MODEL 3
REMARK VINA RESULT:    -5.239      1.214      4.494
REMARK INTER + INTRA:          -8.503
REMARK INTER:                  -6.911
REMARK INTRA:                  -1.592
REMARK UNBOUND:                -1.426
REMARK SMILES C=CC(C)=CCC=C(C)CCC=C(C)C
REMARK SMILES IDX 8 1 7 2 9 3 10 4 11 5 12 6 14 7 13 8 15 9 6 10 5 11 3 12
REMARK SMILES IDX 4 13 2 14 1 15
REMARK H PARENT
REMARK Flexibility Score: inf
ROOT
ATOM      1  C   UNL     1     -50.200 -48.750  20.440  1.00  0.00    -0.077 C 
ATOM      2  C   UNL     1     -50.817 -49.783  19.822  1.00  0.00    -0.024 C 
ATOM      3  C   UNL     1     -51.053 -47.702  21.106  1.00  0.00     0.039 C 
ENDROOT
BRANCH   1   4
ATOM      4  C   UNL     1     -48.695 -48.564  20.433  1.00  0.00     0.034 C 
BRANCH   4   5
ATOM      5  C   UNL     1     -48.293 -47.463  19.446  1.00  0.00     0.032 C 
BRANCH   5   6
ATOM      6  C   UNL     1     -47.728 -48.061  18.182  1.00  0.00    -0.028 C 
ATOM      7  C   UNL     1     -48.270 -46.047  16.795  1.00  0.00     0.039 C 
ATOM      8  C   UNL     1     -47.687 -47.428  16.989  1.00  0.00    -0.080 C 
ATOM      9  C   UNL     1     -47.053 -48.137  15.820  1.00  0.00     0.039 C 
ENDBRANCH   5   6
ENDBRANCH   4   5
ENDBRANCH   1   4
BRANCH   2  10
ATOM     10  C   UNL     1     -50.108 -50.912  19.115  1.00  0.00     0.055 C 
BRANCH  10  11
ATOM     11  C   UNL     1     -50.150 -50.749  17.617  1.00  0.00    -0.020 C 
ATOM     12  C   UNL     1     -49.155 -51.086  16.771  1.00  0.00    -0.055 C 
ATOM     13  C   UNL     1     -47.858 -51.687  17.263  1.00  0.00     0.044 C 
BRANCH  12  14
ATOM     14  C   UNL     1     -49.342 -50.790  15.327  1.00  0.00    -0.005 C 
ATOM     15  C   UNL     1     -50.394 -51.202  14.621  1.00  0.00     0.009 C 
ENDBRANCH  12  14
ENDBRANCH  10  11
ENDBRANCH   2  10
TORSDOF 6
ENDMDL
MODEL 4
REMARK VINA RESULT:    -5.210     12.857     14.935
REMARK INTER + INTRA:          -8.463
REMARK INTER:                  -7.625
REMARK INTRA:                  -0.838
REMARK UNBOUND:                -1.426
REMARK SMILES C=CC(C)=CCC=C(C)CCC=C(C)C
REMARK SMILES IDX 8 1 7 2 9 3 10 4 11 5 12 6 14 7 13 8 15 9 6 10 5 11 3 12
REMARK SMILES IDX 4 13 2 14 1 15
REMARK H PARENT
REMARK Flexibility Score: inf
ROOT
ATOM      1  C   UNL     1     -42.754 -50.193  30.508  1.00  0.00    -0.077 C 
ATOM      2  C   UNL     1     -41.675 -50.393  29.716  1.00  0.00    -0.024 C 
ATOM      3  C   UNL     1     -42.940 -51.089  31.704  1.00  0.00     0.039 C 
ENDROOT
BRANCH   1   4
ATOM      4  C   UNL     1     -43.817 -49.155  30.206  1.00  0.00     0.034 C 
BRANCH   4   5
ATOM      5  C   UNL     1     -45.217 -49.746  30.397  1.00  0.00     0.032 C 
BRANCH   5   6
ATOM      6  C   UNL     1     -45.918 -49.091  31.560  1.00  0.00    -0.028 C 
ATOM      7  C   UNL     1     -46.514 -51.272  32.638  1.00  0.00     0.039 C 
ATOM      8  C   UNL     1     -46.484 -49.762  32.588  1.00  0.00    -0.080 C 
ATOM      9  C   UNL     1     -47.114 -48.970  33.703  1.00  0.00     0.039 C 
ENDBRANCH   5   6
ENDBRANCH   4   5
ENDBRANCH   1   4
BRANCH   2  10
ATOM     10  C   UNL     1     -41.345 -49.583  28.487  1.00  0.00     0.055 C 
BRANCH  10  11
ATOM     11  C   UNL     1     -40.056 -48.818  28.649  1.00  0.00    -0.020 C 
ATOM     12  C   UNL     1     -39.881 -47.517  28.340  1.00  0.00    -0.055 C 
ATOM     13  C   UNL     1     -41.004 -46.670  27.785  1.00  0.00     0.044 C 
BRANCH  12  14
ATOM     14  C   UNL     1     -38.521 -46.943  28.501  1.00  0.00    -0.005 C 
ATOM     15  C   UNL     1     -37.440 -47.674  28.771  1.00  0.00     0.009 C 
ENDBRANCH  12  14
ENDBRANCH  10  11
ENDBRANCH   2  10
TORSDOF 6
ENDMDL
MODEL 5
REMARK VINA RESULT:    -5.176      2.905      4.328
REMARK INTER + INTRA:          -8.418
REMARK INTER:                  -7.736
REMARK INTRA:                  -0.682
REMARK UNBOUND:                -1.426
REMARK SMILES C=CC(C)=CCC=C(C)CCC=C(C)C
REMARK SMILES IDX 8 1 7 2 9 3 10 4 11 5 12 6 14 7 13 8 15 9 6 10 5 11 3 12
REMARK SMILES IDX 4 13 2 14 1 15
REMARK H PARENT
REMARK Flexibility Score: inf
ROOT
ATOM      1  C   UNL     1     -51.143 -49.738  19.165  1.00  0.00    -0.077 C 
ATOM      2  C   UNL     1     -52.307 -49.724  19.854  1.00  0.00    -0.024 C 
ATOM      3  C   UNL     1     -50.969 -50.760  18.073  1.00  0.00     0.039 C 
ENDROOT
BRANCH   1   4
ATOM      4  C   UNL     1     -49.982 -48.819  19.489  1.00  0.00     0.034 C 
BRANCH   4   5
ATOM      5  C   UNL     1     -48.661 -49.427  19.009  1.00  0.00     0.032 C 
BRANCH   5   6
ATOM      6  C   UNL     1     -48.041 -48.574  17.931  1.00  0.00    -0.028 C 
ATOM      7  C   UNL     1     -47.658 -50.513  16.392  1.00  0.00     0.039 C 
ATOM      8  C   UNL     1     -47.609 -49.043  16.739  1.00  0.00    -0.080 C 
ATOM      9  C   UNL     1     -47.049 -48.062  15.742  1.00  0.00     0.039 C 
ENDBRANCH   5   6
ENDBRANCH   4   5
ENDBRANCH   1   4
BRANCH   2  10
ATOM     10  C   UNL     1     -52.637 -48.765  20.971  1.00  0.00     0.055 C 
BRANCH  10  11
ATOM     11  C   UNL     1     -54.035 -48.215  20.843  1.00  0.00    -0.020 C 
ATOM     12  C   UNL     1     -54.592 -47.310  21.674  1.00  0.00    -0.055 C 
ATOM     13  C   UNL     1     -53.838 -46.738  22.853  1.00  0.00     0.044 C 
BRANCH  12  14
ATOM     14  C   UNL     1     -56.009 -46.931  21.436  1.00  0.00    -0.005 C 
ATOM     15  C   UNL     1     -56.982 -47.815  21.220  1.00  0.00     0.009 C 
ENDBRANCH  12  14
ENDBRANCH  10  11
ENDBRANCH   2  10
TORSDOF 6
ENDMDL
MODEL 6
REMARK VINA RESULT:    -5.143      3.460      5.479
REMARK INTER + INTRA:          -8.373
REMARK INTER:                  -6.796
REMARK INTRA:                  -1.576
REMARK UNBOUND:                -1.426
REMARK SMILES C=CC(C)=CCC=C(C)CCC=C(C)C
REMARK SMILES IDX 8 1 7 2 9 3 10 4 11 5 12 6 14 7 13 8 15 9 6 10 5 11 3 12
REMARK SMILES IDX 4 13 2 14 1 15
REMARK H PARENT
REMARK Flexibility Score: inf
ROOT
ATOM      1  C   UNL     1     -50.542 -48.999  23.236  1.00  0.00    -0.077 C 
ATOM      2  C   UNL     1     -51.766 -48.536  23.578  1.00  0.00    -0.024 C 
ATOM      3  C   UNL     1     -49.912 -50.062  24.099  1.00  0.00     0.039 C 
ENDROOT
BRANCH   1   4
ATOM      4  C   UNL     1     -49.747 -48.448  22.069  1.00  0.00     0.034 C 
BRANCH   4   5
ATOM      5  C   UNL     1     -49.653 -49.483  20.943  1.00  0.00     0.032 C 
BRANCH   5   6
ATOM      6  C   UNL     1     -50.705 -49.226  19.893  1.00  0.00    -0.028 C 
ATOM      7  C   UNL     1     -51.828 -51.437  20.247  1.00  0.00     0.039 C 
ATOM      8  C   UNL     1     -51.703 -50.084  19.586  1.00  0.00    -0.080 C 
ATOM      9  C   UNL     1     -52.707 -49.672  18.541  1.00  0.00     0.039 C 
ENDBRANCH   5   6
ENDBRANCH   4   5
ENDBRANCH   1   4
BRANCH   2  10
ATOM     10  C   UNL     1     -52.531 -47.479  22.820  1.00  0.00     0.055 C 
BRANCH  10  11
ATOM     11  C   UNL     1     -53.555 -48.084  21.894  1.00  0.00    -0.020 C 
ATOM     12  C   UNL     1     -54.629 -47.437  21.395  1.00  0.00    -0.055 C 
ATOM     13  C   UNL     1     -54.914 -45.990  21.725  1.00  0.00     0.044 C 
BRANCH  12  14
ATOM     14  C   UNL     1     -55.573 -48.212  20.551  1.00  0.00    -0.005 C 
ATOM     15  C   UNL     1     -56.797 -48.564  20.945  1.00  0.00     0.009 C 
ENDBRANCH  12  14
ENDBRANCH  10  11
ENDBRANCH   2  10
TORSDOF 6
ENDMDL
MODEL 7
REMARK VINA RESULT:    -5.073      2.804      3.864
REMARK INTER + INTRA:          -8.279
REMARK INTER:                  -7.488
REMARK INTRA:                  -0.791
REMARK UNBOUND:                -1.426
REMARK SMILES C=CC(C)=CCC=C(C)CCC=C(C)C
REMARK SMILES IDX 8 1 7 2 9 3 10 4 11 5 12 6 14 7 13 8 15 9 6 10 5 11 3 12
REMARK SMILES IDX 4 13 2 14 1 15
REMARK H PARENT
REMARK Flexibility Score: inf
ROOT
ATOM      1  C   UNL     1     -50.380 -48.596  19.943  1.00  0.00    -0.077 C 
ATOM      2  C   UNL     1     -51.056 -48.154  21.029  1.00  0.00    -0.024 C 
ATOM      3  C   UNL     1     -49.230 -47.770  19.430  1.00  0.00     0.039 C 
ENDROOT
BRANCH   1   4
ATOM      4  C   UNL     1     -50.772 -49.846  19.180  1.00  0.00     0.034 C 
BRANCH   4   5
ATOM      5  C   UNL     1     -49.527 -50.591  18.687  1.00  0.00     0.032 C 
BRANCH   5   6
ATOM      6  C   UNL     1     -49.595 -50.816  17.198  1.00  0.00    -0.028 C 
ATOM      7  C   UNL     1     -47.413 -49.666  16.761  1.00  0.00     0.039 C 
ATOM      8  C   UNL     1     -48.641 -50.429  16.322  1.00  0.00    -0.080 C 
ATOM      9  C   UNL     1     -48.828 -50.761  14.864  1.00  0.00     0.039 C 
ENDBRANCH   5   6
ENDBRANCH   4   5
ENDBRANCH   1   4
BRANCH   2  10
ATOM     10  C   UNL     1     -52.226 -48.864  21.664  1.00  0.00     0.055 C 
BRANCH  10  11
ATOM     11  C   UNL     1     -53.543 -48.373  21.119  1.00  0.00    -0.020 C 
ATOM     12  C   UNL     1     -54.271 -47.365  21.642  1.00  0.00    -0.055 C 
ATOM     13  C   UNL     1     -53.817 -46.601  22.865  1.00  0.00     0.044 C 
BRANCH  12  14
ATOM     14  C   UNL     1     -55.582 -47.060  21.014  1.00  0.00    -0.005 C 
ATOM     15  C   UNL     1     -56.693 -47.758  21.250  1.00  0.00     0.009 C 
ENDBRANCH  12  14
ENDBRANCH  10  11
ENDBRANCH   2  10
TORSDOF 6
ENDMDL
MODEL 8
REMARK VINA RESULT:    -5.050      1.953      3.242
REMARK INTER + INTRA:          -8.247
REMARK INTER:                  -7.099
REMARK INTRA:                  -1.149
REMARK UNBOUND:                -1.426
REMARK SMILES C=CC(C)=CCC=C(C)CCC=C(C)C
REMARK SMILES IDX 8 1 7 2 9 3 10 4 11 5 12 6 14 7 13 8 15 9 6 10 5 11 3 12
REMARK SMILES IDX 4 13 2 14 1 15
REMARK H PARENT
REMARK Flexibility Score: inf
ROOT
ATOM      1  C   UNL     1     -50.546 -50.117  18.836  1.00  0.00    -0.077 C 
ATOM      2  C   UNL     1     -50.990 -49.015  19.483  1.00  0.00    -0.024 C 
ATOM      3  C   UNL     1     -51.441 -50.749  17.802  1.00  0.00     0.039 C 
ENDROOT
BRANCH   1   4
ATOM      4  C   UNL     1     -49.223 -50.785  19.155  1.00  0.00     0.034 C 
BRANCH   4   5
ATOM      5  C   UNL     1     -48.464 -51.121  17.868  1.00  0.00     0.032 C 
BRANCH   5   6
ATOM      6  C   UNL     1     -47.738 -49.907  17.344  1.00  0.00    -0.028 C 
ATOM      7  C   UNL     1     -48.731 -50.101  15.053  1.00  0.00     0.039 C 
ATOM      8  C   UNL     1     -47.867 -49.421  16.089  1.00  0.00    -0.080 C 
ATOM      9  C   UNL     1     -47.109 -48.173  15.720  1.00  0.00     0.039 C 
ENDBRANCH   5   6
ENDBRANCH   4   5
ENDBRANCH   1   4
BRANCH   2  10
ATOM     10  C   UNL     1     -50.216 -48.265  20.540  1.00  0.00     0.055 C 
BRANCH  10  11
ATOM     11  C   UNL     1     -51.027 -48.072  21.796  1.00  0.00    -0.020 C 
ATOM     12  C   UNL     1     -50.937 -48.838  22.903  1.00  0.00    -0.055 C 
ATOM     13  C   UNL     1     -49.976 -50.001  22.994  1.00  0.00     0.044 C 
BRANCH  12  14
ATOM     14  C   UNL     1     -51.865 -48.544  24.025  1.00  0.00    -0.005 C 
ATOM     15  C   UNL     1     -52.675 -47.486  24.055  1.00  0.00     0.009 C 
ENDBRANCH  12  14
ENDBRANCH  10  11
ENDBRANCH   2  10
TORSDOF 6
ENDMDL
MODEL 9
REMARK VINA RESULT:    -5.048      2.586      6.433
REMARK INTER + INTRA:          -8.245
REMARK INTER:                  -7.509
REMARK INTRA:                  -0.736
REMARK UNBOUND:                -1.426
REMARK SMILES C=CC(C)=CCC=C(C)CCC=C(C)C
REMARK SMILES IDX 8 1 7 2 9 3 10 4 11 5 12 6 14 7 13 8 15 9 6 10 5 11 3 12
REMARK SMILES IDX 4 13 2 14 1 15
REMARK H PARENT
REMARK Flexibility Score: inf
ROOT
ATOM      1  C   UNL     1     -50.677 -48.793  20.812  1.00  0.00    -0.077 C 
ATOM      2  C   UNL     1     -49.504 -49.223  20.295  1.00  0.00    -0.024 C 
ATOM      3  C   UNL     1     -50.639 -47.850  21.986  1.00  0.00     0.039 C 
ENDROOT
BRANCH   1   4
ATOM      4  C   UNL     1     -52.025 -49.271  20.310  1.00  0.00     0.034 C 
BRANCH   4   5
ATOM      5  C   UNL     1     -53.070 -49.216  21.429  1.00  0.00     0.032 C 
BRANCH   5   6
ATOM      6  C   UNL     1     -54.315 -48.505  20.963  1.00  0.00    -0.028 C 
ATOM      7  C   UNL     1     -54.039 -46.616  22.584  1.00  0.00     0.039 C 
ATOM      8  C   UNL     1     -54.750 -47.323  21.454  1.00  0.00    -0.080 C 
ATOM      9  C   UNL     1     -55.991 -46.711  20.859  1.00  0.00     0.039 C 
ENDBRANCH   5   6
ENDBRANCH   4   5
ENDBRANCH   1   4
BRANCH   2  10
ATOM     10  C   UNL     1     -49.371 -50.164  19.122  1.00  0.00     0.055 C 
BRANCH  10  11
ATOM     11  C   UNL     1     -48.665 -49.513  17.960  1.00  0.00    -0.020 C 
ATOM     12  C   UNL     1     -48.169 -50.168  16.889  1.00  0.00    -0.055 C 
ATOM     13  C   UNL     1     -48.283 -51.668  16.746  1.00  0.00     0.044 C 
BRANCH  12  14
ATOM     14  C   UNL     1     -47.441 -49.372  15.868  1.00  0.00    -0.005 C 
ATOM     15  C   UNL     1     -47.474 -48.041  15.809  1.00  0.00     0.009 C 
ENDBRANCH  12  14
ENDBRANCH  10  11
ENDBRANCH   2  10
TORSDOF 6
ENDMDL
