MODEL 1
REMARK VINA RESULT:    -4.594      0.000      0.000
REMARK INTER + INTRA:          -8.396
REMARK INTER:                  -7.817
REMARK INTRA:                  -0.579
REMARK UNBOUND:                -0.579
REMARK SMILES CCCCCCCCCCCCCC(=O)[O-]
REMARK SMILES IDX 8 1 9 2 10 3 11 4 12 5 13 6 14 7 15 8 16 9 7 10 6 11 5 12
REMARK SMILES IDX 4 13 3 14 2 15 1 16
REMARK H PARENT
REMARK Flexibility Score: inf
ROOT
ATOM      1  C   UNL     1      -9.547   5.034 -10.666  1.00  0.00     0.000 C 
ENDROOT
BRANCH   1   2
ATOM      2  C   UNL     1      -8.364   5.143 -11.650  1.00  0.00     0.000 C 
BRANCH   2   3
ATOM      3  C   UNL     1      -8.549   4.399 -12.985  1.00  0.00     0.000 C 
BRANCH   3   4
ATOM      4  C   UNL     1      -7.218   4.137 -13.711  1.00  0.00     0.000 C 
BRANCH   4   5
ATOM      5  C   UNL     1      -6.802   5.305 -14.618  1.00  0.00     0.006 C 
BRANCH   5   6
ATOM      6  C   UNL     1      -8.001   5.994 -15.285  1.00  0.00     0.053 C 
BRANCH   6   7
ATOM      7  C   UNL     1      -7.642   6.444 -16.666  1.00  0.00     0.041 C 
ATOM      8  O   UNL     1      -6.625   7.161 -16.855  1.00  0.00    -0.550 OA
ATOM      9  O   UNL     1      -8.405   6.030 -17.752  1.00  0.00    -0.550 OA
ENDBRANCH   6   7
ENDBRANCH   5   6
ENDBRANCH   4   5
ENDBRANCH   3   4
ENDBRANCH   2   3
ENDBRANCH   1   2
BRANCH   1  10
ATOM     10  C   UNL     1      -9.191   4.513  -9.261  1.00  0.00     0.000 C 
BRANCH  10  11
ATOM     11  C   UNL     1      -8.929   5.645  -8.253  1.00  0.00    -0.000 C 
BRANCH  11  12
ATOM     12  C   UNL     1      -7.698   5.385  -7.364  1.00  0.00    -0.000 C 
BRANCH  12  13
ATOM     13  C   UNL     1      -7.976   5.336  -5.850  1.00  0.00    -0.000 C 
BRANCH  13  14
ATOM     14  C   UNL     1      -9.342   5.931  -5.470  1.00  0.00    -0.000 C 
BRANCH  14  15
ATOM     15  C   UNL     1      -9.225   7.051  -4.425  1.00  0.00    -0.003 C 
ATOM     16  C   UNL     1      -8.016   7.956  -4.657  1.00  0.00     0.004 C 
ENDBRANCH  14  15
ENDBRANCH  13  14
ENDBRANCH  12  13
ENDBRANCH  11  12
ENDBRANCH  10  11
ENDBRANCH   1  10
TORSDOF 12
ENDMDL
MODEL 2
REMARK VINA RESULT:    -4.570      4.717      9.435
REMARK INTER + INTRA:          -8.354
REMARK INTER:                  -7.932
REMARK INTRA:                  -0.423
REMARK UNBOUND:                -0.579
REMARK SMILES CCCCCCCCCCCCCC(=O)[O-]
REMARK SMILES IDX 8 1 9 2 10 3 11 4 12 5 13 6 14 7 15 8 16 9 7 10 6 11 5 12
REMARK SMILES IDX 4 13 3 14 2 15 1 16
REMARK H PARENT
REMARK Flexibility Score: inf
ROOT
ATOM      1  C   UNL     1      -8.758   4.592 -11.857  1.00  0.00     0.000 C 
ENDROOT
BRANCH   1   2
ATOM      2  C   UNL     1      -9.531   5.222 -10.680  1.00  0.00     0.000 C 
BRANCH   2   3
ATOM      3  C   UNL     1      -9.339   4.526  -9.320  1.00  0.00     0.000 C 
BRANCH   3   4
ATOM      4  C   UNL     1      -8.432   5.321  -8.366  1.00  0.00     0.000 C 
BRANCH   4   5
ATOM      5  C   UNL     1      -9.125   5.653  -7.034  1.00  0.00     0.006 C 
BRANCH   5   6
ATOM      6  C   UNL     1      -8.204   5.456  -5.822  1.00  0.00     0.053 C 
BRANCH   6   7
ATOM      7  C   UNL     1      -8.713   6.234  -4.650  1.00  0.00     0.041 C 
ATOM      8  O   UNL     1      -9.054   7.438  -4.787  1.00  0.00    -0.550 OA
ATOM      9  O   UNL     1      -8.857   5.615  -3.414  1.00  0.00    -0.550 OA
ENDBRANCH   6   7
ENDBRANCH   5   6
ENDBRANCH   4   5
ENDBRANCH   3   4
ENDBRANCH   2   3
ENDBRANCH   1   2
BRANCH   1  10
ATOM     10  C   UNL     1      -7.484   5.341 -12.288  1.00  0.00     0.000 C 
BRANCH  10  11
ATOM     11  C   UNL     1      -7.110   5.087 -13.758  1.00  0.00    -0.000 C 
BRANCH  11  12
ATOM     12  C   UNL     1      -8.093   5.736 -14.750  1.00  0.00    -0.000 C 
BRANCH  12  13
ATOM     13  C   UNL     1      -7.476   6.199 -16.083  1.00  0.00    -0.000 C 
BRANCH  13  14
ATOM     14  C   UNL     1      -8.132   7.475 -16.637  1.00  0.00    -0.000 C 
BRANCH  14  15
ATOM     15  C   UNL     1      -8.648   7.294 -18.073  1.00  0.00    -0.003 C 
ATOM     16  C   UNL     1      -8.813   5.825 -18.464  1.00  0.00     0.004 C 
ENDBRANCH  14  15
ENDBRANCH  13  14
ENDBRANCH  12  13
ENDBRANCH  11  12
ENDBRANCH  10  11
ENDBRANCH   1  10
TORSDOF 12
ENDMDL
MODEL 3
REMARK VINA RESULT:    -4.506      4.756      9.018
REMARK INTER + INTRA:          -8.246
REMARK INTER:                  -7.712
REMARK INTRA:                  -0.534
REMARK UNBOUND:                -0.579
REMARK SMILES CCCCCCCCCCCCCC(=O)[O-]
REMARK SMILES IDX 8 1 9 2 10 3 11 4 12 5 13 6 14 7 15 8 16 9 7 10 6 11 5 12
REMARK SMILES IDX 4 13 3 14 2 15 1 16
REMARK H PARENT
REMARK Flexibility Score: inf
ROOT
ATOM      1  C   UNL     1      -9.511   5.189 -10.640  1.00  0.00     0.000 C 
ENDROOT
BRANCH   1   2
ATOM      2  C   UNL     1      -9.177   4.559  -9.271  1.00  0.00     0.000 C 
BRANCH   2   3
ATOM      3  C   UNL     1      -8.984   5.559  -8.117  1.00  0.00     0.000 C 
BRANCH   3   4
ATOM      4  C   UNL     1      -7.526   5.632  -7.629  1.00  0.00     0.000 C 
BRANCH   4   5
ATOM      5  C   UNL     1      -7.293   6.787  -6.642  1.00  0.00     0.006 C 
BRANCH   5   6
ATOM      6  C   UNL     1      -6.724   6.312  -5.298  1.00  0.00     0.053 C 
BRANCH   6   7
ATOM      7  C   UNL     1      -7.833   6.023  -4.336  1.00  0.00     0.041 C 
ATOM      8  O   UNL     1      -8.945   6.601  -4.458  1.00  0.00    -0.550 OA
ATOM      9  O   UNL     1      -7.654   5.079  -3.331  1.00  0.00    -0.550 OA
ENDBRANCH   6   7
ENDBRANCH   5   6
ENDBRANCH   4   5
ENDBRANCH   3   4
ENDBRANCH   2   3
ENDBRANCH   1   2
BRANCH   1  10
ATOM     10  C   UNL     1      -8.809   4.548 -11.851  1.00  0.00     0.000 C 
BRANCH  10  11
ATOM     11  C   UNL     1      -7.567   5.332 -12.306  1.00  0.00    -0.000 C 
BRANCH  11  12
ATOM     12  C   UNL     1      -6.754   4.596 -13.387  1.00  0.00    -0.000 C 
BRANCH  12  13
ATOM     13  C   UNL     1      -5.968   5.503 -14.354  1.00  0.00    -0.000 C 
BRANCH  13  14
ATOM     14  C   UNL     1      -6.587   5.558 -15.761  1.00  0.00    -0.000 C 
BRANCH  14  15
ATOM     15  C   UNL     1      -7.871   6.401 -15.805  1.00  0.00    -0.003 C 
ATOM     16  C   UNL     1      -8.065   7.118 -17.141  1.00  0.00     0.004 C 
ENDBRANCH  14  15
ENDBRANCH  13  14
ENDBRANCH  12  13
ENDBRANCH  11  12
ENDBRANCH  10  11
ENDBRANCH   1  10
TORSDOF 12
ENDMDL
MODEL 4
REMARK VINA RESULT:    -4.497      1.865      2.808
REMARK INTER + INTRA:          -8.230
REMARK INTER:                  -7.672
REMARK INTRA:                  -0.559
REMARK UNBOUND:                -0.579
REMARK SMILES CCCCCCCCCCCCCC(=O)[O-]
REMARK SMILES IDX 8 1 9 2 10 3 11 4 12 5 13 6 14 7 15 8 16 9 7 10 6 11 5 12
REMARK SMILES IDX 4 13 3 14 2 15 1 16
REMARK H PARENT
REMARK Flexibility Score: inf
ROOT
ATOM      1  C   UNL     1      -9.048   5.443  -8.204  1.00  0.00     0.000 C 
ENDROOT
BRANCH   1   2
ATOM      2  C   UNL     1      -9.319   4.473  -9.373  1.00  0.00     0.000 C 
BRANCH   2   3
ATOM      3  C   UNL     1      -9.485   5.135 -10.752  1.00  0.00     0.000 C 
BRANCH   3   4
ATOM      4  C   UNL     1      -8.241   4.977 -11.643  1.00  0.00     0.000 C 
BRANCH   4   5
ATOM      5  C   UNL     1      -8.582   4.436 -13.041  1.00  0.00     0.006 C 
BRANCH   5   6
ATOM      6  C   UNL     1      -8.056   5.335 -14.168  1.00  0.00     0.053 C 
BRANCH   6   7
ATOM      7  C   UNL     1      -6.671   4.925 -14.558  1.00  0.00     0.041 C 
ATOM      8  O   UNL     1      -6.282   3.742 -14.369  1.00  0.00    -0.550 OA
ATOM      9  O   UNL     1      -5.824   5.837 -15.177  1.00  0.00    -0.550 OA
ENDBRANCH   6   7
ENDBRANCH   5   6
ENDBRANCH   4   5
ENDBRANCH   3   4
ENDBRANCH   2   3
ENDBRANCH   1   2
BRANCH   1  10
ATOM     10  C   UNL     1      -7.572   5.583  -7.792  1.00  0.00     0.000 C 
BRANCH  10  11
ATOM     11  C   UNL     1      -7.345   6.694  -6.753  1.00  0.00    -0.000 C 
BRANCH  11  12
ATOM     12  C   UNL     1      -7.806   6.297  -5.338  1.00  0.00    -0.000 C 
BRANCH  12  13
ATOM     13  C   UNL     1      -7.496   4.845  -4.926  1.00  0.00    -0.000 C 
BRANCH  13  14
ATOM     14  C   UNL     1      -6.954   4.730  -3.492  1.00  0.00    -0.000 C 
BRANCH  14  15
ATOM     15  C   UNL     1      -7.602   5.744  -2.536  1.00  0.00    -0.003 C 
ATOM     16  C   UNL     1      -8.814   5.175  -1.799  1.00  0.00     0.004 C 
ENDBRANCH  14  15
ENDBRANCH  13  14
ENDBRANCH  12  13
ENDBRANCH  11  12
ENDBRANCH  10  11
ENDBRANCH   1  10
TORSDOF 12
ENDMDL
MODEL 5
REMARK VINA RESULT:    -4.478      1.878      2.967
REMARK INTER + INTRA:          -8.198
REMARK INTER:                  -7.331
REMARK INTRA:                  -0.868
REMARK UNBOUND:                -0.579
REMARK SMILES CCCCCCCCCCCCCC(=O)[O-]
REMARK SMILES IDX 8 1 9 2 10 3 11 4 12 5 13 6 14 7 15 8 16 9 7 10 6 11 5 12
REMARK SMILES IDX 4 13 3 14 2 15 1 16
REMARK H PARENT
REMARK Flexibility Score: inf
ROOT
ATOM      1  C   UNL     1      -9.541   5.179 -10.523  1.00  0.00     0.000 C 
ENDROOT
BRANCH   1   2
ATOM      2  C   UNL     1      -8.352   5.207 -11.506  1.00  0.00     0.000 C 
BRANCH   2   3
ATOM      3  C   UNL     1      -8.587   4.479 -12.842  1.00  0.00     0.000 C 
BRANCH   3   4
ATOM      4  C   UNL     1      -7.854   5.144 -14.020  1.00  0.00     0.000 C 
BRANCH   4   5
ATOM      5  C   UNL     1      -6.520   4.454 -14.348  1.00  0.00     0.006 C 
BRANCH   5   6
ATOM      6  C   UNL     1      -5.382   5.454 -14.595  1.00  0.00     0.053 C 
BRANCH   6   7
ATOM      7  C   UNL     1      -5.471   6.014 -15.980  1.00  0.00     0.041 C 
ATOM      8  O   UNL     1      -5.225   7.230 -16.189  1.00  0.00    -0.550 OA
ATOM      9  O   UNL     1      -5.780   5.180 -17.048  1.00  0.00    -0.550 OA
ENDBRANCH   6   7
ENDBRANCH   5   6
ENDBRANCH   4   5
ENDBRANCH   3   4
ENDBRANCH   2   3
ENDBRANCH   1   2
BRANCH   1  10
ATOM     10  C   UNL     1      -9.259   4.512  -9.164  1.00  0.00     0.000 C 
BRANCH  10  11
ATOM     11  C   UNL     1      -9.013   5.530  -8.038  1.00  0.00    -0.000 C 
BRANCH  11  12
ATOM     12  C   UNL     1      -7.578   5.475  -7.481  1.00  0.00    -0.000 C 
BRANCH  12  13
ATOM     13  C   UNL     1      -6.859   6.833  -7.374  1.00  0.00    -0.000 C 
BRANCH  13  14
ATOM     14  C   UNL     1      -5.460   6.823  -8.012  1.00  0.00    -0.000 C 
BRANCH  14  15
ATOM     15  C   UNL     1      -5.459   6.202  -9.417  1.00  0.00    -0.003 C 
ATOM     16  C   UNL     1      -4.363   6.771 -10.318  1.00  0.00     0.004 C 
ENDBRANCH  14  15
ENDBRANCH  13  14
ENDBRANCH  12  13
ENDBRANCH  11  12
ENDBRANCH  10  11
ENDBRANCH   1  10
TORSDOF 12
ENDMDL
MODEL 6
REMARK VINA RESULT:    -4.419      4.846      9.121
REMARK INTER + INTRA:          -8.098
REMARK INTER:                  -7.612
REMARK INTRA:                  -0.486
REMARK UNBOUND:                -0.579
REMARK SMILES CCCCCCCCCCCCCC(=O)[O-]
REMARK SMILES IDX 8 1 9 2 10 3 11 4 12 5 13 6 14 7 15 8 16 9 7 10 6 11 5 12
REMARK SMILES IDX 4 13 3 14 2 15 1 16
REMARK H PARENT
REMARK Flexibility Score: inf
ROOT
ATOM      1  C   UNL     1      -9.482   5.199 -10.665  1.00  0.00     0.000 C 
ENDROOT
BRANCH   1   2
ATOM      2  C   UNL     1      -9.325   4.484  -9.307  1.00  0.00     0.000 C 
BRANCH   2   3
ATOM      3  C   UNL     1      -9.064   5.409  -8.104  1.00  0.00     0.000 C 
BRANCH   3   4
ATOM      4  C   UNL     1      -7.568   5.550  -7.774  1.00  0.00     0.000 C 
BRANCH   4   5
ATOM      5  C   UNL     1      -7.313   6.488  -6.583  1.00  0.00     0.006 C 
BRANCH   5   6
ATOM      6  C   UNL     1      -8.458   6.471  -5.561  1.00  0.00     0.053 C 
BRANCH   6   7
ATOM      7  C   UNL     1      -8.151   5.515  -4.451  1.00  0.00     0.041 C 
ATOM      8  O   UNL     1      -8.692   5.657  -3.323  1.00  0.00    -0.550 OA
ATOM      9  O   UNL     1      -7.303   4.437  -4.676  1.00  0.00    -0.550 OA
ENDBRANCH   6   7
ENDBRANCH   5   6
ENDBRANCH   4   5
ENDBRANCH   3   4
ENDBRANCH   2   3
ENDBRANCH   1   2
BRANCH   1  10
ATOM     10  C   UNL     1      -8.743   4.544 -11.846  1.00  0.00     0.000 C 
BRANCH  10  11
ATOM     11  C   UNL     1      -7.540   5.371 -12.331  1.00  0.00    -0.000 C 
BRANCH  11  12
ATOM     12  C   UNL     1      -6.764   4.689 -13.473  1.00  0.00    -0.000 C 
BRANCH  12  13
ATOM     13  C   UNL     1      -6.820   5.412 -14.832  1.00  0.00    -0.000 C 
BRANCH  13  14
ATOM     14  C   UNL     1      -5.927   4.756 -15.899  1.00  0.00    -0.000 C 
BRANCH  14  15
ATOM     15  C   UNL     1      -5.036   3.647 -15.317  1.00  0.00    -0.003 C 
ATOM     16  C   UNL     1      -5.179   2.319 -16.061  1.00  0.00     0.004 C 
ENDBRANCH  14  15
ENDBRANCH  13  14
ENDBRANCH  12  13
ENDBRANCH  11  12
ENDBRANCH  10  11
ENDBRANCH   1  10
TORSDOF 12
ENDMDL
MODEL 7
REMARK VINA RESULT:    -4.384      3.886      8.555
REMARK INTER + INTRA:          -8.037
REMARK INTER:                  -6.953
REMARK INTRA:                  -1.084
REMARK UNBOUND:                -0.579
REMARK SMILES CCCCCCCCCCCCCC(=O)[O-]
REMARK SMILES IDX 8 1 9 2 10 3 11 4 12 5 13 6 14 7 15 8 16 9 7 10 6 11 5 12
REMARK SMILES IDX 4 13 3 14 2 15 1 16
REMARK H PARENT
REMARK Flexibility Score: inf
ROOT
ATOM      1  C   UNL     1      -6.406   5.099 -12.958  1.00  0.00     0.000 C 
ENDROOT
BRANCH   1   2
ATOM      2  C   UNL     1      -7.429   5.592 -11.912  1.00  0.00     0.000 C 
BRANCH   2   3
ATOM      3  C   UNL     1      -8.746   4.798 -11.856  1.00  0.00     0.000 C 
BRANCH   3   4
ATOM      4  C   UNL     1      -9.550   5.066 -10.572  1.00  0.00     0.000 C 
BRANCH   4   5
ATOM      5  C   UNL     1      -8.748   4.749  -9.299  1.00  0.00     0.006 C 
BRANCH   5   6
ATOM      6  C   UNL     1      -9.216   5.565  -8.086  1.00  0.00     0.053 C 
BRANCH   6   7
ATOM      7  C   UNL     1      -8.112   5.690  -7.085  1.00  0.00     0.041 C 
ATOM      8  O   UNL     1      -8.287   5.315  -5.896  1.00  0.00    -0.550 OA
ATOM      9  O   UNL     1      -6.870   6.177  -7.476  1.00  0.00    -0.550 OA
ENDBRANCH   6   7
ENDBRANCH   5   6
ENDBRANCH   4   5
ENDBRANCH   3   4
ENDBRANCH   2   3
ENDBRANCH   1   2
BRANCH   1  10
ATOM     10  C   UNL     1      -6.902   3.978 -13.889  1.00  0.00     0.000 C 
BRANCH  10  11
ATOM     11  C   UNL     1      -5.885   3.617 -14.984  1.00  0.00    -0.000 C 
BRANCH  11  12
ATOM     12  C   UNL     1      -4.856   4.734 -15.241  1.00  0.00    -0.000 C 
BRANCH  12  13
ATOM     13  C   UNL     1      -4.755   5.216 -16.701  1.00  0.00    -0.000 C 
BRANCH  13  14
ATOM     14  C   UNL     1      -6.121   5.563 -17.315  1.00  0.00    -0.000 C 
BRANCH  14  15
ATOM     15  C   UNL     1      -6.701   6.871 -16.754  1.00  0.00    -0.003 C 
ATOM     16  C   UNL     1      -8.027   6.667 -16.021  1.00  0.00     0.004 C 
ENDBRANCH  14  15
ENDBRANCH  13  14
ENDBRANCH  12  13
ENDBRANCH  11  12
ENDBRANCH  10  11
ENDBRANCH   1  10
TORSDOF 12
ENDMDL
MODEL 8
REMARK VINA RESULT:    -4.364      4.884      9.000
REMARK INTER + INTRA:          -8.004
REMARK INTER:                  -7.203
REMARK INTRA:                  -0.801
REMARK UNBOUND:                -0.579
REMARK SMILES CCCCCCCCCCCCCC(=O)[O-]
REMARK SMILES IDX 8 1 9 2 10 3 11 4 12 5 13 6 14 7 15 8 16 9 7 10 6 11 5 12
REMARK SMILES IDX 4 13 3 14 2 15 1 16
REMARK H PARENT
REMARK Flexibility Score: inf
ROOT
ATOM      1  C   UNL     1      -7.870   5.354  -8.515  1.00  0.00     0.000 C 
ENDROOT
BRANCH   1   2
ATOM      2  C   UNL     1      -7.517   6.127  -7.226  1.00  0.00     0.000 C 
BRANCH   2   3
ATOM      3  C   UNL     1      -8.703   6.418  -6.289  1.00  0.00     0.000 C 
BRANCH   3   4
ATOM      4  C   UNL     1      -8.774   5.447  -5.098  1.00  0.00     0.000 C 
BRANCH   4   5
ATOM      5  C   UNL     1      -7.449   4.703  -4.865  1.00  0.00     0.006 C 
BRANCH   5   6
ATOM      6  C   UNL     1      -6.833   5.006  -3.492  1.00  0.00     0.053 C 
BRANCH   6   7
ATOM      7  C   UNL     1      -6.004   6.250  -3.556  1.00  0.00     0.041 C 
ATOM      8  O   UNL     1      -6.033   7.081  -2.611  1.00  0.00    -0.550 OA
ATOM      9  O   UNL     1      -5.160   6.468  -4.639  1.00  0.00    -0.550 OA
ENDBRANCH   6   7
ENDBRANCH   5   6
ENDBRANCH   4   5
ENDBRANCH   3   4
ENDBRANCH   2   3
ENDBRANCH   1   2
BRANCH   1  10
ATOM     10  C   UNL     1      -9.374   5.147  -8.770  1.00  0.00     0.000 C 
BRANCH  10  11
ATOM     11  C   UNL     1      -9.730   5.139 -10.266  1.00  0.00    -0.000 C 
BRANCH  11  12
ATOM     12  C   UNL     1      -8.494   5.021 -11.178  1.00  0.00    -0.000 C 
BRANCH  12  13
ATOM     13  C   UNL     1      -8.778   4.549 -12.617  1.00  0.00    -0.000 C 
BRANCH  13  14
ATOM     14  C   UNL     1      -7.858   5.209 -13.657  1.00  0.00    -0.000 C 
BRANCH  14  15
ATOM     15  C   UNL     1      -6.392   4.778 -13.503  1.00  0.00    -0.003 C 
ATOM     16  C   UNL     1      -5.452   5.513 -14.460  1.00  0.00     0.004 C 
ENDBRANCH  14  15
ENDBRANCH  13  14
ENDBRANCH  12  13
ENDBRANCH  11  12
ENDBRANCH  10  11
ENDBRANCH   1  10
TORSDOF 12
ENDMDL
MODEL 9
REMARK VINA RESULT:    -4.243      7.203      9.147
REMARK INTER + INTRA:          -7.798
REMARK INTER:                  -5.902
REMARK INTRA:                  -1.897
REMARK UNBOUND:                -0.579
REMARK SMILES CCCCCCCCCCCCCC(=O)[O-]
REMARK SMILES IDX 8 1 9 2 10 3 11 4 12 5 13 6 14 7 15 8 16 9 7 10 6 11 5 12
REMARK SMILES IDX 4 13 3 14 2 15 1 16
REMARK H PARENT
REMARK Flexibility Score: inf
ROOT
ATOM      1  C   UNL     1      -6.802   6.404  -7.701  1.00  0.00     0.000 C 
ENDROOT
BRANCH   1   2
ATOM      2  C   UNL     1      -7.623   5.422  -6.839  1.00  0.00     0.000 C 
BRANCH   2   3
ATOM      3  C   UNL     1      -9.127   5.732  -6.741  1.00  0.00     0.000 C 
BRANCH   3   4
ATOM      4  C   UNL     1      -9.504   6.448  -5.433  1.00  0.00     0.000 C 
BRANCH   4   5
ATOM      5  C   UNL     1      -8.861   5.796  -4.199  1.00  0.00     0.006 C 
BRANCH   5   6
ATOM      6  C   UNL     1      -8.865   6.718  -2.972  1.00  0.00     0.053 C 
BRANCH   6   7
ATOM      7  C   UNL     1      -9.358   5.981  -1.767  1.00  0.00     0.041 C 
ATOM      8  O   UNL     1      -8.960   4.810  -1.533  1.00  0.00    -0.550 OA
ATOM      9  O   UNL     1     -10.223   6.605  -0.875  1.00  0.00    -0.550 OA
ENDBRANCH   6   7
ENDBRANCH   5   6
ENDBRANCH   4   5
ENDBRANCH   3   4
ENDBRANCH   2   3
ENDBRANCH   1   2
BRANCH   1  10
ATOM     10  C   UNL     1      -5.668   7.140  -6.966  1.00  0.00     0.000 C 
BRANCH  10  11
ATOM     11  C   UNL     1      -6.181   8.060  -5.845  1.00  0.00    -0.000 C 
BRANCH  11  12
ATOM     12  C   UNL     1      -5.548   7.750  -4.476  1.00  0.00    -0.000 C 
BRANCH  12  13
ATOM     13  C   UNL     1      -4.859   6.376  -4.363  1.00  0.00    -0.000 C 
BRANCH  13  14
ATOM     14  C   UNL     1      -5.326   5.568  -3.141  1.00  0.00    -0.000 C 
BRANCH  14  15
ATOM     15  C   UNL     1      -5.062   4.063  -3.296  1.00  0.00    -0.003 C 
ATOM     16  C   UNL     1      -6.347   3.238  -3.359  1.00  0.00     0.004 C 
ENDBRANCH  14  15
ENDBRANCH  13  14
ENDBRANCH  12  13
ENDBRANCH  11  12
ENDBRANCH  10  11
ENDBRANCH   1  10
TORSDOF 12
ENDMDL
