MODEL 1
REMARK VINA RESULT:    -3.924      0.000      0.000
REMARK INTER + INTRA:          -5.377
REMARK INTER:                  -5.071
REMARK INTRA:                  -0.305
REMARK UNBOUND:                -0.305
REMARK SMILES CCCCCCC(=O)[O-]
REMARK SMILES IDX 5 1 6 2 7 3 8 4 9 5 4 6 3 7 2 8 1 9
REMARK H PARENT
REMARK Flexibility Score: inf
ROOT
ATOM      1  C   UNL     1      14.347 -30.290  21.260  1.00  0.00     0.006 C 
ENDROOT
BRANCH   1   2
ATOM      2  C   UNL     1      13.431 -31.521  21.276  1.00  0.00     0.053 C 
BRANCH   2   3
ATOM      3  C   UNL     1      14.215 -32.797  21.235  1.00  0.00     0.041 C 
ATOM      4  O   UNL     1      14.869 -33.172  22.243  1.00  0.00    -0.550 OA
ATOM      5  O   UNL     1      14.199 -33.587  20.092  1.00  0.00    -0.550 OA
ENDBRANCH   2   3
ENDBRANCH   1   2
BRANCH   1   6
ATOM      6  C   UNL     1      14.357 -29.559  22.615  1.00  0.00     0.000 C 
BRANCH   6   7
ATOM      7  C   UNL     1      13.207 -30.000  23.533  1.00  0.00    -0.000 C 
BRANCH   7   8
ATOM      8  C   UNL     1      12.434 -28.813  24.128  1.00  0.00    -0.003 C 
ATOM      9  C   UNL     1      11.266 -28.414  23.231  1.00  0.00     0.004 C 
ENDBRANCH   7   8
ENDBRANCH   6   7
ENDBRANCH   1   6
TORSDOF 5
ENDMDL
MODEL 2
REMARK VINA RESULT:    -3.853      0.510      1.301
REMARK INTER + INTRA:          -5.285
REMARK INTER:                  -5.010
REMARK INTRA:                  -0.275
REMARK UNBOUND:                -0.305
REMARK SMILES CCCCCCC(=O)[O-]
REMARK SMILES IDX 5 1 6 2 7 3 8 4 9 5 4 6 3 7 2 8 1 9
REMARK H PARENT
REMARK Flexibility Score: inf
ROOT
ATOM      1  C   UNL     1      14.310 -30.308  21.245  1.00  0.00     0.006 C 
ENDROOT
BRANCH   1   2
ATOM      2  C   UNL     1      13.328 -31.479  21.108  1.00  0.00     0.053 C 
BRANCH   2   3
ATOM      3  C   UNL     1      14.035 -32.800  21.105  1.00  0.00     0.041 C 
ATOM      4  O   UNL     1      14.136 -33.464  20.041  1.00  0.00    -0.550 OA
ATOM      5  O   UNL     1      14.608 -33.285  22.275  1.00  0.00    -0.550 OA
ENDBRANCH   2   3
ENDBRANCH   1   2
BRANCH   1   6
ATOM      6  C   UNL     1      14.222 -29.638  22.627  1.00  0.00     0.000 C 
BRANCH   6   7
ATOM      7  C   UNL     1      12.958 -30.044  23.402  1.00  0.00    -0.000 C 
BRANCH   7   8
ATOM      8  C   UNL     1      12.259 -28.848  24.064  1.00  0.00    -0.003 C 
ATOM      9  C   UNL     1      13.091 -27.577  23.919  1.00  0.00     0.004 C 
ENDBRANCH   7   8
ENDBRANCH   6   7
ENDBRANCH   1   6
TORSDOF 5
ENDMDL
MODEL 3
REMARK VINA RESULT:    -3.802      0.998      1.419
REMARK INTER + INTRA:          -5.219
REMARK INTER:                  -5.098
REMARK INTRA:                  -0.121
REMARK UNBOUND:                -0.305
REMARK SMILES CCCCCCC(=O)[O-]
REMARK SMILES IDX 5 1 6 2 7 3 8 4 9 5 4 6 3 7 2 8 1 9
REMARK H PARENT
REMARK Flexibility Score: inf
ROOT
ATOM      1  C   UNL     1      12.993 -31.384  20.907  1.00  0.00     0.006 C 
ENDROOT
BRANCH   1   2
ATOM      2  C   UNL     1      14.326 -31.941  21.423  1.00  0.00     0.053 C 
BRANCH   2   3
ATOM      3  C   UNL     1      14.528 -33.368  21.015  1.00  0.00     0.041 C 
ATOM      4  O   UNL     1      14.951 -34.212  21.847  1.00  0.00    -0.550 OA
ATOM      5  O   UNL     1      14.223 -33.771  19.721  1.00  0.00    -0.550 OA
ENDBRANCH   2   3
ENDBRANCH   1   2
BRANCH   1   6
ATOM      6  C   UNL     1      12.139 -30.783  22.037  1.00  0.00     0.000 C 
BRANCH   6   7
ATOM      7  C   UNL     1      12.966 -29.930  23.013  1.00  0.00    -0.000 C 
BRANCH   7   8
ATOM      8  C   UNL     1      12.164 -28.760  23.602  1.00  0.00    -0.003 C 
ATOM      9  C   UNL     1      13.090 -27.650  24.089  1.00  0.00     0.004 C 
ENDBRANCH   7   8
ENDBRANCH   6   7
ENDBRANCH   1   6
TORSDOF 5
ENDMDL
MODEL 4
REMARK VINA RESULT:    -3.751      1.053      1.378
REMARK INTER + INTRA:          -5.152
REMARK INTER:                  -4.954
REMARK INTRA:                  -0.199
REMARK UNBOUND:                -0.305
REMARK SMILES CCCCCCC(=O)[O-]
REMARK SMILES IDX 5 1 6 2 7 3 8 4 9 5 4 6 3 7 2 8 1 9
REMARK H PARENT
REMARK Flexibility Score: inf
ROOT
ATOM      1  C   UNL     1      13.695 -30.961  21.203  1.00  0.00     0.006 C 
ENDROOT
BRANCH   1   2
ATOM      2  C   UNL     1      13.741 -32.432  20.770  1.00  0.00     0.053 C 
BRANCH   2   3
ATOM      3  C   UNL     1      14.931 -33.143  21.339  1.00  0.00     0.041 C 
ATOM      4  O   UNL     1      14.944 -34.399  21.411  1.00  0.00    -0.550 OA
ATOM      5  O   UNL     1      16.037 -32.417  21.763  1.00  0.00    -0.550 OA
ENDBRANCH   2   3
ENDBRANCH   1   2
BRANCH   1   6
ATOM      6  C   UNL     1      12.618 -30.705  22.271  1.00  0.00     0.000 C 
BRANCH   6   7
ATOM      7  C   UNL     1      13.214 -30.275  23.621  1.00  0.00    -0.000 C 
BRANCH   7   8
ATOM      8  C   UNL     1      12.625 -28.951  24.133  1.00  0.00    -0.003 C 
ATOM      9  C   UNL     1      11.437 -28.513  23.283  1.00  0.00     0.004 C 
ENDBRANCH   7   8
ENDBRANCH   6   7
ENDBRANCH   1   6
TORSDOF 5
ENDMDL
MODEL 5
REMARK VINA RESULT:    -3.655      1.364      1.692
REMARK INTER + INTRA:          -5.028
REMARK INTER:                  -4.892
REMARK INTRA:                  -0.137
REMARK UNBOUND:                -0.305
REMARK SMILES CCCCCCC(=O)[O-]
REMARK SMILES IDX 5 1 6 2 7 3 8 4 9 5 4 6 3 7 2 8 1 9
REMARK H PARENT
REMARK Flexibility Score: inf
ROOT
ATOM      1  C   UNL     1      13.764 -32.007  23.507  1.00  0.00     0.006 C 
ENDROOT
BRANCH   1   2
ATOM      2  C   UNL     1      14.848 -33.012  23.095  1.00  0.00     0.053 C 
BRANCH   2   3
ATOM      3  C   UNL     1      14.650 -33.498  21.692  1.00  0.00     0.041 C 
ATOM      4  O   UNL     1      13.943 -32.839  20.886  1.00  0.00    -0.550 OA
ATOM      5  O   UNL     1      15.271 -34.666  21.267  1.00  0.00    -0.550 OA
ENDBRANCH   2   3
ENDBRANCH   1   2
BRANCH   1   6
ATOM      6  C   UNL     1      14.278 -30.557  23.481  1.00  0.00     0.000 C 
BRANCH   6   7
ATOM      7  C   UNL     1      13.249 -29.576  22.898  1.00  0.00    -0.000 C 
BRANCH   7   8
ATOM      8  C   UNL     1      12.490 -28.798  23.984  1.00  0.00    -0.003 C 
ATOM      9  C   UNL     1      11.282 -28.075  23.398  1.00  0.00     0.004 C 
ENDBRANCH   7   8
ENDBRANCH   6   7
ENDBRANCH   1   6
TORSDOF 5
ENDMDL
MODEL 6
REMARK VINA RESULT:    -3.648      8.930     10.075
REMARK INTER + INTRA:          -5.020
REMARK INTER:                  -4.840
REMARK INTRA:                  -0.180
REMARK UNBOUND:                -0.305
REMARK SMILES CCCCCCC(=O)[O-]
REMARK SMILES IDX 5 1 6 2 7 3 8 4 9 5 4 6 3 7 2 8 1 9
REMARK H PARENT
REMARK Flexibility Score: inf
ROOT
ATOM      1  C   UNL     1      20.749 -25.808  20.170  1.00  0.00     0.006 C 
ENDROOT
BRANCH   1   2
ATOM      2  C   UNL     1      21.984 -25.105  20.748  1.00  0.00     0.053 C 
BRANCH   2   3
ATOM      3  C   UNL     1      23.132 -25.118  19.785  1.00  0.00     0.041 C 
ATOM      4  O   UNL     1      23.860 -24.100  19.652  1.00  0.00    -0.550 OA
ATOM      5  O   UNL     1      23.415 -26.266  19.055  1.00  0.00    -0.550 OA
ENDBRANCH   2   3
ENDBRANCH   1   2
BRANCH   1   6
ATOM      6  C   UNL     1      19.996 -26.625  21.234  1.00  0.00     0.000 C 
BRANCH   6   7
ATOM      7  C   UNL     1      19.856 -28.107  20.852  1.00  0.00    -0.000 C 
BRANCH   7   8
ATOM      8  C   UNL     1      21.173 -28.884  20.998  1.00  0.00    -0.003 C 
ATOM      9  C   UNL     1      20.945 -30.385  20.845  1.00  0.00     0.004 C 
ENDBRANCH   7   8
ENDBRANCH   6   7
ENDBRANCH   1   6
TORSDOF 5
ENDMDL
MODEL 7
REMARK VINA RESULT:    -3.564      1.414      1.689
REMARK INTER + INTRA:          -4.911
REMARK INTER:                  -4.683
REMARK INTRA:                  -0.228
REMARK UNBOUND:                -0.305
REMARK SMILES CCCCCCC(=O)[O-]
REMARK SMILES IDX 5 1 6 2 7 3 8 4 9 5 4 6 3 7 2 8 1 9
REMARK H PARENT
REMARK Flexibility Score: inf
ROOT
ATOM      1  C   UNL     1      13.518 -31.633  23.469  1.00  0.00     0.006 C 
ENDROOT
BRANCH   1   2
ATOM      2  C   UNL     1      15.009 -31.798  23.150  1.00  0.00     0.053 C 
BRANCH   2   3
ATOM      3  C   UNL     1      15.225 -32.353  21.775  1.00  0.00     0.041 C 
ATOM      4  O   UNL     1      16.279 -32.087  21.141  1.00  0.00    -0.550 OA
ATOM      5  O   UNL     1      14.272 -33.188  21.205  1.00  0.00    -0.550 OA
ENDBRANCH   2   3
ENDBRANCH   1   2
BRANCH   1   6
ATOM      6  C   UNL     1      12.919 -30.381  22.805  1.00  0.00     0.000 C 
BRANCH   6   7
ATOM      7  C   UNL     1      13.695 -29.100  23.151  1.00  0.00    -0.000 C 
BRANCH   7   8
ATOM      8  C   UNL     1      12.831 -28.063  23.884  1.00  0.00    -0.003 C 
ATOM      9  C   UNL     1      11.347 -28.300  23.620  1.00  0.00     0.004 C 
ENDBRANCH   7   8
ENDBRANCH   6   7
ENDBRANCH   1   6
TORSDOF 5
ENDMDL
MODEL 8
REMARK VINA RESULT:    -3.524      1.950      2.807
REMARK INTER + INTRA:          -4.859
REMARK INTER:                  -4.534
REMARK INTRA:                  -0.325
REMARK UNBOUND:                -0.305
REMARK SMILES CCCCCCC(=O)[O-]
REMARK SMILES IDX 5 1 6 2 7 3 8 4 9 5 4 6 3 7 2 8 1 9
REMARK H PARENT
REMARK Flexibility Score: inf
ROOT
ATOM      1  C   UNL     1      15.422 -32.954  22.705  1.00  0.00     0.006 C 
ENDROOT
BRANCH   1   2
ATOM      2  C   UNL     1      15.633 -34.340  22.082  1.00  0.00     0.053 C 
BRANCH   2   3
ATOM      3  C   UNL     1      15.072 -34.418  20.695  1.00  0.00     0.041 C 
ATOM      4  O   UNL     1      14.252 -33.552  20.293  1.00  0.00    -0.550 OA
ATOM      5  O   UNL     1      15.477 -35.433  19.837  1.00  0.00    -0.550 OA
ENDBRANCH   2   3
ENDBRANCH   1   2
BRANCH   1   6
ATOM      6  C   UNL     1      14.391 -32.984  23.847  1.00  0.00     0.000 C 
BRANCH   6   7
ATOM      7  C   UNL     1      13.496 -31.734  23.868  1.00  0.00    -0.000 C 
BRANCH   7   8
ATOM      8  C   UNL     1      13.630 -30.889  22.592  1.00  0.00    -0.003 C 
ATOM      9  C   UNL     1      12.338 -30.911  21.780  1.00  0.00     0.004 C 
ENDBRANCH   7   8
ENDBRANCH   6   7
ENDBRANCH   1   6
TORSDOF 5
ENDMDL
MODEL 9
REMARK VINA RESULT:    -3.522      2.346      3.731
REMARK INTER + INTRA:          -4.857
REMARK INTER:                  -4.497
REMARK INTRA:                  -0.361
REMARK UNBOUND:                -0.305
REMARK SMILES CCCCCCC(=O)[O-]
REMARK SMILES IDX 5 1 6 2 7 3 8 4 9 5 4 6 3 7 2 8 1 9
REMARK H PARENT
REMARK Flexibility Score: inf
ROOT
ATOM      1  C   UNL     1      14.824 -31.016  22.636  1.00  0.00     0.006 C 
ENDROOT
BRANCH   1   2
ATOM      2  C   UNL     1      14.124 -30.451  21.393  1.00  0.00     0.053 C 
BRANCH   2   3
ATOM      3  C   UNL     1      13.113 -31.409  20.841  1.00  0.00     0.041 C 
ATOM      4  O   UNL     1      13.482 -32.502  20.339  1.00  0.00    -0.550 OA
ATOM      5  O   UNL     1      11.759 -31.104  20.907  1.00  0.00    -0.550 OA
ENDBRANCH   2   3
ENDBRANCH   1   2
BRANCH   1   6
ATOM      6  C   UNL     1      13.831 -31.322  23.771  1.00  0.00     0.000 C 
BRANCH   6   7
ATOM      7  C   UNL     1      13.840 -32.803  24.182  1.00  0.00    -0.000 C 
BRANCH   7   8
ATOM      8  C   UNL     1      14.941 -33.607  23.474  1.00  0.00    -0.003 C 
ATOM      9  C   UNL     1      16.022 -34.043  24.459  1.00  0.00     0.004 C 
ENDBRANCH   7   8
ENDBRANCH   6   7
ENDBRANCH   1   6
TORSDOF 5
ENDMDL
