MODEL 1
REMARK VINA RESULT:    -6.504      0.000      0.000
REMARK INTER + INTRA:          -8.847
REMARK INTER:                  -8.215
REMARK INTRA:                  -0.632
REMARK UNBOUND:                -0.632
REMARK SMILES O=C(C=Cc1ccc(O)cc1)c1ccc(O)cc1O
REMARK SMILES IDX 4 1 3 2 5 3 6 4 7 5 8 6 11 7 10 8 9 9 2 11 1 12 12 13 18 14
REMARK SMILES IDX 13 15 17 16 14 17 15 18 19 19 16 21
REMARK H PARENT 9 10 19 20 16 22
REMARK Flexibility Score: inf
ROOT
ATOM      1  C   UNL     1      17.188  11.765  13.269  1.00  0.00     0.012 C 
ATOM      2  C   UNL     1      16.539  11.276  12.201  1.00  0.00     0.053 C 
ENDROOT
BRANCH   1   3
ATOM      3  C   UNL     1      17.989  13.013  13.250  1.00  0.00    -0.025 A 
ATOM      4  C   UNL     1      18.577  13.415  12.038  1.00  0.00     0.012 A 
ATOM      5  C   UNL     1      19.335  14.589  11.970  1.00  0.00     0.047 A 
ATOM      6  C   UNL     1      19.507  15.382  13.107  1.00  0.00     0.115 A 
ATOM      7  C   UNL     1      18.156  13.827  14.389  1.00  0.00     0.012 A 
ATOM      8  C   UNL     1      18.914  15.001  14.316  1.00  0.00     0.047 A 
BRANCH   6   9
ATOM      9  O   UNL     1      20.265  16.548  13.024  1.00  0.00    -0.508 OA
ATOM     10  H   UNL     1      20.200  17.165  12.222  1.00  0.00     0.293 HD
ENDBRANCH   6   9
ENDBRANCH   1   3
BRANCH   2  11
ATOM     11  C   UNL     1      15.744  10.030  12.243  1.00  0.00     0.189 C 
ATOM     12  O   UNL     1      15.249   9.673  13.345  1.00  0.00    -0.289 OA
BRANCH  11  13
ATOM     13  C   UNL     1      15.546   9.169  11.057  1.00  0.00     0.064 A 
ATOM     14  C   UNL     1      14.285   8.603  10.753  1.00  0.00     0.130 A 
ATOM     15  C   UNL     1      16.648   8.865  10.240  1.00  0.00     0.020 A 
ATOM     16  C   UNL     1      14.156   7.745   9.655  1.00  0.00     0.093 A 
ATOM     17  C   UNL     1      16.504   8.016   9.140  1.00  0.00     0.047 A 
ATOM     18  C   UNL     1      15.261   7.452   8.846  1.00  0.00     0.119 A 
BRANCH  14  19
ATOM     19  O   UNL     1      13.143   8.889  11.506  1.00  0.00    -0.507 OA
ATOM     20  H   UNL     1      12.266   8.399  11.386  1.00  0.00     0.293 HD
ENDBRANCH  14  19
BRANCH  18  21
ATOM     21  O   UNL     1      15.133   6.603   7.749  1.00  0.00    -0.508 OA
ATOM     22  H   UNL     1      14.378   6.710   7.081  1.00  0.00     0.293 HD
ENDBRANCH  18  21
ENDBRANCH  11  13
ENDBRANCH   2  11
TORSDOF 6
ENDMDL
MODEL 2
REMARK VINA RESULT:    -6.346      5.375      9.768
REMARK INTER + INTRA:          -8.648
REMARK INTER:                  -7.997
REMARK INTRA:                  -0.651
REMARK UNBOUND:                -0.632
REMARK SMILES O=C(C=Cc1ccc(O)cc1)c1ccc(O)cc1O
REMARK SMILES IDX 4 1 3 2 5 3 6 4 7 5 8 6 11 7 10 8 9 9 2 11 1 12 12 13 18 14
REMARK SMILES IDX 13 15 17 16 14 17 15 18 19 19 16 21
REMARK H PARENT 9 10 19 20 16 22
REMARK Flexibility Score: inf
ROOT
ATOM      1  C   UNL     1      17.727  16.017  13.581  1.00  0.00     0.012 C 
ATOM      2  C   UNL     1      17.813  17.352  13.688  1.00  0.00     0.053 C 
ENDROOT
BRANCH   1   3
ATOM      3  C   UNL     1      18.620  15.197  12.726  1.00  0.00    -0.025 A 
ATOM      4  C   UNL     1      19.856  15.738  12.333  1.00  0.00     0.012 A 
ATOM      5  C   UNL     1      20.734  14.999  11.533  1.00  0.00     0.047 A 
ATOM      6  C   UNL     1      20.395  13.707  11.125  1.00  0.00     0.115 A 
ATOM      7  C   UNL     1      18.292  13.887  12.322  1.00  0.00     0.012 A 
ATOM      8  C   UNL     1      19.174  13.151  11.523  1.00  0.00     0.047 A 
BRANCH   6   9
ATOM      9  O   UNL     1      21.280  12.983  10.329  1.00  0.00    -0.508 OA
ATOM     10  H   UNL     1      22.200  12.720  10.664  1.00  0.00     0.293 HD
ENDBRANCH   6   9
ENDBRANCH   1   3
BRANCH   2  11
ATOM     11  C   UNL     1      16.913  18.150  14.548  1.00  0.00     0.189 C 
ATOM     12  O   UNL     1      15.845  18.594  14.049  1.00  0.00    -0.289 OA
BRANCH  11  13
ATOM     13  C   UNL     1      17.238  18.483  15.952  1.00  0.00     0.064 A 
ATOM     14  C   UNL     1      17.443  19.819  16.370  1.00  0.00     0.130 A 
ATOM     15  C   UNL     1      17.396  17.442  16.884  1.00  0.00     0.020 A 
ATOM     16  C   UNL     1      17.808  20.084  17.695  1.00  0.00     0.093 A 
ATOM     17  C   UNL     1      17.751  17.720  18.206  1.00  0.00     0.047 A 
ATOM     18  C   UNL     1      17.960  19.039  18.615  1.00  0.00     0.119 A 
BRANCH  14  19
ATOM     19  O   UNL     1      17.271  20.901  15.503  1.00  0.00    -0.507 OA
ATOM     20  H   UNL     1      17.756  20.981  14.618  1.00  0.00     0.293 HD
ENDBRANCH  14  19
BRANCH  18  21
ATOM     21  O   UNL     1      18.318  19.301  19.935  1.00  0.00    -0.508 OA
ATOM     22  H   UNL     1      18.690  18.575  20.537  1.00  0.00     0.293 HD
ENDBRANCH  18  21
ENDBRANCH  11  13
ENDBRANCH   2  11
TORSDOF 6
ENDMDL
MODEL 3
REMARK VINA RESULT:    -6.278      4.693      6.865
REMARK INTER + INTRA:          -8.562
REMARK INTER:                  -7.980
REMARK INTRA:                  -0.582
REMARK UNBOUND:                -0.632
REMARK SMILES O=C(C=Cc1ccc(O)cc1)c1ccc(O)cc1O
REMARK SMILES IDX 4 1 3 2 5 3 6 4 7 5 8 6 11 7 10 8 9 9 2 11 1 12 12 13 18 14
REMARK SMILES IDX 13 15 17 16 14 17 15 18 19 19 16 21
REMARK H PARENT 9 10 19 20 16 22
REMARK Flexibility Score: inf
ROOT
ATOM      1  C   UNL     1      17.012  16.930  14.834  1.00  0.00     0.012 C 
ATOM      2  C   UNL     1      17.968  16.381  14.070  1.00  0.00     0.053 C 
ENDROOT
BRANCH   1   3
ATOM      3  C   UNL     1      17.279  17.913  15.913  1.00  0.00    -0.025 A 
ATOM      4  C   UNL     1      17.592  17.433  17.196  1.00  0.00     0.012 A 
ATOM      5  C   UNL     1      17.858  18.322  18.243  1.00  0.00     0.047 A 
ATOM      6  C   UNL     1      17.828  19.701  18.019  1.00  0.00     0.115 A 
ATOM      7  C   UNL     1      17.264  19.305  15.692  1.00  0.00     0.012 A 
ATOM      8  C   UNL     1      17.532  20.191  16.742  1.00  0.00     0.047 A 
BRANCH   6   9
ATOM      9  O   UNL     1      18.095  20.574  19.072  1.00  0.00    -0.508 OA
ATOM     10  H   UNL     1      18.955  21.109  19.110  1.00  0.00     0.293 HD
ENDBRANCH   6   9
ENDBRANCH   1   3
BRANCH   2  11
ATOM     11  C   UNL     1      17.680  15.403  12.998  1.00  0.00     0.189 C 
ATOM     12  O   UNL     1      16.479  15.089  12.782  1.00  0.00    -0.289 OA
BRANCH  11  13
ATOM     13  C   UNL     1      18.744  14.750  12.205  1.00  0.00     0.064 A 
ATOM     14  C   UNL     1      18.652  13.392  11.818  1.00  0.00     0.130 A 
ATOM     15  C   UNL     1      19.896  15.481  11.871  1.00  0.00     0.020 A 
ATOM     16  C   UNL     1      19.710  12.797  11.120  1.00  0.00     0.093 A 
ATOM     17  C   UNL     1      20.940  14.879  11.165  1.00  0.00     0.047 A 
ATOM     18  C   UNL     1      20.852  13.537  10.790  1.00  0.00     0.119 A 
BRANCH  14  19
ATOM     19  O   UNL     1      17.522  12.617  12.091  1.00  0.00    -0.507 OA
ATOM     20  H   UNL     1      16.734  12.961  12.624  1.00  0.00     0.293 HD
ENDBRANCH  14  19
BRANCH  18  21
ATOM     21  O   UNL     1      21.902  12.948  10.090  1.00  0.00    -0.508 OA
ATOM     22  H   UNL     1      22.850  13.302  10.161  1.00  0.00     0.293 HD
ENDBRANCH  18  21
ENDBRANCH  11  13
ENDBRANCH   2  11
TORSDOF 6
ENDMDL
MODEL 4
REMARK VINA RESULT:    -6.253      7.912      9.767
REMARK INTER + INTRA:          -8.530
REMARK INTER:                  -7.896
REMARK INTRA:                  -0.634
REMARK UNBOUND:                -0.632
REMARK SMILES O=C(C=Cc1ccc(O)cc1)c1ccc(O)cc1O
REMARK SMILES IDX 4 1 3 2 5 3 6 4 7 5 8 6 11 7 10 8 9 9 2 11 1 12 12 13 18 14
REMARK SMILES IDX 13 15 17 16 14 17 15 18 19 19 16 21
REMARK H PARENT 9 10 19 20 16 22
REMARK Flexibility Score: inf
ROOT
ATOM      1  C   UNL     1      16.848  18.776  14.355  1.00  0.00     0.012 C 
ATOM      2  C   UNL     1      17.548  18.149  13.399  1.00  0.00     0.053 C 
ENDROOT
BRANCH   1   3
ATOM      3  C   UNL     1      17.238  18.798  15.787  1.00  0.00    -0.025 A 
ATOM      4  C   UNL     1      17.522  20.037  16.387  1.00  0.00     0.012 A 
ATOM      5  C   UNL     1      17.887  20.108  17.735  1.00  0.00     0.047 A 
ATOM      6  C   UNL     1      17.962  18.945  18.505  1.00  0.00     0.115 A 
ATOM      7  C   UNL     1      17.303  17.631  16.574  1.00  0.00     0.012 A 
ATOM      8  C   UNL     1      17.667  17.706  17.923  1.00  0.00     0.047 A 
BRANCH   6   9
ATOM      9  O   UNL     1      18.327  19.031  19.847  1.00  0.00    -0.508 OA
ATOM     10  H   UNL     1      18.547  18.203  20.390  1.00  0.00     0.293 HD
ENDBRANCH   6   9
ENDBRANCH   1   3
BRANCH   2  11
ATOM     11  C   UNL     1      17.141  18.142  11.977  1.00  0.00     0.189 C 
ATOM     12  O   UNL     1      17.252  17.067  11.328  1.00  0.00    -0.289 OA
BRANCH  11  13
ATOM     13  C   UNL     1      16.654  19.352  11.280  1.00  0.00     0.064 A 
ATOM     14  C   UNL     1      15.281  19.542  10.995  1.00  0.00     0.130 A 
ATOM     15  C   UNL     1      17.583  20.312  10.846  1.00  0.00     0.020 A 
ATOM     16  C   UNL     1      14.870  20.673  10.280  1.00  0.00     0.093 A 
ATOM     17  C   UNL     1      17.160  21.442  10.142  1.00  0.00     0.047 A 
ATOM     18  C   UNL     1      15.805  21.625   9.855  1.00  0.00     0.119 A 
BRANCH  14  19
ATOM     19  O   UNL     1      14.303  18.642  11.426  1.00  0.00    -0.507 OA
ATOM     20  H   UNL     1      14.126  18.446  12.403  1.00  0.00     0.293 HD
ENDBRANCH  14  19
BRANCH  18  21
ATOM     21  O   UNL     1      15.399  22.755   9.149  1.00  0.00    -0.508 OA
ATOM     22  H   UNL     1      15.556  23.690   9.508  1.00  0.00     0.293 HD
ENDBRANCH  18  21
ENDBRANCH  11  13
ENDBRANCH   2  11
TORSDOF 6
ENDMDL
MODEL 5
REMARK VINA RESULT:    -6.244      1.684      7.660
REMARK INTER + INTRA:          -8.519
REMARK INTER:                  -7.922
REMARK INTRA:                  -0.597
REMARK UNBOUND:                -0.632
REMARK SMILES O=C(C=Cc1ccc(O)cc1)c1ccc(O)cc1O
REMARK SMILES IDX 4 1 3 2 5 3 6 4 7 5 8 6 11 7 10 8 9 9 2 11 1 12 12 13 18 14
REMARK SMILES IDX 13 15 17 16 14 17 15 18 19 19 16 21
REMARK H PARENT 9 10 19 20 16 22
REMARK Flexibility Score: inf
ROOT
ATOM      1  C   UNL     1      16.214   9.753  11.514  1.00  0.00     0.012 C 
ATOM      2  C   UNL     1      16.923  10.857  11.237  1.00  0.00     0.053 C 
ENDROOT
BRANCH   1   3
ATOM      3  C   UNL     1      15.655   8.848  10.479  1.00  0.00    -0.025 A 
ATOM      4  C   UNL     1      16.535   8.258   9.556  1.00  0.00     0.012 A 
ATOM      5  C   UNL     1      16.054   7.392   8.568  1.00  0.00     0.047 A 
ATOM      6  C   UNL     1      14.691   7.096   8.496  1.00  0.00     0.115 A 
ATOM      7  C   UNL     1      14.283   8.533  10.408  1.00  0.00     0.012 A 
ATOM      8  C   UNL     1      13.806   7.665   9.419  1.00  0.00     0.047 A 
BRANCH   6   9
ATOM      9  O   UNL     1      14.227   6.232   7.506  1.00  0.00    -0.508 OA
ATOM     10  H   UNL     1      14.090   5.244   7.687  1.00  0.00     0.293 HD
ENDBRANCH   6   9
ENDBRANCH   1   3
BRANCH   2  11
ATOM     11  C   UNL     1      17.473  11.744  12.285  1.00  0.00     0.189 C 
ATOM     12  O   UNL     1      17.023  11.637  13.457  1.00  0.00    -0.289 OA
BRANCH  11  13
ATOM     13  C   UNL     1      18.493  12.778  12.002  1.00  0.00     0.064 A 
ATOM     14  C   UNL     1      18.472  14.037  12.647  1.00  0.00     0.130 A 
ATOM     15  C   UNL     1      19.477  12.521  11.033  1.00  0.00     0.020 A 
ATOM     16  C   UNL     1      19.421  15.007  12.305  1.00  0.00     0.093 A 
ATOM     17  C   UNL     1      20.425  13.494  10.707  1.00  0.00     0.047 A 
ATOM     18  C   UNL     1      20.399  14.739  11.339  1.00  0.00     0.119 A 
BRANCH  14  19
ATOM     19  O   UNL     1      17.541  14.345  13.642  1.00  0.00    -0.507 OA
ATOM     20  H   UNL     1      16.969  15.179  13.622  1.00  0.00     0.293 HD
ENDBRANCH  14  19
BRANCH  18  21
ATOM     21  O   UNL     1      21.348  15.701  11.002  1.00  0.00    -0.508 OA
ATOM     22  H   UNL     1      22.337  15.549  11.164  1.00  0.00     0.293 HD
ENDBRANCH  18  21
ENDBRANCH  11  13
ENDBRANCH   2  11
TORSDOF 6
ENDMDL
MODEL 6
REMARK VINA RESULT:    -6.188      5.415      9.516
REMARK INTER + INTRA:          -8.449
REMARK INTER:                  -8.061
REMARK INTRA:                  -0.388
REMARK UNBOUND:                -0.632
REMARK SMILES O=C(C=Cc1ccc(O)cc1)c1ccc(O)cc1O
REMARK SMILES IDX 4 1 3 2 5 3 6 4 7 5 8 6 11 7 10 8 9 9 2 11 1 12 12 13 18 14
REMARK SMILES IDX 13 15 17 16 14 17 15 18 19 19 16 21
REMARK H PARENT 9 10 19 20 16 22
REMARK Flexibility Score: inf
ROOT
ATOM      1  C   UNL     1      17.709  15.731  12.858  1.00  0.00     0.012 C 
ATOM      2  C   UNL     1      17.984  16.868  13.514  1.00  0.00     0.053 C 
ENDROOT
BRANCH   1   3
ATOM      3  C   UNL     1      18.721  14.940  12.115  1.00  0.00    -0.025 A 
ATOM      4  C   UNL     1      19.918  15.569  11.734  1.00  0.00     0.012 A 
ATOM      5  C   UNL     1      20.904  14.862  11.039  1.00  0.00     0.047 A 
ATOM      6  C   UNL     1      20.713  13.515  10.724  1.00  0.00     0.115 A 
ATOM      7  C   UNL     1      18.542  13.576  11.806  1.00  0.00     0.012 A 
ATOM      8  C   UNL     1      19.531  12.872  11.111  1.00  0.00     0.047 A 
BRANCH   6   9
ATOM      9  O   UNL     1      21.704  12.823  10.030  1.00  0.00    -0.508 OA
ATOM     10  H   UNL     1      22.260  13.274   9.312  1.00  0.00     0.293 HD
ENDBRANCH   6   9
ENDBRANCH   1   3
BRANCH   2  11
ATOM     11  C   UNL     1      16.960  17.640  14.251  1.00  0.00     0.189 C 
ATOM     12  O   UNL     1      15.794  17.692  13.777  1.00  0.00    -0.289 OA
BRANCH  11  13
ATOM     13  C   UNL     1      17.261  18.385  15.492  1.00  0.00     0.064 A 
ATOM     14  C   UNL     1      17.548  17.719  16.708  1.00  0.00     0.130 A 
ATOM     15  C   UNL     1      17.214  19.789  15.476  1.00  0.00     0.020 A 
ATOM     16  C   UNL     1      17.768  18.463  17.872  1.00  0.00     0.093 A 
ATOM     17  C   UNL     1      17.446  20.522  16.643  1.00  0.00     0.047 A 
ATOM     18  C   UNL     1      17.721  19.862  17.843  1.00  0.00     0.119 A 
BRANCH  14  19
ATOM     19  O   UNL     1      17.641  16.327  16.785  1.00  0.00    -0.507 OA
ATOM     20  H   UNL     1      18.144  15.848  17.521  1.00  0.00     0.293 HD
ENDBRANCH  14  19
BRANCH  18  21
ATOM     21  O   UNL     1      17.946  20.605  18.999  1.00  0.00    -0.508 OA
ATOM     22  H   UNL     1      18.184  20.159  19.878  1.00  0.00     0.293 HD
ENDBRANCH  18  21
ENDBRANCH  11  13
ENDBRANCH   2  11
TORSDOF 6
ENDMDL
MODEL 7
REMARK VINA RESULT:    -6.171      7.960      9.937
REMARK INTER + INTRA:          -8.426
REMARK INTER:                  -7.811
REMARK INTRA:                  -0.615
REMARK UNBOUND:                -0.632
REMARK SMILES O=C(C=Cc1ccc(O)cc1)c1ccc(O)cc1O
REMARK SMILES IDX 4 1 3 2 5 3 6 4 7 5 8 6 11 7 10 8 9 9 2 11 1 12 12 13 18 14
REMARK SMILES IDX 13 15 17 16 14 17 15 18 19 19 16 21
REMARK H PARENT 9 10 19 20 16 22
REMARK Flexibility Score: inf
ROOT
ATOM      1  C   UNL     1      18.066  17.818  12.339  1.00  0.00     0.012 C 
ATOM      2  C   UNL     1      17.391  18.707  13.083  1.00  0.00     0.053 C 
ENDROOT
BRANCH   1   3
ATOM      3  C   UNL     1      18.864  18.179  11.140  1.00  0.00    -0.025 A 
ATOM      4  C   UNL     1      20.223  17.825  11.107  1.00  0.00     0.012 A 
ATOM      5  C   UNL     1      21.013  18.137   9.996  1.00  0.00     0.047 A 
ATOM      6  C   UNL     1      20.454  18.797   8.899  1.00  0.00     0.115 A 
ATOM      7  C   UNL     1      18.304  18.832  10.023  1.00  0.00     0.012 A 
ATOM      8  C   UNL     1      19.097  19.141   8.913  1.00  0.00     0.047 A 
BRANCH   6   9
ATOM      9  O   UNL     1      21.253  19.101   7.799  1.00  0.00    -0.508 OA
ATOM     10  H   UNL     1      21.070  19.913   7.220  1.00  0.00     0.293 HD
ENDBRANCH   6   9
ENDBRANCH   1   3
BRANCH   2  11
ATOM     11  C   UNL     1      16.604  18.325  14.275  1.00  0.00     0.189 C 
ATOM     12  O   UNL     1      15.452  17.844  14.103  1.00  0.00    -0.289 OA
BRANCH  11  13
ATOM     13  C   UNL     1      17.095  18.528  15.655  1.00  0.00     0.064 A 
ATOM     14  C   UNL     1      17.245  17.447  16.556  1.00  0.00     0.130 A 
ATOM     15  C   UNL     1      17.373  19.832  16.098  1.00  0.00     0.020 A 
ATOM     16  C   UNL     1      17.655  17.693  17.872  1.00  0.00     0.093 A 
ATOM     17  C   UNL     1      17.792  20.063  17.410  1.00  0.00     0.047 A 
ATOM     18  C   UNL     1      17.932  18.996  18.301  1.00  0.00     0.119 A 
BRANCH  14  19
ATOM     19  O   UNL     1      17.016  16.124  16.171  1.00  0.00    -0.507 OA
ATOM     20  H   UNL     1      16.161  15.627  16.386  1.00  0.00     0.293 HD
ENDBRANCH  14  19
BRANCH  18  21
ATOM     21  O   UNL     1      18.347  19.242  19.608  1.00  0.00    -0.508 OA
ATOM     22  H   UNL     1      19.237  18.901  19.954  1.00  0.00     0.293 HD
ENDBRANCH  18  21
ENDBRANCH  11  13
ENDBRANCH   2  11
TORSDOF 6
ENDMDL
MODEL 8
REMARK VINA RESULT:    -6.170      3.729      6.496
REMARK INTER + INTRA:          -8.425
REMARK INTER:                  -7.756
REMARK INTRA:                  -0.669
REMARK UNBOUND:                -0.632
REMARK SMILES O=C(C=Cc1ccc(O)cc1)c1ccc(O)cc1O
REMARK SMILES IDX 4 1 3 2 5 3 6 4 7 5 8 6 11 7 10 8 9 9 2 11 1 12 12 13 18 14
REMARK SMILES IDX 13 15 17 16 14 17 15 18 19 19 16 21
REMARK H PARENT 9 10 19 20 16 22
REMARK Flexibility Score: inf
ROOT
ATOM      1  C   UNL     1      17.025  17.359  14.464  1.00  0.00     0.012 C 
ATOM      2  C   UNL     1      17.978  16.653  13.836  1.00  0.00     0.053 C 
ENDROOT
BRANCH   1   3
ATOM      3  C   UNL     1      17.274  18.206  15.656  1.00  0.00    -0.025 A 
ATOM      4  C   UNL     1      17.556  17.576  16.880  1.00  0.00     0.012 A 
ATOM      5  C   UNL     1      17.805  18.333  18.030  1.00  0.00     0.047 A 
ATOM      6  C   UNL     1      17.787  19.729  17.969  1.00  0.00     0.115 A 
ATOM      7  C   UNL     1      17.272  19.614  15.601  1.00  0.00     0.012 A 
ATOM      8  C   UNL     1      17.522  20.369  16.753  1.00  0.00     0.047 A 
BRANCH   6   9
ATOM      9  O   UNL     1      18.036  20.470  19.123  1.00  0.00    -0.508 OA
ATOM     10  H   UNL     1      17.893  21.473  19.149  1.00  0.00     0.293 HD
ENDBRANCH   6   9
ENDBRANCH   1   3
BRANCH   2  11
ATOM     11  C   UNL     1      17.707  15.816  12.647  1.00  0.00     0.189 C 
ATOM     12  O   UNL     1      17.401  16.390  11.568  1.00  0.00    -0.289 OA
BRANCH  11  13
ATOM     13  C   UNL     1      17.739  14.338  12.687  1.00  0.00     0.064 A 
ATOM     14  C   UNL     1      18.447  13.584  11.721  1.00  0.00     0.130 A 
ATOM     15  C   UNL     1      17.007  13.664  13.679  1.00  0.00     0.020 A 
ATOM     16  C   UNL     1      18.401  12.186  11.761  1.00  0.00     0.093 A 
ATOM     17  C   UNL     1      16.977  12.268  13.715  1.00  0.00     0.047 A 
ATOM     18  C   UNL     1      17.671  11.526  12.757  1.00  0.00     0.119 A 
BRANCH  14  19
ATOM     19  O   UNL     1      19.220  14.192  10.728  1.00  0.00    -0.507 OA
ATOM     20  H   UNL     1      18.857  14.424   9.812  1.00  0.00     0.293 HD
ENDBRANCH  14  19
BRANCH  18  21
ATOM     21  O   UNL     1      17.628  10.134  12.803  1.00  0.00    -0.508 OA
ATOM     22  H   UNL     1      16.766   9.625  12.642  1.00  0.00     0.293 HD
ENDBRANCH  18  21
ENDBRANCH  11  13
ENDBRANCH   2  11
TORSDOF 6
ENDMDL
MODEL 9
REMARK VINA RESULT:    -6.143      8.996     10.967
REMARK INTER + INTRA:          -8.391
REMARK INTER:                  -7.783
REMARK INTRA:                  -0.608
REMARK UNBOUND:                -0.632
REMARK SMILES O=C(C=Cc1ccc(O)cc1)c1ccc(O)cc1O
REMARK SMILES IDX 4 1 3 2 5 3 6 4 7 5 8 6 11 7 10 8 9 9 2 11 1 12 12 13 18 14
REMARK SMILES IDX 13 15 17 16 14 17 15 18 19 19 16 21
REMARK H PARENT 9 10 19 20 16 22
REMARK Flexibility Score: inf
ROOT
ATOM      1  C   UNL     1      13.938  19.112  12.983  1.00  0.00     0.012 C 
ATOM      2  C   UNL     1      14.793  19.476  13.949  1.00  0.00     0.053 C 
ENDROOT
BRANCH   1   3
ATOM      3  C   UNL     1      13.866  19.767  11.653  1.00  0.00    -0.025 A 
ATOM      4  C   UNL     1      15.042  19.874  10.892  1.00  0.00     0.012 A 
ATOM      5  C   UNL     1      15.022  20.476   9.630  1.00  0.00     0.047 A 
ATOM      6  C   UNL     1      13.825  20.970   9.106  1.00  0.00     0.115 A 
ATOM      7  C   UNL     1      12.659  20.255  11.111  1.00  0.00     0.012 A 
ATOM      8  C   UNL     1      12.643  20.856   9.847  1.00  0.00     0.047 A 
BRANCH   6   9
ATOM      9  O   UNL     1      13.820  21.568   7.848  1.00  0.00    -0.508 OA
ATOM     10  H   UNL     1      14.509  22.266   7.591  1.00  0.00     0.293 HD
ENDBRANCH   6   9
ENDBRANCH   1   3
BRANCH   2  11
ATOM     11  C   UNL     1      14.850  18.807  15.267  1.00  0.00     0.189 C 
ATOM     12  O   UNL     1      13.856  18.125  15.635  1.00  0.00    -0.289 OA
BRANCH  11  13
ATOM     13  C   UNL     1      16.002  18.946  16.185  1.00  0.00     0.064 A 
ATOM     14  C   UNL     1      16.558  17.828  16.851  1.00  0.00     0.130 A 
ATOM     15  C   UNL     1      16.525  20.224  16.439  1.00  0.00     0.020 A 
ATOM     16  C   UNL     1      17.610  18.012  17.756  1.00  0.00     0.093 A 
ATOM     17  C   UNL     1      17.581  20.394  17.337  1.00  0.00     0.047 A 
ATOM     18  C   UNL     1      18.125  19.291  17.999  1.00  0.00     0.119 A 
BRANCH  14  19
ATOM     19  O   UNL     1      16.106  16.526  16.619  1.00  0.00    -0.507 OA
ATOM     20  H   UNL     1      16.666  15.821  16.158  1.00  0.00     0.293 HD
ENDBRANCH  14  19
BRANCH  18  21
ATOM     21  O   UNL     1      19.175  19.476  18.895  1.00  0.00    -0.508 OA
ATOM     22  H   UNL     1      19.007  19.636  19.882  1.00  0.00     0.293 HD
ENDBRANCH  18  21
ENDBRANCH  11  13
ENDBRANCH   2  11
TORSDOF 6
ENDMDL
