MODEL 1
REMARK VINA RESULT:    -3.604      0.000      0.000
REMARK INTER + INTRA:          -5.675
REMARK INTER:                  -5.500
REMARK INTRA:                  -0.175
REMARK UNBOUND:                -0.175
REMARK SMILES CC1=CCC[C@@H](C)C(=O)C[C@H](C(C)C)C(=O)C1
REMARK SMILES IDX 8 1 9 2 6 3 7 4 5 5 4 6 3 7 2 8 1 9 10 11 11 12 15 13 16 14
REMARK SMILES IDX 17 15 12 17 13 18 14 19
REMARK H PARENT
REMARK Flexibility Score: 70.00
ROOT
ATOM      1  C   UNL     1      59.688 -17.639  -1.904  1.00  0.00     0.136 C 
ATOM      2  O   UNL     1      59.750 -17.928  -3.091  1.00  0.00    -0.299 OA
ENDROOT
BRANCH   1   3
ATOM      3  C   UNL     1      60.937 -17.692  -1.036  1.00  0.00     0.053 C 
ATOM      4  C   UNL     1      61.896 -18.817  -1.463  1.00  0.00     0.016 C 
BRANCH   3   5
ATOM      5  C   UNL     1      60.596 -17.791   0.467  1.00  0.00     0.015 C 
BRANCH   5   6
ATOM      6  C   UNL     1      60.652 -19.232   1.011  1.00  0.00     0.028 C 
BRANCH   6   7
ATOM      7  C   UNL     1      59.618 -19.506   2.073  1.00  0.00    -0.028 C 
ATOM      8  C   UNL     1      58.357 -19.967   1.862  1.00  0.00    -0.070 CG0
ATOM      9  C   UNL     1      57.531 -20.293   3.083  1.00  0.00     0.039 C 
ATOM     10  G   UNL     1      57.704 -20.102   0.489  1.00  0.00     0.000 G0
ENDBRANCH   6   7
ENDBRANCH   5   6
ENDBRANCH   3   5
ENDBRANCH   1   3
BRANCH   1  11
ATOM     11  C   UNL     1      58.360 -17.211  -1.326  1.00  0.00     0.087 C 
BRANCH  11  12
ATOM     12  C   UNL     1      57.276 -18.323  -1.400  1.00  0.00     0.066 C 
BRANCH  12  13
ATOM     13  C   UNL     1      56.962 -18.894  -0.022  1.00  0.00     0.140 C 
ATOM     14  O   UNL     1      56.227 -18.266   0.726  1.00  0.00    -0.299 OA
BRANCH  13  15
ATOM     15  C   UNL     1      57.664 -20.129   0.494  1.00  0.00     0.106 CG0
ATOM     16  G   UNL     1      58.334 -19.967   1.856  1.00  0.00     0.000 G0
ENDBRANCH  13  15
ENDBRANCH  12  13
BRANCH  12  17
ATOM     17  C   UNL     1      55.968 -17.838  -2.106  1.00  0.00    -0.006 C 
ATOM     18  C   UNL     1      56.253 -17.013  -3.375  1.00  0.00     0.008 C 
ATOM     19  C   UNL     1      55.064 -19.027  -2.483  1.00  0.00     0.008 C 
ENDBRANCH  12  17
ENDBRANCH  11  12
ENDBRANCH   1  11
TORSDOF 1
ENDMDL
MODEL 2
REMARK VINA RESULT:    -3.445      1.849      4.018
REMARK INTER + INTRA:          -5.434
REMARK INTER:                  -5.191
REMARK INTRA:                  -0.243
REMARK UNBOUND:                -0.175
REMARK SMILES CC1=CCC[C@@H](C)C(=O)C[C@H](C(C)C)C(=O)C1
REMARK SMILES IDX 8 1 9 2 6 3 7 4 5 5 4 6 3 7 2 8 1 9 10 11 11 12 15 13 16 14
REMARK SMILES IDX 17 15 12 17 13 18 14 19
REMARK H PARENT
REMARK Flexibility Score: 70.00
ROOT
ATOM      1  C   UNL     1      57.103 -18.661  -0.271  1.00  0.00     0.136 C 
ATOM      2  O   UNL     1      56.523 -17.798   0.374  1.00  0.00    -0.299 OA
ENDROOT
BRANCH   1   3
ATOM      3  C   UNL     1      57.900 -19.744   0.442  1.00  0.00     0.053 C 
ATOM      4  C   UNL     1      57.048 -20.519   1.461  1.00  0.00     0.016 C 
BRANCH   3   5
ATOM      5  C   UNL     1      59.182 -19.185   1.097  1.00  0.00     0.015 C 
BRANCH   5   6
ATOM      6  C   UNL     1      60.417 -19.257   0.176  1.00  0.00     0.028 C 
BRANCH   6   7
ATOM      7  C   UNL     1      60.909 -17.902  -0.263  1.00  0.00    -0.028 C 
ATOM      8  C   UNL     1      60.558 -17.256  -1.406  1.00  0.00    -0.070 CG0
ATOM      9  C   UNL     1      61.072 -15.847  -1.584  1.00  0.00     0.039 C 
ATOM     10  G   UNL     1      59.752 -17.881  -2.541  1.00  0.00     0.000 G0
ENDBRANCH   6   7
ENDBRANCH   5   6
ENDBRANCH   3   5
ENDBRANCH   1   3
BRANCH   1  11
ATOM     11  C   UNL     1      56.995 -18.642  -1.777  1.00  0.00     0.087 C 
BRANCH  11  12
ATOM     12  C   UNL     1      57.198 -17.226  -2.385  1.00  0.00     0.066 C 
BRANCH  12  13
ATOM     13  C   UNL     1      58.579 -17.078  -3.016  1.00  0.00     0.140 C 
ATOM     14  O   UNL     1      58.704 -16.381  -4.012  1.00  0.00    -0.299 OA
BRANCH  13  15
ATOM     15  C   UNL     1      59.754 -17.898  -2.533  1.00  0.00     0.106 CG0
ATOM     16  G   UNL     1      60.566 -17.257  -1.410  1.00  0.00     0.000 G0
ENDBRANCH  13  15
ENDBRANCH  12  13
BRANCH  12  17
ATOM     17  C   UNL     1      56.081 -16.849  -3.412  1.00  0.00    -0.006 C 
ATOM     18  C   UNL     1      54.942 -17.884  -3.450  1.00  0.00     0.008 C 
ATOM     19  C   UNL     1      55.480 -15.464  -3.099  1.00  0.00     0.008 C 
ENDBRANCH  12  17
ENDBRANCH  11  12
ENDBRANCH   1  11
TORSDOF 1
ENDMDL
MODEL 3
REMARK VINA RESULT:    -3.287      1.822      4.388
REMARK INTER + INTRA:          -5.192
REMARK INTER:                  -5.074
REMARK INTRA:                  -0.119
REMARK UNBOUND:                -0.175
REMARK SMILES CC1=CCC[C@@H](C)C(=O)C[C@H](C(C)C)C(=O)C1
REMARK SMILES IDX 8 1 9 2 6 3 7 4 5 5 4 6 3 7 2 8 1 9 10 11 11 12 15 13 16 14
REMARK SMILES IDX 17 15 12 17 13 18 14 19
REMARK H PARENT
REMARK Flexibility Score: 70.00
ROOT
ATOM      1  C   UNL     1      59.927 -18.802   1.879  1.00  0.00     0.136 C 
ATOM      2  O   UNL     1      60.796 -19.549   2.307  1.00  0.00    -0.299 OA
ENDROOT
BRANCH   1   3
ATOM      3  C   UNL     1      58.519 -18.854   2.457  1.00  0.00     0.053 C 
ATOM      4  C   UNL     1      58.490 -18.501   3.953  1.00  0.00     0.016 C 
BRANCH   3   5
ATOM      5  C   UNL     1      57.833 -20.212   2.190  1.00  0.00     0.015 C 
BRANCH   5   6
ATOM      6  C   UNL     1      57.492 -20.441   0.704  1.00  0.00     0.028 C 
BRANCH   6   7
ATOM      7  C   UNL     1      56.337 -19.598   0.225  1.00  0.00    -0.028 C 
ATOM      8  C   UNL     1      56.318 -18.830  -0.896  1.00  0.00    -0.070 CG0
ATOM      9  C   UNL     1      55.009 -18.169  -1.254  1.00  0.00     0.039 C 
ATOM     10  G   UNL     1      57.539 -18.534  -1.763  1.00  0.00     0.000 G0
ENDBRANCH   6   7
ENDBRANCH   5   6
ENDBRANCH   3   5
ENDBRANCH   1   3
BRANCH   1  11
ATOM     11  C   UNL     1      60.281 -17.819   0.789  1.00  0.00     0.087 C 
BRANCH  11  12
ATOM     12  C   UNL     1      59.922 -18.332  -0.634  1.00  0.00     0.066 C 
BRANCH  12  13
ATOM     13  C   UNL     1      58.638 -17.694  -1.153  1.00  0.00     0.140 C 
ATOM     14  O   UNL     1      58.436 -16.508  -0.937  1.00  0.00    -0.299 OA
BRANCH  13  15
ATOM     15  C   UNL     1      57.547 -18.529  -1.785  1.00  0.00     0.106 CG0
ATOM     16  G   UNL     1      56.352 -18.815  -0.880  1.00  0.00     0.000 G0
ENDBRANCH  13  15
ENDBRANCH  12  13
BRANCH  12  17
ATOM     17  C   UNL     1      61.089 -18.130  -1.655  1.00  0.00    -0.006 C 
ATOM     18  C   UNL     1      61.640 -16.693  -1.645  1.00  0.00     0.008 C 
ATOM     19  C   UNL     1      62.249 -19.106  -1.375  1.00  0.00     0.008 C 
ENDBRANCH  12  17
ENDBRANCH  11  12
ENDBRANCH   1  11
TORSDOF 1
ENDMDL
MODEL 4
REMARK VINA RESULT:    -3.193      2.007      4.631
REMARK INTER + INTRA:          -5.049
REMARK INTER:                  -4.966
REMARK INTRA:                  -0.083
REMARK UNBOUND:                -0.175
REMARK SMILES CC1=CCC[C@@H](C)C(=O)C[C@H](C(C)C)C(=O)C1
REMARK SMILES IDX 8 1 9 2 6 3 7 4 5 5 4 6 3 7 2 8 1 9 10 11 11 12 15 13 16 14
REMARK SMILES IDX 17 15 12 17 13 18 14 19
REMARK H PARENT
REMARK Flexibility Score: 70.00
ROOT
ATOM      1  C   UNL     1      59.752 -18.694   1.408  1.00  0.00     0.136 C 
ATOM      2  O   UNL     1      59.736 -17.559   1.865  1.00  0.00    -0.299 OA
ENDROOT
BRANCH   1   3
ATOM      3  C   UNL     1      59.964 -18.918  -0.082  1.00  0.00     0.053 C 
ATOM      4  C   UNL     1      61.443 -18.800  -0.485  1.00  0.00     0.016 C 
BRANCH   3   5
ATOM      5  C   UNL     1      59.076 -17.990  -0.940  1.00  0.00     0.015 C 
BRANCH   5   6
ATOM      6  C   UNL     1      57.722 -18.622  -1.319  1.00  0.00     0.028 C 
BRANCH   6   7
ATOM      7  C   UNL     1      56.609 -18.250  -0.372  1.00  0.00    -0.028 C 
ATOM      8  C   UNL     1      56.254 -18.927   0.751  1.00  0.00    -0.070 CG0
ATOM      9  C   UNL     1      55.190 -18.303   1.622  1.00  0.00     0.039 C 
ATOM     10  G   UNL     1      56.798 -20.297   1.144  1.00  0.00     0.000 G0
ENDBRANCH   6   7
ENDBRANCH   5   6
ENDBRANCH   3   5
ENDBRANCH   1   3
BRANCH   1  11
ATOM     11  C   UNL     1      59.581 -19.862   2.351  1.00  0.00     0.087 C 
BRANCH  11  12
ATOM     12  C   UNL     1      58.319 -19.739   3.251  1.00  0.00     0.066 C 
BRANCH  12  13
ATOM     13  C   UNL     1      57.118 -20.447   2.634  1.00  0.00     0.140 C 
ATOM     14  O   UNL     1      56.493 -21.252   3.310  1.00  0.00    -0.299 OA
BRANCH  13  15
ATOM     15  C   UNL     1      56.786 -20.296   1.167  1.00  0.00     0.106 CG0
ATOM     16  G   UNL     1      56.248 -18.925   0.768  1.00  0.00     0.000 G0
ENDBRANCH  13  15
ENDBRANCH  12  13
BRANCH  12  17
ATOM     17  C   UNL     1      58.571 -20.248   4.707  1.00  0.00    -0.006 C 
ATOM     18  C   UNL     1      60.069 -20.371   5.039  1.00  0.00     0.008 C 
ATOM     19  C   UNL     1      57.910 -19.319   5.745  1.00  0.00     0.008 C 
ENDBRANCH  12  17
ENDBRANCH  11  12
ENDBRANCH   1  11
TORSDOF 1
ENDMDL
MODEL 5
REMARK VINA RESULT:    -3.133      1.727      4.259
REMARK INTER + INTRA:          -4.956
REMARK INTER:                  -4.801
REMARK INTRA:                  -0.156
REMARK UNBOUND:                -0.175
REMARK SMILES CC1=CCC[C@@H](C)C(=O)C[C@H](C(C)C)C(=O)C1
REMARK SMILES IDX 8 1 9 2 6 3 7 4 5 5 4 6 3 7 2 8 1 9 10 11 11 12 15 13 16 14
REMARK SMILES IDX 17 15 12 17 13 18 14 19
REMARK H PARENT
REMARK Flexibility Score: 70.00
ROOT
ATOM      1  C   UNL     1      60.443 -17.686   0.271  1.00  0.00     0.136 C 
ATOM      2  O   UNL     1      60.574 -16.786   1.088  1.00  0.00    -0.299 OA
ENDROOT
BRANCH   1   3
ATOM      3  C   UNL     1      60.880 -17.480  -1.173  1.00  0.00     0.053 C 
ATOM      4  C   UNL     1      61.488 -16.086  -1.404  1.00  0.00     0.016 C 
BRANCH   3   5
ATOM      5  C   UNL     1      59.736 -17.762  -2.172  1.00  0.00     0.015 C 
BRANCH   5   6
ATOM      6  C   UNL     1      58.380 -17.181  -1.724  1.00  0.00     0.028 C 
BRANCH   6   7
ATOM      7  C   UNL     1      57.219 -18.098  -2.011  1.00  0.00    -0.028 C 
ATOM      8  C   UNL     1      56.314 -18.551  -1.105  1.00  0.00    -0.070 CG0
ATOM      9  C   UNL     1      55.153 -19.358  -1.636  1.00  0.00     0.039 C 
ATOM     10  G   UNL     1      56.433 -18.364   0.405  1.00  0.00     0.000 G0
ENDBRANCH   6   7
ENDBRANCH   5   6
ENDBRANCH   3   5
ENDBRANCH   1   3
BRANCH   1  11
ATOM     11  C   UNL     1      59.862 -19.005   0.723  1.00  0.00     0.087 C 
BRANCH  11  12
ATOM     12  C   UNL     1      58.678 -18.840   1.718  1.00  0.00     0.066 C 
BRANCH  12  13
ATOM     13  C   UNL     1      57.366 -19.327   1.114  1.00  0.00     0.140 C 
ATOM     14  O   UNL     1      57.137 -20.528   1.083  1.00  0.00    -0.299 OA
BRANCH  13  15
ATOM     15  C   UNL     1      56.423 -18.375   0.413  1.00  0.00     0.106 CG0
ATOM     16  G   UNL     1      56.319 -18.569  -1.098  1.00  0.00     0.000 G0
ENDBRANCH  13  15
ENDBRANCH  12  13
BRANCH  12  17
ATOM     17  C   UNL     1      58.947 -19.540   3.089  1.00  0.00    -0.006 C 
ATOM     18  C   UNL     1      60.437 -19.854   3.310  1.00  0.00     0.008 C 
ATOM     19  C   UNL     1      58.445 -18.676   4.264  1.00  0.00     0.008 C 
ENDBRANCH  12  17
ENDBRANCH  11  12
ENDBRANCH   1  11
TORSDOF 1
ENDMDL
MODEL 6
REMARK VINA RESULT:    -3.109      2.172      4.655
REMARK INTER + INTRA:          -4.920
REMARK INTER:                  -4.604
REMARK INTRA:                  -0.316
REMARK UNBOUND:                -0.175
REMARK SMILES CC1=CCC[C@@H](C)C(=O)C[C@H](C(C)C)C(=O)C1
REMARK SMILES IDX 8 1 9 2 6 3 7 4 5 5 4 6 3 7 2 8 1 9 10 11 11 12 15 13 16 14
REMARK SMILES IDX 17 15 12 17 13 18 14 19
REMARK H PARENT
REMARK Flexibility Score: 70.00
ROOT
ATOM      1  C   UNL     1      57.835 -16.055  -3.085  1.00  0.00     0.136 C 
ATOM      2  O   UNL     1      57.852 -14.969  -2.524  1.00  0.00    -0.299 OA
ENDROOT
BRANCH   1   3
ATOM      3  C   UNL     1      56.813 -16.339  -4.177  1.00  0.00     0.053 C 
ATOM      4  C   UNL     1      56.857 -15.292  -5.303  1.00  0.00     0.016 C 
BRANCH   3   5
ATOM      5  C   UNL     1      55.384 -16.488  -3.609  1.00  0.00     0.015 C 
BRANCH   5   6
ATOM      6  C   UNL     1      55.165 -17.815  -2.856  1.00  0.00     0.028 C 
BRANCH   6   7
ATOM      7  C   UNL     1      55.081 -17.641  -1.361  1.00  0.00    -0.028 C 
ATOM      8  C   UNL     1      56.048 -17.963  -0.463  1.00  0.00    -0.070 CG0
ATOM      9  C   UNL     1      55.803 -17.584   0.978  1.00  0.00     0.039 C 
ATOM     10  G   UNL     1      57.317 -18.742  -0.799  1.00  0.00     0.000 G0
ENDBRANCH   6   7
ENDBRANCH   5   6
ENDBRANCH   3   5
ENDBRANCH   1   3
BRANCH   1  11
ATOM     11  C   UNL     1      58.857 -17.095  -2.691  1.00  0.00     0.087 C 
BRANCH  11  12
ATOM     12  C   UNL     1      59.293 -16.987  -1.203  1.00  0.00     0.066 C 
BRANCH  12  13
ATOM     13  C   UNL     1      58.616 -18.047  -0.341  1.00  0.00     0.140 C 
ATOM     14  O   UNL     1      59.183 -18.442   0.668  1.00  0.00    -0.299 OA
BRANCH  13  15
ATOM     15  C   UNL     1      57.343 -18.729  -0.790  1.00  0.00     0.106 CG0
ATOM     16  G   UNL     1      56.059 -17.972  -0.462  1.00  0.00     0.000 G0
ENDBRANCH  13  15
ENDBRANCH  12  13
BRANCH  12  17
ATOM     17  C   UNL     1      60.846 -17.046  -1.029  1.00  0.00    -0.006 C 
ATOM     18  C   UNL     1      61.508 -18.061  -1.978  1.00  0.00     0.008 C 
ATOM     19  C   UNL     1      61.485 -15.663  -1.260  1.00  0.00     0.008 C 
ENDBRANCH  12  17
ENDBRANCH  11  12
ENDBRANCH   1  11
TORSDOF 1
ENDMDL
MODEL 7
REMARK VINA RESULT:    -2.992      2.431      5.794
REMARK INTER + INTRA:          -4.741
REMARK INTER:                  -4.355
REMARK INTRA:                  -0.387
REMARK UNBOUND:                -0.175
REMARK SMILES CC1=CCC[C@@H](C)C(=O)C[C@H](C(C)C)C(=O)C1
REMARK SMILES IDX 8 1 9 2 6 3 7 4 5 5 4 6 3 7 2 8 1 9 10 11 11 12 15 13 16 14
REMARK SMILES IDX 17 15 12 17 13 18 14 19
REMARK H PARENT
REMARK Flexibility Score: 70.00
ROOT
ATOM      1  C   UNL     1      55.955 -18.303   0.421  1.00  0.00     0.136 C 
ATOM      2  O   UNL     1      55.887 -19.158   1.293  1.00  0.00    -0.299 OA
ENDROOT
BRANCH   1   3
ATOM      3  C   UNL     1      54.831 -18.153  -0.594  1.00  0.00     0.053 C 
ATOM      4  C   UNL     1      53.452 -18.040   0.076  1.00  0.00     0.016 C 
BRANCH   3   5
ATOM      5  C   UNL     1      54.848 -19.281  -1.649  1.00  0.00     0.015 C 
BRANCH   5   6
ATOM      6  C   UNL     1      55.329 -18.810  -3.036  1.00  0.00     0.028 C 
BRANCH   6   7
ATOM      7  C   UNL     1      55.123 -17.334  -3.265  1.00  0.00    -0.028 C 
ATOM      8  C   UNL     1      56.101 -16.405  -3.427  1.00  0.00    -0.070 CG0
ATOM      9  C   UNL     1      55.666 -15.001  -3.773  1.00  0.00     0.039 C 
ATOM     10  G   UNL     1      57.589 -16.668  -3.211  1.00  0.00     0.000 G0
ENDBRANCH   6   7
ENDBRANCH   5   6
ENDBRANCH   3   5
ENDBRANCH   1   3
BRANCH   1  11
ATOM     11  C   UNL     1      57.159 -17.392   0.385  1.00  0.00     0.087 C 
BRANCH  11  12
ATOM     12  C   UNL     1      58.095 -17.666  -0.825  1.00  0.00     0.066 C 
BRANCH  12  13
ATOM     13  C   UNL     1      58.103 -16.499  -1.806  1.00  0.00     0.140 C 
ATOM     14  O   UNL     1      58.390 -15.383  -1.396  1.00  0.00    -0.299 OA
BRANCH  13  15
ATOM     15  C   UNL     1      57.611 -16.663  -3.226  1.00  0.00     0.106 CG0
ATOM     16  G   UNL     1      56.120 -16.404  -3.424  1.00  0.00     0.000 G0
ENDBRANCH  13  15
ENDBRANCH  12  13
BRANCH  12  17
ATOM     17  C   UNL     1      59.552 -18.026  -0.386  1.00  0.00    -0.006 C 
ATOM     18  C   UNL     1      59.612 -19.305   0.468  1.00  0.00     0.008 C 
ATOM     19  C   UNL     1      60.475 -18.203  -1.607  1.00  0.00     0.008 C 
ENDBRANCH  12  17
ENDBRANCH  11  12
ENDBRANCH   1  11
TORSDOF 1
ENDMDL
MODEL 8
REMARK VINA RESULT:    -2.969      1.906      2.663
REMARK INTER + INTRA:          -4.707
REMARK INTER:                  -4.554
REMARK INTRA:                  -0.153
REMARK UNBOUND:                -0.175
REMARK SMILES CC1=CCC[C@@H](C)C(=O)C[C@H](C(C)C)C(=O)C1
REMARK SMILES IDX 8 1 9 2 6 3 7 4 5 5 4 6 3 7 2 8 1 9 10 11 11 12 15 13 16 14
REMARK SMILES IDX 17 15 12 17 13 18 14 19
REMARK H PARENT
REMARK Flexibility Score: 70.00
ROOT
ATOM      1  C   UNL     1      58.643 -17.929  -1.543  1.00  0.00     0.136 C 
ATOM      2  O   UNL     1      59.548 -18.249  -2.301  1.00  0.00    -0.299 OA
ENDROOT
BRANCH   1   3
ATOM      3  C   UNL     1      58.761 -18.201  -0.050  1.00  0.00     0.053 C 
ATOM      4  C   UNL     1      60.032 -17.583   0.557  1.00  0.00     0.016 C 
BRANCH   3   5
ATOM      5  C   UNL     1      58.663 -19.708   0.275  1.00  0.00     0.015 C 
BRANCH   5   6
ATOM      6  C   UNL     1      57.322 -20.105   0.925  1.00  0.00     0.028 C 
BRANCH   6   7
ATOM      7  C   UNL     1      56.773 -19.045   1.845  1.00  0.00    -0.028 C 
ATOM      8  C   UNL     1      55.630 -18.336   1.657  1.00  0.00    -0.070 CG0
ATOM      9  C   UNL     1      55.201 -17.413   2.773  1.00  0.00     0.039 C 
ATOM     10  G   UNL     1      54.801 -18.354   0.375  1.00  0.00     0.000 G0
ENDBRANCH   6   7
ENDBRANCH   5   6
ENDBRANCH   3   5
ENDBRANCH   1   3
BRANCH   1  11
ATOM     11  C   UNL     1      57.424 -17.243  -2.112  1.00  0.00     0.087 C 
BRANCH  11  12
ATOM     12  C   UNL     1      56.113 -18.049  -1.892  1.00  0.00     0.066 C 
BRANCH  12  13
ATOM     13  C   UNL     1      55.281 -17.470  -0.753  1.00  0.00     0.140 C 
ATOM     14  O   UNL     1      55.127 -16.258  -0.689  1.00  0.00    -0.299 OA
BRANCH  13  15
ATOM     15  C   UNL     1      54.782 -18.341   0.377  1.00  0.00     0.106 CG0
ATOM     16  G   UNL     1      55.641 -18.314   1.638  1.00  0.00     0.000 G0
ENDBRANCH  13  15
ENDBRANCH  12  13
BRANCH  12  17
ATOM     17  C   UNL     1      55.256 -18.166  -3.195  1.00  0.00    -0.006 C 
ATOM     18  C   UNL     1      53.755 -18.341  -2.901  1.00  0.00     0.008 C 
ATOM     19  C   UNL     1      55.443 -16.930  -4.097  1.00  0.00     0.008 C 
ENDBRANCH  12  17
ENDBRANCH  11  12
ENDBRANCH   1  11
TORSDOF 1
ENDMDL
MODEL 9
REMARK VINA RESULT:    -2.838      1.977      4.275
REMARK INTER + INTRA:          -4.506
REMARK INTER:                  -4.280
REMARK INTRA:                  -0.226
REMARK UNBOUND:                -0.175
REMARK SMILES CC1=CCC[C@@H](C)C(=O)C[C@H](C(C)C)C(=O)C1
REMARK SMILES IDX 8 1 9 2 6 3 7 4 5 5 4 6 3 7 2 8 1 9 10 11 11 12 15 13 16 14
REMARK SMILES IDX 17 15 12 17 13 18 14 19
REMARK H PARENT
REMARK Flexibility Score: 70.00
ROOT
ATOM      1  C   UNL     1      60.403 -19.273   0.239  1.00  0.00     0.136 C 
ATOM      2  O   UNL     1      61.463 -19.837   0.475  1.00  0.00    -0.299 OA
ENDROOT
BRANCH   1   3
ATOM      3  C   UNL     1      60.362 -18.085  -0.712  1.00  0.00     0.053 C 
ATOM      4  C   UNL     1      61.455 -18.163  -1.790  1.00  0.00     0.016 C 
BRANCH   3   5
ATOM      5  C   UNL     1      60.416 -16.737   0.041  1.00  0.00     0.015 C 
BRANCH   5   6
ATOM      6  C   UNL     1      59.335 -15.739  -0.419  1.00  0.00     0.028 C 
BRANCH   6   7
ATOM      7  C   UNL     1      58.245 -16.382  -1.238  1.00  0.00    -0.028 C 
ATOM      8  C   UNL     1      57.070 -16.872  -0.763  1.00  0.00    -0.070 CG0
ATOM      9  C   UNL     1      56.066 -17.357  -1.780  1.00  0.00     0.039 C 
ATOM     10  G   UNL     1      56.735 -17.032   0.718  1.00  0.00     0.000 G0
ENDBRANCH   6   7
ENDBRANCH   5   6
ENDBRANCH   3   5
ENDBRANCH   1   3
BRANCH   1  11
ATOM     11  C   UNL     1      59.142 -19.790   0.889  1.00  0.00     0.087 C 
BRANCH  11  12
ATOM     12  C   UNL     1      58.449 -18.736   1.798  1.00  0.00     0.066 C 
BRANCH  12  13
ATOM     13  C   UNL     1      57.045 -18.404   1.302  1.00  0.00     0.140 C 
ATOM     14  O   UNL     1      56.207 -19.292   1.257  1.00  0.00    -0.299 OA
BRANCH  13  15
ATOM     15  C   UNL     1      56.720 -17.047   0.720  1.00  0.00     0.106 CG0
ATOM     16  G   UNL     1      57.079 -16.877  -0.754  1.00  0.00     0.000 G0
ENDBRANCH  13  15
ENDBRANCH  12  13
BRANCH  12  17
ATOM     17  C   UNL     1      58.414 -19.171   3.299  1.00  0.00    -0.006 C 
ATOM     18  C   UNL     1      59.818 -19.453   3.864  1.00  0.00     0.008 C 
ATOM     19  C   UNL     1      57.735 -18.099   4.174  1.00  0.00     0.008 C 
ENDBRANCH  12  17
ENDBRANCH  11  12
ENDBRANCH   1  11
TORSDOF 1
ENDMDL
