MODEL 1
REMARK VINA RESULT:    -9.301      0.000      0.000
REMARK INTER + INTRA:         -16.478
REMARK INTER:                 -14.738
REMARK INTRA:                  -1.740
REMARK UNBOUND:                -1.740
REMARK SMILES C[C@H]1O[C@@H](O[C@@H]2[C@@H](Oc3cc(O)c4c(c3)O[C@@H](c3ccc(O)cc3)CC4=O)O[C@@H](CO)[C@H](O)[C@H]2O)[C@H](O)[C@H](O)[C@@H]1O
REMARK SMILES IDX 6 1 34 2 32 3 29 4 28 5 7 6 5 7 4 8 1 9 2 10 40 11 3 12
REMARK SMILES IDX 38 13 36 14 41 15 39 17 37 19 35 21 8 23 9 24 10 25 15 26
REMARK SMILES IDX 11 27 14 28 13 29 16 30 26 31 17 32 27 33 25 34 12 35 18 37
REMARK SMILES IDX 19 38 24 39 20 40 23 41 21 42 22 43 33 45 30 47 31 48
REMARK H PARENT 41 16 39 18 37 20 35 22 12 36 22 44 33 46 31 49
REMARK Flexibility Score: inf
ROOT
ATOM      1  C   UNL     1      -2.801 -22.901  47.742  1.00  0.00     0.221 C 
ATOM      2  C   UNL     1      -3.787 -23.842  48.486  1.00  0.00     0.181 C 
ATOM      3  C   UNL     1      -4.987 -23.071  49.075  1.00  0.00     0.177 C 
ATOM      4  C   UNL     1      -4.542 -21.767  49.807  1.00  0.00     0.179 C 
ATOM      5  O   UNL     1      -3.462 -21.047  49.211  1.00  0.00    -0.332 OA
ATOM      6  C   UNL     1      -3.177 -21.403  47.869  1.00  0.00     0.339 C 
ENDROOT
BRANCH   1   7
ATOM      7  O   UNL     1      -1.448 -23.277  48.008  1.00  0.00    -0.337 OA
BRANCH   7   8
ATOM      8  C   UNL     1      -0.647 -22.438  48.836  1.00  0.00     0.282 C 
ATOM      9  C   UNL     1       2.812 -21.449  48.076  1.00  0.00     0.041 C 
ATOM     10  C   UNL     1       1.559 -21.619  48.934  1.00  0.00     0.150 C 
ATOM     11  C   UNL     1       1.895 -22.329  50.253  1.00  0.00     0.174 C 
ATOM     12  O   UNL     1       0.628 -22.399  48.210  1.00  0.00    -0.344 OA
ATOM     13  C   UNL     1       0.624 -22.482  51.100  1.00  0.00     0.179 C 
ATOM     14  C   UNL     1      -0.554 -23.056  50.264  1.00  0.00     0.202 C 
BRANCH  11  15
ATOM     15  O   UNL     1       2.865 -21.603  50.973  1.00  0.00    -0.388 OA
ATOM     16  H   UNL     1       3.090 -20.801  50.421  1.00  0.00     0.211 HD
ENDBRANCH  11  15
BRANCH  13  17
ATOM     17  O   UNL     1       0.283 -21.271  51.740  1.00  0.00    -0.387 OA
ATOM     18  H   UNL     1      -0.244 -20.718  51.108  1.00  0.00     0.211 HD
ENDBRANCH  13  17
BRANCH  14  19
ATOM     19  O   UNL     1      -1.752 -22.820  50.962  1.00  0.00    -0.385 OA
ATOM     20  H   UNL     1      -1.539 -22.244  51.742  1.00  0.00     0.211 HD
ENDBRANCH  14  19
ENDBRANCH   7   8
ENDBRANCH   1   7
BRANCH   2  21
ATOM     21  O   UNL     1      -4.243 -24.871  47.643  1.00  0.00    -0.387 OA
ATOM     22  H   UNL     1      -4.602 -25.604  48.212  1.00  0.00     0.211 HD
ENDBRANCH   2  21
BRANCH   6  23
ATOM     23  O   UNL     1      -4.290 -21.095  47.021  1.00  0.00    -0.462 OA
BRANCH  23  24
ATOM     24  C   UNL     1      -4.197 -20.536  45.735  1.00  0.00     0.130 A 
ATOM     25  C   UNL     1      -3.016 -20.729  45.012  1.00  0.00     0.093 A 
ATOM     26  C   UNL     1      -5.246 -19.805  45.148  1.00  0.00     0.094 A 
ATOM     27  C   UNL     1      -2.865 -20.209  43.719  1.00  0.00     0.133 A 
ATOM     28  C   UNL     1      -5.108 -19.280  43.857  1.00  0.00     0.138 A 
ATOM     29  C   UNL     1      -3.917 -19.474  43.136  1.00  0.00     0.102 A 
ATOM     30  O   UNL     1      -6.160 -18.542  43.298  1.00  0.00    -0.484 OA
ATOM     31  C   UNL     1      -3.806 -18.841  41.804  1.00  0.00     0.174 C 
ATOM     32  C   UNL     1      -6.209 -18.196  41.912  1.00  0.00     0.211 C 
ATOM     33  O   UNL     1      -2.846 -19.110  41.033  1.00  0.00    -0.294 OA
ATOM     34  C   UNL     1      -4.814 -17.805  41.395  1.00  0.00     0.131 C 
BRANCH  27  35
ATOM     35  O   UNL     1      -1.668 -20.412  43.033  1.00  0.00    -0.507 OA
ATOM     36  H   UNL     1      -1.021 -19.653  42.849  1.00  0.00     0.293 HD
ENDBRANCH  27  35
BRANCH  32  37
ATOM     37  C   UNL     1      -7.179 -17.058  41.698  1.00  0.00    -0.007 A 
ATOM     38  C   UNL     1      -6.720 -15.733  41.610  1.00  0.00     0.011 A 
ATOM     39  C   UNL     1      -8.543 -17.325  41.490  1.00  0.00     0.011 A 
ATOM     40  C   UNL     1      -7.611 -14.691  41.330  1.00  0.00     0.046 A 
ATOM     41  C   UNL     1      -9.430 -16.281  41.211  1.00  0.00     0.046 A 
ATOM     42  C   UNL     1      -8.965 -14.962  41.125  1.00  0.00     0.115 A 
BRANCH  42  43
ATOM     43  O   UNL     1      -9.839 -13.916  40.839  1.00  0.00    -0.508 OA
ATOM     44  H   UNL     1     -10.828 -13.976  41.063  1.00  0.00     0.293 HD
ENDBRANCH  42  43
ENDBRANCH  32  37
ENDBRANCH  23  24
ENDBRANCH   6  23
BRANCH   3  45
ATOM     45  O   UNL     1      -5.724 -23.908  49.934  1.00  0.00    -0.387 OA
ATOM     46  H   UNL     1      -5.329 -23.835  50.842  1.00  0.00     0.211 HD
ENDBRANCH   3  45
BRANCH   4  47
ATOM     47  C   UNL     1      -5.728 -20.811  50.015  1.00  0.00     0.191 C 
BRANCH  47  48
ATOM     48  O   UNL     1      -6.689 -20.986  49.003  1.00  0.00    -0.394 OA
ATOM     49  H   UNL     1      -7.060 -21.899  49.109  1.00  0.00     0.210 HD
ENDBRANCH  47  48
ENDBRANCH   4  47
TORSDOF 14
ENDMDL
MODEL 2
REMARK VINA RESULT:    -9.181      2.605      8.997
REMARK INTER + INTRA:         -16.288
REMARK INTER:                 -14.686
REMARK INTRA:                  -1.602
REMARK UNBOUND:                -1.740
REMARK SMILES C[C@H]1O[C@@H](O[C@@H]2[C@@H](Oc3cc(O)c4c(c3)O[C@@H](c3ccc(O)cc3)CC4=O)O[C@@H](CO)[C@H](O)[C@H]2O)[C@H](O)[C@H](O)[C@@H]1O
REMARK SMILES IDX 6 1 34 2 32 3 29 4 28 5 7 6 5 7 4 8 1 9 2 10 40 11 3 12
REMARK SMILES IDX 38 13 36 14 41 15 39 17 37 19 35 21 8 23 9 24 10 25 15 26
REMARK SMILES IDX 11 27 14 28 13 29 16 30 26 31 17 32 27 33 25 34 12 35 18 37
REMARK SMILES IDX 19 38 24 39 20 40 23 41 21 42 22 43 33 45 30 47 31 48
REMARK H PARENT 41 16 39 18 37 20 35 22 12 36 22 44 33 46 31 49
REMARK Flexibility Score: inf
ROOT
ATOM      1  C   UNL     1      -3.815 -21.450  47.042  1.00  0.00     0.221 C 
ATOM      2  C   UNL     1      -4.991 -21.093  47.990  1.00  0.00     0.181 C 
ATOM      3  C   UNL     1      -5.150 -22.124  49.127  1.00  0.00     0.177 C 
ATOM      4  C   UNL     1      -5.065 -23.591  48.603  1.00  0.00     0.179 C 
ATOM      5  O   UNL     1      -4.125 -23.832  47.554  1.00  0.00    -0.332 OA
ATOM      6  C   UNL     1      -3.157 -22.813  47.376  1.00  0.00     0.339 C 
ENDROOT
BRANCH   1   7
ATOM      7  O   UNL     1      -4.169 -21.193  45.681  1.00  0.00    -0.337 OA
BRANCH   7   8
ATOM      8  C   UNL     1      -4.726 -19.927  45.338  1.00  0.00     0.282 C 
ATOM      9  C   UNL     1      -8.175 -19.416  44.169  1.00  0.00     0.041 C 
ATOM     10  C   UNL     1      -6.719 -19.044  44.446  1.00  0.00     0.150 C 
ATOM     11  C   UNL     1      -6.050 -18.487  43.181  1.00  0.00     0.174 C 
ATOM     12  O   UNL     1      -6.034 -20.210  44.858  1.00  0.00    -0.344 OA
ATOM     13  C   UNL     1      -4.592 -18.113  43.485  1.00  0.00     0.179 C 
ATOM     14  C   UNL     1      -3.854 -19.258  44.234  1.00  0.00     0.202 C 
BRANCH  11  15
ATOM     15  O   UNL     1      -6.745 -17.354  42.712  1.00  0.00    -0.388 OA
ATOM     16  H   UNL     1      -6.619 -16.637  43.395  1.00  0.00     0.211 HD
ENDBRANCH  11  15
BRANCH  13  17
ATOM     17  O   UNL     1      -4.508 -16.885  44.174  1.00  0.00    -0.387 OA
ATOM     18  H   UNL     1      -5.425 -16.531  44.300  1.00  0.00     0.211 HD
ENDBRANCH  13  17
BRANCH  14  19
ATOM     19  O   UNL     1      -2.683 -18.732  44.808  1.00  0.00    -0.385 OA
ATOM     20  H   UNL     1      -2.682 -17.752  44.649  1.00  0.00     0.211 HD
ENDBRANCH  14  19
ENDBRANCH   7   8
ENDBRANCH   1   7
BRANCH   2  21
ATOM     21  O   UNL     1      -4.839 -19.803  48.528  1.00  0.00    -0.387 OA
ATOM     22  H   UNL     1      -5.534 -19.672  49.226  1.00  0.00     0.211 HD
ENDBRANCH   2  21
BRANCH   6  23
ATOM     23  O   UNL     1      -2.332 -22.695  48.542  1.00  0.00    -0.462 OA
BRANCH  23  24
ATOM     24  C   UNL     1      -0.956 -22.408  48.533  1.00  0.00     0.130 A 
ATOM     25  C   UNL     1      -0.299 -22.280  49.761  1.00  0.00     0.093 A 
ATOM     26  C   UNL     1      -0.219 -22.259  47.345  1.00  0.00     0.094 A 
ATOM     27  C   UNL     1       1.075 -22.008  49.822  1.00  0.00     0.133 A 
ATOM     28  C   UNL     1       1.154 -21.987  47.391  1.00  0.00     0.138 A 
ATOM     29  C   UNL     1       1.809 -21.856  48.628  1.00  0.00     0.102 A 
ATOM     30  O   UNL     1       1.865 -21.828  46.194  1.00  0.00    -0.484 OA
ATOM     31  C   UNL     1       3.246 -21.504  48.613  1.00  0.00     0.174 C 
ATOM     32  C   UNL     1       3.293 -21.807  46.142  1.00  0.00     0.211 C 
ATOM     33  O   UNL     1       3.935 -21.538  49.668  1.00  0.00    -0.294 OA
ATOM     34  C   UNL     1       3.874 -21.029  47.335  1.00  0.00     0.131 C 
BRANCH  27  35
ATOM     35  O   UNL     1       1.694 -21.876  51.063  1.00  0.00    -0.507 OA
ATOM     36  H   UNL     1       1.994 -20.974  51.419  1.00  0.00     0.293 HD
ENDBRANCH  27  35
BRANCH  32  37
ATOM     37  C   UNL     1       3.754 -21.186  44.844  1.00  0.00    -0.007 A 
ATOM     38  C   UNL     1       2.877 -21.079  43.751  1.00  0.00     0.011 A 
ATOM     39  C   UNL     1       5.037 -20.622  44.750  1.00  0.00     0.011 A 
ATOM     40  C   UNL     1       3.281 -20.429  42.579  1.00  0.00     0.046 A 
ATOM     41  C   UNL     1       5.437 -19.974  43.577  1.00  0.00     0.046 A 
ATOM     42  C   UNL     1       4.558 -19.872  42.491  1.00  0.00     0.115 A 
BRANCH  42  43
ATOM     43  O   UNL     1       4.944 -19.221  41.321  1.00  0.00    -0.508 OA
ATOM     44  H   UNL     1       5.072 -18.214  41.294  1.00  0.00     0.293 HD
ENDBRANCH  42  43
ENDBRANCH  32  37
ENDBRANCH  23  24
ENDBRANCH   6  23
BRANCH   3  45
ATOM     45  O   UNL     1      -6.357 -21.901  49.817  1.00  0.00    -0.387 OA
ATOM     46  H   UNL     1      -6.224 -22.182  50.760  1.00  0.00     0.211 HD
ENDBRANCH   3  45
BRANCH   4  47
ATOM     47  C   UNL     1      -4.801 -24.580  49.750  1.00  0.00     0.191 C 
BRANCH  47  48
ATOM     48  O   UNL     1      -3.671 -24.190  50.490  1.00  0.00    -0.394 OA
ATOM     49  H   UNL     1      -3.730 -23.209  50.616  1.00  0.00     0.210 HD
ENDBRANCH  47  48
ENDBRANCH   4  47
TORSDOF 14
ENDMDL
MODEL 3
REMARK VINA RESULT:    -9.091      2.386      4.959
REMARK INTER + INTRA:         -16.146
REMARK INTER:                 -14.140
REMARK INTRA:                  -2.006
REMARK UNBOUND:                -1.740
REMARK SMILES C[C@H]1O[C@@H](O[C@@H]2[C@@H](Oc3cc(O)c4c(c3)O[C@@H](c3ccc(O)cc3)CC4=O)O[C@@H](CO)[C@H](O)[C@H]2O)[C@H](O)[C@H](O)[C@@H]1O
REMARK SMILES IDX 6 1 34 2 32 3 29 4 28 5 7 6 5 7 4 8 1 9 2 10 40 11 3 12
REMARK SMILES IDX 38 13 36 14 41 15 39 17 37 19 35 21 8 23 9 24 10 25 15 26
REMARK SMILES IDX 11 27 14 28 13 29 16 30 26 31 17 32 27 33 25 34 12 35 18 37
REMARK SMILES IDX 19 38 24 39 20 40 23 41 21 42 22 43 33 45 30 47 31 48
REMARK H PARENT 41 16 39 18 37 20 35 22 12 36 22 44 33 46 31 49
REMARK Flexibility Score: inf
ROOT
ATOM      1  C   UNL     1      -2.868 -22.875  47.711  1.00  0.00     0.221 C 
ATOM      2  C   UNL     1      -3.930 -23.774  48.400  1.00  0.00     0.181 C 
ATOM      3  C   UNL     1      -5.139 -22.958  48.903  1.00  0.00     0.177 C 
ATOM      4  C   UNL     1      -4.700 -21.660  49.648  1.00  0.00     0.179 C 
ATOM      5  O   UNL     1      -3.561 -20.982  49.115  1.00  0.00    -0.332 OA
ATOM      6  C   UNL     1      -3.203 -21.364  47.798  1.00  0.00     0.339 C 
ENDROOT
BRANCH   1   7
ATOM      7  O   UNL     1      -1.548 -23.290  48.068  1.00  0.00    -0.337 OA
BRANCH   7   8
ATOM      8  C   UNL     1      -0.749 -22.435  48.881  1.00  0.00     0.282 C 
ATOM      9  C   UNL     1       2.746 -21.545  48.167  1.00  0.00     0.041 C 
ATOM     10  C   UNL     1       1.470 -21.655  48.999  1.00  0.00     0.150 C 
ATOM     11  C   UNL     1       1.760 -22.318  50.354  1.00  0.00     0.174 C 
ATOM     12  O   UNL     1       0.541 -22.446  48.285  1.00  0.00    -0.344 OA
ATOM     13  C   UNL     1       0.466 -22.412  51.175  1.00  0.00     0.179 C 
ATOM     14  C   UNL     1      -0.703 -22.996  50.334  1.00  0.00     0.202 C 
BRANCH  11  15
ATOM     15  O   UNL     1       2.727 -21.583  51.067  1.00  0.00    -0.388 OA
ATOM     16  H   UNL     1       2.783 -20.685  50.633  1.00  0.00     0.211 HD
ENDBRANCH  11  15
BRANCH  13  17
ATOM     17  O   UNL     1       0.135 -21.170  51.757  1.00  0.00    -0.387 OA
ATOM     18  H   UNL     1       0.965 -20.754  52.108  1.00  0.00     0.211 HD
ENDBRANCH  13  17
BRANCH  14  19
ATOM     19  O   UNL     1      -1.912 -22.708  50.993  1.00  0.00    -0.385 OA
ATOM     20  H   UNL     1      -2.654 -22.903  50.362  1.00  0.00     0.211 HD
ENDBRANCH  14  19
ENDBRANCH   7   8
ENDBRANCH   1   7
BRANCH   2  21
ATOM     21  O   UNL     1      -4.364 -24.799  47.541  1.00  0.00    -0.387 OA
ATOM     22  H   UNL     1      -5.175 -25.216  47.938  1.00  0.00     0.211 HD
ENDBRANCH   2  21
BRANCH   6  23
ATOM     23  O   UNL     1      -4.249 -21.032  46.877  1.00  0.00    -0.462 OA
BRANCH  23  24
ATOM     24  C   UNL     1      -4.054 -20.537  45.576  1.00  0.00     0.130 A 
ATOM     25  C   UNL     1      -5.179 -20.166  44.833  1.00  0.00     0.093 A 
ATOM     26  C   UNL     1      -2.778 -20.388  45.004  1.00  0.00     0.094 A 
ATOM     27  C   UNL     1      -5.052 -19.652  43.534  1.00  0.00     0.133 A 
ATOM     28  C   UNL     1      -2.637 -19.876  43.708  1.00  0.00     0.138 A 
ATOM     29  C   UNL     1      -3.772 -19.508  42.964  1.00  0.00     0.102 A 
ATOM     30  O   UNL     1      -1.357 -19.752  43.152  1.00  0.00    -0.484 OA
ATOM     31  C   UNL     1      -3.564 -19.036  41.578  1.00  0.00     0.174 C 
ATOM     32  C   UNL     1      -1.102 -19.009  41.957  1.00  0.00     0.211 C 
ATOM     33  O   UNL     1      -4.509 -18.530  40.914  1.00  0.00    -0.294 OA
ATOM     34  C   UNL     1      -2.224 -19.228  40.927  1.00  0.00     0.131 C 
BRANCH  27  35
ATOM     35  O   UNL     1      -6.197 -19.305  42.820  1.00  0.00    -0.507 OA
ATOM     36  H   UNL     1      -6.264 -18.433  42.305  1.00  0.00     0.293 HD
ENDBRANCH  27  35
BRANCH  32  37
ATOM     37  C   UNL     1       0.228 -19.416  41.369  1.00  0.00    -0.007 A 
ATOM     38  C   UNL     1       1.407 -19.318  42.128  1.00  0.00     0.011 A 
ATOM     39  C   UNL     1       0.285 -19.989  40.087  1.00  0.00     0.011 A 
ATOM     40  C   UNL     1       2.624 -19.772  41.610  1.00  0.00     0.046 A 
ATOM     41  C   UNL     1       1.504 -20.441  39.572  1.00  0.00     0.046 A 
ATOM     42  C   UNL     1       2.675 -20.338  40.335  1.00  0.00     0.115 A 
BRANCH  42  43
ATOM     43  O   UNL     1       3.893 -20.795  39.834  1.00  0.00    -0.508 OA
ATOM     44  H   UNL     1       4.690 -20.174  39.736  1.00  0.00     0.293 HD
ENDBRANCH  42  43
ENDBRANCH  32  37
ENDBRANCH  23  24
ENDBRANCH   6  23
BRANCH   3  45
ATOM     45  O   UNL     1      -5.956 -23.761  49.721  1.00  0.00    -0.387 OA
ATOM     46  H   UNL     1      -5.951 -23.368  50.633  1.00  0.00     0.211 HD
ENDBRANCH   3  45
BRANCH   4  47
ATOM     47  C   UNL     1      -5.865 -20.664  49.768  1.00  0.00     0.191 C 
BRANCH  47  48
ATOM     48  O   UNL     1      -6.799 -20.867  48.737  1.00  0.00    -0.394 OA
ATOM     49  H   UNL     1      -6.304 -21.245  47.966  1.00  0.00     0.210 HD
ENDBRANCH  47  48
ENDBRANCH   4  47
TORSDOF 14
ENDMDL
MODEL 4
REMARK VINA RESULT:    -8.921      2.167      8.958
REMARK INTER + INTRA:         -15.876
REMARK INTER:                 -13.600
REMARK INTRA:                  -2.277
REMARK UNBOUND:                -1.740
REMARK SMILES C[C@H]1O[C@@H](O[C@@H]2[C@@H](Oc3cc(O)c4c(c3)O[C@@H](c3ccc(O)cc3)CC4=O)O[C@@H](CO)[C@H](O)[C@H]2O)[C@H](O)[C@H](O)[C@@H]1O
REMARK SMILES IDX 6 1 34 2 32 3 29 4 28 5 7 6 5 7 4 8 1 9 2 10 40 11 3 12
REMARK SMILES IDX 38 13 36 14 41 15 39 17 37 19 35 21 8 23 9 24 10 25 15 26
REMARK SMILES IDX 11 27 14 28 13 29 16 30 26 31 17 32 27 33 25 34 12 35 18 37
REMARK SMILES IDX 19 38 24 39 20 40 23 41 21 42 22 43 33 45 30 47 31 48
REMARK H PARENT 41 16 39 18 37 20 35 22 12 36 22 44 33 46 31 49
REMARK Flexibility Score: inf
ROOT
ATOM      1  C   UNL     1      -3.696 -18.829  43.095  1.00  0.00     0.221 C 
ATOM      2  C   UNL     1      -4.512 -17.508  43.139  1.00  0.00     0.181 C 
ATOM      3  C   UNL     1      -5.957 -17.706  42.635  1.00  0.00     0.177 C 
ATOM      4  C   UNL     1      -6.009 -18.544  41.320  1.00  0.00     0.179 C 
ATOM      5  O   UNL     1      -5.072 -19.616  41.219  1.00  0.00    -0.332 OA
ATOM      6  C   UNL     1      -4.472 -20.002  42.444  1.00  0.00     0.339 C 
ENDROOT
BRANCH   1   7
ATOM      7  O   UNL     1      -2.360 -18.581  42.651  1.00  0.00    -0.337 OA
BRANCH   7   8
ATOM      8  C   UNL     1      -1.513 -19.688  42.356  1.00  0.00     0.282 C 
ATOM      9  C   UNL     1       0.517 -21.481  44.843  1.00  0.00     0.041 C 
ATOM     10  C   UNL     1       0.047 -21.075  43.447  1.00  0.00     0.150 C 
ATOM     11  C   UNL     1       1.235 -20.628  42.582  1.00  0.00     0.174 C 
ATOM     12  O   UNL     1      -0.862 -20.000  43.580  1.00  0.00    -0.344 OA
ATOM     13  C   UNL     1       0.740 -20.232  41.184  1.00  0.00     0.179 C 
ATOM     14  C   UNL     1      -0.484 -19.276  41.260  1.00  0.00     0.202 C 
BRANCH  11  15
ATOM     15  O   UNL     1       2.187 -21.661  42.477  1.00  0.00    -0.388 OA
ATOM     16  H   UNL     1       1.679 -22.502  42.294  1.00  0.00     0.211 HD
ENDBRANCH  11  15
BRANCH  13  17
ATOM     17  O   UNL     1       0.479 -21.368  40.389  1.00  0.00    -0.387 OA
ATOM     18  H   UNL     1       0.071 -22.067  40.962  1.00  0.00     0.211 HD
ENDBRANCH  13  17
BRANCH  14  19
ATOM     19  O   UNL     1      -1.112 -19.255  40.003  1.00  0.00    -0.385 OA
ATOM     20  H   UNL     1      -1.140 -20.188  39.663  1.00  0.00     0.211 HD
ENDBRANCH  14  19
ENDBRANCH   7   8
ENDBRANCH   1   7
BRANCH   2  21
ATOM     21  O   UNL     1      -4.524 -16.959  44.433  1.00  0.00    -0.387 OA
ATOM     22  H   UNL     1      -3.988 -17.550  45.027  1.00  0.00     0.211 HD
ENDBRANCH   2  21
BRANCH   6  23
ATOM     23  O   UNL     1      -5.460 -20.508  43.349  1.00  0.00    -0.462 OA
BRANCH  23  24
ATOM     24  C   UNL     1      -5.331 -20.549  44.748  1.00  0.00     0.130 A 
ATOM     25  C   UNL     1      -6.379 -20.046  45.525  1.00  0.00     0.093 A 
ATOM     26  C   UNL     1      -4.200 -21.085  45.390  1.00  0.00     0.094 A 
ATOM     27  C   UNL     1      -6.318 -20.070  46.925  1.00  0.00     0.133 A 
ATOM     28  C   UNL     1      -4.126 -21.114  46.788  1.00  0.00     0.138 A 
ATOM     29  C   UNL     1      -5.182 -20.604  47.565  1.00  0.00     0.102 A 
ATOM     30  O   UNL     1      -2.983 -21.639  47.406  1.00  0.00    -0.484 OA
ATOM     31  C   UNL     1      -5.018 -20.603  49.034  1.00  0.00     0.174 C 
ATOM     32  C   UNL     1      -2.932 -21.944  48.802  1.00  0.00     0.211 C 
ATOM     33  O   UNL     1      -5.982 -20.324  49.797  1.00  0.00    -0.294 OA
ATOM     34  C   UNL     1      -3.663 -20.869  49.625  1.00  0.00     0.131 C 
BRANCH  27  35
ATOM     35  O   UNL     1      -7.377 -19.549  47.667  1.00  0.00    -0.507 OA
ATOM     36  H   UNL     1      -7.538 -19.816  48.632  1.00  0.00     0.293 HD
ENDBRANCH  27  35
BRANCH  32  37
ATOM     37  C   UNL     1      -1.494 -22.054  49.253  1.00  0.00    -0.007 A 
ATOM     38  C   UNL     1      -0.441 -21.842  48.348  1.00  0.00     0.011 A 
ATOM     39  C   UNL     1      -1.198 -22.277  50.609  1.00  0.00     0.011 A 
ATOM     40  C   UNL     1       0.887 -21.863  48.787  1.00  0.00     0.046 A 
ATOM     41  C   UNL     1       0.131 -22.298  51.044  1.00  0.00     0.046 A 
ATOM     42  C   UNL     1       1.176 -22.087  50.135  1.00  0.00     0.115 A 
BRANCH  42  43
ATOM     43  O   UNL     1       2.503 -22.097  50.560  1.00  0.00    -0.508 OA
ATOM     44  H   UNL     1       2.914 -21.296  51.029  1.00  0.00     0.293 HD
ENDBRANCH  42  43
ENDBRANCH  32  37
ENDBRANCH  23  24
ENDBRANCH   6  23
BRANCH   3  45
ATOM     45  O   UNL     1      -6.584 -16.457  42.466  1.00  0.00    -0.387 OA
ATOM     46  H   UNL     1      -6.269 -15.858  43.192  1.00  0.00     0.211 HD
ENDBRANCH   3  45
BRANCH   4  47
ATOM     47  C   UNL     1      -7.424 -19.088  41.060  1.00  0.00     0.191 C 
BRANCH  47  48
ATOM     48  O   UNL     1      -8.126 -19.239  42.269  1.00  0.00    -0.394 OA
ATOM     49  H   UNL     1      -8.888 -19.846  42.088  1.00  0.00     0.210 HD
ENDBRANCH  47  48
ENDBRANCH   4  47
TORSDOF 14
ENDMDL
MODEL 5
REMARK VINA RESULT:    -8.917      2.884      9.139
REMARK INTER + INTRA:         -15.870
REMARK INTER:                 -14.116
REMARK INTRA:                  -1.754
REMARK UNBOUND:                -1.740
REMARK SMILES C[C@H]1O[C@@H](O[C@@H]2[C@@H](Oc3cc(O)c4c(c3)O[C@@H](c3ccc(O)cc3)CC4=O)O[C@@H](CO)[C@H](O)[C@H]2O)[C@H](O)[C@H](O)[C@@H]1O
REMARK SMILES IDX 6 1 34 2 32 3 29 4 28 5 7 6 5 7 4 8 1 9 2 10 40 11 3 12
REMARK SMILES IDX 38 13 36 14 41 15 39 17 37 19 35 21 8 23 9 24 10 25 15 26
REMARK SMILES IDX 11 27 14 28 13 29 16 30 26 31 17 32 27 33 25 34 12 35 18 37
REMARK SMILES IDX 19 38 24 39 20 40 23 41 21 42 22 43 33 45 30 47 31 48
REMARK H PARENT 41 16 39 18 37 20 35 22 12 36 22 44 33 46 31 49
REMARK Flexibility Score: inf
ROOT
ATOM      1  C   UNL     1      -3.523 -21.260  47.194  1.00  0.00     0.221 C 
ATOM      2  C   UNL     1      -4.671 -21.094  48.226  1.00  0.00     0.181 C 
ATOM      3  C   UNL     1      -4.817 -22.334  49.132  1.00  0.00     0.177 C 
ATOM      4  C   UNL     1      -4.765 -23.664  48.318  1.00  0.00     0.179 C 
ATOM      5  O   UNL     1      -3.855 -23.694  47.217  1.00  0.00    -0.332 OA
ATOM      6  C   UNL     1      -2.876 -22.669  47.225  1.00  0.00     0.339 C 
ENDROOT
BRANCH   1   7
ATOM      7  O   UNL     1      -3.906 -20.727  45.923  1.00  0.00    -0.337 OA
BRANCH   7   8
ATOM      8  C   UNL     1      -5.262 -20.848  45.503  1.00  0.00     0.282 C 
ATOM      9  C   UNL     1      -6.339 -22.440  42.368  1.00  0.00     0.041 C 
ATOM     10  C   UNL     1      -6.485 -21.600  43.636  1.00  0.00     0.150 C 
ATOM     11  C   UNL     1      -7.071 -20.219  43.309  1.00  0.00     0.174 C 
ATOM     12  O   UNL     1      -5.204 -21.437  44.211  1.00  0.00    -0.344 OA
ATOM     13  C   UNL     1      -7.216 -19.397  44.598  1.00  0.00     0.179 C 
ATOM     14  C   UNL     1      -5.915 -19.434  45.448  1.00  0.00     0.202 C 
BRANCH  11  15
ATOM     15  O   UNL     1      -8.326 -20.351  42.683  1.00  0.00    -0.388 OA
ATOM     16  H   UNL     1      -8.921 -19.654  43.082  1.00  0.00     0.211 HD
ENDBRANCH  11  15
BRANCH  13  17
ATOM     17  O   UNL     1      -8.348 -19.797  45.339  1.00  0.00    -0.387 OA
ATOM     18  H   UNL     1      -8.080 -19.915  46.286  1.00  0.00     0.211 HD
ENDBRANCH  13  17
BRANCH  14  19
ATOM     19  O   UNL     1      -6.222 -19.002  46.750  1.00  0.00    -0.385 OA
ATOM     20  H   UNL     1      -6.271 -18.010  46.736  1.00  0.00     0.211 HD
ENDBRANCH  14  19
ENDBRANCH   7   8
ENDBRANCH   1   7
BRANCH   2  21
ATOM     21  O   UNL     1      -4.487 -19.942  49.011  1.00  0.00    -0.387 OA
ATOM     22  H   UNL     1      -4.832 -20.130  49.925  1.00  0.00     0.211 HD
ENDBRANCH   2  21
BRANCH   6  23
ATOM     23  O   UNL     1      -2.022 -22.798  48.368  1.00  0.00    -0.462 OA
BRANCH  23  24
ATOM     24  C   UNL     1      -0.660 -22.454  48.403  1.00  0.00     0.130 A 
ATOM     25  C   UNL     1      -0.048 -22.295  49.650  1.00  0.00     0.093 A 
ATOM     26  C   UNL     1       0.108 -22.278  47.238  1.00  0.00     0.094 A 
ATOM     27  C   UNL     1       1.310 -21.966  49.754  1.00  0.00     0.133 A 
ATOM     28  C   UNL     1       1.466 -21.948  47.327  1.00  0.00     0.138 A 
ATOM     29  C   UNL     1       2.075 -21.786  48.584  1.00  0.00     0.102 A 
ATOM     30  O   UNL     1       2.208 -21.761  46.154  1.00  0.00    -0.484 OA
ATOM     31  C   UNL     1       3.495 -21.374  48.615  1.00  0.00     0.174 C 
ATOM     32  C   UNL     1       3.636 -21.681  46.147  1.00  0.00     0.211 C 
ATOM     33  O   UNL     1       4.151 -21.376  49.691  1.00  0.00    -0.294 OA
ATOM     34  C   UNL     1       4.145 -20.876  47.355  1.00  0.00     0.131 C 
BRANCH  27  35
ATOM     35  O   UNL     1       1.882 -21.804  51.015  1.00  0.00    -0.507 OA
ATOM     36  H   UNL     1       2.764 -22.240  51.263  1.00  0.00     0.293 HD
ENDBRANCH  27  35
BRANCH  32  37
ATOM     37  C   UNL     1       4.111 -21.044  44.862  1.00  0.00    -0.007 A 
ATOM     38  C   UNL     1       3.292 -21.035  43.721  1.00  0.00     0.011 A 
ATOM     39  C   UNL     1       5.343 -20.370  44.825  1.00  0.00     0.011 A 
ATOM     40  C   UNL     1       3.701 -20.373  42.559  1.00  0.00     0.046 A 
ATOM     41  C   UNL     1       5.750 -19.710  43.661  1.00  0.00     0.046 A 
ATOM     42  C   UNL     1       4.927 -19.706  42.527  1.00  0.00     0.115 A 
BRANCH  42  43
ATOM     43  O   UNL     1       5.319 -19.044  41.366  1.00  0.00    -0.508 OA
ATOM     44  H   UNL     1       5.279 -19.498  40.459  1.00  0.00     0.293 HD
ENDBRANCH  42  43
ENDBRANCH  32  37
ENDBRANCH  23  24
ENDBRANCH   6  23
BRANCH   3  45
ATOM     45  O   UNL     1      -6.003 -22.246  49.885  1.00  0.00    -0.387 OA
ATOM     46  H   UNL     1      -6.749 -22.066  49.255  1.00  0.00     0.211 HD
ENDBRANCH   3  45
BRANCH   4  47
ATOM     47  C   UNL     1      -4.488 -24.868  49.231  1.00  0.00     0.191 C 
BRANCH  47  48
ATOM     48  O   UNL     1      -3.715 -24.481  50.340  1.00  0.00    -0.394 OA
ATOM     49  H   UNL     1      -4.339 -24.112  51.015  1.00  0.00     0.210 HD
ENDBRANCH  47  48
ENDBRANCH   4  47
TORSDOF 14
ENDMDL
MODEL 6
REMARK VINA RESULT:    -8.798      3.507      7.611
REMARK INTER + INTRA:         -15.681
REMARK INTER:                 -13.117
REMARK INTRA:                  -2.564
REMARK UNBOUND:                -1.740
REMARK SMILES C[C@H]1O[C@@H](O[C@@H]2[C@@H](Oc3cc(O)c4c(c3)O[C@@H](c3ccc(O)cc3)CC4=O)O[C@@H](CO)[C@H](O)[C@H]2O)[C@H](O)[C@H](O)[C@@H]1O
REMARK SMILES IDX 6 1 34 2 32 3 29 4 28 5 7 6 5 7 4 8 1 9 2 10 40 11 3 12
REMARK SMILES IDX 38 13 36 14 41 15 39 17 37 19 35 21 8 23 9 24 10 25 15 26
REMARK SMILES IDX 11 27 14 28 13 29 16 30 26 31 17 32 27 33 25 34 12 35 18 37
REMARK SMILES IDX 19 38 24 39 20 40 23 41 21 42 22 43 33 45 30 47 31 48
REMARK H PARENT 41 16 39 18 37 20 35 22 12 36 22 44 33 46 31 49
REMARK Flexibility Score: inf
ROOT
ATOM      1  C   UNL     1      -3.407 -22.895  48.342  1.00  0.00     0.221 C 
ATOM      2  C   UNL     1      -2.622 -21.834  49.159  1.00  0.00     0.181 C 
ATOM      3  C   UNL     1      -1.406 -22.447  49.885  1.00  0.00     0.177 C 
ATOM      4  C   UNL     1      -1.764 -23.787  50.598  1.00  0.00     0.179 C 
ATOM      5  O   UNL     1      -2.684 -24.639  49.913  1.00  0.00    -0.332 OA
ATOM      6  C   UNL     1      -2.869 -24.335  48.541  1.00  0.00     0.339 C 
ENDROOT
BRANCH   1   7
ATOM      7  O   UNL     1      -4.816 -22.683  48.462  1.00  0.00    -0.337 OA
BRANCH   7   8
ATOM      8  C   UNL     1      -5.500 -21.981  47.428  1.00  0.00     0.282 C 
ATOM      9  C   UNL     1      -4.147 -21.392  44.060  1.00  0.00     0.041 C 
ATOM     10  C   UNL     1      -5.105 -21.214  45.237  1.00  0.00     0.150 C 
ATOM     11  C   UNL     1      -5.249 -19.728  45.600  1.00  0.00     0.174 C 
ATOM     12  O   UNL     1      -4.580 -21.914  46.347  1.00  0.00    -0.344 OA
ATOM     13  C   UNL     1      -6.221 -19.573  46.779  1.00  0.00     0.179 C 
ATOM     14  C   UNL     1      -5.881 -20.557  47.933  1.00  0.00     0.202 C 
BRANCH  11  15
ATOM     15  O   UNL     1      -5.719 -18.992  44.494  1.00  0.00    -0.388 OA
ATOM     16  H   UNL     1      -6.705 -19.142  44.447  1.00  0.00     0.211 HD
ENDBRANCH  11  15
BRANCH  13  17
ATOM     17  O   UNL     1      -7.563 -19.689  46.358  1.00  0.00    -0.387 OA
ATOM     18  H   UNL     1      -8.135 -19.814  47.159  1.00  0.00     0.211 HD
ENDBRANCH  13  17
BRANCH  14  19
ATOM     19  O   UNL     1      -6.992 -20.639  48.791  1.00  0.00    -0.385 OA
ATOM     20  H   UNL     1      -6.759 -21.261  49.529  1.00  0.00     0.211 HD
ENDBRANCH  14  19
ENDBRANCH   7   8
ENDBRANCH   1   7
BRANCH   2  21
ATOM     21  O   UNL     1      -2.208 -20.766  48.344  1.00  0.00    -0.387 OA
ATOM     22  H   UNL     1      -2.853 -20.017  48.459  1.00  0.00     0.211 HD
ENDBRANCH   2  21
BRANCH   6  23
ATOM     23  O   UNL     1      -1.646 -24.515  47.817  1.00  0.00    -0.462 OA
BRANCH  23  24
ATOM     24  C   UNL     1      -1.440 -24.151  46.475  1.00  0.00     0.130 A 
ATOM     25  C   UNL     1      -2.156 -24.832  45.487  1.00  0.00     0.093 A 
ATOM     26  C   UNL     1      -0.556 -23.125  46.095  1.00  0.00     0.094 A 
ATOM     27  C   UNL     1      -2.006 -24.508  44.131  1.00  0.00     0.133 A 
ATOM     28  C   UNL     1      -0.396 -22.792  44.744  1.00  0.00     0.138 A 
ATOM     29  C   UNL     1      -1.116 -23.482  43.754  1.00  0.00     0.102 A 
ATOM     30  O   UNL     1       0.502 -21.778  44.387  1.00  0.00    -0.484 OA
ATOM     31  C   UNL     1      -0.857 -23.130  42.341  1.00  0.00     0.174 C 
ATOM     32  C   UNL     1       0.536 -21.202  43.079  1.00  0.00     0.211 C 
ATOM     33  O   UNL     1      -1.583 -23.581  41.414  1.00  0.00    -0.294 OA
ATOM     34  C   UNL     1       0.334 -22.280  42.000  1.00  0.00     0.131 C 
BRANCH  27  35
ATOM     35  O   UNL     1      -2.728 -25.217  43.172  1.00  0.00    -0.507 OA
ATOM     36  H   UNL     1      -3.096 -24.769  42.339  1.00  0.00     0.293 HD
ENDBRANCH  27  35
BRANCH  32  37
ATOM     37  C   UNL     1       1.852 -20.492  42.861  1.00  0.00    -0.007 A 
ATOM     38  C   UNL     1       1.957 -19.448  41.926  1.00  0.00     0.011 A 
ATOM     39  C   UNL     1       2.962 -20.807  43.663  1.00  0.00     0.011 A 
ATOM     40  C   UNL     1       3.154 -18.739  41.786  1.00  0.00     0.046 A 
ATOM     41  C   UNL     1       4.158 -20.096  43.520  1.00  0.00     0.046 A 
ATOM     42  C   UNL     1       4.255 -19.057  42.584  1.00  0.00     0.115 A 
BRANCH  42  43
ATOM     43  O   UNL     1       5.438 -18.337  42.441  1.00  0.00    -0.508 OA
ATOM     44  H   UNL     1       6.054 -18.168  43.230  1.00  0.00     0.293 HD
ENDBRANCH  42  43
ENDBRANCH  32  37
ENDBRANCH  23  24
ENDBRANCH   6  23
BRANCH   3  45
ATOM     45  O   UNL     1      -0.867 -21.517  50.794  1.00  0.00    -0.387 OA
ATOM     46  H   UNL     1       0.098 -21.724  50.903  1.00  0.00     0.211 HD
ENDBRANCH   3  45
BRANCH   4  47
ATOM     47  C   UNL     1      -0.501 -24.590  50.946  1.00  0.00     0.191 C 
BRANCH  47  48
ATOM     48  O   UNL     1       0.380 -23.815  51.722  1.00  0.00    -0.394 OA
ATOM     49  H   UNL     1       1.261 -23.833  51.268  1.00  0.00     0.210 HD
ENDBRANCH  47  48
ENDBRANCH   4  47
TORSDOF 14
ENDMDL
MODEL 7
REMARK VINA RESULT:    -8.737      3.821      8.487
REMARK INTER + INTRA:         -15.585
REMARK INTER:                 -12.966
REMARK INTRA:                  -2.618
REMARK UNBOUND:                -1.740
REMARK SMILES C[C@H]1O[C@@H](O[C@@H]2[C@@H](Oc3cc(O)c4c(c3)O[C@@H](c3ccc(O)cc3)CC4=O)O[C@@H](CO)[C@H](O)[C@H]2O)[C@H](O)[C@H](O)[C@@H]1O
REMARK SMILES IDX 6 1 34 2 32 3 29 4 28 5 7 6 5 7 4 8 1 9 2 10 40 11 3 12
REMARK SMILES IDX 38 13 36 14 41 15 39 17 37 19 35 21 8 23 9 24 10 25 15 26
REMARK SMILES IDX 11 27 14 28 13 29 16 30 26 31 17 32 27 33 25 34 12 35 18 37
REMARK SMILES IDX 19 38 24 39 20 40 23 41 21 42 22 43 33 45 30 47 31 48
REMARK H PARENT 41 16 39 18 37 20 35 22 12 36 22 44 33 46 31 49
REMARK Flexibility Score: inf
ROOT
ATOM      1  C   UNL     1      -3.673 -21.930  46.599  1.00  0.00     0.221 C 
ATOM      2  C   UNL     1      -4.929 -21.393  47.338  1.00  0.00     0.181 C 
ATOM      3  C   UNL     1      -5.105 -22.045  48.725  1.00  0.00     0.177 C 
ATOM      4  C   UNL     1      -4.903 -23.591  48.675  1.00  0.00     0.179 C 
ATOM      5  O   UNL     1      -3.883 -24.065  47.795  1.00  0.00    -0.332 OA
ATOM      6  C   UNL     1      -2.963 -23.077  47.362  1.00  0.00     0.339 C 
ENDROOT
BRANCH   1   7
ATOM      7  O   UNL     1      -3.949 -22.119  45.209  1.00  0.00    -0.337 OA
BRANCH   7   8
ATOM      8  C   UNL     1      -3.109 -21.489  44.246  1.00  0.00     0.282 C 
ATOM      9  C   UNL     1      -0.162 -23.057  42.706  1.00  0.00     0.041 C 
ATOM     10  C   UNL     1      -1.112 -21.919  43.074  1.00  0.00     0.150 C 
ATOM     11  C   UNL     1      -0.342 -20.753  43.711  1.00  0.00     0.174 C 
ATOM     12  O   UNL     1      -2.058 -22.414  44.001  1.00  0.00    -0.344 OA
ATOM     13  C   UNL     1      -1.316 -19.620  44.066  1.00  0.00     0.179 C 
ATOM     14  C   UNL     1      -2.560 -20.154  44.831  1.00  0.00     0.202 C 
BRANCH  11  15
ATOM     15  O   UNL     1       0.648 -20.274  42.831  1.00  0.00    -0.388 OA
ATOM     16  H   UNL     1       0.676 -20.907  42.059  1.00  0.00     0.211 HD
ENDBRANCH  11  15
BRANCH  13  17
ATOM     17  O   UNL     1      -1.673 -18.872  42.924  1.00  0.00    -0.387 OA
ATOM     18  H   UNL     1      -2.555 -19.190  42.602  1.00  0.00     0.211 HD
ENDBRANCH  13  17
BRANCH  14  19
ATOM     19  O   UNL     1      -3.563 -19.169  44.791  1.00  0.00    -0.385 OA
ATOM     20  H   UNL     1      -4.067 -19.286  43.944  1.00  0.00     0.211 HD
ENDBRANCH  14  19
ENDBRANCH   7   8
ENDBRANCH   1   7
BRANCH   2  21
ATOM     21  O   UNL     1      -4.885 -19.993  47.466  1.00  0.00    -0.387 OA
ATOM     22  H   UNL     1      -4.014 -19.744  47.875  1.00  0.00     0.211 HD
ENDBRANCH   2  21
BRANCH   6  23
ATOM     23  O   UNL     1      -2.227 -22.555  48.474  1.00  0.00    -0.462 OA
BRANCH  23  24
ATOM     24  C   UNL     1      -0.844 -22.300  48.481  1.00  0.00     0.130 A 
ATOM     25  C   UNL     1      -0.207 -22.138  49.715  1.00  0.00     0.093 A 
ATOM     26  C   UNL     1      -0.082 -22.216  47.301  1.00  0.00     0.094 A 
ATOM     27  C   UNL     1       1.172 -21.895  49.791  1.00  0.00     0.133 A 
ATOM     28  C   UNL     1       1.295 -21.973  47.363  1.00  0.00     0.138 A 
ATOM     29  C   UNL     1       1.931 -21.808  48.607  1.00  0.00     0.102 A 
ATOM     30  O   UNL     1       2.032 -21.878  46.175  1.00  0.00    -0.484 OA
ATOM     31  C   UNL     1       3.375 -21.490  48.606  1.00  0.00     0.174 C 
ATOM     32  C   UNL     1       3.461 -21.892  46.149  1.00  0.00     0.211 C 
ATOM     33  O   UNL     1       4.044 -21.497  49.674  1.00  0.00    -0.294 OA
ATOM     34  C   UNL     1       4.038 -21.081  47.322  1.00  0.00     0.131 C 
BRANCH  27  35
ATOM     35  O   UNL     1       1.771 -21.728  51.038  1.00  0.00    -0.507 OA
ATOM     36  H   UNL     1       2.738 -21.984  51.207  1.00  0.00     0.293 HD
ENDBRANCH  27  35
BRANCH  32  37
ATOM     37  C   UNL     1       3.959 -21.334  44.837  1.00  0.00    -0.007 A 
ATOM     38  C   UNL     1       4.990 -20.379  44.810  1.00  0.00     0.011 A 
ATOM     39  C   UNL     1       3.461 -21.837  43.623  1.00  0.00     0.011 A 
ATOM     40  C   UNL     1       5.505 -19.925  43.591  1.00  0.00     0.046 A 
ATOM     41  C   UNL     1       3.977 -21.381  42.407  1.00  0.00     0.046 A 
ATOM     42  C   UNL     1       5.004 -20.427  42.388  1.00  0.00     0.115 A 
BRANCH  42  43
ATOM     43  O   UNL     1       5.532 -19.973  41.181  1.00  0.00    -0.508 OA
ATOM     44  H   UNL     1       5.833 -19.011  41.064  1.00  0.00     0.293 HD
ENDBRANCH  42  43
ENDBRANCH  32  37
ENDBRANCH  23  24
ENDBRANCH   6  23
BRANCH   3  45
ATOM     45  O   UNL     1      -6.366 -21.716  49.257  1.00  0.00    -0.387 OA
ATOM     46  H   UNL     1      -6.668 -20.875  48.824  1.00  0.00     0.211 HD
ENDBRANCH   3  45
BRANCH   4  47
ATOM     47  C   UNL     1      -4.661 -24.169  50.079  1.00  0.00     0.191 C 
BRANCH  47  48
ATOM     48  O   UNL     1      -3.439 -24.864  50.125  1.00  0.00    -0.394 OA
ATOM     49  H   UNL     1      -2.759 -24.233  50.472  1.00  0.00     0.210 HD
ENDBRANCH  47  48
ENDBRANCH   4  47
TORSDOF 14
ENDMDL
MODEL 8
REMARK VINA RESULT:    -8.664      2.226      8.740
REMARK INTER + INTRA:         -15.470
REMARK INTER:                 -12.714
REMARK INTRA:                  -2.756
REMARK UNBOUND:                -1.740
REMARK SMILES C[C@H]1O[C@@H](O[C@@H]2[C@@H](Oc3cc(O)c4c(c3)O[C@@H](c3ccc(O)cc3)CC4=O)O[C@@H](CO)[C@H](O)[C@H]2O)[C@H](O)[C@H](O)[C@@H]1O
REMARK SMILES IDX 6 1 34 2 32 3 29 4 28 5 7 6 5 7 4 8 1 9 2 10 40 11 3 12
REMARK SMILES IDX 38 13 36 14 41 15 39 17 37 19 35 21 8 23 9 24 10 25 15 26
REMARK SMILES IDX 11 27 14 28 13 29 16 30 26 31 17 32 27 33 25 34 12 35 18 37
REMARK SMILES IDX 19 38 24 39 20 40 23 41 21 42 22 43 33 45 30 47 31 48
REMARK H PARENT 41 16 39 18 37 20 35 22 12 36 22 44 33 46 31 49
REMARK Flexibility Score: inf
ROOT
ATOM      1  C   UNL     1      -3.889 -21.142  42.803  1.00  0.00     0.221 C 
ATOM      2  C   UNL     1      -3.639 -19.884  41.930  1.00  0.00     0.181 C 
ATOM      3  C   UNL     1      -4.887 -18.979  41.851  1.00  0.00     0.177 C 
ATOM      4  C   UNL     1      -6.188 -19.798  41.584  1.00  0.00     0.179 C 
ATOM      5  O   UNL     1      -6.275 -21.070  42.227  1.00  0.00    -0.332 OA
ATOM      6  C   UNL     1      -5.356 -21.266  43.288  1.00  0.00     0.339 C 
ENDROOT
BRANCH   1   7
ATOM      7  O   UNL     1      -3.278 -22.294  42.215  1.00  0.00    -0.337 OA
BRANCH   7   8
ATOM      8  C   UNL     1      -2.363 -23.064  42.989  1.00  0.00     0.282 C 
ATOM      9  C   UNL     1      -3.324 -25.844  45.195  1.00  0.00     0.041 C 
ATOM     10  C   UNL     1      -2.403 -24.780  44.602  1.00  0.00     0.150 C 
ATOM     11  C   UNL     1      -1.780 -23.920  45.711  1.00  0.00     0.174 C 
ATOM     12  O   UNL     1      -3.170 -23.954  43.749  1.00  0.00    -0.344 OA
ATOM     13  C   UNL     1      -0.854 -22.863  45.092  1.00  0.00     0.179 C 
ATOM     14  C   UNL     1      -1.544 -22.117  43.916  1.00  0.00     0.202 C 
BRANCH  11  15
ATOM     15  O   UNL     1      -1.054 -24.724  46.612  1.00  0.00    -0.388 OA
ATOM     16  H   UNL     1      -0.612 -24.103  47.259  1.00  0.00     0.211 HD
ENDBRANCH  11  15
BRANCH  13  17
ATOM     17  O   UNL     1       0.385 -23.423  44.714  1.00  0.00    -0.387 OA
ATOM     18  H   UNL     1       0.847 -23.747  45.529  1.00  0.00     0.211 HD
ENDBRANCH  13  17
BRANCH  14  19
ATOM     19  O   UNL     1      -0.554 -21.457  43.166  1.00  0.00    -0.385 OA
ATOM     20  H   UNL     1      -0.454 -21.942  42.305  1.00  0.00     0.211 HD
ENDBRANCH  14  19
ENDBRANCH   7   8
ENDBRANCH   1   7
BRANCH   2  21
ATOM     21  O   UNL     1      -2.539 -19.146  42.401  1.00  0.00    -0.387 OA
ATOM     22  H   UNL     1      -2.345 -19.435  43.332  1.00  0.00     0.211 HD
ENDBRANCH   2  21
BRANCH   6  23
ATOM     23  O   UNL     1      -5.609 -20.338  44.349  1.00  0.00    -0.462 OA
BRANCH  23  24
ATOM     24  C   UNL     1      -5.338 -20.570  45.709  1.00  0.00     0.130 A 
ATOM     25  C   UNL     1      -6.362 -20.350  46.635  1.00  0.00     0.093 A 
ATOM     26  C   UNL     1      -4.089 -21.026  46.166  1.00  0.00     0.094 A 
ATOM     27  C   UNL     1      -6.161 -20.576  48.004  1.00  0.00     0.133 A 
ATOM     28  C   UNL     1      -3.874 -21.255  47.531  1.00  0.00     0.138 A 
ATOM     29  C   UNL     1      -4.906 -21.029  48.459  1.00  0.00     0.102 A 
ATOM     30  O   UNL     1      -2.616 -21.694  47.966  1.00  0.00    -0.484 OA
ATOM     31  C   UNL     1      -4.600 -21.226  49.892  1.00  0.00     0.174 C 
ATOM     32  C   UNL     1      -2.387 -22.195  49.285  1.00  0.00     0.211 C 
ATOM     33  O   UNL     1      -5.513 -21.209  50.761  1.00  0.00    -0.294 OA
ATOM     34  C   UNL     1      -3.170 -21.376  50.326  1.00  0.00     0.131 C 
BRANCH  27  35
ATOM     35  O   UNL     1      -7.201 -20.335  48.900  1.00  0.00    -0.507 OA
ATOM     36  H   UNL     1      -7.218 -19.511  49.492  1.00  0.00     0.293 HD
ENDBRANCH  27  35
BRANCH  32  37
ATOM     37  C   UNL     1      -0.910 -22.160  49.602  1.00  0.00    -0.007 A 
ATOM     38  C   UNL     1       0.032 -21.900  48.593  1.00  0.00     0.011 A 
ATOM     39  C   UNL     1      -0.472 -22.294  50.930  1.00  0.00     0.011 A 
ATOM     40  C   UNL     1       1.391 -21.787  48.904  1.00  0.00     0.046 A 
ATOM     41  C   UNL     1       0.887 -22.181  51.237  1.00  0.00     0.046 A 
ATOM     42  C   UNL     1       1.822 -21.922  50.225  1.00  0.00     0.115 A 
BRANCH  42  43
ATOM     43  O   UNL     1       3.177 -21.799  50.523  1.00  0.00    -0.508 OA
ATOM     44  H   UNL     1       3.891 -22.005  49.831  1.00  0.00     0.293 HD
ENDBRANCH  42  43
ENDBRANCH  32  37
ENDBRANCH  23  24
ENDBRANCH   6  23
BRANCH   3  45
ATOM     45  O   UNL     1      -4.702 -17.986  40.871  1.00  0.00    -0.387 OA
ATOM     46  H   UNL     1      -4.271 -17.205  41.308  1.00  0.00     0.211 HD
ENDBRANCH   3  45
BRANCH   4  47
ATOM     47  C   UNL     1      -7.443 -18.978  41.921  1.00  0.00     0.191 C 
BRANCH  47  48
ATOM     48  O   UNL     1      -7.169 -18.047  42.939  1.00  0.00    -0.394 OA
ATOM     49  H   UNL     1      -7.590 -17.191  42.672  1.00  0.00     0.210 HD
ENDBRANCH  47  48
ENDBRANCH   4  47
TORSDOF 14
ENDMDL
MODEL 9
REMARK VINA RESULT:    -8.526      3.376      5.989
REMARK INTER + INTRA:         -15.251
REMARK INTER:                 -13.223
REMARK INTRA:                  -2.028
REMARK UNBOUND:                -1.740
REMARK SMILES C[C@H]1O[C@@H](O[C@@H]2[C@@H](Oc3cc(O)c4c(c3)O[C@@H](c3ccc(O)cc3)CC4=O)O[C@@H](CO)[C@H](O)[C@H]2O)[C@H](O)[C@H](O)[C@@H]1O
REMARK SMILES IDX 6 1 34 2 32 3 29 4 28 5 7 6 5 7 4 8 1 9 2 10 40 11 3 12
REMARK SMILES IDX 38 13 36 14 41 15 39 17 37 19 35 21 8 23 9 24 10 25 15 26
REMARK SMILES IDX 11 27 14 28 13 29 16 30 26 31 17 32 27 33 25 34 12 35 18 37
REMARK SMILES IDX 19 38 24 39 20 40 23 41 21 42 22 43 33 45 30 47 31 48
REMARK H PARENT 41 16 39 18 37 20 35 22 12 36 22 44 33 46 31 49
REMARK Flexibility Score: inf
ROOT
ATOM      1  C   UNL     1      -0.789 -22.972  48.719  1.00  0.00     0.221 C 
ATOM      2  C   UNL     1      -1.554 -24.166  49.349  1.00  0.00     0.181 C 
ATOM      3  C   UNL     1      -3.082 -23.951  49.322  1.00  0.00     0.177 C 
ATOM      4  C   UNL     1      -3.480 -22.515  49.783  1.00  0.00     0.179 C 
ATOM      5  O   UNL     1      -2.609 -21.459  49.374  1.00  0.00    -0.332 OA
ATOM      6  C   UNL     1      -1.717 -21.794  48.326  1.00  0.00     0.339 C 
ENDROOT
BRANCH   1   7
ATOM      7  O   UNL     1       0.389 -22.674  49.471  1.00  0.00    -0.337 OA
BRANCH   7   8
ATOM      8  C   UNL     1       1.374 -21.814  48.904  1.00  0.00     0.282 C 
ATOM      9  C   UNL     1       2.399 -21.862  45.374  1.00  0.00     0.041 C 
ATOM     10  C   UNL     1       2.486 -21.492  46.853  1.00  0.00     0.150 C 
ATOM     11  C   UNL     1       3.877 -21.822  47.415  1.00  0.00     0.174 C 
ATOM     12  O   UNL     1       1.512 -22.239  47.555  1.00  0.00    -0.344 OA
ATOM     13  C   UNL     1       3.943 -21.436  48.900  1.00  0.00     0.179 C 
ATOM     14  C   UNL     1       2.713 -21.973  49.685  1.00  0.00     0.202 C 
BRANCH  11  15
ATOM     15  O   UNL     1       4.876 -21.135  46.698  1.00  0.00    -0.388 OA
ATOM     16  H   UNL     1       4.409 -20.605  45.992  1.00  0.00     0.211 HD
ENDBRANCH  11  15
BRANCH  13  17
ATOM     17  O   UNL     1       4.113 -20.045  49.063  1.00  0.00    -0.387 OA
ATOM     18  H   UNL     1       4.872 -19.891  49.682  1.00  0.00     0.211 HD
ENDBRANCH  13  17
BRANCH  14  19
ATOM     19  O   UNL     1       2.633 -21.287  50.910  1.00  0.00    -0.385 OA
ATOM     20  H   UNL     1       3.439 -20.714  50.988  1.00  0.00     0.211 HD
ENDBRANCH  14  19
ENDBRANCH   7   8
ENDBRANCH   1   7
BRANCH   2  21
ATOM     21  O   UNL     1      -1.226 -25.375  48.711  1.00  0.00    -0.387 OA
ATOM     22  H   UNL     1      -0.777 -25.162  47.850  1.00  0.00     0.211 HD
ENDBRANCH   2  21
BRANCH   6  23
ATOM     23  O   UNL     1      -2.442 -22.109  47.131  1.00  0.00    -0.462 OA
BRANCH  23  24
ATOM     24  C   UNL     1      -2.320 -21.428  45.907  1.00  0.00     0.130 A 
ATOM     25  C   UNL     1      -3.488 -21.027  45.252  1.00  0.00     0.093 A 
ATOM     26  C   UNL     1      -1.074 -21.125  45.329  1.00  0.00     0.094 A 
ATOM     27  C   UNL     1      -3.435 -20.332  44.036  1.00  0.00     0.133 A 
ATOM     28  C   UNL     1      -1.006 -20.432  44.114  1.00  0.00     0.138 A 
ATOM     29  C   UNL     1      -2.185 -20.034  43.458  1.00  0.00     0.102 A 
ATOM     30  O   UNL     1       0.245 -20.155  43.548  1.00  0.00    -0.484 OA
ATOM     31  C   UNL     1      -2.051 -19.364  42.146  1.00  0.00     0.174 C 
ATOM     32  C   UNL     1       0.417 -19.240  42.462  1.00  0.00     0.211 C 
ATOM     33  O   UNL     1      -3.045 -18.830  41.584  1.00  0.00    -0.294 OA
ATOM     34  C   UNL     1      -0.725 -19.383  41.441  1.00  0.00     0.131 C 
BRANCH  27  35
ATOM     35  O   UNL     1      -4.621 -19.960  43.406  1.00  0.00    -0.507 OA
ATOM     36  H   UNL     1      -5.402 -20.601  43.312  1.00  0.00     0.293 HD
ENDBRANCH  27  35
BRANCH  32  37
ATOM     37  C   UNL     1       1.748 -19.481  41.789  1.00  0.00    -0.007 A 
ATOM     38  C   UNL     1       1.809 -19.856  40.437  1.00  0.00     0.011 A 
ATOM     39  C   UNL     1       2.943 -19.239  42.488  1.00  0.00     0.011 A 
ATOM     40  C   UNL     1       3.044 -19.998  39.795  1.00  0.00     0.046 A 
ATOM     41  C   UNL     1       4.176 -19.382  41.843  1.00  0.00     0.046 A 
ATOM     42  C   UNL     1       4.228 -19.758  40.494  1.00  0.00     0.115 A 
BRANCH  42  43
ATOM     43  O   UNL     1       5.451 -19.895  39.841  1.00  0.00    -0.508 OA
ATOM     44  H   UNL     1       5.506 -19.959  38.829  1.00  0.00     0.293 HD
ENDBRANCH  42  43
ENDBRANCH  32  37
ENDBRANCH  23  24
ENDBRANCH   6  23
BRANCH   3  45
ATOM     45  O   UNL     1      -3.721 -24.931  50.106  1.00  0.00    -0.387 OA
ATOM     46  H   UNL     1      -4.574 -24.545  50.438  1.00  0.00     0.211 HD
ENDBRANCH   3  45
BRANCH   4  47
ATOM     47  C   UNL     1      -4.918 -22.171  49.362  1.00  0.00     0.191 C 
BRANCH  47  48
ATOM     48  O   UNL     1      -5.798 -23.212  49.708  1.00  0.00    -0.394 OA
ATOM     49  H   UNL     1      -5.873 -23.212  50.696  1.00  0.00     0.210 HD
ENDBRANCH  47  48
ENDBRANCH   4  47
TORSDOF 14
ENDMDL
