MODEL 1
REMARK VINA RESULT:    -3.309      0.000      0.000
REMARK INTER + INTRA:          -4.005
REMARK INTER:                  -3.889
REMARK INTRA:                  -0.116
REMARK UNBOUND:                -0.116
REMARK SMILES O=C([O-])CCC(=O)[O-]
REMARK SMILES IDX 4 1 2 2 1 3 3 4 5 5 6 6 7 7 8 8
REMARK H PARENT
REMARK Flexibility Score: inf
ROOT
ATOM      1  C   UNL     1     196.785 187.837 180.783  1.00  0.00     0.059 C 
ENDROOT
BRANCH   1   2
ATOM      2  C   UNL     1     196.047 188.281 179.560  1.00  0.00     0.042 C 
ATOM      3  O   UNL     1     195.028 189.015 179.666  1.00  0.00    -0.550 OA
ATOM      4  O   UNL     1     196.511 187.925 178.300  1.00  0.00    -0.550 OA
ENDBRANCH   1   2
BRANCH   1   5
ATOM      5  C   UNL     1     196.001 186.746 181.516  1.00  0.00     0.059 C 
BRANCH   5   6
ATOM      6  C   UNL     1     195.357 187.301 182.746  1.00  0.00     0.042 C 
ATOM      7  O   UNL     1     195.659 188.454 183.155  1.00  0.00    -0.550 OA
ATOM      8  O   UNL     1     194.386 186.566 183.415  1.00  0.00    -0.550 OA
ENDBRANCH   5   6
ENDBRANCH   1   5
TORSDOF 3
ENDMDL
MODEL 2
REMARK VINA RESULT:    -3.305      0.555      3.884
REMARK INTER + INTRA:          -4.000
REMARK INTER:                  -3.880
REMARK INTRA:                  -0.120
REMARK UNBOUND:                -0.116
REMARK SMILES O=C([O-])CCC(=O)[O-]
REMARK SMILES IDX 4 1 2 2 1 3 3 4 5 5 6 6 7 7 8 8
REMARK H PARENT
REMARK Flexibility Score: inf
ROOT
ATOM      1  C   UNL     1     196.302 186.843 181.463  1.00  0.00     0.059 C 
ENDROOT
BRANCH   1   2
ATOM      2  C   UNL     1     195.887 187.284 182.830  1.00  0.00     0.042 C 
ATOM      3  O   UNL     1     195.652 188.500 183.059  1.00  0.00    -0.550 OA
ATOM      4  O   UNL     1     195.710 186.346 183.839  1.00  0.00    -0.550 OA
ENDBRANCH   1   2
BRANCH   1   5
ATOM      5  C   UNL     1     196.892 188.016 180.677  1.00  0.00     0.059 C 
BRANCH   5   6
ATOM      6  C   UNL     1     196.031 188.342 179.498  1.00  0.00     0.042 C 
ATOM      7  O   UNL     1     194.969 189.000 179.651  1.00  0.00    -0.550 OA
ATOM      8  O   UNL     1     196.426 187.960 178.222  1.00  0.00    -0.550 OA
ENDBRANCH   5   6
ENDBRANCH   1   5
TORSDOF 3
ENDMDL
MODEL 3
REMARK VINA RESULT:    -3.228      1.955      3.997
REMARK INTER + INTRA:          -3.909
REMARK INTER:                  -3.786
REMARK INTRA:                  -0.123
REMARK UNBOUND:                -0.116
REMARK SMILES O=C([O-])CCC(=O)[O-]
REMARK SMILES IDX 4 1 2 2 1 3 3 4 5 5 6 6 7 7 8 8
REMARK H PARENT
REMARK Flexibility Score: inf
ROOT
ATOM      1  C   UNL     1     196.118 186.360 181.980  1.00  0.00     0.059 C 
ENDROOT
BRANCH   1   2
ATOM      2  C   UNL     1     197.308 186.047 182.830  1.00  0.00     0.042 C 
ATOM      3  O   UNL     1     198.406 186.629 182.621  1.00  0.00    -0.550 OA
ATOM      4  O   UNL     1     197.194 185.151 183.884  1.00  0.00    -0.550 OA
ENDBRANCH   1   2
BRANCH   1   5
ATOM      5  C   UNL     1     195.931 187.873 181.854  1.00  0.00     0.059 C 
BRANCH   5   6
ATOM      6  C   UNL     1     196.112 188.307 180.434  1.00  0.00     0.042 C 
ATOM      7  O   UNL     1     197.192 188.069 179.832  1.00  0.00    -0.550 OA
ATOM      8  O   UNL     1     195.070 188.930 179.759  1.00  0.00    -0.550 OA
ENDBRANCH   5   6
ENDBRANCH   1   5
TORSDOF 3
ENDMDL
MODEL 4
REMARK VINA RESULT:    -3.195      2.233      2.615
REMARK INTER + INTRA:          -3.871
REMARK INTER:                  -3.832
REMARK INTRA:                  -0.039
REMARK UNBOUND:                -0.116
REMARK SMILES O=C([O-])CCC(=O)[O-]
REMARK SMILES IDX 4 1 2 2 1 3 3 4 5 5 6 6 7 7 8 8
REMARK H PARENT
REMARK Flexibility Score: inf
ROOT
ATOM      1  C   UNL     1     196.822 187.714 181.034  1.00  0.00     0.059 C 
ENDROOT
BRANCH   1   2
ATOM      2  C   UNL     1     195.516 187.857 180.321  1.00  0.00     0.042 C 
ATOM      3  O   UNL     1     195.286 188.877 179.618  1.00  0.00    -0.550 OA
ATOM      4  O   UNL     1     194.570 186.842 180.392  1.00  0.00    -0.550 OA
ENDBRANCH   1   2
BRANCH   1   5
ATOM      5  C   UNL     1     196.602 187.216 182.464  1.00  0.00     0.059 C 
BRANCH   5   6
ATOM      6  C   UNL     1     197.762 186.388 182.916  1.00  0.00     0.042 C 
ATOM      7  O   UNL     1     197.572 185.358 183.615  1.00  0.00    -0.550 OA
ATOM      8  O   UNL     1     199.051 186.725 182.523  1.00  0.00    -0.550 OA
ENDBRANCH   5   6
ENDBRANCH   1   5
TORSDOF 3
ENDMDL
MODEL 5
REMARK VINA RESULT:    -3.186      4.865      6.870
REMARK INTER + INTRA:          -3.861
REMARK INTER:                  -3.738
REMARK INTRA:                  -0.123
REMARK UNBOUND:                -0.116
REMARK SMILES O=C([O-])CCC(=O)[O-]
REMARK SMILES IDX 4 1 2 2 1 3 3 4 5 5 6 6 7 7 8 8
REMARK H PARENT
REMARK Flexibility Score: inf
ROOT
ATOM      1  C   UNL     1     195.427 186.620 175.584  1.00  0.00     0.059 C 
ENDROOT
BRANCH   1   2
ATOM      2  C   UNL     1     196.077 187.854 176.124  1.00  0.00     0.042 C 
ATOM      3  O   UNL     1     196.638 188.668 175.344  1.00  0.00    -0.550 OA
ATOM      4  O   UNL     1     196.020 188.131 177.484  1.00  0.00    -0.550 OA
ENDBRANCH   1   2
BRANCH   1   5
ATOM      5  C   UNL     1     194.995 186.833 174.132  1.00  0.00     0.059 C 
BRANCH   5   6
ATOM      6  C   UNL     1     193.624 187.430 174.076  1.00  0.00     0.042 C 
ATOM      7  O   UNL     1     193.467 188.624 173.707  1.00  0.00    -0.550 OA
ATOM      8  O   UNL     1     192.515 186.653 174.384  1.00  0.00    -0.550 OA
ENDBRANCH   5   6
ENDBRANCH   1   5
TORSDOF 3
ENDMDL
MODEL 6
REMARK VINA RESULT:    -3.180      4.992      6.652
REMARK INTER + INTRA:          -3.853
REMARK INTER:                  -3.723
REMARK INTRA:                  -0.130
REMARK UNBOUND:                -0.116
REMARK SMILES O=C([O-])CCC(=O)[O-]
REMARK SMILES IDX 4 1 2 2 1 3 3 4 5 5 6 6 7 7 8 8
REMARK H PARENT
REMARK Flexibility Score: inf
ROOT
ATOM      1  C   UNL     1     194.941 186.769 174.107  1.00  0.00     0.059 C 
ENDROOT
BRANCH   1   2
ATOM      2  C   UNL     1     193.526 187.251 174.073  1.00  0.00     0.042 C 
ATOM      3  O   UNL     1     193.266 188.426 173.700  1.00  0.00    -0.550 OA
ATOM      4  O   UNL     1     192.489 186.389 174.406  1.00  0.00    -0.550 OA
ENDBRANCH   1   2
BRANCH   1   5
ATOM      5  C   UNL     1     195.424 186.623 175.552  1.00  0.00     0.059 C 
BRANCH   5   6
ATOM      6  C   UNL     1     196.005 187.911 176.042  1.00  0.00     0.042 C 
ATOM      7  O   UNL     1     196.086 188.140 177.278  1.00  0.00    -0.550 OA
ATOM      8  O   UNL     1     196.503 188.839 175.137  1.00  0.00    -0.550 OA
ENDBRANCH   5   6
ENDBRANCH   1   5
TORSDOF 3
ENDMDL
MODEL 7
REMARK VINA RESULT:    -3.175      4.935      6.965
REMARK INTER + INTRA:          -3.848
REMARK INTER:                  -3.715
REMARK INTRA:                  -0.133
REMARK UNBOUND:                -0.116
REMARK SMILES O=C([O-])CCC(=O)[O-]
REMARK SMILES IDX 4 1 2 2 1 3 3 4 5 5 6 6 7 7 8 8
REMARK H PARENT
REMARK Flexibility Score: inf
ROOT
ATOM      1  C   UNL     1     195.573 186.600 175.528  1.00  0.00     0.059 C 
ENDROOT
BRANCH   1   2
ATOM      2  C   UNL     1     196.096 187.900 176.050  1.00  0.00     0.042 C 
ATOM      3  O   UNL     1     196.589 188.748 175.259  1.00  0.00    -0.550 OA
ATOM      4  O   UNL     1     195.994 188.198 177.402  1.00  0.00    -0.550 OA
ENDBRANCH   1   2
BRANCH   1   5
ATOM      5  C   UNL     1     195.076 186.759 174.090  1.00  0.00     0.059 C 
BRANCH   5   6
ATOM      6  C   UNL     1     193.647 187.201 174.075  1.00  0.00     0.042 C 
ATOM      7  O   UNL     1     192.735 186.408 174.429  1.00  0.00    -0.550 OA
ATOM      8  O   UNL     1     193.326 188.504 173.718  1.00  0.00    -0.550 OA
ENDBRANCH   5   6
ENDBRANCH   1   5
TORSDOF 3
ENDMDL
MODEL 8
REMARK VINA RESULT:    -3.145      5.044      6.986
REMARK INTER + INTRA:          -3.813
REMARK INTER:                  -3.681
REMARK INTRA:                  -0.132
REMARK UNBOUND:                -0.116
REMARK SMILES O=C([O-])CCC(=O)[O-]
REMARK SMILES IDX 4 1 2 2 1 3 3 4 5 5 6 6 7 7 8 8
REMARK H PARENT
REMARK Flexibility Score: inf
ROOT
ATOM      1  C   UNL     1     195.376 186.527 175.505  1.00  0.00     0.059 C 
ENDROOT
BRANCH   1   2
ATOM      2  C   UNL     1     195.964 187.817 175.980  1.00  0.00     0.042 C 
ATOM      3  O   UNL     1     196.081 188.044 177.214  1.00  0.00    -0.550 OA
ATOM      4  O   UNL     1     196.429 188.750 175.062  1.00  0.00    -0.550 OA
ENDBRANCH   1   2
BRANCH   1   5
ATOM      5  C   UNL     1     194.878 186.663 174.065  1.00  0.00     0.059 C 
BRANCH   5   6
ATOM      6  C   UNL     1     193.472 187.172 174.042  1.00  0.00     0.042 C 
ATOM      7  O   UNL     1     192.521 186.424 174.393  1.00  0.00    -0.550 OA
ATOM      8  O   UNL     1     193.214 188.488 173.681  1.00  0.00    -0.550 OA
ENDBRANCH   5   6
ENDBRANCH   1   5
TORSDOF 3
ENDMDL
MODEL 9
REMARK VINA RESULT:    -3.107      5.146      6.634
REMARK INTER + INTRA:          -3.768
REMARK INTER:                  -3.722
REMARK INTRA:                  -0.046
REMARK UNBOUND:                -0.116
REMARK SMILES O=C([O-])CCC(=O)[O-]
REMARK SMILES IDX 4 1 2 2 1 3 3 4 5 5 6 6 7 7 8 8
REMARK H PARENT
REMARK Flexibility Score: inf
ROOT
ATOM      1  C   UNL     1     195.741 185.828 174.821  1.00  0.00     0.059 C 
ENDROOT
BRANCH   1   2
ATOM      2  C   UNL     1     194.744 184.748 175.093  1.00  0.00     0.042 C 
ATOM      3  O   UNL     1     195.122 183.553 175.216  1.00  0.00    -0.550 OA
ATOM      4  O   UNL     1     193.402 185.067 175.262  1.00  0.00    -0.550 OA
ENDBRANCH   1   2
BRANCH   1   5
ATOM      5  C   UNL     1     195.120 187.206 175.063  1.00  0.00     0.059 C 
BRANCH   5   6
ATOM      6  C   UNL     1     196.070 188.084 175.813  1.00  0.00     0.042 C 
ATOM      7  O   UNL     1     196.831 188.872 175.191  1.00  0.00    -0.550 OA
ATOM      8  O   UNL     1     196.082 188.068 177.202  1.00  0.00    -0.550 OA
ENDBRANCH   5   6
ENDBRANCH   1   5
TORSDOF 3
ENDMDL
