MODEL 1
REMARK VINA RESULT:    -6.429      0.000      0.000
REMARK INTER + INTRA:          -6.429
REMARK INTER:                  -6.429
REMARK INTRA:                   0.000
REMARK UNBOUND:                 0.000
REMARK SMILES c1ccc2ccccc2c1
REMARK SMILES IDX 2 1 1 2 10 3 9 4 8 5 7 6 6 7 5 8 4 9 3 10
REMARK H PARENT
REMARK Flexibility Score: inf
ROOT
ATOM      1  C   UNL     1      47.790  59.344  77.100  1.00  0.00     0.001 A 
ATOM      2  C   UNL     1      48.064  59.075  75.757  1.00  0.00     0.001 A 
ATOM      3  C   UNL     1      49.369  59.187  75.268  1.00  0.00     0.009 A 
ATOM      4  C   UNL     1      50.412  59.569  76.127  1.00  0.00    -0.018 A 
ATOM      5  C   UNL     1      51.726  59.686  75.649  1.00  0.00     0.009 A 
ATOM      6  C   UNL     1      52.756  60.067  76.516  1.00  0.00     0.001 A 
ATOM      7  C   UNL     1      52.481  60.337  77.859  1.00  0.00     0.001 A 
ATOM      8  C   UNL     1      51.176  60.225  78.348  1.00  0.00     0.009 A 
ATOM      9  C   UNL     1      50.134  59.842  77.489  1.00  0.00    -0.018 A 
ATOM     10  C   UNL     1      48.819  59.726  77.967  1.00  0.00     0.009 A 
ENDROOT
TORSDOF 0
ENDMDL
MODEL 2
REMARK VINA RESULT:    -6.400      0.208      4.015
REMARK INTER + INTRA:          -6.400
REMARK INTER:                  -6.400
REMARK INTRA:                   0.000
REMARK UNBOUND:                 0.000
REMARK SMILES c1ccc2ccccc2c1
REMARK SMILES IDX 2 1 1 2 10 3 9 4 8 5 7 6 6 7 5 8 4 9 3 10
REMARK H PARENT
REMARK Flexibility Score: inf
ROOT
ATOM      1  C   UNL     1      52.794  60.054  76.375  1.00  0.00     0.001 A 
ATOM      2  C   UNL     1      52.636  60.369  77.727  1.00  0.00     0.001 A 
ATOM      3  C   UNL     1      51.376  60.289  78.326  1.00  0.00     0.009 A 
ATOM      4  C   UNL     1      50.262  59.890  77.571  1.00  0.00    -0.018 A 
ATOM      5  C   UNL     1      48.990  59.806  78.159  1.00  0.00     0.009 A 
ATOM      6  C   UNL     1      47.889  59.407  77.396  1.00  0.00     0.001 A 
ATOM      7  C   UNL     1      48.047  59.092  76.043  1.00  0.00     0.001 A 
ATOM      8  C   UNL     1      49.308  59.172  75.444  1.00  0.00     0.009 A 
ATOM      9  C   UNL     1      50.422  59.571  76.199  1.00  0.00    -0.018 A 
ATOM     10  C   UNL     1      51.693  59.655  75.611  1.00  0.00     0.009 A 
ENDROOT
TORSDOF 0
ENDMDL
MODEL 3
REMARK VINA RESULT:    -6.398      0.086      2.082
REMARK INTER + INTRA:          -6.398
REMARK INTER:                  -6.398
REMARK INTRA:                   0.000
REMARK UNBOUND:                 0.000
REMARK SMILES c1ccc2ccccc2c1
REMARK SMILES IDX 2 1 1 2 10 3 9 4 8 5 7 6 6 7 5 8 4 9 3 10
REMARK H PARENT
REMARK Flexibility Score: inf
ROOT
ATOM      1  C   UNL     1      48.011  59.023  75.854  1.00  0.00     0.001 A 
ATOM      2  C   UNL     1      47.778  59.343  77.194  1.00  0.00     0.001 A 
ATOM      3  C   UNL     1      48.834  59.753  78.014  1.00  0.00     0.009 A 
ATOM      4  C   UNL     1      50.134  59.845  77.494  1.00  0.00    -0.018 A 
ATOM      5  C   UNL     1      51.203  60.255  78.306  1.00  0.00     0.009 A 
ATOM      6  C   UNL     1      52.494  60.343  77.774  1.00  0.00     0.001 A 
ATOM      7  C   UNL     1      52.727  60.022  76.434  1.00  0.00     0.001 A 
ATOM      8  C   UNL     1      51.671  59.613  75.614  1.00  0.00     0.009 A 
ATOM      9  C   UNL     1      50.370  59.520  76.135  1.00  0.00    -0.018 A 
ATOM     10  C   UNL     1      49.302  59.111  75.323  1.00  0.00     0.009 A 
ENDROOT
TORSDOF 0
ENDMDL
MODEL 4
REMARK VINA RESULT:    -6.383      0.082      3.437
REMARK INTER + INTRA:          -6.383
REMARK INTER:                  -6.383
REMARK INTRA:                   0.000
REMARK UNBOUND:                 0.000
REMARK SMILES c1ccc2ccccc2c1
REMARK SMILES IDX 2 1 1 2 10 3 9 4 8 5 7 6 6 7 5 8 4 9 3 10
REMARK H PARENT
REMARK Flexibility Score: inf
ROOT
ATOM      1  C   UNL     1      52.480  60.274  77.779  1.00  0.00     0.001 A 
ATOM      2  C   UNL     1      52.731  60.050  76.423  1.00  0.00     0.001 A 
ATOM      3  C   UNL     1      51.687  59.695  75.563  1.00  0.00     0.009 A 
ATOM      4  C   UNL     1      50.380  59.564  76.059  1.00  0.00    -0.018 A 
ATOM      5  C   UNL     1      49.323  59.208  75.208  1.00  0.00     0.009 A 
ATOM      6  C   UNL     1      48.026  59.081  75.715  1.00  0.00     0.001 A 
ATOM      7  C   UNL     1      47.776  59.306  77.071  1.00  0.00     0.001 A 
ATOM      8  C   UNL     1      48.819  59.661  77.931  1.00  0.00     0.009 A 
ATOM      9  C   UNL     1      50.126  59.792  77.435  1.00  0.00    -0.018 A 
ATOM     10  C   UNL     1      51.183  60.148  78.287  1.00  0.00     0.009 A 
ENDROOT
TORSDOF 0
ENDMDL
MODEL 5
REMARK VINA RESULT:    -6.259     10.332     12.377
REMARK INTER + INTRA:          -6.259
REMARK INTER:                  -6.259
REMARK INTRA:                   0.000
REMARK UNBOUND:                 0.000
REMARK SMILES c1ccc2ccccc2c1
REMARK SMILES IDX 2 1 1 2 10 3 9 4 8 5 7 6 6 7 5 8 4 9 3 10
REMARK H PARENT
REMARK Flexibility Score: inf
ROOT
ATOM      1  C   UNL     1      56.118  59.702  85.080  1.00  0.00     0.001 A 
ATOM      2  C   UNL     1      55.822  59.989  86.415  1.00  0.00     0.001 A 
ATOM      3  C   UNL     1      56.327  59.182  87.438  1.00  0.00     0.009 A 
ATOM      4  C   UNL     1      57.138  58.078  87.129  1.00  0.00    -0.018 A 
ATOM      5  C   UNL     1      57.652  57.259  88.146  1.00  0.00     0.009 A 
ATOM      6  C   UNL     1      58.458  56.163  87.823  1.00  0.00     0.001 A 
ATOM      7  C   UNL     1      58.754  55.876  86.488  1.00  0.00     0.001 A 
ATOM      8  C   UNL     1      58.249  56.683  85.465  1.00  0.00     0.009 A 
ATOM      9  C   UNL     1      57.438  57.787  85.774  1.00  0.00    -0.018 A 
ATOM     10  C   UNL     1      56.925  58.606  84.757  1.00  0.00     0.009 A 
ENDROOT
TORSDOF 0
ENDMDL
MODEL 6
REMARK VINA RESULT:    -6.253     10.416     12.475
REMARK INTER + INTRA:          -6.253
REMARK INTER:                  -6.253
REMARK INTRA:                   0.000
REMARK UNBOUND:                 0.000
REMARK SMILES c1ccc2ccccc2c1
REMARK SMILES IDX 2 1 1 2 10 3 9 4 8 5 7 6 6 7 5 8 4 9 3 10
REMARK H PARENT
REMARK Flexibility Score: inf
ROOT
ATOM      1  C   UNL     1      58.311  56.365  88.243  1.00  0.00     0.001 A 
ATOM      2  C   UNL     1      58.710  55.910  86.984  1.00  0.00     0.001 A 
ATOM      3  C   UNL     1      58.293  56.576  85.828  1.00  0.00     0.009 A 
ATOM      4  C   UNL     1      57.470  57.710  85.928  1.00  0.00    -0.018 A 
ATOM      5  C   UNL     1      57.043  58.388  84.776  1.00  0.00     0.009 A 
ATOM      6  C   UNL     1      56.224  59.516  84.890  1.00  0.00     0.001 A 
ATOM      7  C   UNL     1      55.824  59.971  86.149  1.00  0.00     0.001 A 
ATOM      8  C   UNL     1      56.242  59.305  87.305  1.00  0.00     0.009 A 
ATOM      9  C   UNL     1      57.065  58.172  87.205  1.00  0.00    -0.018 A 
ATOM     10  C   UNL     1      57.492  57.493  88.357  1.00  0.00     0.009 A 
ENDROOT
TORSDOF 0
ENDMDL
MODEL 7
REMARK VINA RESULT:    -6.244     10.326     12.189
REMARK INTER + INTRA:          -6.244
REMARK INTER:                  -6.244
REMARK INTRA:                   0.000
REMARK UNBOUND:                 0.000
REMARK SMILES c1ccc2ccccc2c1
REMARK SMILES IDX 2 1 1 2 10 3 9 4 8 5 7 6 6 7 5 8 4 9 3 10
REMARK H PARENT
REMARK Flexibility Score: inf
ROOT
ATOM      1  C   UNL     1      55.750  60.113  86.310  1.00  0.00     0.001 A 
ATOM      2  C   UNL     1      56.066  59.719  85.007  1.00  0.00     0.001 A 
ATOM      3  C   UNL     1      56.859  58.589  84.785  1.00  0.00     0.009 A 
ATOM      4  C   UNL     1      57.340  57.843  85.873  1.00  0.00    -0.018 A 
ATOM      5  C   UNL     1      58.137  56.707  85.665  1.00  0.00     0.009 A 
ATOM      6  C   UNL     1      58.609  55.972  86.757  1.00  0.00     0.001 A 
ATOM      7  C   UNL     1      58.293  56.366  88.060  1.00  0.00     0.001 A 
ATOM      8  C   UNL     1      57.501  57.496  88.281  1.00  0.00     0.009 A 
ATOM      9  C   UNL     1      57.019  58.243  87.194  1.00  0.00    -0.018 A 
ATOM     10  C   UNL     1      56.222  59.379  87.402  1.00  0.00     0.009 A 
ENDROOT
TORSDOF 0
ENDMDL
MODEL 8
REMARK VINA RESULT:    -6.232     10.423     12.645
REMARK INTER + INTRA:          -6.232
REMARK INTER:                  -6.232
REMARK INTRA:                   0.000
REMARK UNBOUND:                 0.000
REMARK SMILES c1ccc2ccccc2c1
REMARK SMILES IDX 2 1 1 2 10 3 9 4 8 5 7 6 6 7 5 8 4 9 3 10
REMARK H PARENT
REMARK Flexibility Score: inf
ROOT
ATOM      1  C   UNL     1      58.623  55.964  86.665  1.00  0.00     0.001 A 
ATOM      2  C   UNL     1      58.371  56.274  88.004  1.00  0.00     0.001 A 
ATOM      3  C   UNL     1      57.592  57.387  88.335  1.00  0.00     0.009 A 
ATOM      4  C   UNL     1      57.057  58.198  87.322  1.00  0.00    -0.018 A 
ATOM      5  C   UNL     1      56.274  59.318  87.640  1.00  0.00     0.009 A 
ATOM      6  C   UNL     1      55.747  60.117  86.620  1.00  0.00     0.001 A 
ATOM      7  C   UNL     1      55.999  59.807  85.281  1.00  0.00     0.001 A 
ATOM      8  C   UNL     1      56.778  58.695  84.951  1.00  0.00     0.009 A 
ATOM      9  C   UNL     1      57.313  57.884  85.964  1.00  0.00    -0.018 A 
ATOM     10  C   UNL     1      58.096  56.763  85.646  1.00  0.00     0.009 A 
ENDROOT
TORSDOF 0
ENDMDL
MODEL 9
REMARK VINA RESULT:    -6.197     11.972     12.909
REMARK INTER + INTRA:          -6.197
REMARK INTER:                  -6.197
REMARK INTRA:                   0.000
REMARK UNBOUND:                 0.000
REMARK SMILES c1ccc2ccccc2c1
REMARK SMILES IDX 2 1 1 2 10 3 9 4 8 5 7 6 6 7 5 8 4 9 3 10
REMARK H PARENT
REMARK Flexibility Score: inf
ROOT
ATOM      1  C   UNL     1      43.148  54.813  87.255  1.00  0.00     0.001 A 
ATOM      2  C   UNL     1      42.797  55.155  85.946  1.00  0.00     0.001 A 
ATOM      3  C   UNL     1      43.219  54.364  84.874  1.00  0.00     0.009 A 
ATOM      4  C   UNL     1      43.998  53.219  85.108  1.00  0.00    -0.018 A 
ATOM      5  C   UNL     1      44.429  52.416  84.041  1.00  0.00     0.009 A 
ATOM      6  C   UNL     1      45.203  51.278  84.288  1.00  0.00     0.001 A 
ATOM      7  C   UNL     1      45.554  50.936  85.596  1.00  0.00     0.001 A 
ATOM      8  C   UNL     1      45.132  51.728  86.669  1.00  0.00     0.009 A 
ATOM      9  C   UNL     1      44.354  52.872  86.435  1.00  0.00    -0.018 A 
ATOM     10  C   UNL     1      43.923  53.675  87.502  1.00  0.00     0.009 A 
ENDROOT
TORSDOF 0
ENDMDL
