MODEL 1
REMARK VINA RESULT:    -5.761      0.000      0.000
REMARK INTER + INTRA:          -5.761
REMARK INTER:                  -5.761
REMARK INTRA:                   0.000
REMARK UNBOUND:                 0.000
REMARK SMILES CC1=CC[C@]23C[C@H]1C(C)(C)[C@@H]2CC[C@@H]3C
REMARK SMILES IDX 15 1 14 2 13 3 12 4 11 5 5 6 4 7 3 8 2 9 7 10 6 11 8 12 9 13
REMARK SMILES IDX 10 14 1 15
REMARK H PARENT
REMARK Flexibility Score: inf
ROOT
ATOM      1  C   UNL     1     -43.055 -46.967  25.726  1.00  0.00     0.008 C 
ATOM      2  C   UNL     1     -42.383 -48.150  26.435  1.00  0.00    -0.007 C 
ATOM      3  C   UNL     1     -40.962 -47.808  26.980  1.00  0.00     0.004 C 
ATOM      4  C   UNL     1     -40.767 -48.634  28.280  1.00  0.00     0.005 C 
ATOM      5  C   UNL     1     -41.972 -49.554  28.253  1.00  0.00     0.002 C 
ATOM      6  C   UNL     1     -43.103 -48.706  27.682  1.00  0.00    -0.020 C 
ATOM      7  C   UNL     1     -43.628 -47.545  28.631  1.00  0.00     0.035 C 
ATOM      8  C   UNL     1     -44.543 -48.002  29.752  1.00  0.00    -0.027 C 
ATOM      9  C   UNL     1     -44.823 -49.306  29.935  1.00  0.00    -0.074 C 
ATOM     10  C   UNL     1     -44.116 -50.320  29.055  1.00  0.00     0.021 C 
ATOM     11  C   UNL     1     -44.186 -49.775  27.596  1.00  0.00     0.016 C 
ATOM     12  C   UNL     1     -42.574 -50.391  29.402  1.00  0.00    -0.025 C 
ATOM     13  C   UNL     1     -42.105 -51.864  29.315  1.00  0.00     0.012 C 
ATOM     14  C   UNL     1     -42.160 -49.853  30.795  1.00  0.00     0.012 C 
ATOM     15  C   UNL     1     -45.779 -49.738  31.011  1.00  0.00     0.039 C 
ENDROOT
TORSDOF 0
ENDMDL
MODEL 2
REMARK VINA RESULT:    -5.662      1.113      4.092
REMARK INTER + INTRA:          -5.662
REMARK INTER:                  -5.662
REMARK INTRA:                   0.000
REMARK UNBOUND:                 0.000
REMARK SMILES CC1=CC[C@]23C[C@H]1C(C)(C)[C@@H]2CC[C@@H]3C
REMARK SMILES IDX 15 1 14 2 13 3 12 4 11 5 5 6 4 7 3 8 2 9 7 10 6 11 8 12 9 13
REMARK SMILES IDX 10 14 1 15
REMARK H PARENT
REMARK Flexibility Score: inf
ROOT
ATOM      1  C   UNL     1     -45.480 -49.909  30.456  1.00  0.00     0.008 C 
ATOM      2  C   UNL     1     -43.988 -49.566  30.561  1.00  0.00    -0.007 C 
ATOM      3  C   UNL     1     -43.109 -50.788  30.969  1.00  0.00     0.004 C 
ATOM      4  C   UNL     1     -41.738 -50.614  30.262  1.00  0.00     0.005 C 
ATOM      5  C   UNL     1     -41.848 -49.207  29.706  1.00  0.00     0.002 C 
ATOM      6  C   UNL     1     -43.303 -49.066  29.273  1.00  0.00    -0.020 C 
ATOM      7  C   UNL     1     -43.721 -49.928  28.005  1.00  0.00     0.035 C 
ATOM      8  C   UNL     1     -43.274 -49.358  26.671  1.00  0.00    -0.027 C 
ATOM      9  C   UNL     1     -42.531 -48.237  26.606  1.00  0.00    -0.074 C 
ATOM     10  C   UNL     1     -42.063 -47.612  27.907  1.00  0.00     0.021 C 
ATOM     11  C   UNL     1     -43.291 -47.597  28.866  1.00  0.00     0.016 C 
ATOM     12  C   UNL     1     -40.987 -48.529  28.619  1.00  0.00    -0.025 C 
ATOM     13  C   UNL     1     -39.901 -47.629  29.256  1.00  0.00     0.012 C 
ATOM     14  C   UNL     1     -40.264 -49.562  27.718  1.00  0.00     0.012 C 
ATOM     15  C   UNL     1     -42.148 -47.652  25.276  1.00  0.00     0.039 C 
ENDROOT
TORSDOF 0
ENDMDL
MODEL 3
REMARK VINA RESULT:    -5.652      1.705      3.909
REMARK INTER + INTRA:          -5.652
REMARK INTER:                  -5.652
REMARK INTRA:                   0.000
REMARK UNBOUND:                 0.000
REMARK SMILES CC1=CC[C@]23C[C@H]1C(C)(C)[C@@H]2CC[C@@H]3C
REMARK SMILES IDX 15 1 14 2 13 3 12 4 11 5 5 6 4 7 3 8 2 9 7 10 6 11 8 12 9 13
REMARK SMILES IDX 10 14 1 15
REMARK H PARENT
REMARK Flexibility Score: inf
ROOT
ATOM      1  C   UNL     1     -39.185 -48.223  28.470  1.00  0.00     0.008 C 
ATOM      2  C   UNL     1     -40.474 -49.032  28.275  1.00  0.00    -0.007 C 
ATOM      3  C   UNL     1     -41.205 -49.348  29.616  1.00  0.00     0.004 C 
ATOM      4  C   UNL     1     -42.726 -49.358  29.310  1.00  0.00     0.005 C 
ATOM      5  C   UNL     1     -42.742 -49.288  27.795  1.00  0.00     0.002 C 
ATOM      6  C   UNL     1     -41.582 -48.370  27.429  1.00  0.00    -0.020 C 
ATOM      7  C   UNL     1     -41.782 -46.839  27.806  1.00  0.00     0.035 C 
ATOM      8  C   UNL     1     -42.686 -46.063  26.865  1.00  0.00    -0.027 C 
ATOM      9  C   UNL     1     -43.301 -46.670  25.833  1.00  0.00    -0.074 C 
ATOM     10  C   UNL     1     -43.152 -48.173  25.693  1.00  0.00     0.021 C 
ATOM     11  C   UNL     1     -41.643 -48.497  25.911  1.00  0.00     0.016 C 
ATOM     12  C   UNL     1     -43.915 -48.927  26.857  1.00  0.00    -0.025 C 
ATOM     13  C   UNL     1     -44.576 -50.204  26.283  1.00  0.00     0.012 C 
ATOM     14  C   UNL     1     -45.019 -48.120  27.588  1.00  0.00     0.012 C 
ATOM     15  C   UNL     1     -44.144 -45.876  24.875  1.00  0.00     0.039 C 
ENDROOT
TORSDOF 0
ENDMDL
MODEL 4
REMARK VINA RESULT:    -5.607      9.424     10.976
REMARK INTER + INTRA:          -5.607
REMARK INTER:                  -5.607
REMARK INTRA:                   0.000
REMARK UNBOUND:                 0.000
REMARK SMILES CC1=CC[C@]23C[C@H]1C(C)(C)[C@@H]2CC[C@@H]3C
REMARK SMILES IDX 15 1 14 2 13 3 12 4 11 5 5 6 4 7 3 8 2 9 7 10 6 11 8 12 9 13
REMARK SMILES IDX 10 14 1 15
REMARK H PARENT
REMARK Flexibility Score: inf
ROOT
ATOM      1  C   UNL     1     -55.117 -48.489  21.408  1.00  0.00     0.008 C 
ATOM      2  C   UNL     1     -53.738 -49.153  21.512  1.00  0.00    -0.007 C 
ATOM      3  C   UNL     1     -53.005 -49.257  20.139  1.00  0.00     0.004 C 
ATOM      4  C   UNL     1     -51.487 -49.114  20.425  1.00  0.00     0.005 C 
ATOM      5  C   UNL     1     -51.445 -49.180  21.940  1.00  0.00     0.002 C 
ATOM      6  C   UNL     1     -52.696 -48.443  22.402  1.00  0.00    -0.020 C 
ATOM      7  C   UNL     1     -52.685 -46.872  22.166  1.00  0.00     0.035 C 
ATOM      8  C   UNL     1     -51.857 -46.082  23.164  1.00  0.00    -0.027 C 
ATOM      9  C   UNL     1     -51.152 -46.702  24.129  1.00  0.00    -0.074 C 
ATOM     10  C   UNL     1     -51.121 -48.219  24.130  1.00  0.00     0.021 C 
ATOM     11  C   UNL     1     -52.586 -48.699  23.901  1.00  0.00     0.016 C 
ATOM     12  C   UNL     1     -50.302 -48.769  22.893  1.00  0.00    -0.025 C 
ATOM     13  C   UNL     1     -49.483 -50.004  23.338  1.00  0.00     0.012 C 
ATOM     14  C   UNL     1     -49.316 -47.774  22.227  1.00  0.00     0.012 C 
ATOM     15  C   UNL     1     -50.387 -45.904  25.146  1.00  0.00     0.039 C 
ENDROOT
TORSDOF 0
ENDMDL
MODEL 5
REMARK VINA RESULT:    -5.589      1.440      4.648
REMARK INTER + INTRA:          -5.589
REMARK INTER:                  -5.589
REMARK INTRA:                   0.000
REMARK UNBOUND:                 0.000
REMARK SMILES CC1=CC[C@]23C[C@H]1C(C)(C)[C@@H]2CC[C@@H]3C
REMARK SMILES IDX 15 1 14 2 13 3 12 4 11 5 5 6 4 7 3 8 2 9 7 10 6 11 8 12 9 13
REMARK SMILES IDX 10 14 1 15
REMARK H PARENT
REMARK Flexibility Score: inf
ROOT
ATOM      1  C   UNL     1     -43.292 -51.108  30.545  1.00  0.00     0.008 C 
ATOM      2  C   UNL     1     -43.287 -50.116  29.374  1.00  0.00    -0.007 C 
ATOM      3  C   UNL     1     -44.218 -48.886  29.614  1.00  0.00     0.004 C 
ATOM      4  C   UNL     1     -43.552 -47.673  28.910  1.00  0.00     0.005 C 
ATOM      5  C   UNL     1     -42.434 -48.337  28.129  1.00  0.00     0.002 C 
ATOM      6  C   UNL     1     -41.934 -49.459  29.032  1.00  0.00    -0.020 C 
ATOM      7  C   UNL     1     -41.156 -48.987  30.334  1.00  0.00     0.035 C 
ATOM      8  C   UNL     1     -39.723 -48.545  30.098  1.00  0.00    -0.027 C 
ATOM      9  C   UNL     1     -39.200 -48.514  28.857  1.00  0.00    -0.074 C 
ATOM     10  C   UNL     1     -40.113 -48.831  27.687  1.00  0.00     0.021 C 
ATOM     11  C   UNL     1     -40.927 -50.100  28.083  1.00  0.00     0.016 C 
ATOM     12  C   UNL     1     -41.190 -47.689  27.485  1.00  0.00    -0.025 C 
ATOM     13  C   UNL     1     -41.407 -47.464  25.969  1.00  0.00     0.012 C 
ATOM     14  C   UNL     1     -40.856 -46.313  28.115  1.00  0.00     0.012 C 
ATOM     15  C   UNL     1     -37.762 -48.133  28.646  1.00  0.00     0.039 C 
ENDROOT
TORSDOF 0
ENDMDL
MODEL 6
REMARK VINA RESULT:    -5.537      9.855     11.782
REMARK INTER + INTRA:          -5.537
REMARK INTER:                  -5.537
REMARK INTRA:                   0.000
REMARK UNBOUND:                 0.000
REMARK SMILES CC1=CC[C@]23C[C@H]1C(C)(C)[C@@H]2CC[C@@H]3C
REMARK SMILES IDX 15 1 14 2 13 3 12 4 11 5 5 6 4 7 3 8 2 9 7 10 6 11 8 12 9 13
REMARK SMILES IDX 10 14 1 15
REMARK H PARENT
REMARK Flexibility Score: inf
ROOT
ATOM      1  C   UNL     1     -51.972 -47.028  24.160  1.00  0.00     0.008 C 
ATOM      2  C   UNL     1     -52.420 -48.200  23.278  1.00  0.00    -0.007 C 
ATOM      3  C   UNL     1     -53.759 -47.922  22.527  1.00  0.00     0.004 C 
ATOM      4  C   UNL     1     -53.673 -48.661  21.164  1.00  0.00     0.005 C 
ATOM      5  C   UNL     1     -52.416 -49.491  21.335  1.00  0.00     0.002 C 
ATOM      6  C   UNL     1     -51.466 -48.609  22.137  1.00  0.00    -0.020 C 
ATOM      7  C   UNL     1     -50.893 -47.347  21.361  1.00  0.00     0.035 C 
ATOM      8  C   UNL     1     -49.774 -47.653  20.382  1.00  0.00    -0.027 C 
ATOM      9  C   UNL     1     -49.362 -48.917  20.169  1.00  0.00    -0.074 C 
ATOM     10  C   UNL     1     -50.115 -50.041  20.856  1.00  0.00     0.021 C 
ATOM     11  C   UNL     1     -50.326 -49.602  22.336  1.00  0.00     0.016 C 
ATOM     12  C   UNL     1     -51.570 -50.196  20.253  1.00  0.00    -0.025 C 
ATOM     13  C   UNL     1     -51.924 -51.701  20.170  1.00  0.00     0.012 C 
ATOM     14  C   UNL     1     -51.797 -49.587  18.846  1.00  0.00     0.012 C 
ATOM     15  C   UNL     1     -48.212 -49.198  19.243  1.00  0.00     0.039 C 
ENDROOT
TORSDOF 0
ENDMDL
MODEL 7
REMARK VINA RESULT:    -5.515      1.249      3.986
REMARK INTER + INTRA:          -5.515
REMARK INTER:                  -5.515
REMARK INTRA:                   0.000
REMARK UNBOUND:                 0.000
REMARK SMILES CC1=CC[C@]23C[C@H]1C(C)(C)[C@@H]2CC[C@@H]3C
REMARK SMILES IDX 15 1 14 2 13 3 12 4 11 5 5 6 4 7 3 8 2 9 7 10 6 11 8 12 9 13
REMARK SMILES IDX 10 14 1 15
REMARK H PARENT
REMARK Flexibility Score: inf
ROOT
ATOM      1  C   UNL     1     -44.518 -50.573  31.056  1.00  0.00     0.008 C 
ATOM      2  C   UNL     1     -43.321 -49.804  30.482  1.00  0.00    -0.007 C 
ATOM      3  C   UNL     1     -42.110 -50.726  30.141  1.00  0.00     0.004 C 
ATOM      4  C   UNL     1     -41.405 -50.106  28.905  1.00  0.00     0.005 C 
ATOM      5  C   UNL     1     -42.108 -48.768  28.780  1.00  0.00     0.002 C 
ATOM      6  C   UNL     1     -43.558 -49.047  29.159  1.00  0.00    -0.020 C 
ATOM      7  C   UNL     1     -44.377 -49.919  28.114  1.00  0.00     0.035 C 
ATOM      8  C   UNL     1     -44.849 -49.166  26.884  1.00  0.00    -0.027 C 
ATOM      9  C   UNL     1     -44.531 -47.871  26.696  1.00  0.00    -0.074 C 
ATOM     10  C   UNL     1     -43.599 -47.210  27.695  1.00  0.00     0.021 C 
ATOM     11  C   UNL     1     -44.096 -47.621  29.113  1.00  0.00     0.016 C 
ATOM     12  C   UNL     1     -42.135 -47.801  27.577  1.00  0.00    -0.025 C 
ATOM     13  C   UNL     1     -41.112 -46.654  27.768  1.00  0.00     0.012 C 
ATOM     14  C   UNL     1     -41.789 -48.515  26.245  1.00  0.00     0.012 C 
ATOM     15  C   UNL     1     -45.056 -47.122  25.504  1.00  0.00     0.039 C 
ENDROOT
TORSDOF 0
ENDMDL
MODEL 8
REMARK VINA RESULT:    -5.509      1.277      3.073
REMARK INTER + INTRA:          -5.509
REMARK INTER:                  -5.509
REMARK INTRA:                   0.000
REMARK UNBOUND:                 0.000
REMARK SMILES CC1=CC[C@]23C[C@H]1C(C)(C)[C@@H]2CC[C@@H]3C
REMARK SMILES IDX 15 1 14 2 13 3 12 4 11 5 5 6 4 7 3 8 2 9 7 10 6 11 8 12 9 13
REMARK SMILES IDX 10 14 1 15
REMARK H PARENT
REMARK Flexibility Score: inf
ROOT
ATOM      1  C   UNL     1     -40.335 -46.642  28.107  1.00  0.00     0.008 C 
ATOM      2  C   UNL     1     -41.652 -46.810  27.338  1.00  0.00    -0.007 C 
ATOM      3  C   UNL     1     -41.440 -47.263  25.860  1.00  0.00     0.004 C 
ATOM      4  C   UNL     1     -42.650 -48.162  25.487  1.00  0.00     0.005 C 
ATOM      5  C   UNL     1     -43.568 -47.964  26.677  1.00  0.00     0.002 C 
ATOM      6  C   UNL     1     -42.639 -47.864  27.881  1.00  0.00    -0.020 C 
ATOM      7  C   UNL     1     -41.904 -49.212  28.286  1.00  0.00     0.035 C 
ATOM      8  C   UNL     1     -42.766 -50.208  29.041  1.00  0.00    -0.027 C 
ATOM      9  C   UNL     1     -44.067 -49.959  29.283  1.00  0.00    -0.074 C 
ATOM     10  C   UNL     1     -44.678 -48.703  28.689  1.00  0.00     0.021 C 
ATOM     11  C   UNL     1     -43.671 -47.544  28.956  1.00  0.00     0.016 C 
ATOM     12  C   UNL     1     -44.780 -48.815  27.114  1.00  0.00    -0.025 C 
ATOM     13  C   UNL     1     -46.106 -48.167  26.647  1.00  0.00     0.012 C 
ATOM     14  C   UNL     1     -44.730 -50.247  26.524  1.00  0.00     0.012 C 
ATOM     15  C   UNL     1     -44.892 -50.926  30.084  1.00  0.00     0.039 C 
ENDROOT
TORSDOF 0
ENDMDL
MODEL 9
REMARK VINA RESULT:    -5.449      9.192     11.014
REMARK INTER + INTRA:          -5.449
REMARK INTER:                  -5.449
REMARK INTRA:                   0.000
REMARK UNBOUND:                 0.000
REMARK SMILES CC1=CC[C@]23C[C@H]1C(C)(C)[C@@H]2CC[C@@H]3C
REMARK SMILES IDX 15 1 14 2 13 3 12 4 11 5 5 6 4 7 3 8 2 9 7 10 6 11 8 12 9 13
REMARK SMILES IDX 10 14 1 15
REMARK H PARENT
REMARK Flexibility Score: inf
ROOT
ATOM      1  C   UNL     1     -49.765 -50.096  18.874  1.00  0.00     0.008 C 
ATOM      2  C   UNL     1     -50.880 -49.238  19.485  1.00  0.00    -0.007 C 
ATOM      3  C   UNL     1     -52.249 -49.981  19.560  1.00  0.00     0.004 C 
ATOM      4  C   UNL     1     -52.975 -49.463  20.831  1.00  0.00     0.005 C 
ATOM      5  C   UNL     1     -52.088 -48.306  21.249  1.00  0.00     0.002 C 
ATOM      6  C   UNL     1     -50.668 -48.763  20.938  1.00  0.00    -0.020 C 
ATOM      7  C   UNL     1     -50.109 -49.925  21.866  1.00  0.00     0.035 C 
ATOM      8  C   UNL     1     -49.658 -49.479  23.245  1.00  0.00    -0.027 C 
ATOM      9  C   UNL     1     -49.788 -48.198  23.640  1.00  0.00    -0.074 C 
ATOM     10  C   UNL     1     -50.495 -47.230  22.709  1.00  0.00     0.021 C 
ATOM     11  C   UNL     1     -49.921 -47.480  21.282  1.00  0.00     0.016 C 
ATOM     12  C   UNL     1     -52.037 -47.571  22.606  1.00  0.00    -0.025 C 
ATOM     13  C   UNL     1     -52.842 -46.249  22.549  1.00  0.00     0.012 C 
ATOM     14  C   UNL     1     -52.628 -48.425  23.756  1.00  0.00     0.012 C 
ATOM     15  C   UNL     1     -49.280 -47.760  24.984  1.00  0.00     0.039 C 
ENDROOT
TORSDOF 0
ENDMDL
