MODEL 1
REMARK VINA RESULT:    -7.010      0.000      0.000
REMARK INTER + INTRA:          -7.695
REMARK INTER:                  -7.625
REMARK INTRA:                  -0.070
REMARK UNBOUND:                -0.070
REMARK SMILES CC(C)c1cc2c(cc1O)[C@]1(C)CCCC(C)(C)[C@@H]1CC2=O
REMARK SMILES IDX 4 1 9 2 8 3 7 4 6 5 5 6 21 7 22 8 20 9 19 10 11 11 13 12
REMARK SMILES IDX 14 13 15 14 16 15 17 16 18 17 12 18 2 19 1 20 3 21 10 22
REMARK H PARENT 10 23
REMARK Flexibility Score: inf
ROOT
ATOM      1  C   UNL     1       1.845   3.712 -20.612  1.00  0.00    -0.003 A 
ATOM      2  C   UNL     1       0.824   2.997 -21.281  1.00  0.00     0.119 A 
ATOM      3  C   UNL     1       0.727   3.141 -22.686  1.00  0.00     0.051 A 
ATOM      4  C   UNL     1       1.469   4.211 -23.349  1.00  0.00    -0.027 A 
ATOM      5  C   UNL     1       2.224   5.146 -22.618  1.00  0.00     0.022 A 
ATOM      6  C   UNL     1       2.459   4.893 -21.233  1.00  0.00     0.020 A 
ATOM      7  C   UNL     1       2.727   6.409 -23.277  1.00  0.00     0.163 C 
ATOM      8  O   UNL     1       3.425   7.210 -22.700  1.00  0.00    -0.294 OA
ATOM      9  C   UNL     1       2.194   6.789 -24.759  1.00  0.00     0.086 C 
ATOM     10  C   UNL     1       1.923   5.441 -25.643  1.00  0.00     0.013 C 
ATOM     11  C   UNL     1       1.094   4.431 -24.803  1.00  0.00    -0.003 C 
ATOM     12  C   UNL     1       1.629   3.051 -25.509  1.00  0.00     0.012 C 
ATOM     13  C   UNL     1       3.331   3.071 -25.372  1.00  0.00     0.001 C 
ATOM     14  C   UNL     1       4.125   4.283 -26.169  1.00  0.00     0.007 C 
ATOM     15  C   UNL     1       2.922   4.754 -27.023  1.00  0.00    -0.031 C 
ATOM     16  C   UNL     1       2.958   5.916 -28.221  1.00  0.00     0.011 C 
ATOM     17  C   UNL     1       3.121   3.273 -28.037  1.00  0.00     0.011 C 
ATOM     18  C   UNL     1      -0.354   5.086 -24.446  1.00  0.00     0.017 C 
ENDROOT
BRANCH   1  19
ATOM     19  C   UNL     1       1.919   3.796 -19.054  1.00  0.00     0.017 C 
ATOM     20  C   UNL     1       0.606   4.264 -18.453  1.00  0.00     0.012 C 
ATOM     21  C   UNL     1       3.035   4.744 -18.883  1.00  0.00     0.012 C 
ENDBRANCH   1  19
BRANCH   2  22
ATOM     22  O   UNL     1      -0.110   2.158 -20.584  1.00  0.00    -0.508 OA
ATOM     23  H   UNL     1      -0.583   1.399 -21.079  1.00  0.00     0.293 HD
ENDBRANCH   2  22
TORSDOF 2
ENDMDL
MODEL 2
REMARK VINA RESULT:    -6.807      3.135      4.407
REMARK INTER + INTRA:          -7.474
REMARK INTER:                  -7.172
REMARK INTRA:                  -0.302
REMARK UNBOUND:                -0.070
REMARK SMILES CC(C)c1cc2c(cc1O)[C@]1(C)CCCC(C)(C)[C@@H]1CC2=O
REMARK SMILES IDX 4 1 9 2 8 3 7 4 6 5 5 6 21 7 22 8 20 9 19 10 11 11 13 12
REMARK SMILES IDX 14 13 15 14 16 15 17 16 18 17 12 18 2 19 1 20 3 21 10 22
REMARK H PARENT 10 23
REMARK Flexibility Score: inf
ROOT
ATOM      1  C   UNL     1      -0.423   1.803 -19.890  1.00  0.00    -0.003 A 
ATOM      2  C   UNL     1      -1.812   1.747 -20.153  1.00  0.00     0.119 A 
ATOM      3  C   UNL     1      -2.225   1.574 -21.496  1.00  0.00     0.051 A 
ATOM      4  C   UNL     1      -1.250   1.745 -22.572  1.00  0.00    -0.027 A 
ATOM      5  C   UNL     1       0.073   2.146 -22.311  1.00  0.00     0.022 A 
ATOM      6  C   UNL     1       0.526   2.147 -20.957  1.00  0.00     0.020 A 
ATOM      7  C   UNL     1       0.970   2.611 -23.434  1.00  0.00     0.163 C 
ATOM      8  O   UNL     1       2.127   2.911 -23.261  1.00  0.00    -0.294 OA
ATOM      9  C   UNL     1       0.326   2.867 -24.899  1.00  0.00     0.086 C 
ATOM     10  C   UNL     1      -0.895   1.820 -25.190  1.00  0.00     0.013 C 
ATOM     11  C   UNL     1      -1.851   1.790 -23.965  1.00  0.00    -0.003 C 
ATOM     12  C   UNL     1      -2.412   0.260 -24.148  1.00  0.00     0.012 C 
ATOM     13  C   UNL     1      -1.038  -0.754 -24.175  1.00  0.00     0.001 C 
ATOM     14  C   UNL     1       0.015  -0.541 -25.432  1.00  0.00     0.007 C 
ATOM     15  C   UNL     1      -0.910   0.352 -26.293  1.00  0.00    -0.031 C 
ATOM     16  C   UNL     1      -0.593   0.903 -27.837  1.00  0.00     0.011 C 
ATOM     17  C   UNL     1      -1.880  -1.118 -26.694  1.00  0.00     0.011 C 
ATOM     18  C   UNL     1      -2.506   3.267 -23.756  1.00  0.00     0.017 C 
ENDROOT
BRANCH   1  19
ATOM     19  C   UNL     1       0.143   2.198 -18.488  1.00  0.00     0.017 C 
ATOM     20  C   UNL     1       0.747   3.590 -18.497  1.00  0.00     0.012 C 
ATOM     21  C   UNL     1       1.120   1.115 -18.273  1.00  0.00     0.012 C 
ENDBRANCH   1  19
BRANCH   2  22
ATOM     22  O   UNL     1      -2.796   1.875 -19.116  1.00  0.00    -0.508 OA
ATOM     23  H   UNL     1      -3.655   2.402 -19.288  1.00  0.00     0.293 HD
ENDBRANCH   2  22
TORSDOF 2
ENDMDL
MODEL 3
REMARK VINA RESULT:    -6.747      2.131      4.348
REMARK INTER + INTRA:          -7.408
REMARK INTER:                  -7.129
REMARK INTRA:                  -0.279
REMARK UNBOUND:                -0.070
REMARK SMILES CC(C)c1cc2c(cc1O)[C@]1(C)CCCC(C)(C)[C@@H]1CC2=O
REMARK SMILES IDX 4 1 9 2 8 3 7 4 6 5 5 6 21 7 22 8 20 9 19 10 11 11 13 12
REMARK SMILES IDX 14 13 15 14 16 15 17 16 18 17 12 18 2 19 1 20 3 21 10 22
REMARK H PARENT 10 23
REMARK Flexibility Score: inf
ROOT
ATOM      1  C   UNL     1       1.391   3.383 -20.518  1.00  0.00    -0.003 A 
ATOM      2  C   UNL     1       2.025   4.318 -21.369  1.00  0.00     0.119 A 
ATOM      3  C   UNL     1       1.688   4.296 -22.744  1.00  0.00     0.051 A 
ATOM      4  C   UNL     1       0.943   3.158 -23.280  1.00  0.00    -0.027 A 
ATOM      5  C   UNL     1       0.610   2.051 -22.478  1.00  0.00     0.022 A 
ATOM      6  C   UNL     1       0.796   2.157 -21.066  1.00  0.00     0.020 A 
ATOM      7  C   UNL     1       0.120   0.768 -23.106  1.00  0.00     0.163 C 
ATOM      8  O   UNL     1      -0.228  -0.186 -22.450  1.00  0.00    -0.294 OA
ATOM      9  C   UNL     1       0.202   0.599 -24.715  1.00  0.00     0.086 C 
ATOM     10  C   UNL     1      -0.031   2.033 -25.464  1.00  0.00     0.013 C 
ATOM     11  C   UNL     1       0.861   3.115 -24.795  1.00  0.00    -0.003 C 
ATOM     12  C   UNL     1      -0.072   4.421 -25.127  1.00  0.00     0.012 C 
ATOM     13  C   UNL     1      -1.618   4.082 -24.484  1.00  0.00     0.001 C 
ATOM     14  C   UNL     1      -2.433   2.806 -25.149  1.00  0.00     0.007 C 
ATOM     15  C   UNL     1      -1.510   2.624 -26.378  1.00  0.00    -0.031 C 
ATOM     16  C   UNL     1      -1.752   1.564 -27.646  1.00  0.00     0.011 C 
ATOM     17  C   UNL     1      -2.243   4.113 -27.091  1.00  0.00     0.011 C 
ATOM     18  C   UNL     1       2.429   2.711 -24.978  1.00  0.00     0.017 C 
ENDROOT
BRANCH   1  19
ATOM     19  C   UNL     1       1.834   3.175 -19.034  1.00  0.00     0.017 C 
ATOM     20  C   UNL     1       1.687   1.729 -18.600  1.00  0.00     0.012 C 
ATOM     21  C   UNL     1       0.926   4.110 -18.344  1.00  0.00     0.012 C 
ENDBRANCH   1  19
BRANCH   2  22
ATOM     22  O   UNL     1       2.995   5.261 -20.889  1.00  0.00    -0.508 OA
ATOM     23  H   UNL     1       3.620   5.006 -20.122  1.00  0.00     0.293 HD
ENDBRANCH   2  22
TORSDOF 2
ENDMDL
MODEL 4
REMARK VINA RESULT:    -6.605      1.764      2.370
REMARK INTER + INTRA:          -7.254
REMARK INTER:                  -6.938
REMARK INTRA:                  -0.315
REMARK UNBOUND:                -0.070
REMARK SMILES CC(C)c1cc2c(cc1O)[C@]1(C)CCCC(C)(C)[C@@H]1CC2=O
REMARK SMILES IDX 4 1 9 2 8 3 7 4 6 5 5 6 21 7 22 8 20 9 19 10 11 11 13 12
REMARK SMILES IDX 14 13 15 14 16 15 17 16 18 17 12 18 2 19 1 20 3 21 10 22
REMARK H PARENT 10 23
REMARK Flexibility Score: inf
ROOT
ATOM      1  C   UNL     1       0.170   1.466 -21.952  1.00  0.00    -0.003 A 
ATOM      2  C   UNL     1      -0.695   1.573 -23.066  1.00  0.00     0.119 A 
ATOM      3  C   UNL     1      -0.326   2.458 -24.109  1.00  0.00     0.051 A 
ATOM      4  C   UNL     1       0.750   3.421 -23.882  1.00  0.00    -0.027 A 
ATOM      5  C   UNL     1       1.383   3.538 -22.631  1.00  0.00     0.022 A 
ATOM      6  C   UNL     1       1.131   2.534 -21.647  1.00  0.00     0.020 A 
ATOM      7  C   UNL     1       2.265   4.726 -22.325  1.00  0.00     0.163 C 
ATOM      8  O   UNL     1       2.869   4.837 -21.284  1.00  0.00    -0.294 OA
ATOM      9  C   UNL     1       2.288   5.974 -23.357  1.00  0.00     0.086 C 
ATOM     10  C   UNL     1       2.089   5.461 -24.896  1.00  0.00     0.013 C 
ATOM     11  C   UNL     1       0.887   4.479 -24.961  1.00  0.00    -0.003 C 
ATOM     12  C   UNL     1       1.382   3.594 -26.250  1.00  0.00     0.012 C 
ATOM     13  C   UNL     1       2.937   3.004 -25.859  1.00  0.00     0.001 C 
ATOM     14  C   UNL     1       4.125   4.134 -25.646  1.00  0.00     0.007 C 
ATOM     15  C   UNL     1       3.341   5.333 -26.234  1.00  0.00    -0.031 C 
ATOM     16  C   UNL     1       3.937   6.872 -26.490  1.00  0.00     0.011 C 
ATOM     17  C   UNL     1       3.601   4.636 -27.880  1.00  0.00     0.011 C 
ATOM     18  C   UNL     1      -0.473   5.261 -24.523  1.00  0.00     0.017 C 
ENDROOT
BRANCH   1  19
ATOM     19  C   UNL     1      -0.232   0.688 -20.659  1.00  0.00     0.017 C 
ATOM     20  C   UNL     1      -0.951   1.581 -19.665  1.00  0.00     0.012 C 
ATOM     21  C   UNL     1       1.088   0.214 -20.203  1.00  0.00     0.012 C 
ENDBRANCH   1  19
BRANCH   2  22
ATOM     22  O   UNL     1      -1.922   0.835 -23.160  1.00  0.00    -0.508 OA
ATOM     23  H   UNL     1      -2.720   1.093 -22.577  1.00  0.00     0.293 HD
ENDBRANCH   2  22
TORSDOF 2
ENDMDL
MODEL 5
REMARK VINA RESULT:    -6.556      3.316      4.345
REMARK INTER + INTRA:          -7.201
REMARK INTER:                  -6.900
REMARK INTRA:                  -0.300
REMARK UNBOUND:                -0.070
REMARK SMILES CC(C)c1cc2c(cc1O)[C@]1(C)CCCC(C)(C)[C@@H]1CC2=O
REMARK SMILES IDX 4 1 9 2 8 3 7 4 6 5 5 6 21 7 22 8 20 9 19 10 11 11 13 12
REMARK SMILES IDX 14 13 15 14 16 15 17 16 18 17 12 18 2 19 1 20 3 21 10 22
REMARK H PARENT 10 23
REMARK Flexibility Score: inf
ROOT
ATOM      1  C   UNL     1      -0.051   0.167 -20.662  1.00  0.00    -0.003 A 
ATOM      2  C   UNL     1      -1.398  -0.180 -20.919  1.00  0.00     0.119 A 
ATOM      3  C   UNL     1      -1.984   0.285 -22.121  1.00  0.00     0.051 A 
ATOM      4  C   UNL     1      -1.301   1.317 -22.897  1.00  0.00    -0.027 A 
ATOM      5  C   UNL     1      -0.109   1.911 -22.446  1.00  0.00     0.022 A 
ATOM      6  C   UNL     1       0.564   1.320 -21.333  1.00  0.00     0.020 A 
ATOM      7  C   UNL     1       0.414   3.172 -23.092  1.00  0.00     0.163 C 
ATOM      8  O   UNL     1       1.461   3.683 -22.771  1.00  0.00    -0.294 OA
ATOM      9  C   UNL     1      -0.527   3.962 -24.149  1.00  0.00     0.086 C 
ATOM     10  C   UNL     1      -1.455   2.916 -24.996  1.00  0.00     0.013 C 
ATOM     11  C   UNL     1      -2.132   1.918 -24.017  1.00  0.00    -0.003 C 
ATOM     12  C   UNL     1      -2.287   0.653 -25.047  1.00  0.00     0.012 C 
ATOM     13  C   UNL     1      -0.720   0.324 -25.643  1.00  0.00     0.001 C 
ATOM     14  C   UNL     1      -0.006   1.513 -26.544  1.00  0.00     0.007 C 
ATOM     15  C   UNL     1      -1.276   2.376 -26.742  1.00  0.00    -0.031 C 
ATOM     16  C   UNL     1      -1.400   3.746 -27.689  1.00  0.00     0.011 C 
ATOM     17  C   UNL     1      -1.873   1.144 -27.920  1.00  0.00     0.011 C 
ATOM     18  C   UNL     1      -3.109   2.736 -23.002  1.00  0.00     0.017 C 
ENDROOT
BRANCH   1  19
ATOM     19  C   UNL     1       0.632  -0.108 -19.285  1.00  0.00     0.017 C 
ATOM     20  C   UNL     1       0.885   1.174 -18.515  1.00  0.00     0.012 C 
ATOM     21  C   UNL     1       1.856  -0.806 -19.720  1.00  0.00     0.012 C 
ENDBRANCH   1  19
BRANCH   2  22
ATOM     22  O   UNL     1      -2.178  -0.963 -20.002  1.00  0.00    -0.508 OA
ATOM     23  H   UNL     1      -3.019  -0.567 -19.580  1.00  0.00     0.293 HD
ENDBRANCH   2  22
TORSDOF 2
ENDMDL
MODEL 6
REMARK VINA RESULT:    -6.513      3.098      4.632
REMARK INTER + INTRA:          -7.154
REMARK INTER:                  -6.879
REMARK INTRA:                  -0.275
REMARK UNBOUND:                -0.070
REMARK SMILES CC(C)c1cc2c(cc1O)[C@]1(C)CCCC(C)(C)[C@@H]1CC2=O
REMARK SMILES IDX 4 1 9 2 8 3 7 4 6 5 5 6 21 7 22 8 20 9 19 10 11 11 13 12
REMARK SMILES IDX 14 13 15 14 16 15 17 16 18 17 12 18 2 19 1 20 3 21 10 22
REMARK H PARENT 10 23
REMARK Flexibility Score: inf
ROOT
ATOM      1  C   UNL     1      -2.346   1.392 -21.273  1.00  0.00    -0.003 A 
ATOM      2  C   UNL     1      -1.137   0.662 -21.198  1.00  0.00     0.119 A 
ATOM      3  C   UNL     1      -0.117   0.974 -22.130  1.00  0.00     0.051 A 
ATOM      4  C   UNL     1      -0.437   1.806 -23.288  1.00  0.00    -0.027 A 
ATOM      5  C   UNL     1      -1.748   2.249 -23.538  1.00  0.00     0.022 A 
ATOM      6  C   UNL     1      -2.727   2.083 -22.512  1.00  0.00     0.020 A 
ATOM      7  C   UNL     1      -2.117   2.839 -24.879  1.00  0.00     0.163 C 
ATOM      8  O   UNL     1      -3.216   3.282 -25.115  1.00  0.00    -0.294 OA
ATOM      9  C   UNL     1      -1.056   2.741 -26.099  1.00  0.00     0.086 C 
ATOM     10  C   UNL     1       0.479   2.832 -25.545  1.00  0.00     0.013 C 
ATOM     11  C   UNL     1       0.652   1.861 -24.344  1.00  0.00    -0.003 C 
ATOM     12  C   UNL     1       1.847   2.670 -23.564  1.00  0.00     0.012 C 
ATOM     13  C   UNL     1       1.260   4.252 -23.297  1.00  0.00     0.001 C 
ATOM     14  C   UNL     1       0.947   5.162 -24.641  1.00  0.00     0.007 C 
ATOM     15  C   UNL     1       1.659   4.236 -25.656  1.00  0.00    -0.031 C 
ATOM     16  C   UNL     1       1.892   4.546 -27.280  1.00  0.00     0.011 C 
ATOM     17  C   UNL     1       3.241   4.821 -25.011  1.00  0.00     0.011 C 
ATOM     18  C   UNL     1       0.399   0.332 -24.845  1.00  0.00     0.017 C 
ENDROOT
BRANCH   1  19
ATOM     19  C   UNL     1      -3.609   0.998 -20.441  1.00  0.00     0.017 C 
ATOM     20  C   UNL     1      -4.893   1.297 -21.191  1.00  0.00     0.012 C 
ATOM     21  C   UNL     1      -3.408   1.820 -19.233  1.00  0.00     0.012 C 
ENDBRANCH   1  19
BRANCH   2  22
ATOM     22  O   UNL     1      -0.925  -0.377 -20.231  1.00  0.00    -0.508 OA
ATOM     23  H   UNL     1      -1.724  -0.852 -19.807  1.00  0.00     0.293 HD
ENDBRANCH   2  22
TORSDOF 2
ENDMDL
MODEL 7
REMARK VINA RESULT:    -6.508      3.664      6.621
REMARK INTER + INTRA:          -7.149
REMARK INTER:                  -6.847
REMARK INTRA:                  -0.302
REMARK UNBOUND:                -0.070
REMARK SMILES CC(C)c1cc2c(cc1O)[C@]1(C)CCCC(C)(C)[C@@H]1CC2=O
REMARK SMILES IDX 4 1 9 2 8 3 7 4 6 5 5 6 21 7 22 8 20 9 19 10 11 11 13 12
REMARK SMILES IDX 14 13 15 14 16 15 17 16 18 17 12 18 2 19 1 20 3 21 10 22
REMARK H PARENT 10 23
REMARK Flexibility Score: inf
ROOT
ATOM      1  C   UNL     1       1.469   4.448 -25.229  1.00  0.00    -0.003 A 
ATOM      2  C   UNL     1       0.456   5.334 -24.791  1.00  0.00     0.119 A 
ATOM      3  C   UNL     1      -0.851   4.814 -24.625  1.00  0.00     0.051 A 
ATOM      4  C   UNL     1      -1.171   3.497 -25.172  1.00  0.00    -0.027 A 
ATOM      5  C   UNL     1      -0.234   2.761 -25.919  1.00  0.00     0.022 A 
ATOM      6  C   UNL     1       1.122   3.206 -25.931  1.00  0.00     0.020 A 
ATOM      7  C   UNL     1      -0.668   1.560 -26.726  1.00  0.00     0.163 C 
ATOM      8  O   UNL     1       0.113   0.869 -27.337  1.00  0.00    -0.294 OA
ATOM      9  C   UNL     1      -2.251   1.269 -26.913  1.00  0.00     0.086 C 
ATOM     10  C   UNL     1      -3.087   1.723 -25.583  1.00  0.00     0.013 C 
ATOM     11  C   UNL     1      -2.650   3.154 -25.163  1.00  0.00    -0.003 C 
ATOM     12  C   UNL     1      -2.966   3.030 -23.559  1.00  0.00     0.012 C 
ATOM     13  C   UNL     1      -2.085   1.677 -23.000  1.00  0.00     0.001 C 
ATOM     14  C   UNL     1      -2.511   0.207 -23.626  1.00  0.00     0.007 C 
ATOM     15  C   UNL     1      -3.836   0.667 -24.281  1.00  0.00    -0.031 C 
ATOM     16  C   UNL     1      -4.955  -0.315 -25.037  1.00  0.00     0.011 C 
ATOM     17  C   UNL     1      -4.571   0.743 -22.633  1.00  0.00     0.011 C 
ATOM     18  C   UNL     1      -3.014   4.202 -26.357  1.00  0.00     0.017 C 
ENDROOT
BRANCH   1  19
ATOM     19  C   UNL     1       2.889   4.950 -25.645  1.00  0.00     0.017 C 
ATOM     20  C   UNL     1       2.873   5.618 -27.007  1.00  0.00     0.012 C 
ATOM     21  C   UNL     1       3.649   3.688 -25.598  1.00  0.00     0.012 C 
ENDBRANCH   1  19
BRANCH   2  22
ATOM     22  O   UNL     1       0.709   6.722 -24.530  1.00  0.00    -0.508 OA
ATOM     23  H   UNL     1       0.158   7.440 -25.005  1.00  0.00     0.293 HD
ENDBRANCH   2  22
TORSDOF 2
ENDMDL
MODEL 8
REMARK VINA RESULT:    -6.383      3.408      6.655
REMARK INTER + INTRA:          -7.013
REMARK INTER:                  -6.705
REMARK INTRA:                  -0.307
REMARK UNBOUND:                -0.070
REMARK SMILES CC(C)c1cc2c(cc1O)[C@]1(C)CCCC(C)(C)[C@@H]1CC2=O
REMARK SMILES IDX 4 1 9 2 8 3 7 4 6 5 5 6 21 7 22 8 20 9 19 10 11 11 13 12
REMARK SMILES IDX 14 13 15 14 16 15 17 16 18 17 12 18 2 19 1 20 3 21 10 22
REMARK H PARENT 10 23
REMARK Flexibility Score: inf
ROOT
ATOM      1  C   UNL     1       0.824   4.164 -24.823  1.00  0.00    -0.003 A 
ATOM      2  C   UNL     1       0.339   3.203 -25.741  1.00  0.00     0.119 A 
ATOM      3  C   UNL     1      -0.451   2.142 -25.234  1.00  0.00     0.051 A 
ATOM      4  C   UNL     1      -0.498   1.913 -23.791  1.00  0.00    -0.027 A 
ATOM      5  C   UNL     1       0.275   2.676 -22.898  1.00  0.00     0.022 A 
ATOM      6  C   UNL     1       0.926   3.846 -23.393  1.00  0.00     0.020 A 
ATOM      7  C   UNL     1       0.450   2.234 -21.464  1.00  0.00     0.163 C 
ATOM      8  O   UNL     1       1.060   2.889 -20.651  1.00  0.00    -0.294 OA
ATOM      9  C   UNL     1      -0.063   0.761 -21.027  1.00  0.00     0.086 C 
ATOM     10  C   UNL     1      -1.396   0.334 -21.871  1.00  0.00     0.013 C 
ATOM     11  C   UNL     1      -1.159   0.609 -23.382  1.00  0.00    -0.003 C 
ATOM     12  C   UNL     1      -2.719   0.862 -23.818  1.00  0.00     0.012 C 
ATOM     13  C   UNL     1      -3.302   2.113 -22.810  1.00  0.00     0.001 C 
ATOM     14  C   UNL     1      -3.367   1.789 -21.190  1.00  0.00     0.007 C 
ATOM     15  C   UNL     1      -3.141   0.262 -21.303  1.00  0.00    -0.031 C 
ATOM     16  C   UNL     1      -3.197  -0.839 -20.048  1.00  0.00     0.011 C 
ATOM     17  C   UNL     1      -4.833   0.103 -21.914  1.00  0.00     0.011 C 
ATOM     18  C   UNL     1       0.076  -0.312 -23.911  1.00  0.00     0.017 C 
ENDROOT
BRANCH   1  19
ATOM     19  C   UNL     1       1.869   5.251 -25.232  1.00  0.00     0.017 C 
ATOM     20  C   UNL     1       3.275   4.866 -24.811  1.00  0.00     0.012 C 
ATOM     21  C   UNL     1       1.327   6.429 -24.530  1.00  0.00     0.012 C 
ENDBRANCH   1  19
BRANCH   2  22
ATOM     22  O   UNL     1       0.634   3.263 -27.145  1.00  0.00    -0.508 OA
ATOM     23  H   UNL     1       1.247   2.564 -27.569  1.00  0.00     0.293 HD
ENDBRANCH   2  22
TORSDOF 2
ENDMDL
MODEL 9
REMARK VINA RESULT:    -6.256      2.776      5.865
REMARK INTER + INTRA:          -6.874
REMARK INTER:                  -6.991
REMARK INTRA:                   0.117
REMARK UNBOUND:                -0.070
REMARK SMILES CC(C)c1cc2c(cc1O)[C@]1(C)CCCC(C)(C)[C@@H]1CC2=O
REMARK SMILES IDX 4 1 9 2 8 3 7 4 6 5 5 6 21 7 22 8 20 9 19 10 11 11 13 12
REMARK SMILES IDX 14 13 15 14 16 15 17 16 18 17 12 18 2 19 1 20 3 21 10 22
REMARK H PARENT 10 23
REMARK Flexibility Score: inf
ROOT
ATOM      1  C   UNL     1       1.523   5.830 -24.552  1.00  0.00    -0.003 A 
ATOM      2  C   UNL     1       1.105   5.373 -25.824  1.00  0.00     0.119 A 
ATOM      3  C   UNL     1       0.270   4.231 -25.875  1.00  0.00     0.051 A 
ATOM      4  C   UNL     1       0.107   3.410 -24.676  1.00  0.00    -0.027 A 
ATOM      5  C   UNL     1       0.813   3.687 -23.492  1.00  0.00     0.022 A 
ATOM      6  C   UNL     1       1.510   4.929 -23.393  1.00  0.00     0.020 A 
ATOM      7  C   UNL     1       0.871   2.669 -22.377  1.00  0.00     0.163 C 
ATOM      8  O   UNL     1       1.420   2.889 -21.323  1.00  0.00    -0.294 OA
ATOM      9  C   UNL     1       0.314   1.172 -22.650  1.00  0.00     0.086 C 
ATOM     10  C   UNL     1      -0.951   1.201 -23.684  1.00  0.00     0.013 C 
ATOM     11  C   UNL     1      -0.594   2.084 -24.911  1.00  0.00    -0.003 C 
ATOM     12  C   UNL     1      -2.113   2.562 -25.301  1.00  0.00     0.012 C 
ATOM     13  C   UNL     1      -2.764   3.286 -23.898  1.00  0.00     0.001 C 
ATOM     14  C   UNL     1      -2.959   2.304 -22.581  1.00  0.00     0.007 C 
ATOM     15  C   UNL     1      -2.736   0.963 -23.322  1.00  0.00    -0.031 C 
ATOM     16  C   UNL     1      -2.899  -0.564 -22.667  1.00  0.00     0.011 C 
ATOM     17  C   UNL     1      -4.376   1.149 -24.056  1.00  0.00     0.011 C 
ATOM     18  C   UNL     1       0.672   1.427 -25.699  1.00  0.00     0.017 C 
ENDROOT
BRANCH   1  19
ATOM     19  C   UNL     1       2.605   6.944 -24.383  1.00  0.00     0.017 C 
ATOM     20  C   UNL     1       3.749   6.771 -25.364  1.00  0.00     0.012 C 
ATOM     21  C   UNL     1       2.982   6.748 -22.971  1.00  0.00     0.012 C 
ENDBRANCH   1  19
BRANCH   2  22
ATOM     22  O   UNL     1       1.510   6.014 -27.043  1.00  0.00    -0.508 OA
ATOM     23  H   UNL     1       1.063   6.886 -27.334  1.00  0.00     0.293 HD
ENDBRANCH   2  22
TORSDOF 2
ENDMDL
