MODEL 1
REMARK VINA RESULT:    -4.423      0.000      0.000
REMARK INTER + INTRA:         -10.476
REMARK INTER:                  -8.043
REMARK INTRA:                  -2.433
REMARK UNBOUND:                -2.433
REMARK SMILES CCCCCCCCCCCCCC[C@H](C)C(=O)[O-]
REMARK SMILES IDX 9 1 10 2 11 3 12 4 13 5 14 6 15 7 16 8 17 9 18 10 19 11 8 12
REMARK SMILES IDX 7 13 6 14 5 15 4 16 3 17 2 18 1 19
REMARK H PARENT
REMARK Flexibility Score: inf
ROOT
ATOM      1  C   UNL     1      16.667 -43.649  25.775  1.00  0.00     0.000 C 
ENDROOT
BRANCH   1   2
ATOM      2  C   UNL     1      16.391 -44.129  27.208  1.00  0.00     0.000 C 
BRANCH   2   3
ATOM      3  C   UNL     1      17.230 -45.358  27.591  1.00  0.00     0.000 C 
BRANCH   3   4
ATOM      4  C   UNL     1      17.423 -45.439  29.110  1.00  0.00     0.000 C 
BRANCH   4   5
ATOM      5  C   UNL     1      16.340 -44.634  29.845  1.00  0.00     0.001 C 
BRANCH   5   6
ATOM      6  C   UNL     1      16.652 -44.438  31.341  1.00  0.00     0.009 C 
BRANCH   6   7
ATOM      7  C   UNL     1      15.923 -43.239  31.988  1.00  0.00     0.032 C 
ATOM      8  C   UNL     1      14.964 -42.588  30.984  1.00  0.00     0.014 C 
BRANCH   7   9
ATOM      9  C   UNL     1      16.893 -42.212  32.508  1.00  0.00     0.044 C 
ATOM     10  O   UNL     1      16.788 -41.003  32.172  1.00  0.00    -0.550 OA
ATOM     11  O   UNL     1      17.919 -42.598  33.361  1.00  0.00    -0.550 OA
ENDBRANCH   7   9
ENDBRANCH   6   7
ENDBRANCH   5   6
ENDBRANCH   4   5
ENDBRANCH   3   4
ENDBRANCH   2   3
ENDBRANCH   1   2
BRANCH   1  12
ATOM     12  C   UNL     1      18.132 -43.859  25.352  1.00  0.00     0.000 C 
BRANCH  12  13
ATOM     13  C   UNL     1      18.916 -42.540  25.271  1.00  0.00    -0.000 C 
BRANCH  13  14
ATOM     14  C   UNL     1      18.001 -41.320  25.072  1.00  0.00    -0.000 C 
BRANCH  14  15
ATOM     15  C   UNL     1      18.267 -40.208  26.109  1.00  0.00    -0.000 C 
BRANCH  15  16
ATOM     16  C   UNL     1      17.663 -40.496  27.496  1.00  0.00    -0.000 C 
BRANCH  16  17
ATOM     17  C   UNL     1      18.690 -40.674  28.630  1.00  0.00    -0.000 C 
BRANCH  17  18
ATOM     18  C   UNL     1      18.877 -42.124  29.111  1.00  0.00    -0.003 C 
ATOM     19  C   UNL     1      19.868 -42.244  30.269  1.00  0.00     0.004 C 
ENDBRANCH  17  18
ENDBRANCH  16  17
ENDBRANCH  15  16
ENDBRANCH  14  15
ENDBRANCH  13  14
ENDBRANCH  12  13
ENDBRANCH   1  12
TORSDOF 14
ENDMDL
MODEL 2
REMARK VINA RESULT:    -4.417      1.440      1.992
REMARK INTER + INTRA:         -10.465
REMARK INTER:                  -8.142
REMARK INTRA:                  -2.322
REMARK UNBOUND:                -2.433
REMARK SMILES CCCCCCCCCCCCCC[C@H](C)C(=O)[O-]
REMARK SMILES IDX 9 1 10 2 11 3 12 4 13 5 14 6 15 7 16 8 17 9 18 10 19 11 8 12
REMARK SMILES IDX 7 13 6 14 5 15 4 16 3 17 2 18 1 19
REMARK H PARENT
REMARK Flexibility Score: inf
ROOT
ATOM      1  C   UNL     1      17.629 -43.779  25.736  1.00  0.00     0.000 C 
ENDROOT
BRANCH   1   2
ATOM      2  C   UNL     1      16.370 -43.399  26.532  1.00  0.00     0.000 C 
BRANCH   2   3
ATOM      3  C   UNL     1      16.068 -44.391  27.666  1.00  0.00     0.000 C 
BRANCH   3   4
ATOM      4  C   UNL     1      17.247 -45.344  27.891  1.00  0.00     0.000 C 
BRANCH   4   5
ATOM      5  C   UNL     1      17.534 -45.519  29.390  1.00  0.00     0.001 C 
BRANCH   5   6
ATOM      6  C   UNL     1      16.389 -45.005  30.283  1.00  0.00     0.009 C 
BRANCH   6   7
ATOM      7  C   UNL     1      16.846 -44.487  31.665  1.00  0.00     0.032 C 
ATOM      8  C   UNL     1      18.122 -45.208  32.112  1.00  0.00     0.014 C 
BRANCH   7   9
ATOM      9  C   UNL     1      15.772 -44.654  32.705  1.00  0.00     0.044 C 
ATOM     10  O   UNL     1      15.168 -43.651  33.171  1.00  0.00    -0.550 OA
ATOM     11  O   UNL     1      15.443 -45.924  33.164  1.00  0.00    -0.550 OA
ENDBRANCH   7   9
ENDBRANCH   6   7
ENDBRANCH   5   6
ENDBRANCH   4   5
ENDBRANCH   3   4
ENDBRANCH   2   3
ENDBRANCH   1   2
BRANCH   1  12
ATOM     12  C   UNL     1      18.547 -42.574  25.469  1.00  0.00     0.000 C 
BRANCH  12  13
ATOM     13  C   UNL     1      17.775 -41.247  25.405  1.00  0.00    -0.000 C 
BRANCH  13  14
ATOM     14  C   UNL     1      18.680 -40.025  25.638  1.00  0.00    -0.000 C 
BRANCH  14  15
ATOM     15  C   UNL     1      18.305 -39.250  26.919  1.00  0.00    -0.000 C 
BRANCH  15  16
ATOM     16  C   UNL     1      17.493 -40.080  27.931  1.00  0.00    -0.000 C 
BRANCH  16  17
ATOM     17  C   UNL     1      18.282 -40.554  29.166  1.00  0.00    -0.000 C 
BRANCH  17  18
ATOM     18  C   UNL     1      18.593 -42.061  29.195  1.00  0.00    -0.003 C 
ATOM     19  C   UNL     1      19.915 -42.383  29.891  1.00  0.00     0.004 C 
ENDBRANCH  17  18
ENDBRANCH  16  17
ENDBRANCH  15  16
ENDBRANCH  14  15
ENDBRANCH  13  14
ENDBRANCH  12  13
ENDBRANCH   1  12
TORSDOF 14
ENDMDL
MODEL 3
REMARK VINA RESULT:    -4.411      1.565      3.482
REMARK INTER + INTRA:         -10.455
REMARK INTER:                  -8.115
REMARK INTRA:                  -2.340
REMARK UNBOUND:                -2.433
REMARK SMILES CCCCCCCCCCCCCC[C@H](C)C(=O)[O-]
REMARK SMILES IDX 9 1 10 2 11 3 12 4 13 5 14 6 15 7 16 8 17 9 18 10 19 11 8 12
REMARK SMILES IDX 7 13 6 14 5 15 4 16 3 17 2 18 1 19
REMARK H PARENT
REMARK Flexibility Score: inf
ROOT
ATOM      1  C   UNL     1      18.890 -40.764  28.869  1.00  0.00     0.000 C 
ENDROOT
BRANCH   1   2
ATOM      2  C   UNL     1      18.964 -42.231  29.320  1.00  0.00     0.000 C 
BRANCH   2   3
ATOM      3  C   UNL     1      20.083 -42.477  30.345  1.00  0.00     0.000 C 
BRANCH   3   4
ATOM      4  C   UNL     1      19.744 -43.667  31.251  1.00  0.00     0.000 C 
BRANCH   4   5
ATOM      5  C   UNL     1      18.336 -43.519  31.847  1.00  0.00     0.001 C 
BRANCH   5   6
ATOM      6  C   UNL     1      17.453 -44.760  31.610  1.00  0.00     0.009 C 
BRANCH   6   7
ATOM      7  C   UNL     1      15.954 -44.442  31.410  1.00  0.00     0.032 C 
ATOM      8  C   UNL     1      15.764 -42.967  31.037  1.00  0.00     0.014 C 
BRANCH   7   9
ATOM      9  C   UNL     1      15.147 -44.768  32.638  1.00  0.00     0.044 C 
ATOM     10  O   UNL     1      14.327 -43.933  33.105  1.00  0.00    -0.550 OA
ATOM     11  O   UNL     1      15.308 -45.995  33.267  1.00  0.00    -0.550 OA
ENDBRANCH   7   9
ENDBRANCH   6   7
ENDBRANCH   5   6
ENDBRANCH   4   5
ENDBRANCH   3   4
ENDBRANCH   2   3
ENDBRANCH   1   2
BRANCH   1  12
ATOM     12  C   UNL     1      17.804 -40.526  27.804  1.00  0.00     0.000 C 
BRANCH  12  13
ATOM     13  C   UNL     1      18.395 -40.190  26.426  1.00  0.00    -0.000 C 
BRANCH  13  14
ATOM     14  C   UNL     1      18.061 -41.254  25.366  1.00  0.00    -0.000 C 
BRANCH  14  15
ATOM     15  C   UNL     1      18.917 -42.529  25.520  1.00  0.00    -0.000 C 
BRANCH  15  16
ATOM     16  C   UNL     1      18.090 -43.825  25.613  1.00  0.00    -0.000 C 
BRANCH  16  17
ATOM     17  C   UNL     1      16.636 -43.638  26.082  1.00  0.00    -0.000 C 
BRANCH  17  18
ATOM     18  C   UNL     1      16.352 -44.121  27.516  1.00  0.00    -0.003 C 
ATOM     19  C   UNL     1      17.228 -45.303  27.930  1.00  0.00     0.004 C 
ENDBRANCH  17  18
ENDBRANCH  16  17
ENDBRANCH  15  16
ENDBRANCH  14  15
ENDBRANCH  13  14
ENDBRANCH  12  13
ENDBRANCH   1  12
TORSDOF 14
ENDMDL
MODEL 4
REMARK VINA RESULT:    -4.357      2.469      5.846
REMARK INTER + INTRA:         -10.355
REMARK INTER:                  -8.315
REMARK INTRA:                  -2.040
REMARK UNBOUND:                -2.433
REMARK SMILES CCCCCCCCCCCCCC[C@H](C)C(=O)[O-]
REMARK SMILES IDX 9 1 10 2 11 3 12 4 13 5 14 6 15 7 16 8 17 9 18 10 19 11 8 12
REMARK SMILES IDX 7 13 6 14 5 15 4 16 3 17 2 18 1 19
REMARK H PARENT
REMARK Flexibility Score: inf
ROOT
ATOM      1  C   UNL     1      15.056 -45.042  29.306  1.00  0.00     0.000 C 
ENDROOT
BRANCH   1   2
ATOM      2  C   UNL     1      16.105 -43.919  29.348  1.00  0.00     0.000 C 
BRANCH   2   3
ATOM      3  C   UNL     1      17.390 -44.284  28.589  1.00  0.00     0.000 C 
BRANCH   3   4
ATOM      4  C   UNL     1      17.103 -45.308  27.484  1.00  0.00     0.000 C 
BRANCH   4   5
ATOM      5  C   UNL     1      17.465 -44.740  26.103  1.00  0.00     0.001 C 
BRANCH   5   6
ATOM      6  C   UNL     1      16.628 -43.503  25.726  1.00  0.00     0.009 C 
BRANCH   6   7
ATOM      7  C   UNL     1      17.465 -42.243  25.411  1.00  0.00     0.032 C 
ATOM      8  C   UNL     1      18.952 -42.601  25.303  1.00  0.00     0.014 C 
BRANCH   7   9
ATOM      9  C   UNL     1      17.271 -41.172  26.450  1.00  0.00     0.044 C 
ATOM     10  O   UNL     1      16.210 -41.120  27.127  1.00  0.00    -0.550 OA
ATOM     11  O   UNL     1      18.266 -40.226  26.663  1.00  0.00    -0.550 OA
ENDBRANCH   7   9
ENDBRANCH   6   7
ENDBRANCH   5   6
ENDBRANCH   4   5
ENDBRANCH   3   4
ENDBRANCH   2   3
ENDBRANCH   1   2
BRANCH   1  12
ATOM     12  C   UNL     1      13.829 -44.739  30.184  1.00  0.00     0.000 C 
BRANCH  12  13
ATOM     13  C   UNL     1      13.897 -43.347  30.831  1.00  0.00    -0.000 C 
BRANCH  13  14
ATOM     14  C   UNL     1      13.673 -43.393  32.353  1.00  0.00    -0.000 C 
BRANCH  14  15
ATOM     15  C   UNL     1      14.892 -43.963  33.110  1.00  0.00    -0.000 C 
BRANCH  15  16
ATOM     16  C   UNL     1      16.083 -42.990  33.192  1.00  0.00    -0.000 C 
BRANCH  16  17
ATOM     17  C   UNL     1      17.453 -43.606  32.854  1.00  0.00    -0.000 C 
BRANCH  17  18
ATOM     18  C   UNL     1      17.425 -45.114  32.548  1.00  0.00    -0.003 C 
ATOM     19  C   UNL     1      18.541 -45.885  33.254  1.00  0.00     0.004 C 
ENDBRANCH  17  18
ENDBRANCH  16  17
ENDBRANCH  15  16
ENDBRANCH  14  15
ENDBRANCH  13  14
ENDBRANCH  12  13
ENDBRANCH   1  12
TORSDOF 14
ENDMDL
MODEL 5
REMARK VINA RESULT:    -4.326      1.097      1.673
REMARK INTER + INTRA:         -10.300
REMARK INTER:                  -7.885
REMARK INTRA:                  -2.416
REMARK UNBOUND:                -2.433
REMARK SMILES CCCCCCCCCCCCCC[C@H](C)C(=O)[O-]
REMARK SMILES IDX 9 1 10 2 11 3 12 4 13 5 14 6 15 7 16 8 17 9 18 10 19 11 8 12
REMARK SMILES IDX 7 13 6 14 5 15 4 16 3 17 2 18 1 19
REMARK H PARENT
REMARK Flexibility Score: inf
ROOT
ATOM      1  C   UNL     1      16.706 -43.659  25.755  1.00  0.00     0.000 C 
ENDROOT
BRANCH   1   2
ATOM      2  C   UNL     1      16.129 -43.885  27.161  1.00  0.00     0.000 C 
BRANCH   2   3
ATOM      3  C   UNL     1      16.773 -45.082  27.878  1.00  0.00     0.000 C 
BRANCH   3   4
ATOM      4  C   UNL     1      16.517 -45.021  29.388  1.00  0.00     0.000 C 
BRANCH   4   5
ATOM      5  C   UNL     1      17.838 -45.060  30.171  1.00  0.00     0.001 C 
BRANCH   5   6
ATOM      6  C   UNL     1      17.653 -44.762  31.672  1.00  0.00     0.009 C 
BRANCH   6   7
ATOM      7  C   UNL     1      17.903 -43.288  32.061  1.00  0.00     0.032 C 
ATOM      8  C   UNL     1      19.173 -43.165  32.910  1.00  0.00     0.014 C 
BRANCH   7   9
ATOM      9  C   UNL     1      16.732 -42.702  32.803  1.00  0.00     0.044 C 
ATOM     10  O   UNL     1      15.820 -43.447  33.251  1.00  0.00    -0.550 OA
ATOM     11  O   UNL     1      16.650 -41.329  32.994  1.00  0.00    -0.550 OA
ENDBRANCH   7   9
ENDBRANCH   6   7
ENDBRANCH   5   6
ENDBRANCH   4   5
ENDBRANCH   3   4
ENDBRANCH   2   3
ENDBRANCH   1   2
BRANCH   1  12
ATOM     12  C   UNL     1      18.243 -43.580  25.750  1.00  0.00     0.000 C 
BRANCH  12  13
ATOM     13  C   UNL     1      18.766 -42.332  25.023  1.00  0.00    -0.000 C 
BRANCH  13  14
ATOM     14  C   UNL     1      17.830 -41.121  25.180  1.00  0.00    -0.000 C 
BRANCH  14  15
ATOM     15  C   UNL     1      18.577 -39.858  25.660  1.00  0.00    -0.000 C 
BRANCH  15  16
ATOM     16  C   UNL     1      18.406 -39.570  27.163  1.00  0.00    -0.000 C 
BRANCH  16  17
ATOM     17  C   UNL     1      17.248 -40.324  27.844  1.00  0.00    -0.000 C 
BRANCH  17  18
ATOM     18  C   UNL     1      17.657 -41.172  29.062  1.00  0.00    -0.003 C 
ATOM     19  C   UNL     1      19.028 -41.827  28.897  1.00  0.00     0.004 C 
ENDBRANCH  17  18
ENDBRANCH  16  17
ENDBRANCH  15  16
ENDBRANCH  14  15
ENDBRANCH  13  14
ENDBRANCH  12  13
ENDBRANCH   1  12
TORSDOF 14
ENDMDL
MODEL 6
REMARK VINA RESULT:    -4.314      1.619      4.611
REMARK INTER + INTRA:         -10.279
REMARK INTER:                  -7.931
REMARK INTRA:                  -2.348
REMARK UNBOUND:                -2.433
REMARK SMILES CCCCCCCCCCCCCC[C@H](C)C(=O)[O-]
REMARK SMILES IDX 9 1 10 2 11 3 12 4 13 5 14 6 15 7 16 8 17 9 18 10 19 11 8 12
REMARK SMILES IDX 7 13 6 14 5 15 4 16 3 17 2 18 1 19
REMARK H PARENT
REMARK Flexibility Score: inf
ROOT
ATOM      1  C   UNL     1      16.689 -43.677  25.762  1.00  0.00     0.000 C 
ENDROOT
BRANCH   1   2
ATOM      2  C   UNL     1      18.166 -43.845  25.372  1.00  0.00     0.000 C 
BRANCH   2   3
ATOM      3  C   UNL     1      18.947 -42.524  25.439  1.00  0.00     0.000 C 
BRANCH   3   4
ATOM      4  C   UNL     1      18.217 -41.415  24.672  1.00  0.00     0.000 C 
BRANCH   4   5
ATOM      5  C   UNL     1      17.872 -40.240  25.600  1.00  0.00     0.001 C 
BRANCH   5   6
ATOM      6  C   UNL     1      18.509 -40.374  26.997  1.00  0.00     0.009 C 
BRANCH   6   7
ATOM      7  C   UNL     1      17.500 -40.683  28.126  1.00  0.00     0.032 C 
ATOM      8  C   UNL     1      16.136 -40.058  27.812  1.00  0.00     0.014 C 
BRANCH   7   9
ATOM      9  C   UNL     1      17.992 -40.192  29.461  1.00  0.00     0.044 C 
ATOM     10  O   UNL     1      17.370 -39.288  30.081  1.00  0.00    -0.550 OA
ATOM     11  O   UNL     1      19.145 -40.734  30.016  1.00  0.00    -0.550 OA
ENDBRANCH   7   9
ENDBRANCH   6   7
ENDBRANCH   5   6
ENDBRANCH   4   5
ENDBRANCH   3   4
ENDBRANCH   2   3
ENDBRANCH   1   2
BRANCH   1  12
ATOM     12  C   UNL     1      16.420 -44.043  27.233  1.00  0.00     0.000 C 
BRANCH  12  13
ATOM     13  C   UNL     1      16.995 -45.416  27.614  1.00  0.00    -0.000 C 
BRANCH  13  14
ATOM     14  C   UNL     1      17.584 -45.436  29.035  1.00  0.00    -0.000 C 
BRANCH  14  15
ATOM     15  C   UNL     1      17.882 -44.018  29.569  1.00  0.00    -0.000 C 
BRANCH  15  16
ATOM     16  C   UNL     1      17.174 -43.694  30.898  1.00  0.00    -0.000 C 
BRANCH  16  17
ATOM     17  C   UNL     1      15.705 -43.249  30.762  1.00  0.00    -0.000 C 
BRANCH  17  18
ATOM     18  C   UNL     1      14.674 -44.250  31.313  1.00  0.00    -0.003 C 
ATOM     19  C   UNL     1      15.309 -45.356  32.155  1.00  0.00     0.004 C 
ENDBRANCH  17  18
ENDBRANCH  16  17
ENDBRANCH  15  16
ENDBRANCH  14  15
ENDBRANCH  13  14
ENDBRANCH  12  13
ENDBRANCH   1  12
TORSDOF 14
ENDMDL
MODEL 7
REMARK VINA RESULT:    -4.267      1.471      2.482
REMARK INTER + INTRA:         -10.193
REMARK INTER:                  -7.947
REMARK INTRA:                  -2.246
REMARK UNBOUND:                -2.433
REMARK SMILES CCCCCCCCCCCCCC[C@H](C)C(=O)[O-]
REMARK SMILES IDX 9 1 10 2 11 3 12 4 13 5 14 6 15 7 16 8 17 9 18 10 19 11 8 12
REMARK SMILES IDX 7 13 6 14 5 15 4 16 3 17 2 18 1 19
REMARK H PARENT
REMARK Flexibility Score: inf
ROOT
ATOM      1  C   UNL     1      18.427 -41.937  26.013  1.00  0.00     0.000 C 
ENDROOT
BRANCH   1   2
ATOM      2  C   UNL     1      18.644 -43.285  25.308  1.00  0.00     0.000 C 
BRANCH   2   3
ATOM      3  C   UNL     1      17.619 -44.347  25.736  1.00  0.00     0.000 C 
BRANCH   3   4
ATOM      4  C   UNL     1      16.977 -43.980  27.080  1.00  0.00     0.000 C 
BRANCH   4   5
ATOM      5  C   UNL     1      17.004 -45.174  28.045  1.00  0.00     0.001 C 
BRANCH   5   6
ATOM      6  C   UNL     1      17.844 -44.904  29.309  1.00  0.00     0.009 C 
BRANCH   6   7
ATOM      7  C   UNL     1      17.073 -45.089  30.634  1.00  0.00     0.032 C 
ATOM      8  C   UNL     1      15.746 -44.322  30.594  1.00  0.00     0.014 C 
BRANCH   7   9
ATOM      9  C   UNL     1      17.886 -44.642  31.819  1.00  0.00     0.044 C 
ATOM     10  O   UNL     1      17.328 -44.113  32.817  1.00  0.00    -0.550 OA
ATOM     11  O   UNL     1      19.265 -44.808  31.814  1.00  0.00    -0.550 OA
ENDBRANCH   7   9
ENDBRANCH   6   7
ENDBRANCH   5   6
ENDBRANCH   4   5
ENDBRANCH   3   4
ENDBRANCH   2   3
ENDBRANCH   1   2
BRANCH   1  12
ATOM     12  C   UNL     1      18.104 -40.799  25.029  1.00  0.00     0.000 C 
BRANCH  12  13
ATOM     13  C   UNL     1      18.498 -39.418  25.575  1.00  0.00    -0.000 C 
BRANCH  13  14
ATOM     14  C   UNL     1      18.532 -39.380  27.113  1.00  0.00    -0.000 C 
BRANCH  14  15
ATOM     15  C   UNL     1      17.218 -38.841  27.719  1.00  0.00    -0.000 C 
BRANCH  15  16
ATOM     16  C   UNL     1      16.880 -39.436  29.098  1.00  0.00    -0.000 C 
BRANCH  16  17
ATOM     17  C   UNL     1      17.186 -40.938  29.253  1.00  0.00    -0.000 C 
BRANCH  17  18
ATOM     18  C   UNL     1      18.195 -41.280  30.364  1.00  0.00    -0.003 C 
ATOM     19  C   UNL     1      19.554 -41.719  29.820  1.00  0.00     0.004 C 
ENDBRANCH  17  18
ENDBRANCH  16  17
ENDBRANCH  15  16
ENDBRANCH  14  15
ENDBRANCH  13  14
ENDBRANCH  12  13
ENDBRANCH   1  12
TORSDOF 14
ENDMDL
MODEL 8
REMARK VINA RESULT:    -4.255      1.586      2.619
REMARK INTER + INTRA:         -10.170
REMARK INTER:                  -7.754
REMARK INTRA:                  -2.416
REMARK UNBOUND:                -2.433
REMARK SMILES CCCCCCCCCCCCCC[C@H](C)C(=O)[O-]
REMARK SMILES IDX 9 1 10 2 11 3 12 4 13 5 14 6 15 7 16 8 17 9 18 10 19 11 8 12
REMARK SMILES IDX 7 13 6 14 5 15 4 16 3 17 2 18 1 19
REMARK H PARENT
REMARK Flexibility Score: inf
ROOT
ATOM      1  C   UNL     1      16.853 -43.384  26.391  1.00  0.00     0.000 C 
ENDROOT
BRANCH   1   2
ATOM      2  C   UNL     1      15.597 -42.831  25.700  1.00  0.00     0.000 C 
BRANCH   2   3
ATOM      3  C   UNL     1      14.330 -43.003  26.552  1.00  0.00     0.000 C 
BRANCH   3   4
ATOM      4  C   UNL     1      14.689 -43.274  28.018  1.00  0.00     0.000 C 
BRANCH   4   5
ATOM      5  C   UNL     1      14.008 -44.556  28.522  1.00  0.00     0.001 C 
BRANCH   5   6
ATOM      6  C   UNL     1      14.920 -45.399  29.435  1.00  0.00     0.009 C 
BRANCH   6   7
ATOM      7  C   UNL     1      16.274 -44.731  29.768  1.00  0.00     0.032 C 
ATOM      8  C   UNL     1      17.434 -45.570  29.220  1.00  0.00     0.014 C 
BRANCH   7   9
ATOM      9  C   UNL     1      16.444 -44.528  31.250  1.00  0.00     0.044 C 
ATOM     10  O   UNL     1      17.384 -45.094  31.870  1.00  0.00    -0.550 OA
ATOM     11  O   UNL     1      15.556 -43.716  31.944  1.00  0.00    -0.550 OA
ENDBRANCH   7   9
ENDBRANCH   6   7
ENDBRANCH   5   6
ENDBRANCH   4   5
ENDBRANCH   3   4
ENDBRANCH   2   3
ENDBRANCH   1   2
BRANCH   1  12
ATOM     12  C   UNL     1      18.008 -43.638  25.407  1.00  0.00     0.000 C 
BRANCH  12  13
ATOM     13  C   UNL     1      18.978 -42.449  25.316  1.00  0.00    -0.000 C 
BRANCH  13  14
ATOM     14  C   UNL     1      18.582 -41.447  24.217  1.00  0.00    -0.000 C 
BRANCH  14  15
ATOM     15  C   UNL     1      18.230 -40.057  24.788  1.00  0.00    -0.000 C 
BRANCH  15  16
ATOM     16  C   UNL     1      18.422 -39.944  26.312  1.00  0.00    -0.000 C 
BRANCH  16  17
ATOM     17  C   UNL     1      17.127 -39.725  27.117  1.00  0.00    -0.000 C 
BRANCH  17  18
ATOM     18  C   UNL     1      17.220 -40.105  28.606  1.00  0.00    -0.003 C 
ATOM     19  C   UNL     1      18.283 -41.168  28.883  1.00  0.00     0.004 C 
ENDBRANCH  17  18
ENDBRANCH  16  17
ENDBRANCH  15  16
ENDBRANCH  14  15
ENDBRANCH  13  14
ENDBRANCH  12  13
ENDBRANCH   1  12
TORSDOF 14
ENDMDL
MODEL 9
REMARK VINA RESULT:    -4.218      2.185      5.586
REMARK INTER + INTRA:         -10.104
REMARK INTER:                  -7.670
REMARK INTRA:                  -2.433
REMARK UNBOUND:                -2.433
REMARK SMILES CCCCCCCCCCCCCC[C@H](C)C(=O)[O-]
REMARK SMILES IDX 9 1 10 2 11 3 12 4 13 5 14 6 15 7 16 8 17 9 18 10 19 11 8 12
REMARK SMILES IDX 7 13 6 14 5 15 4 16 3 17 2 18 1 19
REMARK H PARENT
REMARK Flexibility Score: inf
ROOT
ATOM      1  C   UNL     1      18.141 -44.266  29.748  1.00  0.00     0.000 C 
ENDROOT
BRANCH   1   2
ATOM      2  C   UNL     1      17.452 -45.533  29.218  1.00  0.00     0.000 C 
BRANCH   2   3
ATOM      3  C   UNL     1      16.109 -45.233  28.534  1.00  0.00     0.000 C 
BRANCH   3   4
ATOM      4  C   UNL     1      15.835 -43.725  28.504  1.00  0.00     0.000 C 
BRANCH   4   5
ATOM      5  C   UNL     1      15.668 -43.226  27.060  1.00  0.00     0.001 C 
BRANCH   5   6
ATOM      6  C   UNL     1      16.909 -43.493  26.187  1.00  0.00     0.009 C 
BRANCH   6   7
ATOM      7  C   UNL     1      17.611 -42.215  25.676  1.00  0.00     0.032 C 
ATOM      8  C   UNL     1      18.972 -42.560  25.060  1.00  0.00     0.014 C 
BRANCH   7   9
ATOM      9  C   UNL     1      17.788 -41.200  26.774  1.00  0.00     0.044 C 
ATOM     10  O   UNL     1      18.573 -41.426  27.733  1.00  0.00    -0.550 OA
ATOM     11  O   UNL     1      17.079 -40.007  26.735  1.00  0.00    -0.550 OA
ENDBRANCH   7   9
ENDBRANCH   6   7
ENDBRANCH   5   6
ENDBRANCH   4   5
ENDBRANCH   3   4
ENDBRANCH   2   3
ENDBRANCH   1   2
BRANCH   1  12
ATOM     12  C   UNL     1      18.682 -44.441  31.178  1.00  0.00     0.000 C 
BRANCH  12  13
ATOM     13  C   UNL     1      18.808 -43.105  31.927  1.00  0.00    -0.000 C 
BRANCH  13  14
ATOM     14  C   UNL     1      17.656 -42.136  31.605  1.00  0.00    -0.000 C 
BRANCH  14  15
ATOM     15  C   UNL     1      16.802 -41.804  32.847  1.00  0.00    -0.000 C 
BRANCH  15  16
ATOM     16  C   UNL     1      15.812 -42.919  33.236  1.00  0.00    -0.000 C 
BRANCH  16  17
ATOM     17  C   UNL     1      14.936 -43.444  32.084  1.00  0.00    -0.000 C 
BRANCH  17  18
ATOM     18  C   UNL     1      14.860 -44.978  31.978  1.00  0.00    -0.003 C 
ATOM     19  C   UNL     1      15.738 -45.690  33.006  1.00  0.00     0.004 C 
ENDBRANCH  17  18
ENDBRANCH  16  17
ENDBRANCH  15  16
ENDBRANCH  14  15
ENDBRANCH  13  14
ENDBRANCH  12  13
ENDBRANCH   1  12
TORSDOF 14
ENDMDL
