MODEL 1
REMARK VINA RESULT:    -4.406      0.000      0.000
REMARK INTER + INTRA:          -7.914
REMARK INTER:                  -6.724
REMARK INTRA:                  -1.190
REMARK UNBOUND:                -1.190
REMARK SMILES CCCCCCCCCCC(=O)[O-]
REMARK SMILES IDX 7 1 8 2 9 3 10 4 11 5 12 6 13 7 6 8 5 9 4 10 3 11 2 12 1 13
REMARK H PARENT
REMARK Flexibility Score: inf
ROOT
ATOM      1  C   UNL     1       0.582  56.493  17.173  1.00  0.00     0.000 C 
ENDROOT
BRANCH   1   2
ATOM      2  C   UNL     1       1.502  57.433  17.963  1.00  0.00     0.000 C 
BRANCH   2   3
ATOM      3  C   UNL     1       2.932  56.880  18.027  1.00  0.00     0.006 C 
BRANCH   3   4
ATOM      4  C   UNL     1       3.131  55.676  17.096  1.00  0.00     0.053 C 
BRANCH   4   5
ATOM      5  C   UNL     1       4.422  55.761  16.342  1.00  0.00     0.041 C 
ATOM      6  O   UNL     1       4.723  54.876  15.499  1.00  0.00    -0.550 OA
ATOM      7  O   UNL     1       5.308  56.801  16.595  1.00  0.00    -0.550 OA
ENDBRANCH   4   5
ENDBRANCH   3   4
ENDBRANCH   2   3
ENDBRANCH   1   2
BRANCH   1   8
ATOM      8  C   UNL     1      -0.741  56.266  17.917  1.00  0.00     0.000 C 
BRANCH   8   9
ATOM      9  C   UNL     1      -0.567  56.264  19.444  1.00  0.00    -0.000 C 
BRANCH   9  10
ATOM     10  C   UNL     1      -0.395  54.846  20.018  1.00  0.00    -0.000 C 
BRANCH  10  11
ATOM     11  C   UNL     1       1.019  54.600  20.567  1.00  0.00    -0.000 C 
BRANCH  11  12
ATOM     12  C   UNL     1       1.756  53.478  19.820  1.00  0.00    -0.003 C 
ATOM     13  C   UNL     1       3.247  53.492  20.141  1.00  0.00     0.004 C 
ENDBRANCH  11  12
ENDBRANCH  10  11
ENDBRANCH   9  10
ENDBRANCH   8   9
ENDBRANCH   1   8
TORSDOF 9
ENDMDL
MODEL 2
REMARK VINA RESULT:    -4.318      0.939      1.610
REMARK INTER + INTRA:          -7.781
REMARK INTER:                  -6.507
REMARK INTRA:                  -1.273
REMARK UNBOUND:                -1.190
REMARK SMILES CCCCCCCCCCC(=O)[O-]
REMARK SMILES IDX 7 1 8 2 9 3 10 4 11 5 12 6 13 7 6 8 5 9 4 10 3 11 2 12 1 13
REMARK H PARENT
REMARK Flexibility Score: inf
ROOT
ATOM      1  C   UNL     1      -0.145  55.385  18.111  1.00  0.00     0.000 C 
ENDROOT
BRANCH   1   2
ATOM      2  C   UNL     1       0.663  56.464  17.378  1.00  0.00     0.000 C 
BRANCH   2   3
ATOM      3  C   UNL     1       1.874  55.852  16.660  1.00  0.00     0.006 C 
BRANCH   3   4
ATOM      4  C   UNL     1       3.195  56.172  17.374  1.00  0.00     0.053 C 
BRANCH   4   5
ATOM      5  C   UNL     1       4.382  55.853  16.518  1.00  0.00     0.041 C 
ATOM      6  O   UNL     1       4.347  54.875  15.726  1.00  0.00    -0.550 OA
ATOM      7  O   UNL     1       5.539  56.614  16.621  1.00  0.00    -0.550 OA
ENDBRANCH   4   5
ENDBRANCH   3   4
ENDBRANCH   2   3
ENDBRANCH   1   2
BRANCH   1   8
ATOM      8  C   UNL     1      -0.275  55.715  19.605  1.00  0.00     0.000 C 
BRANCH   8   9
ATOM      9  C   UNL     1       0.479  54.717  20.498  1.00  0.00    -0.000 C 
BRANCH   9  10
ATOM     10  C   UNL     1       1.977  55.045  20.618  1.00  0.00    -0.000 C 
BRANCH  10  11
ATOM     11  C   UNL     1       2.874  53.882  20.166  1.00  0.00    -0.000 C 
BRANCH  11  12
ATOM     12  C   UNL     1       2.084  52.757  19.481  1.00  0.00    -0.003 C 
ATOM     13  C   UNL     1       2.711  52.382  18.143  1.00  0.00     0.004 C 
ENDBRANCH  11  12
ENDBRANCH  10  11
ENDBRANCH   9  10
ENDBRANCH   8   9
ENDBRANCH   1   8
TORSDOF 9
ENDMDL
MODEL 3
REMARK VINA RESULT:    -4.265      4.056      5.300
REMARK INTER + INTRA:          -7.700
REMARK INTER:                  -6.822
REMARK INTRA:                  -0.878
REMARK UNBOUND:                -1.190
REMARK SMILES CCCCCCCCCCC(=O)[O-]
REMARK SMILES IDX 7 1 8 2 9 3 10 4 11 5 12 6 13 7 6 8 5 9 4 10 3 11 2 12 1 13
REMARK H PARENT
REMARK Flexibility Score: inf
ROOT
ATOM      1  C   UNL     1       0.775  56.593  16.892  1.00  0.00     0.000 C 
ENDROOT
BRANCH   1   2
ATOM      2  C   UNL     1      -0.714  56.951  16.987  1.00  0.00     0.000 C 
BRANCH   2   3
ATOM      3  C   UNL     1      -1.413  56.117  18.070  1.00  0.00     0.006 C 
BRANCH   3   4
ATOM      4  C   UNL     1      -2.884  55.842  17.731  1.00  0.00     0.053 C 
BRANCH   4   5
ATOM      5  C   UNL     1      -3.789  56.905  18.275  1.00  0.00     0.041 C 
ATOM      6  O   UNL     1      -4.387  56.728  19.368  1.00  0.00    -0.550 OA
ATOM      7  O   UNL     1      -3.997  58.075  17.557  1.00  0.00    -0.550 OA
ENDBRANCH   4   5
ENDBRANCH   3   4
ENDBRANCH   2   3
ENDBRANCH   1   2
BRANCH   1   8
ATOM      8  C   UNL     1       1.581  57.296  17.993  1.00  0.00     0.000 C 
BRANCH   8   9
ATOM      9  C   UNL     1       2.560  56.348  18.705  1.00  0.00    -0.000 C 
BRANCH   9  10
ATOM     10  C   UNL     1       1.975  55.757  20.000  1.00  0.00    -0.000 C 
BRANCH  10  11
ATOM     11  C   UNL     1       2.009  54.221  20.016  1.00  0.00    -0.000 C 
BRANCH  11  12
ATOM     12  C   UNL     1       0.614  53.597  19.865  1.00  0.00    -0.003 C 
ATOM     13  C   UNL     1      -0.350  54.146  20.912  1.00  0.00     0.004 C 
ENDBRANCH  11  12
ENDBRANCH  10  11
ENDBRANCH   9  10
ENDBRANCH   8   9
ENDBRANCH   1   8
TORSDOF 9
ENDMDL
MODEL 4
REMARK VINA RESULT:    -4.238      3.024      4.990
REMARK INTER + INTRA:          -7.658
REMARK INTER:                  -6.462
REMARK INTRA:                  -1.196
REMARK UNBOUND:                -1.190
REMARK SMILES CCCCCCCCCCC(=O)[O-]
REMARK SMILES IDX 7 1 8 2 9 3 10 4 11 5 12 6 13 7 6 8 5 9 4 10 3 11 2 12 1 13
REMARK H PARENT
REMARK Flexibility Score: inf
ROOT
ATOM      1  C   UNL     1       2.210  52.702  18.733  1.00  0.00     0.000 C 
ENDROOT
BRANCH   1   2
ATOM      2  C   UNL     1       3.243  53.533  19.505  1.00  0.00     0.000 C 
BRANCH   2   3
ATOM      3  C   UNL     1       2.601  54.221  20.718  1.00  0.00     0.006 C 
BRANCH   3   4
ATOM      4  C   UNL     1       1.878  55.519  20.335  1.00  0.00     0.053 C 
BRANCH   4   5
ATOM      5  C   UNL     1       0.390  55.345  20.316  1.00  0.00     0.041 C 
ATOM      6  O   UNL     1      -0.143  54.390  20.940  1.00  0.00    -0.550 OA
ATOM      7  O   UNL     1      -0.404  56.216  19.581  1.00  0.00    -0.550 OA
ENDBRANCH   4   5
ENDBRANCH   3   4
ENDBRANCH   2   3
ENDBRANCH   1   2
BRANCH   1   8
ATOM      8  C   UNL     1       2.242  53.038  17.235  1.00  0.00     0.000 C 
BRANCH   8   9
ATOM      9  C   UNL     1       1.525  54.359  16.912  1.00  0.00    -0.000 C 
BRANCH   9  10
ATOM     10  C   UNL     1       2.407  55.327  16.103  1.00  0.00    -0.000 C 
BRANCH  10  11
ATOM     11  C   UNL     1       3.889  54.922  16.110  1.00  0.00    -0.000 C 
BRANCH  11  12
ATOM     12  C   UNL     1       4.811  56.065  16.560  1.00  0.00    -0.003 C 
ATOM     13  C   UNL     1       4.272  56.745  17.814  1.00  0.00     0.004 C 
ENDBRANCH  11  12
ENDBRANCH  10  11
ENDBRANCH   9  10
ENDBRANCH   8   9
ENDBRANCH   1   8
TORSDOF 9
ENDMDL
MODEL 5
REMARK VINA RESULT:    -4.174      3.705      5.658
REMARK INTER + INTRA:          -7.561
REMARK INTER:                  -6.370
REMARK INTRA:                  -1.191
REMARK UNBOUND:                -1.190
REMARK SMILES CCCCCCCCCCC(=O)[O-]
REMARK SMILES IDX 7 1 8 2 9 3 10 4 11 5 12 6 13 7 6 8 5 9 4 10 3 11 2 12 1 13
REMARK H PARENT
REMARK Flexibility Score: inf
ROOT
ATOM      1  C   UNL     1       2.673  53.807  20.146  1.00  0.00     0.000 C 
ENDROOT
BRANCH   1   2
ATOM      2  C   UNL     1       1.809  54.982  20.622  1.00  0.00     0.000 C 
BRANCH   2   3
ATOM      3  C   UNL     1       0.380  54.521  20.942  1.00  0.00     0.006 C 
BRANCH   3   4
ATOM      4  C   UNL     1      -0.640  55.040  19.919  1.00  0.00     0.053 C 
BRANCH   4   5
ATOM      5  C   UNL     1      -2.020  54.529  20.200  1.00  0.00     0.041 C 
ATOM      6  O   UNL     1      -2.198  53.626  21.058  1.00  0.00    -0.550 OA
ATOM      7  O   UNL     1      -3.104  55.026  19.487  1.00  0.00    -0.550 OA
ENDBRANCH   4   5
ENDBRANCH   3   4
ENDBRANCH   2   3
ENDBRANCH   1   2
BRANCH   1   8
ATOM      8  C   UNL     1       3.338  54.124  18.799  1.00  0.00     0.000 C 
BRANCH   8   9
ATOM      9  C   UNL     1       2.710  53.343  17.633  1.00  0.00    -0.000 C 
BRANCH   9  10
ATOM     10  C   UNL     1       1.498  54.067  17.022  1.00  0.00    -0.000 C 
BRANCH  10  11
ATOM     11  C   UNL     1       1.857  55.450  16.460  1.00  0.00    -0.000 C 
BRANCH  11  12
ATOM     12  C   UNL     1       0.858  56.538  16.882  1.00  0.00    -0.003 C 
ATOM     13  C   UNL     1       1.474  57.478  17.914  1.00  0.00     0.004 C 
ENDBRANCH  11  12
ENDBRANCH  10  11
ENDBRANCH   9  10
ENDBRANCH   8   9
ENDBRANCH   1   8
TORSDOF 9
ENDMDL
MODEL 6
REMARK VINA RESULT:    -4.169      3.999      5.612
REMARK INTER + INTRA:          -7.553
REMARK INTER:                  -6.196
REMARK INTRA:                  -1.356
REMARK UNBOUND:                -1.190
REMARK SMILES CCCCCCCCCCC(=O)[O-]
REMARK SMILES IDX 7 1 8 2 9 3 10 4 11 5 12 6 13 7 6 8 5 9 4 10 3 11 2 12 1 13
REMARK H PARENT
REMARK Flexibility Score: inf
ROOT
ATOM      1  C   UNL     1      -0.405  53.544  19.670  1.00  0.00     0.000 C 
ENDROOT
BRANCH   1   2
ATOM      2  C   UNL     1      -1.521  54.112  18.784  1.00  0.00     0.000 C 
BRANCH   2   3
ATOM      3  C   UNL     1      -1.735  55.608  19.060  1.00  0.00     0.006 C 
BRANCH   3   4
ATOM      4  C   UNL     1      -2.139  56.379  17.796  1.00  0.00     0.053 C 
BRANCH   4   5
ATOM      5  C   UNL     1      -3.489  57.013  17.938  1.00  0.00     0.041 C 
ATOM      6  O   UNL     1      -3.804  57.998  17.221  1.00  0.00    -0.550 OA
ATOM      7  O   UNL     1      -4.385  56.536  18.887  1.00  0.00    -0.550 OA
ENDBRANCH   4   5
ENDBRANCH   3   4
ENDBRANCH   2   3
ENDBRANCH   1   2
BRANCH   1   8
ATOM      8  C   UNL     1       0.114  54.605  20.650  1.00  0.00     0.000 C 
BRANCH   8   9
ATOM      9  C   UNL     1       1.649  54.660  20.703  1.00  0.00    -0.000 C 
BRANCH   9  10
ATOM     10  C   UNL     1       2.276  55.009  19.342  1.00  0.00    -0.000 C 
BRANCH  10  11
ATOM     11  C   UNL     1       2.094  56.489  18.971  1.00  0.00    -0.000 C 
BRANCH  11  12
ATOM     12  C   UNL     1       1.536  56.678  17.552  1.00  0.00    -0.003 C 
ATOM     13  C   UNL     1       1.431  55.343  16.821  1.00  0.00     0.004 C 
ENDBRANCH  11  12
ENDBRANCH  10  11
ENDBRANCH   9  10
ENDBRANCH   8   9
ENDBRANCH   1   8
TORSDOF 9
ENDMDL
MODEL 7
REMARK VINA RESULT:    -4.166      4.292      6.009
REMARK INTER + INTRA:          -7.548
REMARK INTER:                  -6.661
REMARK INTRA:                  -0.888
REMARK UNBOUND:                -1.190
REMARK SMILES CCCCCCCCCCC(=O)[O-]
REMARK SMILES IDX 7 1 8 2 9 3 10 4 11 5 12 6 13 7 6 8 5 9 4 10 3 11 2 12 1 13
REMARK H PARENT
REMARK Flexibility Score: inf
ROOT
ATOM      1  C   UNL     1      -0.891  52.957  17.549  1.00  0.00     0.000 C 
ENDROOT
BRANCH   1   2
ATOM      2  C   UNL     1      -2.089  53.564  18.289  1.00  0.00     0.000 C 
BRANCH   2   3
ATOM      3  C   UNL     1      -2.635  54.789  17.541  1.00  0.00     0.006 C 
BRANCH   3   4
ATOM      4  C   UNL     1      -2.486  56.081  18.356  1.00  0.00     0.053 C 
BRANCH   4   5
ATOM      5  C   UNL     1      -3.676  56.978  18.202  1.00  0.00     0.041 C 
ATOM      6  O   UNL     1      -3.693  57.859  17.303  1.00  0.00    -0.550 OA
ATOM      7  O   UNL     1      -4.752  56.863  19.073  1.00  0.00    -0.550 OA
ENDBRANCH   4   5
ENDBRANCH   3   4
ENDBRANCH   2   3
ENDBRANCH   1   2
BRANCH   1   8
ATOM      8  C   UNL     1       0.414  53.666  17.940  1.00  0.00     0.000 C 
BRANCH   8   9
ATOM      9  C   UNL     1       1.404  53.770  16.769  1.00  0.00    -0.000 C 
BRANCH   9  10
ATOM     10  C   UNL     1       1.968  55.191  16.595  1.00  0.00    -0.000 C 
BRANCH  10  11
ATOM     11  C   UNL     1       0.893  56.276  16.751  1.00  0.00    -0.000 C 
BRANCH  11  12
ATOM     12  C   UNL     1       1.272  57.338  17.795  1.00  0.00    -0.003 C 
ATOM     13  C   UNL     1       2.721  57.174  18.243  1.00  0.00     0.004 C 
ENDBRANCH  11  12
ENDBRANCH  10  11
ENDBRANCH   9  10
ENDBRANCH   8   9
ENDBRANCH   1   8
TORSDOF 9
ENDMDL
MODEL 8
REMARK VINA RESULT:    -4.130      4.493      6.102
REMARK INTER + INTRA:          -7.494
REMARK INTER:                  -6.254
REMARK INTRA:                  -1.240
REMARK UNBOUND:                -1.190
REMARK SMILES CCCCCCCCCCC(=O)[O-]
REMARK SMILES IDX 7 1 8 2 9 3 10 4 11 5 12 6 13 7 6 8 5 9 4 10 3 11 2 12 1 13
REMARK H PARENT
REMARK Flexibility Score: inf
ROOT
ATOM      1  C   UNL     1      -1.525  53.790  20.850  1.00  0.00     0.000 C 
ENDROOT
BRANCH   1   2
ATOM      2  C   UNL     1      -2.682  54.534  20.172  1.00  0.00     0.000 C 
BRANCH   2   3
ATOM      3  C   UNL     1      -2.171  55.751  19.389  1.00  0.00     0.006 C 
BRANCH   3   4
ATOM      4  C   UNL     1      -2.891  55.920  18.044  1.00  0.00     0.053 C 
BRANCH   4   5
ATOM      5  C   UNL     1      -3.794  57.115  18.042  1.00  0.00     0.041 C 
ATOM      6  O   UNL     1      -4.768  57.174  18.837  1.00  0.00    -0.550 OA
ATOM      7  O   UNL     1      -3.580  58.148  17.137  1.00  0.00    -0.550 OA
ENDBRANCH   4   5
ENDBRANCH   3   4
ENDBRANCH   2   3
ENDBRANCH   1   2
BRANCH   1   8
ATOM      8  C   UNL     1      -0.181  54.465  20.540  1.00  0.00     0.000 C 
BRANCH   8   9
ATOM      9  C   UNL     1       0.796  53.529  19.810  1.00  0.00    -0.000 C 
BRANCH   9  10
ATOM     10  C   UNL     1       0.610  53.557  18.283  1.00  0.00    -0.000 C 
BRANCH  10  11
ATOM     11  C   UNL     1      -0.148  52.328  17.758  1.00  0.00    -0.000 C 
BRANCH  11  12
ATOM     12  C   UNL     1      -1.552  52.676  17.241  1.00  0.00    -0.003 C 
ATOM     13  C   UNL     1      -2.568  51.617  17.656  1.00  0.00     0.004 C 
ENDBRANCH  11  12
ENDBRANCH  10  11
ENDBRANCH   9  10
ENDBRANCH   8   9
ENDBRANCH   1   8
TORSDOF 9
ENDMDL
MODEL 9
REMARK VINA RESULT:    -4.125      1.103      3.223
REMARK INTER + INTRA:          -7.485
REMARK INTER:                  -6.300
REMARK INTRA:                  -1.185
REMARK UNBOUND:                -1.190
REMARK SMILES CCCCCCCCCCC(=O)[O-]
REMARK SMILES IDX 7 1 8 2 9 3 10 4 11 5 12 6 13 7 6 8 5 9 4 10 3 11 2 12 1 13
REMARK H PARENT
REMARK Flexibility Score: inf
ROOT
ATOM      1  C   UNL     1       1.871  54.657  20.639  1.00  0.00     0.000 C 
ENDROOT
BRANCH   1   2
ATOM      2  C   UNL     1       2.941  53.779  19.979  1.00  0.00     0.000 C 
BRANCH   2   3
ATOM      3  C   UNL     1       2.787  53.777  18.452  1.00  0.00     0.006 C 
BRANCH   3   4
ATOM      4  C   UNL     1       4.139  53.673  17.732  1.00  0.00     0.053 C 
BRANCH   4   5
ATOM      5  C   UNL     1       4.498  54.949  17.034  1.00  0.00     0.041 C 
ATOM      6  O   UNL     1       5.110  55.858  17.652  1.00  0.00    -0.550 OA
ATOM      7  O   UNL     1       4.125  55.146  15.710  1.00  0.00    -0.550 OA
ENDBRANCH   4   5
ENDBRANCH   3   4
ENDBRANCH   2   3
ENDBRANCH   1   2
BRANCH   1   8
ATOM      8  C   UNL     1       0.463  54.107  20.368  1.00  0.00     0.000 C 
BRANCH   8   9
ATOM      9  C   UNL     1      -0.493  55.176  19.816  1.00  0.00    -0.000 C 
BRANCH   9  10
ATOM     10  C   UNL     1      -0.644  55.102  18.287  1.00  0.00    -0.000 C 
BRANCH  10  11
ATOM     11  C   UNL     1      -0.480  56.471  17.610  1.00  0.00    -0.000 C 
BRANCH  11  12
ATOM     12  C   UNL     1       0.926  56.677  17.025  1.00  0.00    -0.003 C 
ATOM     13  C   UNL     1       1.836  57.387  18.021  1.00  0.00     0.004 C 
ENDBRANCH  11  12
ENDBRANCH  10  11
ENDBRANCH   9  10
ENDBRANCH   8   9
ENDBRANCH   1   8
TORSDOF 9
ENDMDL
