MODEL 1
REMARK VINA RESULT:    -2.412      0.000      0.000
REMARK INTER + INTRA:          -3.157
REMARK INTER:                  -2.976
REMARK INTRA:                  -0.182
REMARK UNBOUND:                -0.182
REMARK SMILES C=CC[C@@H](C)C(=O)CC
REMARK SMILES IDX 4 1 5 2 6 3 7 4 8 5 9 6 3 7 2 8 1 9
REMARK H PARENT
REMARK Flexibility Score: inf
ROOT
ATOM      1  C   UNL     1      30.601  24.416  31.456  1.00  0.00     0.057 C 
ATOM      2  C   UNL     1      29.266  25.070  31.826  1.00  0.00     0.016 C 
ENDROOT
BRANCH   1   3
ATOM      3  C   UNL     1      30.794  24.456  29.953  1.00  0.00     0.135 C 
ATOM      4  O   UNL     1      29.822  24.585  29.221  1.00  0.00    -0.299 OA
BRANCH   3   5
ATOM      5  C   UNL     1      32.162  24.316  29.339  1.00  0.00     0.072 C 
ATOM      6  C   UNL     1      32.294  22.991  28.595  1.00  0.00     0.012 C 
ENDBRANCH   3   5
ENDBRANCH   1   3
BRANCH   1   7
ATOM      7  C   UNL     1      31.764  25.111  32.189  1.00  0.00     0.038 C 
BRANCH   7   8
ATOM      8  C   UNL     1      31.543  25.125  33.679  1.00  0.00    -0.034 C 
ATOM      9  C   UNL     1      32.547  24.949  34.543  1.00  0.00     0.004 C 
ENDBRANCH   7   8
ENDBRANCH   1   7
TORSDOF 4
ENDMDL
MODEL 2
REMARK VINA RESULT:    -2.384      2.051      2.847
REMARK INTER + INTRA:          -3.123
REMARK INTER:                  -2.915
REMARK INTRA:                  -0.208
REMARK UNBOUND:                -0.182
REMARK SMILES C=CC[C@@H](C)C(=O)CC
REMARK SMILES IDX 4 1 5 2 6 3 7 4 8 5 9 6 3 7 2 8 1 9
REMARK H PARENT
REMARK Flexibility Score: inf
ROOT
ATOM      1  C   UNL     1      30.883  23.632  29.291  1.00  0.00     0.057 C 
ATOM      2  C   UNL     1      29.900  23.894  28.145  1.00  0.00     0.016 C 
ENDROOT
BRANCH   1   3
ATOM      3  C   UNL     1      32.280  23.441  28.735  1.00  0.00     0.135 C 
ATOM      4  O   UNL     1      32.501  22.530  27.949  1.00  0.00    -0.299 OA
BRANCH   3   5
ATOM      5  C   UNL     1      33.413  24.342  29.150  1.00  0.00     0.072 C 
ATOM      6  C   UNL     1      34.612  24.177  28.221  1.00  0.00     0.012 C 
ENDBRANCH   3   5
ENDBRANCH   1   3
BRANCH   1   7
ATOM      7  C   UNL     1      30.838  24.781  30.315  1.00  0.00     0.038 C 
BRANCH   7   8
ATOM      8  C   UNL     1      30.335  24.306  31.653  1.00  0.00    -0.034 C 
ATOM      9  C   UNL     1      29.351  24.934  32.301  1.00  0.00     0.004 C 
ENDBRANCH   7   8
ENDBRANCH   1   7
TORSDOF 4
ENDMDL
MODEL 3
REMARK VINA RESULT:    -2.107      2.102      3.007
REMARK INTER + INTRA:          -2.781
REMARK INTER:                  -2.545
REMARK INTRA:                  -0.236
REMARK UNBOUND:                -0.182
REMARK SMILES C=CC[C@@H](C)C(=O)CC
REMARK SMILES IDX 4 1 5 2 6 3 7 4 8 5 9 6 3 7 2 8 1 9
REMARK H PARENT
REMARK Flexibility Score: inf
ROOT
ATOM      1  C   UNL     1      31.875  24.944  29.644  1.00  0.00     0.057 C 
ATOM      2  C   UNL     1      33.222  25.125  30.354  1.00  0.00     0.016 C 
ENDROOT
BRANCH   1   3
ATOM      3  C   UNL     1      32.082  24.226  28.326  1.00  0.00     0.135 C 
ATOM      4  O   UNL     1      32.805  23.240  28.279  1.00  0.00    -0.299 OA
BRANCH   3   5
ATOM      5  C   UNL     1      31.431  24.718  27.060  1.00  0.00     0.072 C 
ATOM      6  C   UNL     1      30.007  24.185  26.935  1.00  0.00     0.012 C 
ENDBRANCH   3   5
ENDBRANCH   1   3
BRANCH   1   7
ATOM      7  C   UNL     1      30.886  24.185  30.548  1.00  0.00     0.038 C 
BRANCH   7   8
ATOM      8  C   UNL     1      29.896  25.122  31.188  1.00  0.00    -0.034 C 
ATOM      9  C   UNL     1      29.466  24.946  32.441  1.00  0.00     0.004 C 
ENDBRANCH   7   8
ENDBRANCH   1   7
TORSDOF 4
ENDMDL
MODEL 4
REMARK VINA RESULT:    -1.996      1.691      3.919
REMARK INTER + INTRA:          -2.645
REMARK INTER:                  -2.334
REMARK INTRA:                  -0.311
REMARK UNBOUND:                -0.182
REMARK SMILES C=CC[C@@H](C)C(=O)CC
REMARK SMILES IDX 4 1 5 2 6 3 7 4 8 5 9 6 3 7 2 8 1 9
REMARK H PARENT
REMARK Flexibility Score: inf
ROOT
ATOM      1  C   UNL     1      31.479  24.163  28.282  1.00  0.00     0.057 C 
ATOM      2  C   UNL     1      31.996  22.785  28.708  1.00  0.00     0.016 C 
ENDROOT
BRANCH   1   3
ATOM      3  C   UNL     1      30.617  24.751  29.381  1.00  0.00     0.135 C 
ATOM      4  O   UNL     1      29.467  25.090  29.134  1.00  0.00    -0.299 OA
BRANCH   3   5
ATOM      5  C   UNL     1      31.155  24.946  30.774  1.00  0.00     0.072 C 
ATOM      6  C   UNL     1      30.180  24.410  31.817  1.00  0.00     0.012 C 
ENDBRANCH   3   5
ENDBRANCH   1   3
BRANCH   1   7
ATOM      7  C   UNL     1      32.654  25.096  27.931  1.00  0.00     0.038 C 
BRANCH   7   8
ATOM      8  C   UNL     1      33.964  24.537  28.420  1.00  0.00    -0.034 C 
ATOM      9  C   UNL     1      34.661  25.123  29.398  1.00  0.00     0.004 C 
ENDBRANCH   7   8
ENDBRANCH   1   7
TORSDOF 4
ENDMDL
MODEL 5
REMARK VINA RESULT:    -1.973      2.212      4.660
REMARK INTER + INTRA:          -2.615
REMARK INTER:                  -2.207
REMARK INTRA:                  -0.409
REMARK UNBOUND:                -0.182
REMARK SMILES C=CC[C@@H](C)C(=O)CC
REMARK SMILES IDX 4 1 5 2 6 3 7 4 8 5 9 6 3 7 2 8 1 9
REMARK H PARENT
REMARK Flexibility Score: inf
ROOT
ATOM      1  C   UNL     1      31.894  23.995  28.668  1.00  0.00     0.057 C 
ATOM      2  C   UNL     1      32.985  23.004  28.245  1.00  0.00     0.016 C 
ENDROOT
BRANCH   1   3
ATOM      3  C   UNL     1      32.280  24.655  29.976  1.00  0.00     0.135 C 
ATOM      4  O   UNL     1      33.462  24.794  30.260  1.00  0.00    -0.299 OA
BRANCH   3   5
ATOM      5  C   UNL     1      31.232  25.125  30.950  1.00  0.00     0.072 C 
ATOM      6  C   UNL     1      30.355  23.965  31.412  1.00  0.00     0.012 C 
ENDBRANCH   3   5
ENDBRANCH   1   3
BRANCH   1   7
ATOM      7  C   UNL     1      31.656  25.039  27.561  1.00  0.00     0.038 C 
BRANCH   7   8
ATOM      8  C   UNL     1      30.227  25.018  27.086  1.00  0.00    -0.034 C 
ATOM      9  C   UNL     1      29.199  25.072  27.937  1.00  0.00     0.004 C 
ENDBRANCH   7   8
ENDBRANCH   1   7
TORSDOF 4
ENDMDL
MODEL 6
REMARK VINA RESULT:    -1.838      3.229      4.936
REMARK INTER + INTRA:          -2.450
REMARK INTER:                  -2.151
REMARK INTRA:                  -0.299
REMARK UNBOUND:                -0.182
REMARK SMILES C=CC[C@@H](C)C(=O)CC
REMARK SMILES IDX 4 1 5 2 6 3 7 4 8 5 9 6 3 7 2 8 1 9
REMARK H PARENT
REMARK Flexibility Score: inf
ROOT
ATOM      1  C   UNL     1      33.792  24.048  28.704  1.00  0.00     0.057 C 
ATOM      2  C   UNL     1      33.361  24.969  29.851  1.00  0.00     0.016 C 
ENDROOT
BRANCH   1   3
ATOM      3  C   UNL     1      32.584  23.320  28.150  1.00  0.00     0.135 C 
ATOM      4  O   UNL     1      32.666  22.740  27.075  1.00  0.00    -0.299 OA
BRANCH   3   5
ATOM      5  C   UNL     1      31.271  23.313  28.887  1.00  0.00     0.072 C 
ATOM      6  C   UNL     1      30.121  23.691  27.960  1.00  0.00     0.012 C 
ENDBRANCH   3   5
ENDBRANCH   1   3
BRANCH   1   7
ATOM      7  C   UNL     1      34.515  24.853  27.608  1.00  0.00     0.038 C 
BRANCH   7   8
ATOM      8  C   UNL     1      35.900  24.318  27.357  1.00  0.00    -0.034 C 
ATOM      9  C   UNL     1      36.344  23.203  27.945  1.00  0.00     0.004 C 
ENDBRANCH   7   8
ENDBRANCH   1   7
TORSDOF 4
ENDMDL
MODEL 7
REMARK VINA RESULT:    -1.709      1.660      4.222
REMARK INTER + INTRA:          -2.290
REMARK INTER:                  -2.073
REMARK INTRA:                  -0.218
REMARK UNBOUND:                -0.182
REMARK SMILES C=CC[C@@H](C)C(=O)CC
REMARK SMILES IDX 4 1 5 2 6 3 7 4 8 5 9 6 3 7 2 8 1 9
REMARK H PARENT
REMARK Flexibility Score: inf
ROOT
ATOM      1  C   UNL     1      31.034  25.086  30.699  1.00  0.00     0.057 C 
ATOM      2  C   UNL     1      30.155  23.851  30.930  1.00  0.00     0.016 C 
ENDROOT
BRANCH   1   3
ATOM      3  C   UNL     1      32.154  25.117  31.720  1.00  0.00     0.135 C 
ATOM      4  O   UNL     1      33.318  25.119  31.343  1.00  0.00    -0.299 OA
BRANCH   3   5
ATOM      5  C   UNL     1      31.862  25.122  33.197  1.00  0.00     0.072 C 
ATOM      6  C   UNL     1      33.119  24.814  34.004  1.00  0.00     0.012 C 
ENDBRANCH   3   5
ENDBRANCH   1   3
BRANCH   1   7
ATOM      7  C   UNL     1      31.584  25.096  29.261  1.00  0.00     0.038 C 
BRANCH   7   8
ATOM      8  C   UNL     1      31.324  23.786  28.564  1.00  0.00    -0.034 C 
ATOM      9  C   UNL     1      32.263  23.176  27.836  1.00  0.00     0.004 C 
ENDBRANCH   7   8
ENDBRANCH   1   7
TORSDOF 4
ENDMDL
MODEL 8
REMARK VINA RESULT:    -1.706      2.917      3.985
REMARK INTER + INTRA:          -2.286
REMARK INTER:                  -2.093
REMARK INTRA:                  -0.194
REMARK UNBOUND:                -0.182
REMARK SMILES C=CC[C@@H](C)C(=O)CC
REMARK SMILES IDX 4 1 5 2 6 3 7 4 8 5 9 6 3 7 2 8 1 9
REMARK H PARENT
REMARK Flexibility Score: inf
ROOT
ATOM      1  C   UNL     1      32.466  24.288  28.543  1.00  0.00     0.057 C 
ATOM      2  C   UNL     1      32.824  22.884  28.043  1.00  0.00     0.016 C 
ENDROOT
BRANCH   1   3
ATOM      3  C   UNL     1      31.044  24.297  29.070  1.00  0.00     0.135 C 
ATOM      4  O   UNL     1      30.829  24.631  30.227  1.00  0.00    -0.299 OA
BRANCH   3   5
ATOM      5  C   UNL     1      29.888  23.881  28.199  1.00  0.00     0.072 C 
ATOM      6  C   UNL     1      29.629  24.912  27.105  1.00  0.00     0.012 C 
ENDBRANCH   3   5
ENDBRANCH   1   3
BRANCH   1   7
ATOM      7  C   UNL     1      33.466  24.749  29.619  1.00  0.00     0.038 C 
BRANCH   7   8
ATOM      8  C   UNL     1      34.792  25.124  29.011  1.00  0.00    -0.034 C 
ATOM      9  C   UNL     1      35.922  25.123  29.725  1.00  0.00     0.004 C 
ENDBRANCH   7   8
ENDBRANCH   1   7
TORSDOF 4
ENDMDL
