MODEL 1
REMARK VINA RESULT:    -4.056      0.000      0.000
REMARK INTER + INTRA:          -5.425
REMARK INTER:                  -5.241
REMARK INTRA:                  -0.184
REMARK UNBOUND:                -0.184
REMARK SMILES CCCCCCC(=O)[O-]
REMARK SMILES IDX 5 1 6 2 7 3 8 4 9 5 4 6 3 7 2 8 1 9
REMARK H PARENT
REMARK Flexibility Score: inf
ROOT
ATOM      1  C   UNL     1      41.819  49.609  12.987  1.00  0.00     0.006 C 
ENDROOT
BRANCH   1   2
ATOM      2  C   UNL     1      43.004  48.673  12.734  1.00  0.00     0.053 C 
BRANCH   2   3
ATOM      3  C   UNL     1      42.528  47.272  12.511  1.00  0.00     0.041 C 
ATOM      4  O   UNL     1      41.294  47.018  12.491  1.00  0.00    -0.550 OA
ATOM      5  O   UNL     1      43.444  46.255  12.276  1.00  0.00    -0.550 OA
ENDBRANCH   2   3
ENDBRANCH   1   2
BRANCH   1   6
ATOM      6  C   UNL     1      41.978  50.351  14.319  1.00  0.00     0.000 C 
BRANCH   6   7
ATOM      7  C   UNL     1      40.718  51.166  14.647  1.00  0.00    -0.000 C 
BRANCH   7   8
ATOM      8  C   UNL     1      39.561  50.881  13.677  1.00  0.00    -0.003 C 
ATOM      9  C   UNL     1      38.565  52.037  13.588  1.00  0.00     0.004 C 
ENDBRANCH   7   8
ENDBRANCH   6   7
ENDBRANCH   1   6
TORSDOF 5
ENDMDL
MODEL 2
REMARK VINA RESULT:    -3.957      2.988      4.997
REMARK INTER + INTRA:          -5.298
REMARK INTER:                  -5.123
REMARK INTRA:                  -0.175
REMARK UNBOUND:                -0.184
REMARK SMILES CCCCCCC(=O)[O-]
REMARK SMILES IDX 5 1 6 2 7 3 8 4 9 5 4 6 3 7 2 8 1 9
REMARK H PARENT
REMARK Flexibility Score: inf
ROOT
ATOM      1  C   UNL     1      42.180  49.932  13.764  1.00  0.00     0.006 C 
ENDROOT
BRANCH   1   2
ATOM      2  C   UNL     1      40.767  50.236  13.260  1.00  0.00     0.053 C 
BRANCH   2   3
ATOM      3  C   UNL     1      40.047  51.126  14.224  1.00  0.00     0.041 C 
ATOM      4  O   UNL     1      40.546  51.372  15.354  1.00  0.00    -0.550 OA
ATOM      5  O   UNL     1      38.850  51.726  13.855  1.00  0.00    -0.550 OA
ENDBRANCH   2   3
ENDBRANCH   1   2
BRANCH   1   6
ATOM      6  C   UNL     1      42.723  48.642  13.136  1.00  0.00     0.000 C 
BRANCH   6   7
ATOM      7  C   UNL     1      43.499  48.944  11.845  1.00  0.00    -0.000 C 
BRANCH   7   8
ATOM      8  C   UNL     1      44.297  50.255  11.928  1.00  0.00    -0.003 C 
ATOM      9  C   UNL     1      45.723  50.114  11.399  1.00  0.00     0.004 C 
ENDBRANCH   7   8
ENDBRANCH   6   7
ENDBRANCH   1   6
TORSDOF 5
ENDMDL
MODEL 3
REMARK VINA RESULT:    -3.910     12.758     13.966
REMARK INTER + INTRA:          -5.237
REMARK INTER:                  -4.928
REMARK INTRA:                  -0.308
REMARK UNBOUND:                -0.184
REMARK SMILES CCCCCCC(=O)[O-]
REMARK SMILES IDX 5 1 6 2 7 3 8 4 9 5 4 6 3 7 2 8 1 9
REMARK H PARENT
REMARK Flexibility Score: inf
ROOT
ATOM      1  C   UNL     1      45.188  37.329  19.897  1.00  0.00     0.006 C 
ENDROOT
BRANCH   1   2
ATOM      2  C   UNL     1      45.361  36.839  18.456  1.00  0.00     0.053 C 
BRANCH   2   3
ATOM      3  C   UNL     1      46.436  35.801  18.381  1.00  0.00     0.041 C 
ATOM      4  O   UNL     1      46.629  35.018  19.348  1.00  0.00    -0.550 OA
ATOM      5  O   UNL     1      47.191  35.665  17.223  1.00  0.00    -0.550 OA
ENDBRANCH   2   3
ENDBRANCH   1   2
BRANCH   1   6
ATOM      6  C   UNL     1      45.516  38.822  20.014  1.00  0.00     0.000 C 
BRANCH   6   7
ATOM      7  C   UNL     1      45.761  39.441  18.629  1.00  0.00    -0.000 C 
BRANCH   7   8
ATOM      8  C   UNL     1      47.086  40.218  18.556  1.00  0.00    -0.003 C 
ATOM      9  C   UNL     1      48.134  39.519  17.692  1.00  0.00     0.004 C 
ENDBRANCH   7   8
ENDBRANCH   6   7
ENDBRANCH   1   6
TORSDOF 5
ENDMDL
MODEL 4
REMARK VINA RESULT:    -3.890     12.442     13.456
REMARK INTER + INTRA:          -5.211
REMARK INTER:                  -4.998
REMARK INTRA:                  -0.213
REMARK UNBOUND:                -0.184
REMARK SMILES CCCCCCC(=O)[O-]
REMARK SMILES IDX 5 1 6 2 7 3 8 4 9 5 4 6 3 7 2 8 1 9
REMARK H PARENT
REMARK Flexibility Score: inf
ROOT
ATOM      1  C   UNL     1      48.348  41.258  20.461  1.00  0.00     0.006 C 
ENDROOT
BRANCH   1   2
ATOM      2  C   UNL     1      49.503  41.163  21.462  1.00  0.00     0.053 C 
BRANCH   2   3
ATOM      3  C   UNL     1      50.297  42.431  21.468  1.00  0.00     0.041 C 
ATOM      4  O   UNL     1      49.766  43.514  21.106  1.00  0.00    -0.550 OA
ATOM      5  O   UNL     1      51.610  42.427  21.923  1.00  0.00    -0.550 OA
ENDBRANCH   2   3
ENDBRANCH   1   2
BRANCH   1   6
ATOM      6  C   UNL     1      48.802  40.843  19.057  1.00  0.00     0.000 C 
BRANCH   6   7
ATOM      7  C   UNL     1      47.665  40.141  18.298  1.00  0.00    -0.000 C 
BRANCH   7   8
ATOM      8  C   UNL     1      46.327  40.203  19.050  1.00  0.00    -0.003 C 
ATOM      9  C   UNL     1      45.728  38.820  19.307  1.00  0.00     0.004 C 
ENDBRANCH   7   8
ENDBRANCH   6   7
ENDBRANCH   1   6
TORSDOF 5
ENDMDL
MODEL 5
REMARK VINA RESULT:    -3.859      2.932      4.688
REMARK INTER + INTRA:          -5.171
REMARK INTER:                  -4.920
REMARK INTRA:                  -0.250
REMARK UNBOUND:                -0.184
REMARK SMILES CCCCCCC(=O)[O-]
REMARK SMILES IDX 5 1 6 2 7 3 8 4 9 5 4 6 3 7 2 8 1 9
REMARK H PARENT
REMARK Flexibility Score: inf
ROOT
ATOM      1  C   UNL     1      41.978  49.922  13.647  1.00  0.00     0.006 C 
ENDROOT
BRANCH   1   2
ATOM      2  C   UNL     1      40.589  50.346  13.161  1.00  0.00     0.053 C 
BRANCH   2   3
ATOM      3  C   UNL     1      39.899  51.172  14.201  1.00  0.00     0.041 C 
ATOM      4  O   UNL     1      40.409  51.305  15.345  1.00  0.00    -0.550 OA
ATOM      5  O   UNL     1      38.720  51.836  13.891  1.00  0.00    -0.550 OA
ENDBRANCH   2   3
ENDBRANCH   1   2
BRANCH   1   6
ATOM      6  C   UNL     1      42.685  49.052  12.600  1.00  0.00     0.000 C 
BRANCH   6   7
ATOM      7  C   UNL     1      42.430  47.560  12.863  1.00  0.00    -0.000 C 
BRANCH   7   8
ATOM      8  C   UNL     1      41.604  46.898  11.748  1.00  0.00    -0.003 C 
ATOM      9  C   UNL     1      40.117  46.804  12.090  1.00  0.00     0.004 C 
ENDBRANCH   7   8
ENDBRANCH   6   7
ENDBRANCH   1   6
TORSDOF 5
ENDMDL
MODEL 6
REMARK VINA RESULT:    -3.797      3.410      5.749
REMARK INTER + INTRA:          -5.091
REMARK INTER:                  -4.956
REMARK INTRA:                  -0.135
REMARK UNBOUND:                -0.184
REMARK SMILES CCCCCCC(=O)[O-]
REMARK SMILES IDX 5 1 6 2 7 3 8 4 9 5 4 6 3 7 2 8 1 9
REMARK H PARENT
REMARK Flexibility Score: inf
ROOT
ATOM      1  C   UNL     1      44.093  50.190  12.072  1.00  0.00     0.006 C 
ENDROOT
BRANCH   1   2
ATOM      2  C   UNL     1      42.997  49.213  12.509  1.00  0.00     0.053 C 
BRANCH   2   3
ATOM      3  C   UNL     1      41.990  49.907  13.373  1.00  0.00     0.041 C 
ATOM      4  O   UNL     1      42.331  50.376  14.491  1.00  0.00    -0.550 OA
ATOM      5  O   UNL     1      40.689  50.080  12.921  1.00  0.00    -0.550 OA
ENDBRANCH   2   3
ENDBRANCH   1   2
BRANCH   1   6
ATOM      6  C   UNL     1      45.105  49.503  11.148  1.00  0.00     0.000 C 
BRANCH   6   7
ATOM      7  C   UNL     1      46.426  50.286  11.102  1.00  0.00    -0.000 C 
BRANCH   7   8
ATOM      8  C   UNL     1      47.624  49.402  10.720  1.00  0.00    -0.003 C 
ATOM      9  C   UNL     1      47.238  47.936  10.524  1.00  0.00     0.004 C 
ENDBRANCH   7   8
ENDBRANCH   6   7
ENDBRANCH   1   6
TORSDOF 5
ENDMDL
MODEL 7
REMARK VINA RESULT:    -3.793     12.045     13.717
REMARK INTER + INTRA:          -5.085
REMARK INTER:                  -4.883
REMARK INTRA:                  -0.202
REMARK UNBOUND:                -0.184
REMARK SMILES CCCCCCC(=O)[O-]
REMARK SMILES IDX 5 1 6 2 7 3 8 4 9 5 4 6 3 7 2 8 1 9
REMARK H PARENT
REMARK Flexibility Score: inf
ROOT
ATOM      1  C   UNL     1      45.811  39.196  18.659  1.00  0.00     0.006 C 
ENDROOT
BRANCH   1   2
ATOM      2  C   UNL     1      46.601  40.492  18.863  1.00  0.00     0.053 C 
BRANCH   2   3
ATOM      3  C   UNL     1      48.033  40.300  18.473  1.00  0.00     0.041 C 
ATOM      4  O   UNL     1      48.948  40.884  19.113  1.00  0.00    -0.550 OA
ATOM      5  O   UNL     1      48.362  39.437  17.437  1.00  0.00    -0.550 OA
ENDBRANCH   2   3
ENDBRANCH   1   2
BRANCH   1   6
ATOM      6  C   UNL     1      45.384  38.594  20.003  1.00  0.00     0.000 C 
BRANCH   6   7
ATOM      7  C   UNL     1      45.168  37.078  19.882  1.00  0.00    -0.000 C 
BRANCH   7   8
ATOM      8  C   UNL     1      45.693  36.512  18.553  1.00  0.00    -0.003 C 
ATOM      9  C   UNL     1      46.536  35.250  18.739  1.00  0.00     0.004 C 
ENDBRANCH   7   8
ENDBRANCH   6   7
ENDBRANCH   1   6
TORSDOF 5
ENDMDL
MODEL 8
REMARK VINA RESULT:    -3.775      4.567      6.106
REMARK INTER + INTRA:          -5.062
REMARK INTER:                  -4.822
REMARK INTRA:                  -0.240
REMARK UNBOUND:                -0.184
REMARK SMILES CCCCCCC(=O)[O-]
REMARK SMILES IDX 5 1 6 2 7 3 8 4 9 5 4 6 3 7 2 8 1 9
REMARK H PARENT
REMARK Flexibility Score: inf
ROOT
ATOM      1  C   UNL     1      47.442  48.408  10.657  1.00  0.00     0.006 C 
ENDROOT
BRANCH   1   2
ATOM      2  C   UNL     1      46.689  47.682   9.539  1.00  0.00     0.053 C 
BRANCH   2   3
ATOM      3  C   UNL     1      46.978  46.215   9.579  1.00  0.00     0.041 C 
ATOM      4  O   UNL     1      47.598  45.665   8.630  1.00  0.00    -0.550 OA
ATOM      5  O   UNL     1      46.609  45.463  10.686  1.00  0.00    -0.550 OA
ENDBRANCH   2   3
ENDBRANCH   1   2
BRANCH   1   6
ATOM      6  C   UNL     1      47.533  49.912  10.374  1.00  0.00     0.000 C 
BRANCH   6   7
ATOM      7  C   UNL     1      46.742  50.716  11.417  1.00  0.00    -0.000 C 
BRANCH   7   8
ATOM      8  C   UNL     1      45.277  50.935  11.006  1.00  0.00    -0.003 C 
ATOM      9  C   UNL     1      44.301  50.093  11.827  1.00  0.00     0.004 C 
ENDBRANCH   7   8
ENDBRANCH   6   7
ENDBRANCH   1   6
TORSDOF 5
ENDMDL
MODEL 9
REMARK VINA RESULT:    -3.733      3.445      5.677
REMARK INTER + INTRA:          -5.008
REMARK INTER:                  -4.747
REMARK INTRA:                  -0.261
REMARK UNBOUND:                -0.184
REMARK SMILES CCCCCCC(=O)[O-]
REMARK SMILES IDX 5 1 6 2 7 3 8 4 9 5 4 6 3 7 2 8 1 9
REMARK H PARENT
REMARK Flexibility Score: inf
ROOT
ATOM      1  C   UNL     1      44.385  50.550  11.572  1.00  0.00     0.006 C 
ENDROOT
BRANCH   1   2
ATOM      2  C   UNL     1      43.875  49.110  11.674  1.00  0.00     0.053 C 
BRANCH   2   3
ATOM      3  C   UNL     1      42.977  48.955  12.862  1.00  0.00     0.041 C 
ATOM      4  O   UNL     1      42.707  47.808  13.306  1.00  0.00    -0.550 OA
ATOM      5  O   UNL     1      42.481  50.078  13.510  1.00  0.00    -0.550 OA
ENDBRANCH   2   3
ENDBRANCH   1   2
BRANCH   1   6
ATOM      6  C   UNL     1      45.909  50.608  11.735  1.00  0.00     0.000 C 
BRANCH   6   7
ATOM      7  C   UNL     1      46.616  50.179  10.441  1.00  0.00    -0.000 C 
BRANCH   7   8
ATOM      8  C   UNL     1      47.634  49.050  10.671  1.00  0.00    -0.003 C 
ATOM      9  C   UNL     1      47.066  47.668  10.350  1.00  0.00     0.004 C 
ENDBRANCH   7   8
ENDBRANCH   6   7
ENDBRANCH   1   6
TORSDOF 5
ENDMDL
