MODEL 1
REMARK VINA RESULT:    -5.156      0.000      0.000
REMARK INTER + INTRA:          -6.539
REMARK INTER:                  -6.211
REMARK INTRA:                  -0.328
REMARK UNBOUND:                -0.328
REMARK SMILES O=c1c(O)c(-c2ccc(O)c(O)c2)oc2cc(O)cc(O)c12
REMARK SMILES IDX 5 1 3 2 2 3 1 4 22 5 20 6 19 7 17 8 16 9 15 10 14 11 6 12
REMARK SMILES IDX 7 13 8 14 9 15 13 16 11 17 10 18 12 20 4 22 21 24 18 26
REMARK H PARENT 10 19 12 21 4 23 21 25 18 27
REMARK Flexibility Score: inf
ROOT
ATOM      1  C   UNL     1       4.907   6.359   2.858  1.00  0.00     0.180 A 
ATOM      2  C   UNL     1       4.362   5.973   1.622  1.00  0.00     0.208 A 
ATOM      3  C   UNL     1       3.068   6.400   1.285  1.00  0.00     0.238 A 
ATOM      4  O   UNL     1       2.564   6.006   0.201  1.00  0.00    -0.285 OA
ATOM      5  C   UNL     1       2.341   7.220   2.181  1.00  0.00     0.111 A 
ATOM      6  C   UNL     1       1.038   7.743   1.927  1.00  0.00     0.134 A 
ATOM      7  C   UNL     1       0.361   8.435   2.938  1.00  0.00     0.093 A 
ATOM      8  C   UNL     1       0.964   8.680   4.171  1.00  0.00     0.123 A 
ATOM      9  C   UNL     1       2.261   8.224   4.411  1.00  0.00     0.094 A 
ATOM     10  C   UNL     1       2.948   7.499   3.434  1.00  0.00     0.146 A 
ATOM     11  O   UNL     1       4.176   7.075   3.705  1.00  0.00    -0.452 OA
ENDROOT
BRANCH   1  12
ATOM     12  C   UNL     1       6.274   5.970   3.272  1.00  0.00     0.025 A 
ATOM     13  C   UNL     1       7.380   6.800   3.018  1.00  0.00     0.016 A 
ATOM     14  C   UNL     1       8.658   6.423   3.439  1.00  0.00     0.051 A 
ATOM     15  C   UNL     1       8.849   5.221   4.133  1.00  0.00     0.157 A 
ATOM     16  C   UNL     1       6.467   4.776   3.988  1.00  0.00     0.062 A 
ATOM     17  C   UNL     1       7.746   4.396   4.411  1.00  0.00     0.158 A 
BRANCH  15  18
ATOM     18  O   UNL     1      10.125   4.847   4.552  1.00  0.00    -0.504 OA
ATOM     19  H   UNL     1      10.823   4.519   3.895  1.00  0.00     0.293 HD
ENDBRANCH  15  18
BRANCH  17  20
ATOM     20  O   UNL     1       7.900   3.196   5.105  1.00  0.00    -0.504 OA
ATOM     21  H   UNL     1       8.638   2.538   4.885  1.00  0.00     0.293 HD
ENDBRANCH  17  20
ENDBRANCH   1  12
BRANCH   2  22
ATOM     22  O   UNL     1       5.088   5.145   0.762  1.00  0.00    -0.502 OA
ATOM     23  H   UNL     1       5.170   5.329  -0.231  1.00  0.00     0.293 HD
ENDBRANCH   2  22
BRANCH   6  24
ATOM     24  O   UNL     1       0.380   7.635   0.697  1.00  0.00    -0.507 OA
ATOM     25  H   UNL     1      -0.401   8.207   0.412  1.00  0.00     0.293 HD
ENDBRANCH   6  24
BRANCH   8  26
ATOM     26  O   UNL     1       0.267   9.385   5.149  1.00  0.00    -0.508 OA
ATOM     27  H   UNL     1      -0.491   8.960   5.672  1.00  0.00     0.293 HD
ENDBRANCH   8  26
TORSDOF 6
ENDMDL
MODEL 2
REMARK VINA RESULT:    -5.078      1.977      6.754
REMARK INTER + INTRA:          -6.445
REMARK INTER:                  -6.132
REMARK INTRA:                  -0.313
REMARK UNBOUND:                -0.328
REMARK SMILES O=c1c(O)c(-c2ccc(O)c(O)c2)oc2cc(O)cc(O)c12
REMARK SMILES IDX 5 1 3 2 2 3 1 4 22 5 20 6 19 7 17 8 16 9 15 10 14 11 6 12
REMARK SMILES IDX 7 13 8 14 9 15 13 16 11 17 10 18 12 20 4 22 21 24 18 26
REMARK H PARENT 10 19 12 21 4 23 21 25 18 27
REMARK Flexibility Score: inf
ROOT
ATOM      1  C   UNL     1       4.481   6.612   2.103  1.00  0.00     0.180 A 
ATOM      2  C   UNL     1       4.950   7.242   0.939  1.00  0.00     0.208 A 
ATOM      3  C   UNL     1       6.259   6.981   0.503  1.00  0.00     0.238 A 
ATOM      4  O   UNL     1       6.692   7.590  -0.510  1.00  0.00    -0.285 OA
ATOM      5  C   UNL     1       7.077   6.082   1.228  1.00  0.00     0.111 A 
ATOM      6  C   UNL     1       8.404   5.713   0.857  1.00  0.00     0.134 A 
ATOM      7  C   UNL     1       9.167   4.916   1.718  1.00  0.00     0.093 A 
ATOM      8  C   UNL     1       8.629   4.420   2.906  1.00  0.00     0.123 A 
ATOM      9  C   UNL     1       7.312   4.726   3.251  1.00  0.00     0.094 A 
ATOM     10  C   UNL     1       6.539   5.549   2.429  1.00  0.00     0.146 A 
ATOM     11  O   UNL     1       5.293   5.824   2.798  1.00  0.00    -0.452 OA
ENDROOT
BRANCH   1  12
ATOM     12  C   UNL     1       3.105   6.817   2.611  1.00  0.00     0.025 A 
ATOM     13  C   UNL     1       2.011   6.127   2.060  1.00  0.00     0.016 A 
ATOM     14  C   UNL     1       0.725   6.319   2.570  1.00  0.00     0.051 A 
ATOM     15  C   UNL     1       0.513   7.190   3.647  1.00  0.00     0.157 A 
ATOM     16  C   UNL     1       2.891   7.673   3.704  1.00  0.00     0.062 A 
ATOM     17  C   UNL     1       1.604   7.867   4.218  1.00  0.00     0.158 A 
BRANCH  15  18
ATOM     18  O   UNL     1      -0.771   7.380   4.154  1.00  0.00    -0.504 OA
ATOM     19  H   UNL     1      -0.925   7.668   5.114  1.00  0.00     0.293 HD
ENDBRANCH  15  18
BRANCH  17  20
ATOM     20  O   UNL     1       1.429   8.736   5.295  1.00  0.00    -0.504 OA
ATOM     21  H   UNL     1       0.705   8.593   5.989  1.00  0.00     0.293 HD
ENDBRANCH  17  20
ENDBRANCH   1  12
BRANCH   2  22
ATOM     22  O   UNL     1       4.134   8.144   0.250  1.00  0.00    -0.502 OA
ATOM     23  H   UNL     1       4.502   8.815  -0.413  1.00  0.00     0.293 HD
ENDBRANCH   2  22
BRANCH   6  24
ATOM     24  O   UNL     1       9.006   6.077  -0.352  1.00  0.00    -0.507 OA
ATOM     25  H   UNL     1       8.516   6.192  -1.226  1.00  0.00     0.293 HD
ENDBRANCH   6  24
BRANCH   8  26
ATOM     26  O   UNL     1       9.412   3.618   3.733  1.00  0.00    -0.508 OA
ATOM     27  H   UNL     1       9.471   3.782   4.731  1.00  0.00     0.293 HD
ENDBRANCH   8  26
TORSDOF 6
ENDMDL
MODEL 3
REMARK VINA RESULT:    -4.903      1.820      2.259
REMARK INTER + INTRA:          -6.234
REMARK INTER:                  -6.034
REMARK INTRA:                  -0.200
REMARK UNBOUND:                -0.328
REMARK SMILES O=c1c(O)c(-c2ccc(O)c(O)c2)oc2cc(O)cc(O)c12
REMARK SMILES IDX 5 1 3 2 2 3 1 4 22 5 20 6 19 7 17 8 16 9 15 10 14 11 6 12
REMARK SMILES IDX 7 13 8 14 9 15 13 16 11 17 10 18 12 20 4 22 21 24 18 26
REMARK H PARENT 10 19 12 21 4 23 21 25 18 27
REMARK Flexibility Score: inf
ROOT
ATOM      1  C   UNL     1       4.234   6.609   2.391  1.00  0.00     0.180 A 
ATOM      2  C   UNL     1       3.051   6.406   1.660  1.00  0.00     0.208 A 
ATOM      3  C   UNL     1       1.835   6.858   2.194  1.00  0.00     0.238 A 
ATOM      4  O   UNL     1       0.772   6.625   1.561  1.00  0.00    -0.285 OA
ATOM      5  C   UNL     1       1.818   7.523   3.444  1.00  0.00     0.111 A 
ATOM      6  C   UNL     1       0.648   8.058   4.062  1.00  0.00     0.134 A 
ATOM      7  C   UNL     1       0.729   8.580   5.359  1.00  0.00     0.093 A 
ATOM      8  C   UNL     1       1.947   8.644   6.035  1.00  0.00     0.123 A 
ATOM      9  C   UNL     1       3.107   8.177   5.417  1.00  0.00     0.094 A 
ATOM     10  C   UNL     1       3.052   7.619   4.138  1.00  0.00     0.146 A 
ATOM     11  O   UNL     1       4.178   7.177   3.589  1.00  0.00    -0.452 OA
ENDROOT
BRANCH   1  12
ATOM     12  C   UNL     1       5.558   6.182   1.882  1.00  0.00     0.025 A 
ATOM     13  C   UNL     1       6.124   6.766   0.735  1.00  0.00     0.016 A 
ATOM     14  C   UNL     1       7.385   6.365   0.286  1.00  0.00     0.051 A 
ATOM     15  C   UNL     1       8.105   5.386   0.984  1.00  0.00     0.157 A 
ATOM     16  C   UNL     1       6.293   5.218   2.590  1.00  0.00     0.062 A 
ATOM     17  C   UNL     1       7.557   4.813   2.144  1.00  0.00     0.158 A 
BRANCH  15  18
ATOM     18  O   UNL     1       9.362   4.987   0.534  1.00  0.00    -0.504 OA
ATOM     19  H   UNL     1       9.550   4.837  -0.451  1.00  0.00     0.293 HD
ENDBRANCH  15  18
BRANCH  17  20
ATOM     20  O   UNL     1       8.250   3.842   2.865  1.00  0.00    -0.504 OA
ATOM     21  H   UNL     1       9.230   3.645   2.697  1.00  0.00     0.293 HD
ENDBRANCH  17  20
ENDBRANCH   1  12
BRANCH   2  22
ATOM     22  O   UNL     1       3.087   5.728   0.439  1.00  0.00    -0.502 OA
ATOM     23  H   UNL     1       3.879   5.783  -0.192  1.00  0.00     0.293 HD
ENDBRANCH   2  22
BRANCH   6  24
ATOM     24  O   UNL     1      -0.602   8.127   3.439  1.00  0.00    -0.507 OA
ATOM     25  H   UNL     1      -1.349   7.463   3.575  1.00  0.00     0.293 HD
ENDBRANCH   6  24
BRANCH   8  26
ATOM     26  O   UNL     1       1.993   9.183   7.319  1.00  0.00    -0.508 OA
ATOM     27  H   UNL     1       1.310   8.932   8.024  1.00  0.00     0.293 HD
ENDBRANCH   8  26
TORSDOF 6
ENDMDL
MODEL 4
REMARK VINA RESULT:    -4.864      4.418      6.766
REMARK INTER + INTRA:          -6.186
REMARK INTER:                  -5.981
REMARK INTRA:                  -0.206
REMARK UNBOUND:                -0.328
REMARK SMILES O=c1c(O)c(-c2ccc(O)c(O)c2)oc2cc(O)cc(O)c12
REMARK SMILES IDX 5 1 3 2 2 3 1 4 22 5 20 6 19 7 17 8 16 9 15 10 14 11 6 12
REMARK SMILES IDX 7 13 8 14 9 15 13 16 11 17 10 18 12 20 4 22 21 24 18 26
REMARK H PARENT 10 19 12 21 4 23 21 25 18 27
REMARK Flexibility Score: inf
ROOT
ATOM      1  C   UNL     1       1.169   7.700   4.644  1.00  0.00     0.180 A 
ATOM      2  C   UNL     1       0.358   8.791   4.998  1.00  0.00     0.208 A 
ATOM      3  C   UNL     1       0.290   9.181   6.344  1.00  0.00     0.238 A 
ATOM      4  O   UNL     1      -0.481  10.125   6.662  1.00  0.00    -0.285 OA
ATOM      5  C   UNL     1       1.045   8.485   7.319  1.00  0.00     0.111 A 
ATOM      6  C   UNL     1       1.082   8.817   8.706  1.00  0.00     0.134 A 
ATOM      7  C   UNL     1       1.761   7.981   9.599  1.00  0.00     0.093 A 
ATOM      8  C   UNL     1       2.457   6.860   9.149  1.00  0.00     0.123 A 
ATOM      9  C   UNL     1       2.476   6.557   7.787  1.00  0.00     0.094 A 
ATOM     10  C   UNL     1       1.779   7.353   6.876  1.00  0.00     0.146 A 
ATOM     11  O   UNL     1       1.814   7.026   5.589  1.00  0.00    -0.452 OA
ENDROOT
BRANCH   1  12
ATOM     12  C   UNL     1       1.312   7.246   3.242  1.00  0.00     0.025 A 
ATOM     13  C   UNL     1       0.747   6.036   2.803  1.00  0.00     0.016 A 
ATOM     14  C   UNL     1       0.874   5.638   1.470  1.00  0.00     0.051 A 
ATOM     15  C   UNL     1       1.555   6.449   0.552  1.00  0.00     0.157 A 
ATOM     16  C   UNL     1       1.975   8.065   2.313  1.00  0.00     0.062 A 
ATOM     17  C   UNL     1       2.105   7.671   0.977  1.00  0.00     0.158 A 
BRANCH  15  18
ATOM     18  O   UNL     1       1.681   6.050  -0.777  1.00  0.00    -0.504 OA
ATOM     19  H   UNL     1       1.550   5.085  -1.056  1.00  0.00     0.293 HD
ENDBRANCH  15  18
BRANCH  17  20
ATOM     20  O   UNL     1       2.782   8.504   0.087  1.00  0.00    -0.504 OA
ATOM     21  H   UNL     1       3.422   8.140  -0.609  1.00  0.00     0.293 HD
ENDBRANCH  17  20
ENDBRANCH   1  12
BRANCH   2  22
ATOM     22  O   UNL     1      -0.396   9.451   4.023  1.00  0.00    -0.502 OA
ATOM     23  H   UNL     1      -1.174  10.057   4.255  1.00  0.00     0.293 HD
ENDBRANCH   2  22
BRANCH   6  24
ATOM     24  O   UNL     1       0.497   9.966   9.249  1.00  0.00    -0.507 OA
ATOM     25  H   UNL     1      -0.225   9.964   9.955  1.00  0.00     0.293 HD
ENDBRANCH   6  24
BRANCH   8  26
ATOM     26  O   UNL     1       3.134   6.057  10.064  1.00  0.00    -0.508 OA
ATOM     27  H   UNL     1       4.017   6.344  10.471  1.00  0.00     0.293 HD
ENDBRANCH   8  26
TORSDOF 6
ENDMDL
MODEL 5
REMARK VINA RESULT:    -4.839      3.849      6.425
REMARK INTER + INTRA:          -6.157
REMARK INTER:                  -5.932
REMARK INTRA:                  -0.225
REMARK UNBOUND:                -0.328
REMARK SMILES O=c1c(O)c(-c2ccc(O)c(O)c2)oc2cc(O)cc(O)c12
REMARK SMILES IDX 5 1 3 2 2 3 1 4 22 5 20 6 19 7 17 8 16 9 15 10 14 11 6 12
REMARK SMILES IDX 7 13 8 14 9 15 13 16 11 17 10 18 12 20 4 22 21 24 18 26
REMARK H PARENT 10 19 12 21 4 23 21 25 18 27
REMARK Flexibility Score: inf
ROOT
ATOM      1  C   UNL     1       1.682   7.810   4.634  1.00  0.00     0.180 A 
ATOM      2  C   UNL     1       2.881   7.876   5.362  1.00  0.00     0.208 A 
ATOM      3  C   UNL     1       2.851   8.350   6.683  1.00  0.00     0.238 A 
ATOM      4  O   UNL     1       3.935   8.458   7.312  1.00  0.00    -0.285 OA
ATOM      5  C   UNL     1       1.619   8.737   7.265  1.00  0.00     0.111 A 
ATOM      6  C   UNL     1       1.465   9.195   8.607  1.00  0.00     0.134 A 
ATOM      7  C   UNL     1       0.221   9.674   9.035  1.00  0.00     0.093 A 
ATOM      8  C   UNL     1      -0.888   9.652   8.191  1.00  0.00     0.123 A 
ATOM      9  C   UNL     1      -0.763   9.152   6.894  1.00  0.00     0.094 A 
ATOM     10  C   UNL     1       0.473   8.700   6.427  1.00  0.00     0.146 A 
ATOM     11  O   UNL     1       0.553   8.241   5.184  1.00  0.00    -0.452 OA
ENDROOT
BRANCH   1  12
ATOM     12  C   UNL     1       1.630   7.298   3.245  1.00  0.00     0.025 A 
ATOM     13  C   UNL     1       1.024   6.066   2.942  1.00  0.00     0.016 A 
ATOM     14  C   UNL     1       0.965   5.613   1.621  1.00  0.00     0.051 A 
ATOM     15  C   UNL     1       1.498   6.390   0.583  1.00  0.00     0.157 A 
ATOM     16  C   UNL     1       2.143   8.082   2.199  1.00  0.00     0.062 A 
ATOM     17  C   UNL     1       2.086   7.632   0.875  1.00  0.00     0.158 A 
BRANCH  15  18
ATOM     18  O   UNL     1       1.439   5.936  -0.733  1.00  0.00    -0.504 OA
ATOM     19  H   UNL     1       2.278   5.805  -1.287  1.00  0.00     0.293 HD
ENDBRANCH  15  18
BRANCH  17  20
ATOM     20  O   UNL     1       2.619   8.431  -0.136  1.00  0.00    -0.504 OA
ATOM     21  H   UNL     1       3.504   8.218  -0.580  1.00  0.00     0.293 HD
ENDBRANCH  17  20
ENDBRANCH   1  12
BRANCH   2  22
ATOM     22  O   UNL     1       4.089   7.509   4.762  1.00  0.00    -0.502 OA
ATOM     23  H   UNL     1       4.409   6.549   4.725  1.00  0.00     0.293 HD
ENDBRANCH   2  22
BRANCH   6  24
ATOM     24  O   UNL     1       2.487   9.173   9.562  1.00  0.00    -0.507 OA
ATOM     25  H   UNL     1       3.228   8.489   9.594  1.00  0.00     0.293 HD
ENDBRANCH   6  24
BRANCH   8  26
ATOM     26  O   UNL     1      -2.115  10.124   8.655  1.00  0.00    -0.508 OA
ATOM     27  H   UNL     1      -2.197  10.602   9.545  1.00  0.00     0.293 HD
ENDBRANCH   8  26
TORSDOF 6
ENDMDL
MODEL 6
REMARK VINA RESULT:    -4.808      1.990      6.504
REMARK INTER + INTRA:          -6.119
REMARK INTER:                  -5.799
REMARK INTRA:                  -0.320
REMARK UNBOUND:                -0.328
REMARK SMILES O=c1c(O)c(-c2ccc(O)c(O)c2)oc2cc(O)cc(O)c12
REMARK SMILES IDX 5 1 3 2 2 3 1 4 22 5 20 6 19 7 17 8 16 9 15 10 14 11 6 12
REMARK SMILES IDX 7 13 8 14 9 15 13 16 11 17 10 18 12 20 4 22 21 24 18 26
REMARK H PARENT 10 19 12 21 4 23 21 25 18 27
REMARK Flexibility Score: inf
ROOT
ATOM      1  C   UNL     1       3.369   7.602   3.020  1.00  0.00     0.180 A 
ATOM      2  C   UNL     1       3.509   8.292   1.805  1.00  0.00     0.208 A 
ATOM      3  C   UNL     1       4.549   7.934   0.933  1.00  0.00     0.238 A 
ATOM      4  O   UNL     1       4.702   8.592  -0.129  1.00  0.00    -0.285 OA
ATOM      5  C   UNL     1       5.427   6.879   1.281  1.00  0.00     0.111 A 
ATOM      6  C   UNL     1       6.492   6.406   0.457  1.00  0.00     0.134 A 
ATOM      7  C   UNL     1       7.378   5.444   0.958  1.00  0.00     0.093 A 
ATOM      8  C   UNL     1       7.201   4.893   2.226  1.00  0.00     0.123 A 
ATOM      9  C   UNL     1       6.129   5.306   3.018  1.00  0.00     0.094 A 
ATOM     10  C   UNL     1       5.249   6.289   2.560  1.00  0.00     0.146 A 
ATOM     11  O   UNL     1       4.248   6.662   3.348  1.00  0.00    -0.452 OA
ENDROOT
BRANCH   1  12
ATOM     12  C   UNL     1       2.282   7.906   3.979  1.00  0.00     0.025 A 
ATOM     13  C   UNL     1       0.991   7.375   3.813  1.00  0.00     0.016 A 
ATOM     14  C   UNL     1      -0.014   7.656   4.743  1.00  0.00     0.051 A 
ATOM     15  C   UNL     1       0.260   8.458   5.859  1.00  0.00     0.157 A 
ATOM     16  C   UNL     1       2.557   8.692   5.110  1.00  0.00     0.062 A 
ATOM     17  C   UNL     1       1.553   8.976   6.044  1.00  0.00     0.158 A 
BRANCH  15  18
ATOM     18  O   UNL     1      -0.744   8.738   6.785  1.00  0.00    -0.504 OA
ATOM     19  H   UNL     1      -1.337   8.007   7.161  1.00  0.00     0.293 HD
ENDBRANCH  15  18
BRANCH  17  20
ATOM     20  O   UNL     1       1.860   9.772   7.146  1.00  0.00    -0.504 OA
ATOM     21  H   UNL     1       2.130   9.375   8.038  1.00  0.00     0.293 HD
ENDBRANCH  17  20
ENDBRANCH   1  12
BRANCH   2  22
ATOM     22  O   UNL     1       2.644   9.345   1.491  1.00  0.00    -0.502 OA
ATOM     23  H   UNL     1       1.792   9.523   2.009  1.00  0.00     0.293 HD
ENDBRANCH   2  22
BRANCH   6  24
ATOM     24  O   UNL     1       6.704   6.823  -0.861  1.00  0.00    -0.507 OA
ATOM     25  H   UNL     1       7.406   6.441  -1.478  1.00  0.00     0.293 HD
ENDBRANCH   6  24
BRANCH   8  26
ATOM     26  O   UNL     1       8.094   3.928   2.687  1.00  0.00    -0.508 OA
ATOM     27  H   UNL     1       7.997   2.951   2.434  1.00  0.00     0.293 HD
ENDBRANCH   8  26
TORSDOF 6
ENDMDL
MODEL 7
REMARK VINA RESULT:    -4.661      1.295      2.856
REMARK INTER + INTRA:          -5.942
REMARK INTER:                  -5.669
REMARK INTRA:                  -0.273
REMARK UNBOUND:                -0.328
REMARK SMILES O=c1c(O)c(-c2ccc(O)c(O)c2)oc2cc(O)cc(O)c12
REMARK SMILES IDX 5 1 3 2 2 3 1 4 22 5 20 6 19 7 17 8 16 9 15 10 14 11 6 12
REMARK SMILES IDX 7 13 8 14 9 15 13 16 11 17 10 18 12 20 4 22 21 24 18 26
REMARK H PARENT 10 19 12 21 4 23 21 25 18 27
REMARK Flexibility Score: inf
ROOT
ATOM      1  C   UNL     1       5.141   6.447   3.260  1.00  0.00     0.180 A 
ATOM      2  C   UNL     1       4.635   7.554   3.961  1.00  0.00     0.208 A 
ATOM      3  C   UNL     1       3.378   8.069   3.605  1.00  0.00     0.238 A 
ATOM      4  O   UNL     1       2.955   9.095   4.200  1.00  0.00    -0.285 OA
ATOM      5  C   UNL     1       2.637   7.462   2.563  1.00  0.00     0.111 A 
ATOM      6  C   UNL     1       1.337   7.876   2.145  1.00  0.00     0.134 A 
ATOM      7  C   UNL     1       0.753   7.285   1.019  1.00  0.00     0.093 A 
ATOM      8  C   UNL     1       1.392   6.252   0.334  1.00  0.00     0.123 A 
ATOM      9  C   UNL     1       2.638   5.799   0.769  1.00  0.00     0.094 A 
ATOM     10  C   UNL     1       3.262   6.393   1.868  1.00  0.00     0.146 A 
ATOM     11  O   UNL     1       4.451   5.939   2.245  1.00  0.00    -0.452 OA
ENDROOT
BRANCH   1  12
ATOM     12  C   UNL     1       6.446   5.832   3.595  1.00  0.00     0.025 A 
ATOM     13  C   UNL     1       7.658   6.434   3.214  1.00  0.00     0.016 A 
ATOM     14  C   UNL     1       8.878   5.849   3.561  1.00  0.00     0.051 A 
ATOM     15  C   UNL     1       8.907   4.662   4.304  1.00  0.00     0.157 A 
ATOM     16  C   UNL     1       6.480   4.653   4.358  1.00  0.00     0.062 A 
ATOM     17  C   UNL     1       7.700   4.063   4.707  1.00  0.00     0.158 A 
BRANCH  15  18
ATOM     18  O   UNL     1      10.125   4.079   4.648  1.00  0.00    -0.504 OA
ATOM     19  H   UNL     1      10.944   4.641   4.848  1.00  0.00     0.293 HD
ENDBRANCH  15  18
BRANCH  17  20
ATOM     20  O   UNL     1       7.694   2.886   5.454  1.00  0.00    -0.504 OA
ATOM     21  H   UNL     1       7.569   2.886   6.459  1.00  0.00     0.293 HD
ENDBRANCH  17  20
ENDBRANCH   1  12
BRANCH   2  22
ATOM     22  O   UNL     1       5.392   8.153   4.972  1.00  0.00    -0.502 OA
ATOM     23  H   UNL     1       5.537   7.716   5.874  1.00  0.00     0.293 HD
ENDBRANCH   2  22
BRANCH   6  24
ATOM     24  O   UNL     1       0.571   8.836   2.813  1.00  0.00    -0.507 OA
ATOM     25  H   UNL     1       0.265   8.761   3.772  1.00  0.00     0.293 HD
ENDBRANCH   6  24
BRANCH   8  26
ATOM     26  O   UNL     1       0.775   5.676  -0.775  1.00  0.00    -0.508 OA
ATOM     27  H   UNL     1       1.293   5.109  -1.436  1.00  0.00     0.293 HD
ENDBRANCH   8  26
TORSDOF 6
ENDMDL
MODEL 8
REMARK VINA RESULT:    -4.556      1.626      6.635
REMARK INTER + INTRA:          -5.816
REMARK INTER:                  -5.494
REMARK INTRA:                  -0.323
REMARK UNBOUND:                -0.328
REMARK SMILES O=c1c(O)c(-c2ccc(O)c(O)c2)oc2cc(O)cc(O)c12
REMARK SMILES IDX 5 1 3 2 2 3 1 4 22 5 20 6 19 7 17 8 16 9 15 10 14 11 6 12
REMARK SMILES IDX 7 13 8 14 9 15 13 16 11 17 10 18 12 20 4 22 21 24 18 26
REMARK H PARENT 10 19 12 21 4 23 21 25 18 27
REMARK Flexibility Score: inf
ROOT
ATOM      1  C   UNL     1       4.385   6.959   3.119  1.00  0.00     0.180 A 
ATOM      2  C   UNL     1       4.749   6.247   1.965  1.00  0.00     0.208 A 
ATOM      3  C   UNL     1       5.943   5.508   1.968  1.00  0.00     0.238 A 
ATOM      4  O   UNL     1       6.292   4.917   0.913  1.00  0.00    -0.285 OA
ATOM      5  C   UNL     1       6.749   5.477   3.131  1.00  0.00     0.111 A 
ATOM      6  C   UNL     1       7.958   4.730   3.261  1.00  0.00     0.134 A 
ATOM      7  C   UNL     1       8.741   4.877   4.412  1.00  0.00     0.093 A 
ATOM      8  C   UNL     1       8.328   5.692   5.465  1.00  0.00     0.123 A 
ATOM      9  C   UNL     1       7.118   6.382   5.374  1.00  0.00     0.094 A 
ATOM     10  C   UNL     1       6.333   6.284   4.224  1.00  0.00     0.146 A 
ATOM     11  O   UNL     1       5.194   6.963   4.172  1.00  0.00    -0.452 OA
ENDROOT
BRANCH   1  12
ATOM     12  C   UNL     1       3.129   7.740   3.200  1.00  0.00     0.025 A 
ATOM     13  C   UNL     1       3.086   9.096   2.832  1.00  0.00     0.016 A 
ATOM     14  C   UNL     1       1.885   9.808   2.894  1.00  0.00     0.051 A 
ATOM     15  C   UNL     1       0.708   9.173   3.310  1.00  0.00     0.157 A 
ATOM     16  C   UNL     1       1.942   7.103   3.596  1.00  0.00     0.062 A 
ATOM     17  C   UNL     1       0.737   7.812   3.659  1.00  0.00     0.158 A 
BRANCH  15  18
ATOM     18  O   UNL     1      -0.489   9.885   3.372  1.00  0.00    -0.504 OA
ATOM     19  H   UNL     1      -0.890  10.321   2.549  1.00  0.00     0.293 HD
ENDBRANCH  15  18
BRANCH  17  20
ATOM     20  O   UNL     1      -0.418   7.149   4.071  1.00  0.00    -0.504 OA
ATOM     21  H   UNL     1      -1.284   7.641   4.257  1.00  0.00     0.293 HD
ENDBRANCH  17  20
ENDBRANCH   1  12
BRANCH   2  22
ATOM     22  O   UNL     1       3.951   6.309   0.819  1.00  0.00    -0.502 OA
ATOM     23  H   UNL     1       3.596   7.183   0.449  1.00  0.00     0.293 HD
ENDBRANCH   2  22
BRANCH   6  24
ATOM     24  O   UNL     1       8.416   3.816   2.307  1.00  0.00    -0.507 OA
ATOM     25  H   UNL     1       7.862   3.455   1.545  1.00  0.00     0.293 HD
ENDBRANCH   6  24
BRANCH   8  26
ATOM     26  O   UNL     1       9.125   5.803   6.602  1.00  0.00    -0.508 OA
ATOM     27  H   UNL     1       9.116   5.096   7.328  1.00  0.00     0.293 HD
ENDBRANCH   8  26
TORSDOF 6
ENDMDL
MODEL 9
REMARK VINA RESULT:    -4.523      1.791      2.225
REMARK INTER + INTRA:          -5.776
REMARK INTER:                  -5.442
REMARK INTRA:                  -0.333
REMARK UNBOUND:                -0.328
REMARK SMILES O=c1c(O)c(-c2ccc(O)c(O)c2)oc2cc(O)cc(O)c12
REMARK SMILES IDX 5 1 3 2 2 3 1 4 22 5 20 6 19 7 17 8 16 9 15 10 14 11 6 12
REMARK SMILES IDX 7 13 8 14 9 15 13 16 11 17 10 18 12 20 4 22 21 24 18 26
REMARK H PARENT 10 19 12 21 4 23 21 25 18 27
REMARK Flexibility Score: inf
ROOT
ATOM      1  C   UNL     1       6.184   5.715   3.468  1.00  0.00     0.180 A 
ATOM      2  C   UNL     1       6.253   5.668   2.066  1.00  0.00     0.208 A 
ATOM      3  C   UNL     1       5.381   6.470   1.313  1.00  0.00     0.238 A 
ATOM      4  O   UNL     1       5.411   6.382   0.058  1.00  0.00    -0.285 OA
ATOM      5  C   UNL     1       4.462   7.321   1.972  1.00  0.00     0.111 A 
ATOM      6  C   UNL     1       3.558   8.206   1.310  1.00  0.00     0.134 A 
ATOM      7  C   UNL     1       2.604   8.905   2.058  1.00  0.00     0.093 A 
ATOM      8  C   UNL     1       2.562   8.803   3.448  1.00  0.00     0.123 A 
ATOM      9  C   UNL     1       3.478   7.986   4.111  1.00  0.00     0.094 A 
ATOM     10  C   UNL     1       4.419   7.248   3.389  1.00  0.00     0.146 A 
ATOM     11  O   UNL     1       5.267   6.475   4.056  1.00  0.00    -0.452 OA
ENDROOT
BRANCH   1  12
ATOM     12  C   UNL     1       7.087   4.918   4.329  1.00  0.00     0.025 A 
ATOM     13  C   UNL     1       8.349   5.404   4.714  1.00  0.00     0.016 A 
ATOM     14  C   UNL     1       9.175   4.645   5.547  1.00  0.00     0.051 A 
ATOM     15  C   UNL     1       8.748   3.397   6.019  1.00  0.00     0.157 A 
ATOM     16  C   UNL     1       6.654   3.676   4.824  1.00  0.00     0.062 A 
ATOM     17  C   UNL     1       7.479   2.913   5.658  1.00  0.00     0.158 A 
BRANCH  15  18
ATOM     18  O   UNL     1       9.574   2.641   6.849  1.00  0.00    -0.504 OA
ATOM     19  H   UNL     1      10.124   1.869   6.490  1.00  0.00     0.293 HD
ENDBRANCH  15  18
BRANCH  17  20
ATOM     20  O   UNL     1       7.021   1.678   6.117  1.00  0.00    -0.504 OA
ATOM     21  H   UNL     1       6.068   1.370   5.970  1.00  0.00     0.293 HD
ENDBRANCH  17  20
ENDBRANCH   1  12
BRANCH   2  22
ATOM     22  O   UNL     1       7.153   4.804   1.436  1.00  0.00    -0.502 OA
ATOM     23  H   UNL     1       6.934   3.834   1.243  1.00  0.00     0.293 HD
ENDBRANCH   2  22
BRANCH   6  24
ATOM     24  O   UNL     1       3.575   8.453  -0.066  1.00  0.00    -0.507 OA
ATOM     25  H   UNL     1       3.043   7.935  -0.749  1.00  0.00     0.293 HD
ENDBRANCH   6  24
BRANCH   8  26
ATOM     26  O   UNL     1       1.608   9.525   4.162  1.00  0.00    -0.508 OA
ATOM     27  H   UNL     1       0.813   9.954   3.702  1.00  0.00     0.293 HD
ENDBRANCH   8  26
TORSDOF 6
ENDMDL
