MODEL 1
REMARK VINA RESULT:    -8.309      0.000      0.000
REMARK INTER + INTRA:         -13.656
REMARK INTER:                 -11.952
REMARK INTRA:                  -1.705
REMARK UNBOUND:                -1.705
REMARK SMILES O=c1c(O[C@H]2O[C@H](CO)[C@H](O)[C@H](O)[C@@H]2O)c(-c2ccc(O)cc2)oc2cc(O)cc(O)c12
REMARK SMILES IDX 4 1 3 2 16 3 24 4 2 5 25 6 1 7 32 8 26 9 30 10 27 11 29 12
REMARK SMILES IDX 17 13 18 14 19 15 20 16 23 17 22 18 21 19 31 21 28 23 5 25
REMARK SMILES IDX 14 26 6 27 12 28 7 29 10 30 15 31 13 33 8 35 9 36 11 38
REMARK H PARENT 21 20 31 22 28 24 15 32 13 34 9 37 11 39
REMARK Flexibility Score: inf
ROOT
ATOM      1  O   UNL     1     -13.980 -45.183  -2.138  1.00  0.00    -0.454 OA
ENDROOT
BRANCH   1   2
ATOM      2  C   UNL     1     -13.601 -44.181  -1.226  1.00  0.00     0.214 A 
ATOM      3  C   UNL     1     -12.301 -43.628  -1.252  1.00  0.00     0.180 A 
ATOM      4  O   UNL     1     -11.732 -43.276  -0.104  1.00  0.00    -0.452 OA
ATOM      5  C   UNL     1     -14.376 -43.986  -0.053  1.00  0.00     0.239 A 
ATOM      6  C   UNL     1     -12.331 -43.422   1.071  1.00  0.00     0.146 A 
ATOM      7  O   UNL     1     -15.624 -44.144  -0.105  1.00  0.00    -0.285 OA
ATOM      8  C   UNL     1     -13.704 -43.729   1.146  1.00  0.00     0.111 A 
ATOM      9  C   UNL     1     -11.586 -43.205   2.232  1.00  0.00     0.094 A 
ATOM     10  C   UNL     1     -14.313 -43.876   2.419  1.00  0.00     0.134 A 
ATOM     11  C   UNL     1     -12.183 -43.377   3.490  1.00  0.00     0.123 A 
ATOM     12  C   UNL     1     -13.543 -43.689   3.574  1.00  0.00     0.093 A 
BRANCH   3  13
ATOM     13  C   UNL     1     -11.475 -43.474  -2.500  1.00  0.00     0.021 A 
ATOM     14  C   UNL     1     -10.292 -44.224  -2.614  1.00  0.00     0.016 A 
ATOM     15  C   UNL     1      -9.448 -44.073  -3.710  1.00  0.00     0.047 A 
ATOM     16  C   UNL     1      -9.777 -43.188  -4.743  1.00  0.00     0.115 A 
ATOM     17  C   UNL     1     -11.800 -42.580  -3.544  1.00  0.00     0.016 A 
ATOM     18  C   UNL     1     -10.988 -42.469  -4.670  1.00  0.00     0.047 A 
BRANCH  16  19
ATOM     19  O   UNL     1      -8.913 -43.033  -5.812  1.00  0.00    -0.508 OA
ATOM     20  H   UNL     1      -8.001 -42.608  -5.691  1.00  0.00     0.293 HD
ENDBRANCH  16  19
ENDBRANCH   3  13
BRANCH  10  21
ATOM     21  O   UNL     1     -15.651 -44.265   2.534  1.00  0.00    -0.507 OA
ATOM     22  H   UNL     1     -15.934 -45.223   2.395  1.00  0.00     0.293 HD
ENDBRANCH  10  21
BRANCH  11  23
ATOM     23  O   UNL     1     -11.401 -43.298   4.636  1.00  0.00    -0.508 OA
ATOM     24  H   UNL     1     -11.832 -43.204   5.551  1.00  0.00     0.293 HD
ENDBRANCH  11  23
ENDBRANCH   1   2
BRANCH   1  25
ATOM     25  C   UNL     1     -13.247 -46.413  -2.129  1.00  0.00     0.339 C 
ATOM     26  C   UNL     1     -13.380 -47.281  -3.411  1.00  0.00     0.214 C 
ATOM     27  O   UNL     1     -13.582 -47.161  -0.981  1.00  0.00    -0.332 OA
ATOM     28  C   UNL     1     -14.704 -48.114  -3.450  1.00  0.00     0.180 C 
ATOM     29  C   UNL     1     -14.938 -47.581  -1.020  1.00  0.00     0.179 C 
ATOM     30  C   UNL     1     -15.081 -48.692  -2.064  1.00  0.00     0.177 C 
BRANCH  26  31
ATOM     31  O   UNL     1     -12.268 -48.177  -3.472  1.00  0.00    -0.384 OA
ATOM     32  H   UNL     1     -12.535 -48.946  -4.059  1.00  0.00     0.211 HD
ENDBRANCH  26  31
BRANCH  28  33
ATOM     33  O   UNL     1     -14.649 -49.148  -4.404  1.00  0.00    -0.387 OA
ATOM     34  H   UNL     1     -13.799 -49.046  -4.914  1.00  0.00     0.211 HD
ENDBRANCH  28  33
BRANCH  29  35
ATOM     35  C   UNL     1     -15.296 -47.983   0.409  1.00  0.00     0.191 C 
BRANCH  35  36
ATOM     36  O   UNL     1     -15.440 -46.869   1.254  1.00  0.00    -0.394 OA
ATOM     37  H   UNL     1     -14.897 -46.129   0.856  1.00  0.00     0.210 HD
ENDBRANCH  35  36
ENDBRANCH  29  35
BRANCH  30  38
ATOM     38  O   UNL     1     -14.266 -49.792  -1.742  1.00  0.00    -0.387 OA
ATOM     39  H   UNL     1     -13.490 -49.422  -1.245  1.00  0.00     0.211 HD
ENDBRANCH  30  38
ENDBRANCH   1  25
TORSDOF 11
ENDMDL
MODEL 2
REMARK VINA RESULT:    -8.054      4.095      7.373
REMARK INTER + INTRA:         -13.290
REMARK INTER:                 -11.989
REMARK INTRA:                  -1.301
REMARK UNBOUND:                -1.705
REMARK SMILES O=c1c(O[C@H]2O[C@H](CO)[C@H](O)[C@H](O)[C@@H]2O)c(-c2ccc(O)cc2)oc2cc(O)cc(O)c12
REMARK SMILES IDX 4 1 3 2 16 3 24 4 2 5 25 6 1 7 32 8 26 9 30 10 27 11 29 12
REMARK SMILES IDX 17 13 18 14 19 15 20 16 23 17 22 18 21 19 31 21 28 23 5 25
REMARK SMILES IDX 14 26 6 27 12 28 7 29 10 30 15 31 13 33 8 35 9 36 11 38
REMARK H PARENT 21 20 31 22 28 24 15 32 13 34 9 37 11 39
REMARK Flexibility Score: inf
ROOT
ATOM      1  O   UNL     1     -15.062 -42.976  -4.531  1.00  0.00    -0.454 OA
ENDROOT
BRANCH   1   2
ATOM      2  C   UNL     1     -14.463 -42.991  -5.805  1.00  0.00     0.214 A 
ATOM      3  C   UNL     1     -13.059 -42.940  -5.949  1.00  0.00     0.180 A 
ATOM      4  O   UNL     1     -12.546 -42.284  -6.984  1.00  0.00    -0.452 OA
ATOM      5  C   UNL     1     -15.255 -42.683  -6.943  1.00  0.00     0.239 A 
ATOM      6  C   UNL     1     -13.295 -41.672  -7.892  1.00  0.00     0.146 A 
ATOM      7  O   UNL     1     -16.460 -43.044  -6.972  1.00  0.00    -0.285 OA
ATOM      8  C   UNL     1     -14.685 -41.893  -7.946  1.00  0.00     0.111 A 
ATOM      9  C   UNL     1     -12.668 -40.851  -8.831  1.00  0.00     0.094 A 
ATOM     10  C   UNL     1     -15.457 -41.223  -8.931  1.00  0.00     0.134 A 
ATOM     11  C   UNL     1     -13.435 -40.168  -9.788  1.00  0.00     0.123 A 
ATOM     12  C   UNL     1     -14.816 -40.376  -9.845  1.00  0.00     0.093 A 
BRANCH   3  13
ATOM     13  C   UNL     1     -12.088 -43.522  -4.959  1.00  0.00     0.021 A 
ATOM     14  C   UNL     1     -11.253 -42.644  -4.246  1.00  0.00     0.016 A 
ATOM     15  C   UNL     1     -10.285 -43.125  -3.370  1.00  0.00     0.047 A 
ATOM     16  C   UNL     1     -10.141 -44.499  -3.155  1.00  0.00     0.115 A 
ATOM     17  C   UNL     1     -11.936 -44.910  -4.741  1.00  0.00     0.016 A 
ATOM     18  C   UNL     1     -11.007 -45.391  -3.820  1.00  0.00     0.047 A 
BRANCH  16  19
ATOM     19  O   UNL     1      -9.156 -44.959  -2.300  1.00  0.00    -0.508 OA
ATOM     20  H   UNL     1      -8.338 -44.398  -2.094  1.00  0.00     0.293 HD
ENDBRANCH  16  19
ENDBRANCH   3  13
BRANCH  10  21
ATOM     21  O   UNL     1     -16.849 -41.350  -8.961  1.00  0.00    -0.507 OA
ATOM     22  H   UNL     1     -17.437 -40.845  -8.316  1.00  0.00     0.293 HD
ENDBRANCH  10  21
BRANCH  11  23
ATOM     23  O   UNL     1     -12.822 -39.246 -10.627  1.00  0.00    -0.508 OA
ATOM     24  H   UNL     1     -11.943 -38.811 -10.364  1.00  0.00     0.293 HD
ENDBRANCH  11  23
ENDBRANCH   1   2
BRANCH   1  25
ATOM     25  C   UNL     1     -15.892 -44.084  -4.165  1.00  0.00     0.339 C 
ATOM     26  C   UNL     1     -17.283 -43.713  -3.578  1.00  0.00     0.214 C 
ATOM     27  O   UNL     1     -15.191 -44.939  -3.290  1.00  0.00    -0.332 OA
ATOM     28  C   UNL     1     -17.219 -43.310  -2.068  1.00  0.00     0.180 C 
ATOM     29  C   UNL     1     -14.925 -44.298  -2.051  1.00  0.00     0.179 C 
ATOM     30  C   UNL     1     -16.232 -44.187  -1.261  1.00  0.00     0.177 C 
BRANCH  26  31
ATOM     31  O   UNL     1     -18.152 -44.839  -3.721  1.00  0.00    -0.384 OA
ATOM     32  H   UNL     1     -18.264 -45.006  -4.705  1.00  0.00     0.211 HD
ENDBRANCH  26  31
BRANCH  28  33
ATOM     33  O   UNL     1     -18.491 -43.334  -1.462  1.00  0.00    -0.387 OA
ATOM     34  H   UNL     1     -18.357 -43.356  -0.474  1.00  0.00     0.211 HD
ENDBRANCH  28  33
BRANCH  29  35
ATOM     35  C   UNL     1     -13.828 -45.120  -1.379  1.00  0.00     0.191 C 
BRANCH  35  36
ATOM     36  O   UNL     1     -14.049 -45.274   0.001  1.00  0.00    -0.394 OA
ATOM     37  H   UNL     1     -15.018 -45.085   0.163  1.00  0.00     0.210 HD
ENDBRANCH  35  36
ENDBRANCH  29  35
BRANCH  30  38
ATOM     38  O   UNL     1     -16.779 -45.460  -1.015  1.00  0.00    -0.387 OA
ATOM     39  H   UNL     1     -16.235 -46.099  -1.544  1.00  0.00     0.211 HD
ENDBRANCH  30  38
ENDBRANCH   1  25
TORSDOF 11
ENDMDL
MODEL 3
REMARK VINA RESULT:    -8.034      2.994      8.007
REMARK INTER + INTRA:         -13.262
REMARK INTER:                 -12.205
REMARK INTRA:                  -1.057
REMARK UNBOUND:                -1.705
REMARK SMILES O=c1c(O[C@H]2O[C@H](CO)[C@H](O)[C@H](O)[C@@H]2O)c(-c2ccc(O)cc2)oc2cc(O)cc(O)c12
REMARK SMILES IDX 4 1 3 2 16 3 24 4 2 5 25 6 1 7 32 8 26 9 30 10 27 11 29 12
REMARK SMILES IDX 17 13 18 14 19 15 20 16 23 17 22 18 21 19 31 21 28 23 5 25
REMARK SMILES IDX 14 26 6 27 12 28 7 29 10 30 15 31 13 33 8 35 9 36 11 38
REMARK H PARENT 21 20 31 22 28 24 15 32 13 34 9 37 11 39
REMARK Flexibility Score: inf
ROOT
ATOM      1  O   UNL     1     -12.931 -43.856  -4.158  1.00  0.00    -0.454 OA
ENDROOT
BRANCH   1   2
ATOM      2  C   UNL     1     -13.022 -44.491  -5.412  1.00  0.00     0.214 A 
ATOM      3  C   UNL     1     -12.918 -45.894  -5.525  1.00  0.00     0.180 A 
ATOM      4  O   UNL     1     -12.326 -46.408  -6.598  1.00  0.00    -0.452 OA
ATOM      5  C   UNL     1     -12.844 -43.719  -6.590  1.00  0.00     0.239 A 
ATOM      6  C   UNL     1     -11.825 -45.658  -7.571  1.00  0.00     0.146 A 
ATOM      7  O   UNL     1     -13.261 -42.531  -6.618  1.00  0.00    -0.285 OA
ATOM      8  C   UNL     1     -12.113 -44.281  -7.641  1.00  0.00     0.111 A 
ATOM      9  C   UNL     1     -11.055 -46.275  -8.560  1.00  0.00     0.094 A 
ATOM     10  C   UNL     1     -11.561 -43.509  -8.696  1.00  0.00     0.134 A 
ATOM     11  C   UNL     1     -10.489 -45.506  -9.588  1.00  0.00     0.123 A 
ATOM     12  C   UNL     1     -10.763 -44.137  -9.661  1.00  0.00     0.093 A 
BRANCH   3  13
ATOM     13  C   UNL     1     -13.373 -46.862  -4.467  1.00  0.00     0.021 A 
ATOM     14  C   UNL     1     -14.724 -46.844  -4.081  1.00  0.00     0.016 A 
ATOM     15  C   UNL     1     -15.190 -47.664  -3.059  1.00  0.00     0.047 A 
ATOM     16  C   UNL     1     -14.326 -48.552  -2.410  1.00  0.00     0.115 A 
ATOM     17  C   UNL     1     -12.503 -47.759  -3.806  1.00  0.00     0.016 A 
ATOM     18  C   UNL     1     -12.980 -48.623  -2.823  1.00  0.00     0.047 A 
BRANCH  16  19
ATOM     19  O   UNL     1     -14.803 -49.341  -1.379  1.00  0.00    -0.508 OA
ATOM     20  H   UNL     1     -14.905 -50.344  -1.491  1.00  0.00     0.293 HD
ENDBRANCH  16  19
ENDBRANCH   3  13
BRANCH  10  21
ATOM     21  O   UNL     1     -11.754 -42.125  -8.750  1.00  0.00    -0.507 OA
ATOM     22  H   UNL     1     -11.222 -41.545  -9.381  1.00  0.00     0.293 HD
ENDBRANCH  10  21
BRANCH  11  23
ATOM     23  O   UNL     1      -9.611 -46.102 -10.485  1.00  0.00    -0.508 OA
ATOM     24  H   UNL     1      -8.621 -46.176 -10.269  1.00  0.00     0.293 HD
ENDBRANCH  11  23
ENDBRANCH   1   2
BRANCH   1  25
ATOM     25  C   UNL     1     -11.708 -43.185  -3.832  1.00  0.00     0.339 C 
ATOM     26  C   UNL     1     -10.449 -43.680  -4.598  1.00  0.00     0.214 C 
ATOM     27  O   UNL     1     -11.496 -43.228  -2.439  1.00  0.00    -0.332 OA
ATOM     28  C   UNL     1      -9.847 -44.993  -3.997  1.00  0.00     0.180 C 
ATOM     29  C   UNL     1     -11.276 -44.559  -1.994  1.00  0.00     0.179 C 
ATOM     30  C   UNL     1      -9.885 -45.008  -2.450  1.00  0.00     0.177 C 
BRANCH  26  31
ATOM     31  O   UNL     1      -9.457 -42.652  -4.554  1.00  0.00    -0.384 OA
ATOM     32  H   UNL     1      -8.843 -42.796  -5.335  1.00  0.00     0.211 HD
ENDBRANCH  26  31
BRANCH  28  33
ATOM     33  O   UNL     1      -8.533 -45.225  -4.448  1.00  0.00    -0.387 OA
ATOM     34  H   UNL     1      -8.070 -45.783  -3.765  1.00  0.00     0.211 HD
ENDBRANCH  28  33
BRANCH  29  35
ATOM     35  C   UNL     1     -11.489 -44.539  -0.483  1.00  0.00     0.191 C 
BRANCH  35  36
ATOM     36  O   UNL     1     -10.557 -43.716   0.174  1.00  0.00    -0.394 OA
ATOM     37  H   UNL     1     -10.647 -43.899   1.153  1.00  0.00     0.210 HD
ENDBRANCH  35  36
ENDBRANCH  29  35
BRANCH  30  38
ATOM     38  O   UNL     1      -8.887 -44.172  -1.916  1.00  0.00    -0.387 OA
ATOM     39  H   UNL     1      -8.481 -44.675  -1.163  1.00  0.00     0.211 HD
ENDBRANCH  30  38
ENDBRANCH   1  25
TORSDOF 11
ENDMDL
MODEL 4
REMARK VINA RESULT:    -7.978      5.136      8.216
REMARK INTER + INTRA:         -13.181
REMARK INTER:                 -12.299
REMARK INTRA:                  -0.882
REMARK UNBOUND:                -1.705
REMARK SMILES O=c1c(O[C@H]2O[C@H](CO)[C@H](O)[C@H](O)[C@@H]2O)c(-c2ccc(O)cc2)oc2cc(O)cc(O)c12
REMARK SMILES IDX 4 1 3 2 16 3 24 4 2 5 25 6 1 7 32 8 26 9 30 10 27 11 29 12
REMARK SMILES IDX 17 13 18 14 19 15 20 16 23 17 22 18 21 19 31 21 28 23 5 25
REMARK SMILES IDX 14 26 6 27 12 28 7 29 10 30 15 31 13 33 8 35 9 36 11 38
REMARK H PARENT 21 20 31 22 28 24 15 32 13 34 9 37 11 39
REMARK Flexibility Score: inf
ROOT
ATOM      1  O   UNL     1     -13.208 -43.137  -7.705  1.00  0.00    -0.454 OA
ENDROOT
BRANCH   1   2
ATOM      2  C   UNL     1     -12.100 -42.820  -6.895  1.00  0.00     0.214 A 
ATOM      3  C   UNL     1     -10.788 -43.155  -7.295  1.00  0.00     0.180 A 
ATOM      4  O   UNL     1      -9.906 -43.508  -6.366  1.00  0.00    -0.452 OA
ATOM      5  C   UNL     1     -12.313 -42.507  -5.527  1.00  0.00     0.239 A 
ATOM      6  C   UNL     1     -10.205 -43.561  -5.074  1.00  0.00     0.146 A 
ATOM      7  O   UNL     1     -13.352 -41.880  -5.192  1.00  0.00    -0.285 OA
ATOM      8  C   UNL     1     -11.405 -43.007  -4.588  1.00  0.00     0.111 A 
ATOM      9  C   UNL     1      -9.276 -44.125  -4.197  1.00  0.00     0.094 A 
ATOM     10  C   UNL     1     -11.692 -43.080  -3.201  1.00  0.00     0.134 A 
ATOM     11  C   UNL     1      -9.571 -44.220  -2.829  1.00  0.00     0.123 A 
ATOM     12  C   UNL     1     -10.764 -43.680  -2.339  1.00  0.00     0.093 A 
BRANCH   3  13
ATOM     13  C   UNL     1     -10.331 -43.211  -8.727  1.00  0.00     0.021 A 
ATOM     14  C   UNL     1      -9.495 -42.186  -9.202  1.00  0.00     0.016 A 
ATOM     15  C   UNL     1      -9.097 -42.143 -10.534  1.00  0.00     0.047 A 
ATOM     16  C   UNL     1      -9.496 -43.141 -11.428  1.00  0.00     0.115 A 
ATOM     17  C   UNL     1     -10.734 -44.216  -9.635  1.00  0.00     0.016 A 
ATOM     18  C   UNL     1     -10.289 -44.207 -10.955  1.00  0.00     0.047 A 
BRANCH  16  19
ATOM     19  O   UNL     1      -9.111 -43.068 -12.755  1.00  0.00    -0.508 OA
ATOM     20  H   UNL     1      -9.706 -42.631 -13.449  1.00  0.00     0.293 HD
ENDBRANCH  16  19
ENDBRANCH   3  13
BRANCH  10  21
ATOM     21  O   UNL     1     -12.910 -42.618  -2.694  1.00  0.00    -0.507 OA
ATOM     22  H   UNL     1     -13.216 -42.857  -1.763  1.00  0.00     0.293 HD
ENDBRANCH  10  21
BRANCH  11  23
ATOM     23  O   UNL     1      -8.706 -44.908  -1.987  1.00  0.00    -0.508 OA
ATOM     24  H   UNL     1      -8.064 -44.405  -1.382  1.00  0.00     0.293 HD
ENDBRANCH  11  23
ENDBRANCH   1   2
BRANCH   1  25
ATOM     25  C   UNL     1     -14.240 -42.154  -7.847  1.00  0.00     0.339 C 
ATOM     26  C   UNL     1     -15.493 -42.611  -8.644  1.00  0.00     0.214 C 
ATOM     27  O   UNL     1     -13.701 -40.971  -8.394  1.00  0.00    -0.332 OA
ATOM     28  C   UNL     1     -15.282 -42.560 -10.193  1.00  0.00     0.180 C 
ATOM     29  C   UNL     1     -13.253 -41.180  -9.726  1.00  0.00     0.179 C 
ATOM     30  C   UNL     1     -14.472 -41.319 -10.641  1.00  0.00     0.177 C 
BRANCH  26  31
ATOM     31  O   UNL     1     -16.588 -41.760  -8.297  1.00  0.00    -0.384 OA
ATOM     32  H   UNL     1     -17.337 -41.962  -8.933  1.00  0.00     0.211 HD
ENDBRANCH  26  31
BRANCH  28  33
ATOM     33  O   UNL     1     -16.503 -42.616 -10.894  1.00  0.00    -0.387 OA
ATOM     34  H   UNL     1     -16.538 -43.488 -11.376  1.00  0.00     0.211 HD
ENDBRANCH  28  33
BRANCH  29  35
ATOM     35  C   UNL     1     -12.330 -40.007 -10.048  1.00  0.00     0.191 C 
BRANCH  35  36
ATOM     36  O   UNL     1     -12.669 -39.382 -11.260  1.00  0.00    -0.394 OA
ATOM     37  H   UNL     1     -11.815 -39.071 -11.676  1.00  0.00     0.210 HD
ENDBRANCH  35  36
ENDBRANCH  29  35
BRANCH  30  38
ATOM     38  O   UNL     1     -15.268 -40.160 -10.597  1.00  0.00    -0.387 OA
ATOM     39  H   UNL     1     -15.304 -39.887  -9.644  1.00  0.00     0.211 HD
ENDBRANCH  30  38
ENDBRANCH   1  25
TORSDOF 11
ENDMDL
MODEL 5
REMARK VINA RESULT:    -7.822      3.789      8.071
REMARK INTER + INTRA:         -12.956
REMARK INTER:                 -11.461
REMARK INTRA:                  -1.495
REMARK UNBOUND:                -1.705
REMARK SMILES O=c1c(O[C@H]2O[C@H](CO)[C@H](O)[C@H](O)[C@@H]2O)c(-c2ccc(O)cc2)oc2cc(O)cc(O)c12
REMARK SMILES IDX 4 1 3 2 16 3 24 4 2 5 25 6 1 7 32 8 26 9 30 10 27 11 29 12
REMARK SMILES IDX 17 13 18 14 19 15 20 16 23 17 22 18 21 19 31 21 28 23 5 25
REMARK SMILES IDX 14 26 6 27 12 28 7 29 10 30 15 31 13 33 8 35 9 36 11 38
REMARK H PARENT 21 20 31 22 28 24 15 32 13 34 9 37 11 39
REMARK Flexibility Score: inf
ROOT
ATOM      1  O   UNL     1     -13.625 -42.794  -3.064  1.00  0.00    -0.454 OA
ENDROOT
BRANCH   1   2
ATOM      2  C   UNL     1     -14.429 -42.346  -4.130  1.00  0.00     0.214 A 
ATOM      3  C   UNL     1     -15.675 -42.951  -4.404  1.00  0.00     0.180 A 
ATOM      4  O   UNL     1     -16.070 -43.057  -5.669  1.00  0.00    -0.452 OA
ATOM      5  C   UNL     1     -13.842 -41.552  -5.150  1.00  0.00     0.239 A 
ATOM      6  C   UNL     1     -15.342 -42.621  -6.689  1.00  0.00     0.146 A 
ATOM      7  O   UNL     1     -12.937 -40.730  -4.848  1.00  0.00    -0.285 OA
ATOM      8  C   UNL     1     -14.222 -41.795  -6.473  1.00  0.00     0.111 A 
ATOM      9  C   UNL     1     -15.747 -42.947  -7.985  1.00  0.00     0.094 A 
ATOM     10  C   UNL     1     -13.467 -41.344  -7.588  1.00  0.00     0.134 A 
ATOM     11  C   UNL     1     -14.985 -42.523  -9.084  1.00  0.00     0.123 A 
ATOM     12  C   UNL     1     -13.867 -41.710  -8.880  1.00  0.00     0.093 A 
BRANCH   3  13
ATOM     13  C   UNL     1     -16.568 -43.557  -3.357  1.00  0.00     0.021 A 
ATOM     14  C   UNL     1     -17.238 -44.754  -3.661  1.00  0.00     0.016 A 
ATOM     15  C   UNL     1     -18.133 -45.325  -2.762  1.00  0.00     0.047 A 
ATOM     16  C   UNL     1     -18.363 -44.734  -1.516  1.00  0.00     0.115 A 
ATOM     17  C   UNL     1     -16.807 -42.961  -2.097  1.00  0.00     0.016 A 
ATOM     18  C   UNL     1     -17.657 -43.562  -1.172  1.00  0.00     0.047 A 
BRANCH  16  19
ATOM     19  O   UNL     1     -19.275 -45.303  -0.645  1.00  0.00    -0.508 OA
ATOM     20  H   UNL     1     -20.151 -44.841  -0.429  1.00  0.00     0.293 HD
ENDBRANCH  16  19
ENDBRANCH   3  13
BRANCH  10  21
ATOM     21  O   UNL     1     -12.300 -40.596  -7.409  1.00  0.00    -0.507 OA
ATOM     22  H   UNL     1     -11.768 -40.648  -6.554  1.00  0.00     0.293 HD
ENDBRANCH  10  21
BRANCH  11  23
ATOM     23  O   UNL     1     -15.313 -42.969 -10.359  1.00  0.00    -0.508 OA
ATOM     24  H   UNL     1     -15.471 -42.309 -11.114  1.00  0.00     0.293 HD
ENDBRANCH  11  23
ENDBRANCH   1   2
BRANCH   1  25
ATOM     25  C   UNL     1     -12.912 -44.024  -3.231  1.00  0.00     0.339 C 
ATOM     26  C   UNL     1     -12.840 -44.931  -1.971  1.00  0.00     0.214 C 
ATOM     27  O   UNL     1     -11.621 -43.764  -3.736  1.00  0.00    -0.332 OA
ATOM     28  C   UNL     1     -11.742 -44.477  -0.954  1.00  0.00     0.180 C 
ATOM     29  C   UNL     1     -10.836 -43.049  -2.793  1.00  0.00     0.179 C 
ATOM     30  C   UNL     1     -10.448 -43.996  -1.654  1.00  0.00     0.177 C 
BRANCH  26  31
ATOM     31  O   UNL     1     -12.558 -46.269  -2.390  1.00  0.00    -0.384 OA
ATOM     32  H   UNL     1     -12.390 -46.243  -3.379  1.00  0.00     0.211 HD
ENDBRANCH  26  31
BRANCH  28  33
ATOM     33  O   UNL     1     -11.437 -45.487  -0.021  1.00  0.00    -0.387 OA
ATOM     34  H   UNL     1     -10.687 -45.159   0.548  1.00  0.00     0.211 HD
ENDBRANCH  28  33
BRANCH  29  35
ATOM     35  C   UNL     1      -9.665 -42.463  -3.578  1.00  0.00     0.191 C 
BRANCH  35  36
ATOM     36  O   UNL     1      -9.089 -43.402  -4.451  1.00  0.00    -0.394 OA
ATOM     37  H   UNL     1      -8.166 -43.586  -4.113  1.00  0.00     0.210 HD
ENDBRANCH  35  36
ENDBRANCH  29  35
BRANCH  30  38
ATOM     38  O   UNL     1      -9.706 -45.088  -2.140  1.00  0.00    -0.387 OA
ATOM     39  H   UNL     1      -9.705 -45.764  -1.413  1.00  0.00     0.211 HD
ENDBRANCH  30  38
ENDBRANCH   1  25
TORSDOF 11
ENDMDL
MODEL 6
REMARK VINA RESULT:    -7.814      3.580      6.065
REMARK INTER + INTRA:         -12.945
REMARK INTER:                 -11.339
REMARK INTRA:                  -1.606
REMARK UNBOUND:                -1.705
REMARK SMILES O=c1c(O[C@H]2O[C@H](CO)[C@H](O)[C@H](O)[C@@H]2O)c(-c2ccc(O)cc2)oc2cc(O)cc(O)c12
REMARK SMILES IDX 4 1 3 2 16 3 24 4 2 5 25 6 1 7 32 8 26 9 30 10 27 11 29 12
REMARK SMILES IDX 17 13 18 14 19 15 20 16 23 17 22 18 21 19 31 21 28 23 5 25
REMARK SMILES IDX 14 26 6 27 12 28 7 29 10 30 15 31 13 33 8 35 9 36 11 38
REMARK H PARENT 21 20 31 22 28 24 15 32 13 34 9 37 11 39
REMARK Flexibility Score: inf
ROOT
ATOM      1  O   UNL     1     -12.956 -44.475  -5.679  1.00  0.00    -0.454 OA
ENDROOT
BRANCH   1   2
ATOM      2  C   UNL     1     -14.351 -44.435  -5.496  1.00  0.00     0.214 A 
ATOM      3  C   UNL     1     -15.079 -43.244  -5.715  1.00  0.00     0.180 A 
ATOM      4  O   UNL     1     -16.129 -42.986  -4.943  1.00  0.00    -0.452 OA
ATOM      5  C   UNL     1     -14.978 -45.463  -4.744  1.00  0.00     0.239 A 
ATOM      6  C   UNL     1     -16.526 -43.798  -3.971  1.00  0.00     0.146 A 
ATOM      7  O   UNL     1     -14.534 -46.638  -4.815  1.00  0.00    -0.285 OA
ATOM      8  C   UNL     1     -16.004 -45.102  -3.865  1.00  0.00     0.111 A 
ATOM      9  C   UNL     1     -17.516 -43.353  -3.093  1.00  0.00     0.094 A 
ATOM     10  C   UNL     1     -16.453 -45.945  -2.815  1.00  0.00     0.134 A 
ATOM     11  C   UNL     1     -17.939 -44.177  -2.039  1.00  0.00     0.123 A 
ATOM     12  C   UNL     1     -17.422 -45.471  -1.921  1.00  0.00     0.093 A 
BRANCH   3  13
ATOM     13  C   UNL     1     -14.701 -42.198  -6.727  1.00  0.00     0.021 A 
ATOM     14  C   UNL     1     -13.979 -41.075  -6.289  1.00  0.00     0.016 A 
ATOM     15  C   UNL     1     -13.662 -40.039  -7.162  1.00  0.00     0.047 A 
ATOM     16  C   UNL     1     -14.030 -40.108  -8.509  1.00  0.00     0.115 A 
ATOM     17  C   UNL     1     -15.073 -42.261  -8.089  1.00  0.00     0.016 A 
ATOM     18  C   UNL     1     -14.706 -41.253  -8.978  1.00  0.00     0.047 A 
BRANCH  16  19
ATOM     19  O   UNL     1     -13.728 -39.057  -9.357  1.00  0.00    -0.508 OA
ATOM     20  H   UNL     1     -13.549 -39.214 -10.342  1.00  0.00     0.293 HD
ENDBRANCH  16  19
ENDBRANCH   3  13
BRANCH  10  21
ATOM     21  O   UNL     1     -15.896 -47.213  -2.625  1.00  0.00    -0.507 OA
ATOM     22  H   UNL     1     -15.556 -47.508  -1.723  1.00  0.00     0.293 HD
ENDBRANCH  10  21
BRANCH  11  23
ATOM     23  O   UNL     1     -18.820 -43.677  -1.088  1.00  0.00    -0.508 OA
ATOM     24  H   UNL     1     -18.473 -43.185  -0.269  1.00  0.00     0.293 HD
ENDBRANCH  11  23
ENDBRANCH   1   2
BRANCH   1  25
ATOM     25  C   UNL     1     -12.141 -43.686  -4.804  1.00  0.00     0.339 C 
ATOM     26  C   UNL     1     -10.647 -43.563  -5.214  1.00  0.00     0.214 C 
ATOM     27  O   UNL     1     -12.260 -44.160  -3.482  1.00  0.00    -0.332 OA
ATOM     28  C   UNL     1      -9.799 -44.815  -4.813  1.00  0.00     0.180 C 
ATOM     29  C   UNL     1     -11.719 -45.467  -3.354  1.00  0.00     0.179 C 
ATOM     30  C   UNL     1     -10.192 -45.378  -3.426  1.00  0.00     0.177 C 
BRANCH  26  31
ATOM     31  O   UNL     1     -10.095 -42.407  -4.578  1.00  0.00    -0.384 OA
ATOM     32  H   UNL     1      -9.255 -42.166  -5.071  1.00  0.00     0.211 HD
ENDBRANCH  26  31
BRANCH  28  33
ATOM     33  O   UNL     1      -8.416 -44.549  -4.850  1.00  0.00    -0.387 OA
ATOM     34  H   UNL     1      -8.131 -44.553  -5.805  1.00  0.00     0.211 HD
ENDBRANCH  28  33
BRANCH  29  35
ATOM     35  C   UNL     1     -12.276 -46.028  -2.048  1.00  0.00     0.191 C 
BRANCH  35  36
ATOM     36  O   UNL     1     -13.004 -47.214  -2.247  1.00  0.00    -0.394 OA
ATOM     37  H   UNL     1     -13.028 -47.692  -1.369  1.00  0.00     0.210 HD
ENDBRANCH  35  36
ENDBRANCH  29  35
BRANCH  30  38
ATOM     38  O   UNL     1      -9.687 -44.566  -2.395  1.00  0.00    -0.387 OA
ATOM     39  H   UNL     1      -8.778 -44.290  -2.683  1.00  0.00     0.211 HD
ENDBRANCH  30  38
ENDBRANCH   1  25
TORSDOF 11
ENDMDL
MODEL 7
REMARK VINA RESULT:    -7.746      2.153      3.656
REMARK INTER + INTRA:         -12.846
REMARK INTER:                 -11.549
REMARK INTRA:                  -1.297
REMARK UNBOUND:                -1.705
REMARK SMILES O=c1c(O[C@H]2O[C@H](CO)[C@H](O)[C@H](O)[C@@H]2O)c(-c2ccc(O)cc2)oc2cc(O)cc(O)c12
REMARK SMILES IDX 4 1 3 2 16 3 24 4 2 5 25 6 1 7 32 8 26 9 30 10 27 11 29 12
REMARK SMILES IDX 17 13 18 14 19 15 20 16 23 17 22 18 21 19 31 21 28 23 5 25
REMARK SMILES IDX 14 26 6 27 12 28 7 29 10 30 15 31 13 33 8 35 9 36 11 38
REMARK H PARENT 21 20 31 22 28 24 15 32 13 34 9 37 11 39
REMARK Flexibility Score: inf
ROOT
ATOM      1  O   UNL     1     -15.528 -45.493  -2.115  1.00  0.00    -0.454 OA
ENDROOT
BRANCH   1   2
ATOM      2  C   UNL     1     -15.672 -44.680  -0.974  1.00  0.00     0.214 A 
ATOM      3  C   UNL     1     -14.547 -44.277  -0.222  1.00  0.00     0.180 A 
ATOM      4  O   UNL     1     -14.668 -44.159   1.096  1.00  0.00    -0.452 OA
ATOM      5  C   UNL     1     -16.949 -44.570  -0.363  1.00  0.00     0.239 A 
ATOM      6  C   UNL     1     -15.802 -44.404   1.740  1.00  0.00     0.146 A 
ATOM      7  O   UNL     1     -17.981 -44.579  -1.083  1.00  0.00    -0.285 OA
ATOM      8  C   UNL     1     -17.011 -44.564   1.034  1.00  0.00     0.111 A 
ATOM      9  C   UNL     1     -15.783 -44.440   3.136  1.00  0.00     0.094 A 
ATOM     10  C   UNL     1     -18.206 -44.824   1.754  1.00  0.00     0.134 A 
ATOM     11  C   UNL     1     -16.960 -44.722   3.845  1.00  0.00     0.123 A 
ATOM     12  C   UNL     1     -18.163 -44.890   3.153  1.00  0.00     0.093 A 
BRANCH   3  13
ATOM     13  C   UNL     1     -13.182 -44.039  -0.806  1.00  0.00     0.021 A 
ATOM     14  C   UNL     1     -12.062 -44.181   0.031  1.00  0.00     0.016 A 
ATOM     15  C   UNL     1     -10.779 -43.905  -0.431  1.00  0.00     0.047 A 
ATOM     16  C   UNL     1     -10.572 -43.507  -1.756  1.00  0.00     0.115 A 
ATOM     17  C   UNL     1     -12.967 -43.633  -2.143  1.00  0.00     0.016 A 
ATOM     18  C   UNL     1     -11.678 -43.412  -2.625  1.00  0.00     0.047 A 
BRANCH  16  19
ATOM     19  O   UNL     1      -9.292 -43.212  -2.190  1.00  0.00    -0.508 OA
ATOM     20  H   UNL     1      -8.602 -42.821  -1.559  1.00  0.00     0.293 HD
ENDBRANCH  16  19
ENDBRANCH   3  13
BRANCH  10  21
ATOM     21  O   UNL     1     -19.408 -45.074   1.085  1.00  0.00    -0.507 OA
ATOM     22  H   UNL     1     -19.449 -45.121   0.079  1.00  0.00     0.293 HD
ENDBRANCH  10  21
BRANCH  11  23
ATOM     23  O   UNL     1     -16.905 -44.896   5.223  1.00  0.00    -0.508 OA
ATOM     24  H   UNL     1     -16.821 -45.824   5.625  1.00  0.00     0.293 HD
ENDBRANCH  11  23
ENDBRANCH   1   2
BRANCH   1  25
ATOM     25  C   UNL     1     -15.672 -46.908  -1.953  1.00  0.00     0.339 C 
ATOM     26  C   UNL     1     -14.943 -47.518  -0.723  1.00  0.00     0.214 C 
ATOM     27  O   UNL     1     -15.288 -47.567  -3.140  1.00  0.00    -0.332 OA
ATOM     28  C   UNL     1     -13.414 -47.739  -0.968  1.00  0.00     0.180 C 
ATOM     29  C   UNL     1     -13.901 -47.399  -3.394  1.00  0.00     0.179 C 
ATOM     30  C   UNL     1     -13.109 -48.249  -2.397  1.00  0.00     0.177 C 
BRANCH  26  31
ATOM     31  O   UNL     1     -15.549 -48.776  -0.414  1.00  0.00    -0.384 OA
ATOM     32  H   UNL     1     -16.336 -48.590   0.181  1.00  0.00     0.211 HD
ENDBRANCH  26  31
BRANCH  28  33
ATOM     33  O   UNL     1     -12.848 -48.609  -0.016  1.00  0.00    -0.387 OA
ATOM     34  H   UNL     1     -13.583 -48.936   0.573  1.00  0.00     0.211 HD
ENDBRANCH  28  33
BRANCH  29  35
ATOM     35  C   UNL     1     -13.695 -47.761  -4.863  1.00  0.00     0.191 C 
BRANCH  35  36
ATOM     36  O   UNL     1     -12.599 -48.621  -5.050  1.00  0.00    -0.394 OA
ATOM     37  H   UNL     1     -12.949 -49.449  -5.486  1.00  0.00     0.210 HD
ENDBRANCH  35  36
ENDBRANCH  29  35
BRANCH  30  38
ATOM     38  O   UNL     1     -13.441 -49.611  -2.524  1.00  0.00    -0.387 OA
ATOM     39  H   UNL     1     -13.161 -49.877  -3.438  1.00  0.00     0.211 HD
ENDBRANCH  30  38
ENDBRANCH   1  25
TORSDOF 11
ENDMDL
MODEL 8
REMARK VINA RESULT:    -7.660      4.909      8.312
REMARK INTER + INTRA:         -12.723
REMARK INTER:                 -11.519
REMARK INTRA:                  -1.203
REMARK UNBOUND:                -1.705
REMARK SMILES O=c1c(O[C@H]2O[C@H](CO)[C@H](O)[C@H](O)[C@@H]2O)c(-c2ccc(O)cc2)oc2cc(O)cc(O)c12
REMARK SMILES IDX 4 1 3 2 16 3 24 4 2 5 25 6 1 7 32 8 26 9 30 10 27 11 29 12
REMARK SMILES IDX 17 13 18 14 19 15 20 16 23 17 22 18 21 19 31 21 28 23 5 25
REMARK SMILES IDX 14 26 6 27 12 28 7 29 10 30 15 31 13 33 8 35 9 36 11 38
REMARK H PARENT 21 20 31 22 28 24 15 32 13 34 9 37 11 39
REMARK Flexibility Score: inf
ROOT
ATOM      1  O   UNL     1     -12.397 -42.763  -7.028  1.00  0.00    -0.454 OA
ENDROOT
BRANCH   1   2
ATOM      2  C   UNL     1     -11.991 -44.056  -6.647  1.00  0.00     0.214 A 
ATOM      3  C   UNL     1     -11.744 -45.055  -7.614  1.00  0.00     0.180 A 
ATOM      4  O   UNL     1     -12.048 -46.315  -7.324  1.00  0.00    -0.452 OA
ATOM      5  C   UNL     1     -12.185 -44.472  -5.303  1.00  0.00     0.239 A 
ATOM      6  C   UNL     1     -12.577 -46.679  -6.162  1.00  0.00     0.146 A 
ATOM      7  O   UNL     1     -12.061 -43.633  -4.374  1.00  0.00    -0.285 OA
ATOM      8  C   UNL     1     -12.616 -45.783  -5.076  1.00  0.00     0.111 A 
ATOM      9  C   UNL     1     -13.039 -47.989  -6.020  1.00  0.00     0.094 A 
ATOM     10  C   UNL     1     -13.186 -46.206  -3.848  1.00  0.00     0.134 A 
ATOM     11  C   UNL     1     -13.627 -48.398  -4.814  1.00  0.00     0.123 A 
ATOM     12  C   UNL     1     -13.677 -47.513  -3.733  1.00  0.00     0.093 A 
BRANCH   3  13
ATOM     13  C   UNL     1     -11.220 -44.780  -8.997  1.00  0.00     0.021 A 
ATOM     14  C   UNL     1     -10.505 -43.591  -9.216  1.00  0.00     0.016 A 
ATOM     15  C   UNL     1     -10.057 -43.245 -10.487  1.00  0.00     0.047 A 
ATOM     16  C   UNL     1     -10.283 -44.094 -11.575  1.00  0.00     0.115 A 
ATOM     17  C   UNL     1     -11.449 -45.633 -10.100  1.00  0.00     0.016 A 
ATOM     18  C   UNL     1     -10.951 -45.318 -11.363  1.00  0.00     0.047 A 
BRANCH  16  19
ATOM     19  O   UNL     1      -9.852 -43.722 -12.836  1.00  0.00    -0.508 OA
ATOM     20  H   UNL     1      -9.931 -42.763 -13.154  1.00  0.00     0.293 HD
ENDBRANCH  16  19
ENDBRANCH   3  13
BRANCH  10  21
ATOM     21  O   UNL     1     -13.321 -45.318  -2.775  1.00  0.00    -0.507 OA
ATOM     22  H   UNL     1     -13.100 -44.339  -2.872  1.00  0.00     0.293 HD
ENDBRANCH  10  21
BRANCH  11  23
ATOM     23  O   UNL     1     -14.211 -49.656  -4.727  1.00  0.00    -0.508 OA
ATOM     24  H   UNL     1     -14.453 -50.173  -5.567  1.00  0.00     0.293 HD
ENDBRANCH  11  23
ENDBRANCH   1   2
BRANCH   1  25
ATOM     25  C   UNL     1     -13.800 -42.516  -7.175  1.00  0.00     0.339 C 
ATOM     26  C   UNL     1     -14.358 -42.671  -8.617  1.00  0.00     0.214 C 
ATOM     27  O   UNL     1     -14.120 -41.247  -6.648  1.00  0.00    -0.332 OA
ATOM     28  C   UNL     1     -14.081 -41.422  -9.517  1.00  0.00     0.180 C 
ATOM     29  C   UNL     1     -13.516 -40.209  -7.407  1.00  0.00     0.179 C 
ATOM     30  C   UNL     1     -14.246 -40.089  -8.747  1.00  0.00     0.177 C 
BRANCH  26  31
ATOM     31  O   UNL     1     -15.770 -42.881  -8.538  1.00  0.00    -0.384 OA
ATOM     32  H   UNL     1     -16.164 -42.089  -8.064  1.00  0.00     0.211 HD
ENDBRANCH  26  31
BRANCH  28  33
ATOM     33  O   UNL     1     -14.888 -41.414 -10.671  1.00  0.00    -0.387 OA
ATOM     34  H   UNL     1     -14.735 -42.271 -11.156  1.00  0.00     0.211 HD
ENDBRANCH  28  33
BRANCH  29  35
ATOM     35  C   UNL     1     -13.564 -38.963  -6.527  1.00  0.00     0.191 C 
BRANCH  35  36
ATOM     36  O   UNL     1     -13.935 -37.816  -7.250  1.00  0.00    -0.394 OA
ATOM     37  H   UNL     1     -14.930 -37.837  -7.339  1.00  0.00     0.210 HD
ENDBRANCH  35  36
ENDBRANCH  29  35
BRANCH  30  38
ATOM     38  O   UNL     1     -15.607 -39.788  -8.553  1.00  0.00    -0.387 OA
ATOM     39  H   UNL     1     -15.791 -38.984  -9.104  1.00  0.00     0.211 HD
ENDBRANCH  30  38
ENDBRANCH   1  25
TORSDOF 11
ENDMDL
MODEL 9
REMARK VINA RESULT:    -7.596      4.085      7.813
REMARK INTER + INTRA:         -12.631
REMARK INTER:                 -11.041
REMARK INTRA:                  -1.590
REMARK UNBOUND:                -1.705
REMARK SMILES O=c1c(O[C@H]2O[C@H](CO)[C@H](O)[C@H](O)[C@@H]2O)c(-c2ccc(O)cc2)oc2cc(O)cc(O)c12
REMARK SMILES IDX 4 1 3 2 16 3 24 4 2 5 25 6 1 7 32 8 26 9 30 10 27 11 29 12
REMARK SMILES IDX 17 13 18 14 19 15 20 16 23 17 22 18 21 19 31 21 28 23 5 25
REMARK SMILES IDX 14 26 6 27 12 28 7 29 10 30 15 31 13 33 8 35 9 36 11 38
REMARK H PARENT 21 20 31 22 28 24 15 32 13 34 9 37 11 39
REMARK Flexibility Score: inf
ROOT
ATOM      1  O   UNL     1     -14.016 -45.032  -3.696  1.00  0.00    -0.454 OA
ENDROOT
BRANCH   1   2
ATOM      2  C   UNL     1     -14.451 -43.945  -4.479  1.00  0.00     0.214 A 
ATOM      3  C   UNL     1     -15.815 -43.581  -4.523  1.00  0.00     0.180 A 
ATOM      4  O   UNL     1     -16.316 -43.114  -5.662  1.00  0.00    -0.452 OA
ATOM      5  C   UNL     1     -13.603 -43.451  -5.505  1.00  0.00     0.239 A 
ATOM      6  C   UNL     1     -15.590 -42.975  -6.764  1.00  0.00     0.146 A 
ATOM      7  O   UNL     1     -12.357 -43.451  -5.328  1.00  0.00    -0.285 OA
ATOM      8  C   UNL     1     -14.186 -43.082  -6.721  1.00  0.00     0.111 A 
ATOM      9  C   UNL     1     -16.243 -42.661  -7.958  1.00  0.00     0.094 A 
ATOM     10  C   UNL     1     -13.441 -42.926  -7.919  1.00  0.00     0.134 A 
ATOM     11  C   UNL     1     -15.508 -42.533  -9.146  1.00  0.00     0.123 A 
ATOM     12  C   UNL     1     -14.115 -42.645  -9.114  1.00  0.00     0.093 A 
BRANCH   3  13
ATOM     13  C   UNL     1     -16.772 -43.754  -3.376  1.00  0.00     0.021 A 
ATOM     14  C   UNL     1     -16.651 -42.896  -2.270  1.00  0.00     0.016 A 
ATOM     15  C   UNL     1     -17.459 -43.051  -1.148  1.00  0.00     0.047 A 
ATOM     16  C   UNL     1     -18.436 -44.051  -1.109  1.00  0.00     0.115 A 
ATOM     17  C   UNL     1     -17.758 -44.765  -3.330  1.00  0.00     0.016 A 
ATOM     18  C   UNL     1     -18.608 -44.886  -2.233  1.00  0.00     0.047 A 
BRANCH  16  19
ATOM     19  O   UNL     1     -19.213 -44.206   0.025  1.00  0.00    -0.508 OA
ATOM     20  H   UNL     1     -19.619 -45.104   0.263  1.00  0.00     0.293 HD
ENDBRANCH  16  19
ENDBRANCH   3  13
BRANCH  10  21
ATOM     21  O   UNL     1     -12.055 -43.111  -7.931  1.00  0.00    -0.507 OA
ATOM     22  H   UNL     1     -11.624 -43.886  -7.452  1.00  0.00     0.293 HD
ENDBRANCH  10  21
BRANCH  11  23
ATOM     23  O   UNL     1     -16.178 -42.360 -10.351  1.00  0.00    -0.508 OA
ATOM     24  H   UNL     1     -15.697 -42.499 -11.235  1.00  0.00     0.293 HD
ENDBRANCH  11  23
ENDBRANCH   1   2
BRANCH   1  25
ATOM     25  C   UNL     1     -14.619 -46.310  -3.928  1.00  0.00     0.339 C 
ATOM     26  C   UNL     1     -14.352 -47.382  -2.835  1.00  0.00     0.214 C 
ATOM     27  O   UNL     1     -14.249 -46.790  -5.201  1.00  0.00    -0.332 OA
ATOM     28  C   UNL     1     -12.949 -48.060  -2.975  1.00  0.00     0.180 C 
ATOM     29  C   UNL     1     -12.856 -47.061  -5.262  1.00  0.00     0.179 C 
ATOM     30  C   UNL     1     -12.563 -48.325  -4.450  1.00  0.00     0.177 C 
BRANCH  26  31
ATOM     31  O   UNL     1     -15.364 -48.388  -2.929  1.00  0.00    -0.384 OA
ATOM     32  H   UNL     1     -16.049 -48.062  -3.585  1.00  0.00     0.211 HD
ENDBRANCH  26  31
BRANCH  28  33
ATOM     33  O   UNL     1     -12.864 -49.254  -2.233  1.00  0.00    -0.387 OA
ATOM     34  H   UNL     1     -12.259 -49.089  -1.458  1.00  0.00     0.211 HD
ENDBRANCH  28  33
BRANCH  29  35
ATOM     35  C   UNL     1     -12.509 -47.148  -6.747  1.00  0.00     0.191 C 
BRANCH  35  36
ATOM     36  O   UNL     1     -12.036 -45.926  -7.254  1.00  0.00    -0.394 OA
ATOM     37  H   UNL     1     -12.505 -45.200  -6.751  1.00  0.00     0.210 HD
ENDBRANCH  35  36
ENDBRANCH  29  35
BRANCH  30  38
ATOM     38  O   UNL     1     -13.271 -49.427  -4.962  1.00  0.00    -0.387 OA
ATOM     39  H   UNL     1     -13.599 -49.933  -4.174  1.00  0.00     0.211 HD
ENDBRANCH  30  38
ENDBRANCH   1  25
TORSDOF 11
ENDMDL
