MODEL 1
REMARK VINA RESULT:    -5.046      0.000      0.000
REMARK INTER + INTRA:          -8.699
REMARK INTER:                  -7.700
REMARK INTRA:                  -0.999
REMARK UNBOUND:                -0.999
REMARK SMILES O=C([O-])CCCCCCCCC(=O)[O-]
REMARK SMILES IDX 7 1 6 2 5 3 4 4 2 5 1 6 3 7 8 8 9 9 10 10 11 11 12 12 13 13
REMARK SMILES IDX 14 14
REMARK H PARENT
REMARK Flexibility Score: inf
ROOT
ATOM      1  C   UNL     1      10.318 -14.525  38.091  1.00  0.00     0.000 C 
ENDROOT
BRANCH   1   2
ATOM      2  C   UNL     1       8.995 -13.971  37.543  1.00  0.00     0.000 C 
BRANCH   2   3
ATOM      3  C   UNL     1       8.924 -14.127  36.019  1.00  0.00     0.006 C 
BRANCH   3   4
ATOM      4  C   UNL     1       7.859 -13.202  35.421  1.00  0.00     0.053 C 
BRANCH   4   5
ATOM      5  C   UNL     1       8.097 -13.008  33.956  1.00  0.00     0.041 C 
ATOM      6  O   UNL     1       8.824 -12.064  33.552  1.00  0.00    -0.550 OA
ATOM      7  O   UNL     1       7.476 -13.842  33.035  1.00  0.00    -0.550 OA
ENDBRANCH   4   5
ENDBRANCH   3   4
ENDBRANCH   2   3
ENDBRANCH   1   2
BRANCH   1   8
ATOM      8  C   UNL     1      11.344 -14.812  36.983  1.00  0.00     0.000 C 
BRANCH   8   9
ATOM      9  C   UNL     1      12.758 -14.334  37.348  1.00  0.00     0.000 C 
BRANCH   9  10
ATOM     10  C   UNL     1      13.023 -12.927  36.791  1.00  0.00     0.006 C 
BRANCH  10  11
ATOM     11  C   UNL     1      12.274 -12.672  35.476  1.00  0.00     0.053 C 
BRANCH  11  12
ATOM     12  C   UNL     1      11.560 -11.356  35.488  1.00  0.00     0.041 C 
ATOM     13  O   UNL     1      10.748 -11.084  36.411  1.00  0.00    -0.550 OA
ATOM     14  O   UNL     1      11.765 -10.443  34.462  1.00  0.00    -0.550 OA
ENDBRANCH  11  12
ENDBRANCH  10  11
ENDBRANCH   9  10
ENDBRANCH   8   9
ENDBRANCH   1   8
TORSDOF 9
ENDMDL
MODEL 2
REMARK VINA RESULT:    -5.010      1.609      2.099
REMARK INTER + INTRA:          -8.645
REMARK INTER:                  -7.750
REMARK INTRA:                  -0.894
REMARK UNBOUND:                -0.999
REMARK SMILES O=C([O-])CCCCCCCCC(=O)[O-]
REMARK SMILES IDX 7 1 6 2 5 3 4 4 2 5 1 6 3 7 8 8 9 9 10 10 11 11 12 12 13 13
REMARK SMILES IDX 14 14
REMARK H PARENT
REMARK Flexibility Score: inf
ROOT
ATOM      1  C   UNL     1       9.931 -14.460  36.642  1.00  0.00     0.000 C 
ENDROOT
BRANCH   1   2
ATOM      2  C   UNL     1       9.367 -14.239  38.053  1.00  0.00     0.000 C 
BRANCH   2   3
ATOM      3  C   UNL     1       8.224 -13.218  38.032  1.00  0.00     0.006 C 
BRANCH   3   4
ATOM      4  C   UNL     1       7.349 -13.397  36.787  1.00  0.00     0.053 C 
BRANCH   4   5
ATOM      5  C   UNL     1       7.306 -12.130  35.991  1.00  0.00     0.041 C 
ATOM      6  O   UNL     1       7.488 -12.158  34.746  1.00  0.00    -0.550 OA
ATOM      7  O   UNL     1       7.113 -10.913  36.631  1.00  0.00    -0.550 OA
ENDBRANCH   4   5
ENDBRANCH   3   4
ENDBRANCH   2   3
ENDBRANCH   1   2
BRANCH   1   8
ATOM      8  C   UNL     1      11.293 -15.173  36.652  1.00  0.00     0.000 C 
BRANCH   8   9
ATOM      9  C   UNL     1      12.401 -14.322  37.292  1.00  0.00     0.000 C 
BRANCH   9  10
ATOM     10  C   UNL     1      12.706 -13.085  36.434  1.00  0.00     0.006 C 
BRANCH  10  11
ATOM     11  C   UNL     1      12.799 -11.804  37.273  1.00  0.00     0.053 C 
BRANCH  11  12
ATOM     12  C   UNL     1      11.446 -11.243  37.584  1.00  0.00     0.041 C 
ATOM     13  O   UNL     1      11.079 -11.099  38.780  1.00  0.00    -0.550 OA
ATOM     14  O   UNL     1      10.575 -10.911  36.554  1.00  0.00    -0.550 OA
ENDBRANCH  11  12
ENDBRANCH  10  11
ENDBRANCH   9  10
ENDBRANCH   8   9
ENDBRANCH   1   8
TORSDOF 9
ENDMDL
MODEL 3
REMARK VINA RESULT:    -4.998      1.947      4.941
REMARK INTER + INTRA:          -8.627
REMARK INTER:                  -7.859
REMARK INTRA:                  -0.768
REMARK UNBOUND:                -0.999
REMARK SMILES O=C([O-])CCCCCCCCC(=O)[O-]
REMARK SMILES IDX 7 1 6 2 5 3 4 4 2 5 1 6 3 7 8 8 9 9 10 10 11 11 12 12 13 13
REMARK SMILES IDX 14 14
REMARK H PARENT
REMARK Flexibility Score: inf
ROOT
ATOM      1  C   UNL     1      12.660 -14.111  37.300  1.00  0.00     0.000 C 
ENDROOT
BRANCH   1   2
ATOM      2  C   UNL     1      12.984 -13.076  36.212  1.00  0.00     0.000 C 
BRANCH   2   3
ATOM      3  C   UNL     1      12.321 -11.728  36.523  1.00  0.00     0.006 C 
BRANCH   3   4
ATOM      4  C   UNL     1      13.200 -10.884  37.452  1.00  0.00     0.053 C 
BRANCH   4   5
ATOM      5  C   UNL     1      12.510 -10.654  38.760  1.00  0.00     0.041 C 
ATOM      6  O   UNL     1      13.155 -10.211  39.747  1.00  0.00    -0.550 OA
ATOM      7  O   UNL     1      11.167 -10.975  38.904  1.00  0.00    -0.550 OA
ENDBRANCH   4   5
ENDBRANCH   3   4
ENDBRANCH   2   3
ENDBRANCH   1   2
BRANCH   1   8
ATOM      8  C   UNL     1      11.389 -14.917  36.990  1.00  0.00     0.000 C 
BRANCH   8   9
ATOM      9  C   UNL     1      10.295 -14.727  38.053  1.00  0.00     0.000 C 
BRANCH   9  10
ATOM     10  C   UNL     1       9.115 -13.922  37.488  1.00  0.00     0.006 C 
BRANCH  10  11
ATOM     11  C   UNL     1       9.065 -13.961  35.955  1.00  0.00     0.053 C 
BRANCH  11  12
ATOM     12  C   UNL     1       7.822 -13.319  35.422  1.00  0.00     0.041 C 
ATOM     13  O   UNL     1       6.946 -12.880  36.213  1.00  0.00    -0.550 OA
ATOM     14  O   UNL     1       7.613 -13.237  34.051  1.00  0.00    -0.550 OA
ENDBRANCH  11  12
ENDBRANCH  10  11
ENDBRANCH   9  10
ENDBRANCH   8   9
ENDBRANCH   1   8
TORSDOF 9
ENDMDL
MODEL 4
REMARK VINA RESULT:    -4.948      1.642      4.596
REMARK INTER + INTRA:          -8.550
REMARK INTER:                  -7.833
REMARK INTRA:                  -0.716
REMARK UNBOUND:                -0.999
REMARK SMILES O=C([O-])CCCCCCCCC(=O)[O-]
REMARK SMILES IDX 7 1 6 2 5 3 4 4 2 5 1 6 3 7 8 8 9 9 10 10 11 11 12 12 13 13
REMARK SMILES IDX 14 14
REMARK H PARENT
REMARK Flexibility Score: inf
ROOT
ATOM      1  C   UNL     1      11.241 -13.680  36.316  1.00  0.00     0.000 C 
ENDROOT
BRANCH   1   2
ATOM      2  C   UNL     1      12.613 -13.256  36.860  1.00  0.00     0.000 C 
BRANCH   2   3
ATOM      3  C   UNL     1      12.570 -11.822  37.400  1.00  0.00     0.006 C 
BRANCH   3   4
ATOM      4  C   UNL     1      13.556 -10.921  36.647  1.00  0.00     0.053 C 
BRANCH   4   5
ATOM      5  C   UNL     1      13.252 -10.921  35.182  1.00  0.00     0.041 C 
ATOM      6  O   UNL     1      14.151 -11.206  34.348  1.00  0.00    -0.550 OA
ATOM      7  O   UNL     1      11.988 -10.559  34.734  1.00  0.00    -0.550 OA
ENDBRANCH   4   5
ENDBRANCH   3   4
ENDBRANCH   2   3
ENDBRANCH   1   2
BRANCH   1   8
ATOM      8  C   UNL     1      10.733 -14.988  36.941  1.00  0.00     0.000 C 
BRANCH   8   9
ATOM      9  C   UNL     1       9.926 -14.755  38.227  1.00  0.00     0.000 C 
BRANCH   9  10
ATOM     10  C   UNL     1       9.078 -13.478  38.118  1.00  0.00     0.006 C 
BRANCH  10  11
ATOM     11  C   UNL     1       7.665 -13.762  37.591  1.00  0.00     0.053 C 
BRANCH  11  12
ATOM     12  C   UNL     1       7.414 -13.086  36.278  1.00  0.00     0.041 C 
ATOM     13  O   UNL     1       7.754 -13.645  35.202  1.00  0.00    -0.550 OA
ATOM     14  O   UNL     1       6.837 -11.823  36.244  1.00  0.00    -0.550 OA
ENDBRANCH  11  12
ENDBRANCH  10  11
ENDBRANCH   9  10
ENDBRANCH   8   9
ENDBRANCH   1   8
TORSDOF 9
ENDMDL
MODEL 5
REMARK VINA RESULT:    -4.939      1.641      2.139
REMARK INTER + INTRA:          -8.536
REMARK INTER:                  -7.828
REMARK INTRA:                  -0.708
REMARK UNBOUND:                -0.999
REMARK SMILES O=C([O-])CCCCCCCCC(=O)[O-]
REMARK SMILES IDX 7 1 6 2 5 3 4 4 2 5 1 6 3 7 8 8 9 9 10 10 11 11 12 12 13 13
REMARK SMILES IDX 14 14
REMARK H PARENT
REMARK Flexibility Score: inf
ROOT
ATOM      1  C   UNL     1      10.675 -15.026  36.947  1.00  0.00     0.000 C 
ENDROOT
BRANCH   1   2
ATOM      2  C   UNL     1       9.853 -14.693  38.201  1.00  0.00     0.000 C 
BRANCH   2   3
ATOM      3  C   UNL     1       9.030 -13.416  37.994  1.00  0.00     0.006 C 
BRANCH   3   4
ATOM      4  C   UNL     1       7.646 -13.740  37.424  1.00  0.00     0.053 C 
BRANCH   4   5
ATOM      5  C   UNL     1       7.397 -12.954  36.175  1.00  0.00     0.041 C 
ATOM      6  O   UNL     1       7.675 -13.447  35.050  1.00  0.00    -0.550 OA
ATOM      7  O   UNL     1       6.903 -11.659  36.255  1.00  0.00    -0.550 OA
ENDBRANCH   4   5
ENDBRANCH   3   4
ENDBRANCH   2   3
ENDBRANCH   1   2
BRANCH   1   8
ATOM      8  C   UNL     1      11.263 -13.776  36.275  1.00  0.00     0.000 C 
BRANCH   8   9
ATOM      9  C   UNL     1      12.593 -13.336  36.905  1.00  0.00     0.000 C 
BRANCH   9  10
ATOM     10  C   UNL     1      12.513 -11.882  37.395  1.00  0.00     0.006 C 
BRANCH  10  11
ATOM     11  C   UNL     1      13.513 -10.969  36.674  1.00  0.00     0.053 C 
BRANCH  11  12
ATOM     12  C   UNL     1      13.272 -10.936  35.197  1.00  0.00     0.041 C 
ATOM     13  O   UNL     1      12.134 -10.636  34.747  1.00  0.00    -0.550 OA
ATOM     14  O   UNL     1      14.293 -11.270  34.316  1.00  0.00    -0.550 OA
ENDBRANCH  11  12
ENDBRANCH  10  11
ENDBRANCH   9  10
ENDBRANCH   8   9
ENDBRANCH   1   8
TORSDOF 9
ENDMDL
MODEL 6
REMARK VINA RESULT:    -4.924      2.349      4.744
REMARK INTER + INTRA:          -8.514
REMARK INTER:                  -7.698
REMARK INTRA:                  -0.815
REMARK UNBOUND:                -0.999
REMARK SMILES O=C([O-])CCCCCCCCC(=O)[O-]
REMARK SMILES IDX 7 1 6 2 5 3 4 4 2 5 1 6 3 7 8 8 9 9 10 10 11 11 12 12 13 13
REMARK SMILES IDX 14 14
REMARK H PARENT
REMARK Flexibility Score: inf
ROOT
ATOM      1  C   UNL     1      13.052 -13.449  36.070  1.00  0.00     0.000 C 
ENDROOT
BRANCH   1   2
ATOM      2  C   UNL     1      12.061 -12.391  35.563  1.00  0.00     0.000 C 
BRANCH   2   3
ATOM      3  C   UNL     1      12.802 -11.167  35.009  1.00  0.00     0.006 C 
BRANCH   3   4
ATOM      4  C   UNL     1      13.696 -10.535  36.081  1.00  0.00     0.053 C 
BRANCH   4   5
ATOM      5  C   UNL     1      12.865  -9.848  37.119  1.00  0.00     0.041 C 
ATOM      6  O   UNL     1      13.020 -10.123  38.338  1.00  0.00    -0.550 OA
ATOM      7  O   UNL     1      11.885  -8.942  36.737  1.00  0.00    -0.550 OA
ENDBRANCH   4   5
ENDBRANCH   3   4
ENDBRANCH   2   3
ENDBRANCH   1   2
BRANCH   1   8
ATOM      8  C   UNL     1      12.508 -14.246  37.266  1.00  0.00     0.000 C 
BRANCH   8   9
ATOM      9  C   UNL     1      11.193 -14.973  36.943  1.00  0.00     0.000 C 
BRANCH   9  10
ATOM     10  C   UNL     1      10.109 -14.629  37.976  1.00  0.00     0.006 C 
BRANCH  10  11
ATOM     11  C   UNL     1       8.960 -13.816  37.364  1.00  0.00     0.053 C 
BRANCH  11  12
ATOM     12  C   UNL     1       9.006 -12.381  37.790  1.00  0.00     0.041 C 
ATOM     13  O   UNL     1       8.057 -11.604  37.502  1.00  0.00    -0.550 OA
ATOM     14  O   UNL     1      10.111 -11.893  38.476  1.00  0.00    -0.550 OA
ENDBRANCH  11  12
ENDBRANCH  10  11
ENDBRANCH   9  10
ENDBRANCH   8   9
ENDBRANCH   1   8
TORSDOF 9
ENDMDL
MODEL 7
REMARK VINA RESULT:    -4.919      1.225      4.399
REMARK INTER + INTRA:          -8.506
REMARK INTER:                  -7.704
REMARK INTRA:                  -0.802
REMARK UNBOUND:                -0.999
REMARK SMILES O=C([O-])CCCCCCCCC(=O)[O-]
REMARK SMILES IDX 7 1 6 2 5 3 4 4 2 5 1 6 3 7 8 8 9 9 10 10 11 11 12 12 13 13
REMARK SMILES IDX 14 14
REMARK H PARENT
REMARK Flexibility Score: inf
ROOT
ATOM      1  C   UNL     1      10.127 -14.825  37.600  1.00  0.00     0.000 C 
ENDROOT
BRANCH   1   2
ATOM      2  C   UNL     1      11.301 -14.964  36.619  1.00  0.00     0.000 C 
BRANCH   2   3
ATOM      3  C   UNL     1      12.372 -13.901  36.892  1.00  0.00     0.006 C 
BRANCH   3   4
ATOM      4  C   UNL     1      12.840 -13.246  35.588  1.00  0.00     0.053 C 
BRANCH   4   5
ATOM      5  C   UNL     1      12.965 -11.765  35.762  1.00  0.00     0.041 C 
ATOM      6  O   UNL     1      13.254 -11.281  36.888  1.00  0.00    -0.550 OA
ATOM      7  O   UNL     1      12.714 -10.916  34.692  1.00  0.00    -0.550 OA
ENDBRANCH   4   5
ENDBRANCH   3   4
ENDBRANCH   2   3
ENDBRANCH   1   2
BRANCH   1   8
ATOM      8  C   UNL     1       9.924 -13.379  38.080  1.00  0.00     0.000 C 
BRANCH   8   9
ATOM      9  C   UNL     1       8.441 -12.994  38.188  1.00  0.00     0.000 C 
BRANCH   9  10
ATOM     10  C   UNL     1       7.626 -13.625  37.049  1.00  0.00     0.006 C 
BRANCH  10  11
ATOM     11  C   UNL     1       7.276 -12.611  35.953  1.00  0.00     0.053 C 
BRANCH  11  12
ATOM     12  C   UNL     1       8.115 -12.803  34.727  1.00  0.00     0.041 C 
ATOM     13  O   UNL     1       7.655 -13.429  33.736  1.00  0.00    -0.550 OA
ATOM     14  O   UNL     1       9.417 -12.322  34.692  1.00  0.00    -0.550 OA
ENDBRANCH  11  12
ENDBRANCH  10  11
ENDBRANCH   9  10
ENDBRANCH   8   9
ENDBRANCH   1   8
TORSDOF 9
ENDMDL
MODEL 8
REMARK VINA RESULT:    -4.914      2.632      5.322
REMARK INTER + INTRA:          -8.498
REMARK INTER:                  -7.758
REMARK INTRA:                  -0.740
REMARK UNBOUND:                -0.999
REMARK SMILES O=C([O-])CCCCCCCCC(=O)[O-]
REMARK SMILES IDX 7 1 6 2 5 3 4 4 2 5 1 6 3 7 8 8 9 9 10 10 11 11 12 12 13 13
REMARK SMILES IDX 14 14
REMARK H PARENT
REMARK Flexibility Score: inf
ROOT
ATOM      1  C   UNL     1      11.139 -12.942  35.858  1.00  0.00     0.000 C 
ENDROOT
BRANCH   1   2
ATOM      2  C   UNL     1      12.627 -12.706  35.563  1.00  0.00     0.000 C 
BRANCH   2   3
ATOM      3  C   UNL     1      12.871 -11.265  35.096  1.00  0.00     0.006 C 
BRANCH   3   4
ATOM      4  C   UNL     1      13.630 -10.464  36.159  1.00  0.00     0.053 C 
BRANCH   4   5
ATOM      5  C   UNL     1      12.672  -9.748  37.058  1.00  0.00     0.041 C 
ATOM      6  O   UNL     1      12.000  -8.776  36.623  1.00  0.00    -0.550 OA
ATOM      7  O   UNL     1      12.557 -10.122  38.390  1.00  0.00    -0.550 OA
ENDBRANCH   4   5
ENDBRANCH   3   4
ENDBRANCH   2   3
ENDBRANCH   1   2
BRANCH   1   8
ATOM      8  C   UNL     1      10.225 -11.938  35.139  1.00  0.00     0.000 C 
BRANCH   8   9
ATOM      9  C   UNL     1       8.871 -12.547  34.744  1.00  0.00     0.000 C 
BRANCH   9  10
ATOM     10  C   UNL     1       8.539 -13.762  35.624  1.00  0.00     0.006 C 
BRANCH  10  11
ATOM     11  C   UNL     1       7.405 -13.469  36.616  1.00  0.00     0.053 C 
BRANCH  11  12
ATOM     12  C   UNL     1       7.911 -13.355  38.021  1.00  0.00     0.041 C 
ATOM     13  O   UNL     1       7.648 -14.253  38.864  1.00  0.00    -0.550 OA
ATOM     14  O   UNL     1       8.643 -12.240  38.410  1.00  0.00    -0.550 OA
ENDBRANCH  11  12
ENDBRANCH  10  11
ENDBRANCH   9  10
ENDBRANCH   8   9
ENDBRANCH   1   8
TORSDOF 9
ENDMDL
MODEL 9
REMARK VINA RESULT:    -4.896      2.021      4.770
REMARK INTER + INTRA:          -8.471
REMARK INTER:                  -7.795
REMARK INTRA:                  -0.677
REMARK UNBOUND:                -0.999
REMARK SMILES O=C([O-])CCCCCCCCC(=O)[O-]
REMARK SMILES IDX 7 1 6 2 5 3 4 4 2 5 1 6 3 7 8 8 9 9 10 10 11 11 12 12 13 13
REMARK SMILES IDX 14 14
REMARK H PARENT
REMARK Flexibility Score: inf
ROOT
ATOM      1  C   UNL     1      10.511 -11.920  38.124  1.00  0.00     0.000 C 
ENDROOT
BRANCH   1   2
ATOM      2  C   UNL     1      11.699 -10.959  38.281  1.00  0.00     0.000 C 
BRANCH   2   3
ATOM      3  C   UNL     1      12.959 -11.532  37.622  1.00  0.00     0.006 C 
BRANCH   3   4
ATOM      4  C   UNL     1      13.604 -10.505  36.684  1.00  0.00     0.053 C 
BRANCH   4   5
ATOM      5  C   UNL     1      13.353 -10.872  35.255  1.00  0.00     0.041 C 
ATOM      6  O   UNL     1      12.176 -10.928  34.813  1.00  0.00    -0.550 OA
ATOM      7  O   UNL     1      14.417 -11.199  34.424  1.00  0.00    -0.550 OA
ENDBRANCH   4   5
ENDBRANCH   3   4
ENDBRANCH   2   3
ENDBRANCH   1   2
BRANCH   1   8
ATOM      8  C   UNL     1      10.878 -13.191  37.342  1.00  0.00     0.000 C 
BRANCH   8   9
ATOM      9  C   UNL     1       9.659 -14.082  37.057  1.00  0.00     0.000 C 
BRANCH   9  10
ATOM     10  C   UNL     1       8.376 -13.456  37.626  1.00  0.00     0.006 C 
BRANCH  10  11
ATOM     11  C   UNL     1       7.243 -13.409  36.593  1.00  0.00     0.053 C 
BRANCH  11  12
ATOM     12  C   UNL     1       7.300 -12.166  35.760  1.00  0.00     0.041 C 
ATOM     13  O   UNL     1       7.728 -12.215  34.576  1.00  0.00    -0.550 OA
ATOM     14  O   UNL     1       6.914 -10.946  36.301  1.00  0.00    -0.550 OA
ENDBRANCH  11  12
ENDBRANCH  10  11
ENDBRANCH   9  10
ENDBRANCH   8   9
ENDBRANCH   1   8
TORSDOF 9
ENDMDL
