MODEL 1
REMARK VINA RESULT:    -4.131      0.000      0.000
REMARK INTER + INTRA:          -6.273
REMARK INTER:                  -6.304
REMARK INTRA:                   0.032
REMARK UNBOUND:                 0.032
REMARK SMILES CC1=CCC[C@@H](C)C(=O)C[C@@H](C(C)C)C(=O)C1
REMARK SMILES IDX 8 1 9 2 6 3 7 4 5 5 4 6 3 7 2 8 1 9 10 11 11 12 15 13 16 14
REMARK SMILES IDX 17 15 12 17 13 18 14 19
REMARK H PARENT
REMARK Flexibility Score: 70.00
ROOT
ATOM      1  C   UNL     1      -6.784   3.085  15.702  1.00  0.00     0.136 C 
ATOM      2  O   UNL     1      -6.243   2.545  16.656  1.00  0.00    -0.299 OA
ENDROOT
BRANCH   1   3
ATOM      3  C   UNL     1      -8.040   3.904  15.911  1.00  0.00     0.053 C 
ATOM      4  C   UNL     1      -8.672   4.223  14.553  1.00  0.00     0.016 C 
BRANCH   3   5
ATOM      5  C   UNL     1      -7.766   5.212  16.692  1.00  0.00     0.015 C 
BRANCH   5   6
ATOM      6  C   UNL     1      -6.289   5.632  16.704  1.00  0.00     0.028 C 
BRANCH   6   7
ATOM      7  C   UNL     1      -6.030   6.761  15.734  1.00  0.00    -0.028 C 
ATOM      8  C   UNL     1      -4.989   6.821  14.875  1.00  0.00    -0.070 CG0
ATOM      9  C   UNL     1      -4.882   8.022  13.970  1.00  0.00     0.039 C 
ATOM     10  G   UNL     1      -3.936   5.730  14.777  1.00  0.00     0.000 G0
ENDBRANCH   6   7
ENDBRANCH   5   6
ENDBRANCH   3   5
ENDBRANCH   1   3
BRANCH   1  11
ATOM     11  C   UNL     1      -6.150   2.973  14.336  1.00  0.00     0.087 C 
BRANCH  11  12
ATOM     12  C   UNL     1      -4.612   3.182  14.338  1.00  0.00     0.066 C 
BRANCH  12  13
ATOM     13  C   UNL     1      -4.267   4.587  13.852  1.00  0.00     0.140 C 
ATOM     14  O   UNL     1      -4.181   4.788  12.648  1.00  0.00    -0.299 OA
BRANCH  13  15
ATOM     15  C   UNL     1      -3.929   5.730  14.788  1.00  0.00     0.106 CG0
ATOM     16  G   UNL     1      -4.999   6.805  14.876  1.00  0.00     0.000 G0
ENDBRANCH  13  15
ENDBRANCH  12  13
BRANCH  12  17
ATOM     17  C   UNL     1      -3.889   2.113  13.457  1.00  0.00    -0.006 C 
ATOM     18  C   UNL     1      -4.879   1.120  12.818  1.00  0.00     0.008 C 
ATOM     19  C   UNL     1      -2.849   1.320  14.269  1.00  0.00     0.008 C 
ENDBRANCH  12  17
ENDBRANCH  11  12
ENDBRANCH   1  11
TORSDOF 1
ENDMDL
MODEL 2
REMARK VINA RESULT:    -3.965      7.062      9.185
REMARK INTER + INTRA:          -6.019
REMARK INTER:                  -5.544
REMARK INTRA:                  -0.475
REMARK UNBOUND:                 0.032
REMARK SMILES CC1=CCC[C@@H](C)C(=O)C[C@@H](C(C)C)C(=O)C1
REMARK SMILES IDX 8 1 9 2 6 3 7 4 5 5 4 6 3 7 2 8 1 9 10 11 11 12 15 13 16 14
REMARK SMILES IDX 17 15 12 17 13 18 14 19
REMARK H PARENT
REMARK Flexibility Score: 70.00
ROOT
ATOM      1  C   UNL     1      -3.145  -0.046  11.372  1.00  0.00     0.136 C 
ATOM      2  O   UNL     1      -4.154   0.361  11.930  1.00  0.00    -0.299 OA
ENDROOT
BRANCH   1   3
ATOM      3  C   UNL     1      -2.941   0.218   9.895  1.00  0.00     0.053 C 
ATOM      4  C   UNL     1      -2.946   1.728   9.642  1.00  0.00     0.016 C 
BRANCH   3   5
ATOM      5  C   UNL     1      -4.015  -0.473   9.020  1.00  0.00     0.015 C 
BRANCH   5   6
ATOM      6  C   UNL     1      -3.612  -1.871   8.530  1.00  0.00     0.028 C 
BRANCH   6   7
ATOM      7  C   UNL     1      -4.280  -2.954   9.344  1.00  0.00    -0.028 C 
ATOM      8  C   UNL     1      -3.633  -3.853  10.117  1.00  0.00    -0.070 CG0
ATOM      9  C   UNL     1      -4.456  -4.867  10.870  1.00  0.00     0.039 C 
ATOM     10  G   UNL     1      -2.121  -3.876  10.266  1.00  0.00     0.000 G0
ENDBRANCH   6   7
ENDBRANCH   5   6
ENDBRANCH   3   5
ENDBRANCH   1   3
BRANCH   1  11
ATOM     11  C   UNL     1      -2.088  -0.754  12.186  1.00  0.00     0.087 C 
BRANCH  11  12
ATOM     12  C   UNL     1      -1.140  -1.649  11.342  1.00  0.00     0.066 C 
BRANCH  12  13
ATOM     13  C   UNL     1      -1.564  -3.112  11.441  1.00  0.00     0.140 C 
ATOM     14  O   UNL     1      -1.386  -3.706  12.496  1.00  0.00    -0.299 OA
BRANCH  13  15
ATOM     15  C   UNL     1      -2.109  -3.899  10.266  1.00  0.00     0.106 CG0
ATOM     16  G   UNL     1      -3.620  -3.842  10.121  1.00  0.00     0.000 G0
ENDBRANCH  13  15
ENDBRANCH  12  13
BRANCH  12  17
ATOM     17  C   UNL     1       0.348  -1.485  11.790  1.00  0.00    -0.006 C 
ATOM     18  C   UNL     1       0.501  -0.474  12.942  1.00  0.00     0.008 C 
ATOM     19  C   UNL     1       1.245  -1.043  10.621  1.00  0.00     0.008 C 
ENDBRANCH  12  17
ENDBRANCH  11  12
ENDBRANCH   1  11
TORSDOF 1
ENDMDL
MODEL 3
REMARK VINA RESULT:    -3.953      5.971      9.051
REMARK INTER + INTRA:          -6.001
REMARK INTER:                  -5.641
REMARK INTRA:                  -0.361
REMARK UNBOUND:                 0.032
REMARK SMILES CC1=CCC[C@@H](C)C(=O)C[C@@H](C(C)C)C(=O)C1
REMARK SMILES IDX 8 1 9 2 6 3 7 4 5 5 4 6 3 7 2 8 1 9 10 11 11 12 15 13 16 14
REMARK SMILES IDX 17 15 12 17 13 18 14 19
REMARK H PARENT
REMARK Flexibility Score: 70.00
ROOT
ATOM      1  C   UNL     1      -2.461  -2.597  11.405  1.00  0.00     0.136 C 
ATOM      2  O   UNL     1      -1.420  -3.214  11.576  1.00  0.00    -0.299 OA
ENDROOT
BRANCH   1   3
ATOM      3  C   UNL     1      -3.636  -3.273  10.729  1.00  0.00     0.053 C 
ATOM      4  C   UNL     1      -4.200  -4.357  11.653  1.00  0.00     0.016 C 
BRANCH   3   5
ATOM      5  C   UNL     1      -3.256  -3.886   9.360  1.00  0.00     0.015 C 
BRANCH   5   6
ATOM      6  C   UNL     1      -2.969  -2.843   8.270  1.00  0.00     0.028 C 
BRANCH   6   7
ATOM      7  C   UNL     1      -1.484  -2.615   8.103  1.00  0.00    -0.028 C 
ATOM      8  C   UNL     1      -0.868  -1.416   8.198  1.00  0.00    -0.070 CG0
ATOM      9  C   UNL     1       0.626  -1.368   8.006  1.00  0.00     0.039 C 
ATOM     10  G   UNL     1      -1.614  -0.128   8.498  1.00  0.00     0.000 G0
ENDBRANCH   6   7
ENDBRANCH   5   6
ENDBRANCH   3   5
ENDBRANCH   1   3
BRANCH   1  11
ATOM     11  C   UNL     1      -2.575  -1.186  11.928  1.00  0.00     0.087 C 
BRANCH  11  12
ATOM     12  C   UNL     1      -2.934  -0.139  10.838  1.00  0.00     0.066 C 
BRANCH  12  13
ATOM     13  C   UNL     1      -1.704   0.197   9.999  1.00  0.00     0.140 C 
ATOM     14  O   UNL     1      -0.788   0.816  10.522  1.00  0.00    -0.299 OA
BRANCH  13  15
ATOM     15  C   UNL     1      -1.599  -0.114   8.520  1.00  0.00     0.106 CG0
ATOM     16  G   UNL     1      -0.869  -1.406   8.202  1.00  0.00     0.000 G0
ENDBRANCH  13  15
ENDBRANCH  12  13
BRANCH  12  17
ATOM     17  C   UNL     1      -3.530   1.161  11.470  1.00  0.00    -0.006 C 
ATOM     18  C   UNL     1      -4.613   0.853  12.520  1.00  0.00     0.008 C 
ATOM     19  C   UNL     1      -4.129   2.088  10.397  1.00  0.00     0.008 C 
ENDBRANCH  12  17
ENDBRANCH  11  12
ENDBRANCH   1  11
TORSDOF 1
ENDMDL
MODEL 4
REMARK VINA RESULT:    -3.803      5.897      9.047
REMARK INTER + INTRA:          -5.772
REMARK INTER:                  -5.485
REMARK INTRA:                  -0.287
REMARK UNBOUND:                 0.032
REMARK SMILES CC1=CCC[C@@H](C)C(=O)C[C@@H](C(C)C)C(=O)C1
REMARK SMILES IDX 8 1 9 2 6 3 7 4 5 5 4 6 3 7 2 8 1 9 10 11 11 12 15 13 16 14
REMARK SMILES IDX 17 15 12 17 13 18 14 19
REMARK H PARENT
REMARK Flexibility Score: 70.00
ROOT
ATOM      1  C   UNL     1      -3.981  -1.937   9.719  1.00  0.00     0.136 C 
ATOM      2  O   UNL     1      -4.375  -1.188   8.838  1.00  0.00    -0.299 OA
ENDROOT
BRANCH   1   3
ATOM      3  C   UNL     1      -3.902  -3.428   9.463  1.00  0.00     0.053 C 
ATOM      4  C   UNL     1      -4.052  -4.181  10.789  1.00  0.00     0.016 C 
BRANCH   3   5
ATOM      5  C   UNL     1      -2.582  -3.836   8.765  1.00  0.00     0.015 C 
BRANCH   5   6
ATOM      6  C   UNL     1      -1.378  -3.922   9.714  1.00  0.00     0.028 C 
BRANCH   6   7
ATOM      7  C   UNL     1      -0.300  -2.936   9.326  1.00  0.00    -0.028 C 
ATOM      8  C   UNL     1       0.071  -1.866  10.062  1.00  0.00    -0.070 CG0
ATOM      9  C   UNL     1       1.171  -0.983   9.528  1.00  0.00     0.039 C 
ATOM     10  G   UNL     1      -0.562  -1.525  11.400  1.00  0.00     0.000 G0
ENDBRANCH   6   7
ENDBRANCH   5   6
ENDBRANCH   3   5
ENDBRANCH   1   3
BRANCH   1  11
ATOM     11  C   UNL     1      -3.521  -1.352  11.033  1.00  0.00     0.087 C 
BRANCH  11  12
ATOM     12  C   UNL     1      -2.708  -0.037  10.884  1.00  0.00     0.066 C 
BRANCH  12  13
ATOM     13  C   UNL     1      -1.304  -0.213  11.456  1.00  0.00     0.140 C 
ATOM     14  O   UNL     1      -0.724   0.767  11.904  1.00  0.00    -0.299 OA
BRANCH  13  15
ATOM     15  C   UNL     1      -0.549  -1.526  11.412  1.00  0.00     0.106 CG0
ATOM     16  G   UNL     1       0.081  -1.842  10.066  1.00  0.00     0.000 G0
ENDBRANCH  13  15
ENDBRANCH  12  13
BRANCH  12  17
ATOM     17  C   UNL     1      -3.429   1.162  11.579  1.00  0.00    -0.006 C 
ATOM     18  C   UNL     1      -4.750   0.738  12.247  1.00  0.00     0.008 C 
ATOM     19  C   UNL     1      -3.721   2.301  10.585  1.00  0.00     0.008 C 
ENDBRANCH  12  17
ENDBRANCH  11  12
ENDBRANCH   1  11
TORSDOF 1
ENDMDL
MODEL 5
REMARK VINA RESULT:    -3.644      7.000      9.136
REMARK INTER + INTRA:          -5.529
REMARK INTER:                  -5.091
REMARK INTRA:                  -0.438
REMARK UNBOUND:                 0.032
REMARK SMILES CC1=CCC[C@@H](C)C(=O)C[C@@H](C(C)C)C(=O)C1
REMARK SMILES IDX 8 1 9 2 6 3 7 4 5 5 4 6 3 7 2 8 1 9 10 11 11 12 15 13 16 14
REMARK SMILES IDX 17 15 12 17 13 18 14 19
REMARK H PARENT
REMARK Flexibility Score: 70.00
ROOT
ATOM      1  C   UNL     1      -0.161  -3.449  11.745  1.00  0.00     0.136 C 
ATOM      2  O   UNL     1       0.540  -3.910  12.634  1.00  0.00    -0.299 OA
ENDROOT
BRANCH   1   3
ATOM      3  C   UNL     1       0.425  -3.206  10.370  1.00  0.00     0.053 C 
ATOM      4  C   UNL     1       1.045  -4.505   9.845  1.00  0.00     0.016 C 
BRANCH   3   5
ATOM      5  C   UNL     1       1.480  -2.074  10.371  1.00  0.00     0.015 C 
BRANCH   5   6
ATOM      6  C   UNL     1       1.142  -0.910  11.314  1.00  0.00     0.028 C 
BRANCH   6   7
ATOM      7  C   UNL     1       0.434   0.205  10.580  1.00  0.00    -0.028 C 
ATOM      8  C   UNL     1      -0.843   0.590  10.801  1.00  0.00    -0.070 CG0
ATOM      9  C   UNL     1      -1.394   1.728   9.980  1.00  0.00     0.039 C 
ATOM     10  G   UNL     1      -1.733  -0.065  11.843  1.00  0.00     0.000 G0
ENDBRANCH   6   7
ENDBRANCH   5   6
ENDBRANCH   3   5
ENDBRANCH   1   3
BRANCH   1  11
ATOM     11  C   UNL     1      -1.622  -3.186  12.022  1.00  0.00     0.087 C 
BRANCH  11  12
ATOM     12  C   UNL     1      -2.359  -2.455  10.867  1.00  0.00     0.066 C 
BRANCH  12  13
ATOM     13  C   UNL     1      -2.743  -1.040  11.293  1.00  0.00     0.140 C 
ATOM     14  O   UNL     1      -3.892  -0.663  11.110  1.00  0.00    -0.299 OA
BRANCH  13  15
ATOM     15  C   UNL     1      -1.746  -0.041  11.845  1.00  0.00     0.106 CG0
ATOM     16  G   UNL     1      -0.836   0.578  10.799  1.00  0.00     0.000 G0
ENDBRANCH  13  15
ENDBRANCH  12  13
BRANCH  12  17
ATOM     17  C   UNL     1      -3.627  -3.245  10.409  1.00  0.00    -0.006 C 
ATOM     18  C   UNL     1      -4.085  -4.270  11.463  1.00  0.00     0.008 C 
ATOM     19  C   UNL     1      -3.387  -3.978   9.078  1.00  0.00     0.008 C 
ENDBRANCH  12  17
ENDBRANCH  11  12
ENDBRANCH   1  11
TORSDOF 1
ENDMDL
MODEL 6
REMARK VINA RESULT:    -3.581      1.684      4.259
REMARK INTER + INTRA:          -5.434
REMARK INTER:                  -5.036
REMARK INTRA:                  -0.397
REMARK UNBOUND:                 0.032
REMARK SMILES CC1=CCC[C@@H](C)C(=O)C[C@@H](C(C)C)C(=O)C1
REMARK SMILES IDX 8 1 9 2 6 3 7 4 5 5 4 6 3 7 2 8 1 9 10 11 11 12 15 13 16 14
REMARK SMILES IDX 17 15 12 17 13 18 14 19
REMARK H PARENT
REMARK Flexibility Score: 70.00
ROOT
ATOM      1  C   UNL     1      -6.746   5.155  16.089  1.00  0.00     0.136 C 
ATOM      2  O   UNL     1      -7.465   5.024  17.069  1.00  0.00    -0.299 OA
ENDROOT
BRANCH   1   3
ATOM      3  C   UNL     1      -6.974   4.294  14.865  1.00  0.00     0.053 C 
ATOM      4  C   UNL     1      -8.466   3.967  14.743  1.00  0.00     0.016 C 
BRANCH   3   5
ATOM      5  C   UNL     1      -6.144   2.989  14.900  1.00  0.00     0.015 C 
BRANCH   5   6
ATOM      6  C   UNL     1      -5.139   2.860  13.746  1.00  0.00     0.028 C 
BRANCH   6   7
ATOM      7  C   UNL     1      -3.716   2.846  14.254  1.00  0.00    -0.028 C 
ATOM      8  C   UNL     1      -2.854   3.883  14.173  1.00  0.00    -0.070 CG0
ATOM      9  C   UNL     1      -1.467   3.700  14.736  1.00  0.00     0.039 C 
ATOM     10  G   UNL     1      -3.226   5.219  13.554  1.00  0.00     0.000 G0
ENDBRANCH   6   7
ENDBRANCH   5   6
ENDBRANCH   3   5
ENDBRANCH   1   3
BRANCH   1  11
ATOM     11  C   UNL     1      -5.678   6.222  16.098  1.00  0.00     0.087 C 
BRANCH  11  12
ATOM     12  C   UNL     1      -5.183   6.628  14.683  1.00  0.00     0.066 C 
BRANCH  12  13
ATOM     13  C   UNL     1      -3.707   6.279  14.516  1.00  0.00     0.140 C 
ATOM     14  O   UNL     1      -2.876   6.925  15.140  1.00  0.00    -0.299 OA
BRANCH  13  15
ATOM     15  C   UNL     1      -3.207   5.232  13.541  1.00  0.00     0.106 CG0
ATOM     16  G   UNL     1      -2.850   3.901  14.179  1.00  0.00     0.000 G0
ENDBRANCH  13  15
ENDBRANCH  12  13
BRANCH  12  17
ATOM     17  C   UNL     1      -5.413   8.150  14.414  1.00  0.00    -0.006 C 
ATOM     18  C   UNL     1      -5.824   8.911  15.688  1.00  0.00     0.008 C 
ATOM     19  C   UNL     1      -6.486   8.378  13.334  1.00  0.00     0.008 C 
ENDBRANCH  12  17
ENDBRANCH  11  12
ENDBRANCH   1  11
TORSDOF 1
ENDMDL
MODEL 7
REMARK VINA RESULT:    -3.516      6.562      9.857
REMARK INTER + INTRA:          -5.334
REMARK INTER:                  -5.442
REMARK INTRA:                   0.108
REMARK UNBOUND:                 0.032
REMARK SMILES CC1=CCC[C@@H](C)C(=O)C[C@@H](C(C)C)C(=O)C1
REMARK SMILES IDX 8 1 9 2 6 3 7 4 5 5 4 6 3 7 2 8 1 9 10 11 11 12 15 13 16 14
REMARK SMILES IDX 17 15 12 17 13 18 14 19
REMARK H PARENT
REMARK Flexibility Score: 70.00
ROOT
ATOM      1  C   UNL     1      -0.985   0.345   8.795  1.00  0.00     0.136 C 
ATOM      2  O   UNL     1      -0.449   1.416   9.038  1.00  0.00    -0.299 OA
ENDROOT
BRANCH   1   3
ATOM      3  C   UNL     1      -0.135  -0.881   8.532  1.00  0.00     0.053 C 
ATOM      4  C   UNL     1       1.244  -0.446   8.029  1.00  0.00     0.016 C 
BRANCH   3   5
ATOM      5  C   UNL     1      -0.793  -1.847   7.517  1.00  0.00     0.015 C 
BRANCH   5   6
ATOM      6  C   UNL     1      -1.005  -3.268   8.058  1.00  0.00     0.028 C 
BRANCH   6   7
ATOM      7  C   UNL     1      -0.843  -3.316   9.560  1.00  0.00    -0.028 C 
ATOM      8  C   UNL     1      -1.857  -3.266  10.451  1.00  0.00    -0.070 CG0
ATOM      9  C   UNL     1      -1.517  -3.330  11.919  1.00  0.00     0.039 C 
ATOM     10  G   UNL     1      -3.314  -3.160  10.037  1.00  0.00     0.000 G0
ENDBRANCH   6   7
ENDBRANCH   5   6
ENDBRANCH   3   5
ENDBRANCH   1   3
BRANCH   1  11
ATOM     11  C   UNL     1      -2.491   0.252   8.822  1.00  0.00     0.087 C 
BRANCH  11  12
ATOM     12  C   UNL     1      -3.053  -0.494  10.063  1.00  0.00     0.066 C 
BRANCH  12  13
ATOM     13  C   UNL     1      -3.775  -1.769   9.634  1.00  0.00     0.140 C 
ATOM     14  O   UNL     1      -4.812  -1.670   8.993  1.00  0.00    -0.299 OA
BRANCH  13  15
ATOM     15  C   UNL     1      -3.323  -3.156  10.044  1.00  0.00     0.106 CG0
ATOM     16  G   UNL     1      -1.858  -3.247  10.434  1.00  0.00     0.000 G0
ENDBRANCH  13  15
ENDBRANCH  12  13
BRANCH  12  17
ATOM     17  C   UNL     1      -4.014   0.419  10.891  1.00  0.00    -0.006 C 
ATOM     18  C   UNL     1      -4.168   1.818  10.266  1.00  0.00     0.008 C 
ATOM     19  C   UNL     1      -3.533   0.576  12.344  1.00  0.00     0.008 C 
ENDBRANCH  12  17
ENDBRANCH  11  12
ENDBRANCH   1  11
TORSDOF 1
ENDMDL
MODEL 8
REMARK VINA RESULT:    -3.412      2.019      4.250
REMARK INTER + INTRA:          -5.176
REMARK INTER:                  -4.871
REMARK INTRA:                  -0.305
REMARK UNBOUND:                 0.032
REMARK SMILES CC1=CCC[C@@H](C)C(=O)C[C@@H](C(C)C)C(=O)C1
REMARK SMILES IDX 8 1 9 2 6 3 7 4 5 5 4 6 3 7 2 8 1 9 10 11 11 12 15 13 16 14
REMARK SMILES IDX 17 15 12 17 13 18 14 19
REMARK H PARENT
REMARK Flexibility Score: 70.00
ROOT
ATOM      1  C   UNL     1      -4.011   2.415  14.517  1.00  0.00     0.136 C 
ATOM      2  O   UNL     1      -3.182   1.689  15.048  1.00  0.00    -0.299 OA
ENDROOT
BRANCH   1   3
ATOM      3  C   UNL     1      -4.322   2.253  13.044  1.00  0.00     0.053 C 
ATOM      4  C   UNL     1      -4.878   0.848  12.792  1.00  0.00     0.016 C 
BRANCH   3   5
ATOM      5  C   UNL     1      -3.085   2.505  12.149  1.00  0.00     0.015 C 
BRANCH   5   6
ATOM      6  C   UNL     1      -3.159   3.805  11.337  1.00  0.00     0.028 C 
BRANCH   6   7
ATOM      7  C   UNL     1      -2.291   4.883  11.943  1.00  0.00    -0.028 C 
ATOM      8  C   UNL     1      -2.747   5.937  12.654  1.00  0.00    -0.070 CG0
ATOM      9  C   UNL     1      -1.740   6.921  13.193  1.00  0.00     0.039 C 
ATOM     10  G   UNL     1      -4.221   6.162  12.941  1.00  0.00     0.000 G0
ENDBRANCH   6   7
ENDBRANCH   5   6
ENDBRANCH   3   5
ENDBRANCH   1   3
BRANCH   1  11
ATOM     11  C   UNL     1      -4.755   3.423  15.360  1.00  0.00     0.087 C 
BRANCH  11  12
ATOM     12  C   UNL     1      -5.540   4.477  14.533  1.00  0.00     0.066 C 
BRANCH  12  13
ATOM     13  C   UNL     1      -4.684   5.720  14.308  1.00  0.00     0.140 C 
ATOM     14  O   UNL     1      -4.416   6.430  15.268  1.00  0.00    -0.299 OA
BRANCH  13  15
ATOM     15  C   UNL     1      -4.227   6.176  12.937  1.00  0.00     0.106 CG0
ATOM     16  G   UNL     1      -2.752   5.943  12.659  1.00  0.00     0.000 G0
ENDBRANCH  13  15
ENDBRANCH  12  13
BRANCH  12  17
ATOM     17  C   UNL     1      -6.884   4.864  15.230  1.00  0.00    -0.006 C 
ATOM     18  C   UNL     1      -6.907   4.456  16.715  1.00  0.00     0.008 C 
ATOM     19  C   UNL     1      -8.093   4.225  14.523  1.00  0.00     0.008 C 
ENDBRANCH  12  17
ENDBRANCH  11  12
ENDBRANCH   1  11
TORSDOF 1
ENDMDL
MODEL 9
REMARK VINA RESULT:    -3.363      4.902      6.986
REMARK INTER + INTRA:          -5.101
REMARK INTER:                  -4.686
REMARK INTRA:                  -0.415
REMARK UNBOUND:                 0.032
REMARK SMILES CC1=CCC[C@@H](C)C(=O)C[C@@H](C(C)C)C(=O)C1
REMARK SMILES IDX 8 1 9 2 6 3 7 4 5 5 4 6 3 7 2 8 1 9 10 11 11 12 15 13 16 14
REMARK SMILES IDX 17 15 12 17 13 18 14 19
REMARK H PARENT
REMARK Flexibility Score: 70.00
ROOT
ATOM      1  C   UNL     1      -3.836   1.324  10.569  1.00  0.00     0.136 C 
ATOM      2  O   UNL     1      -4.369   2.286  10.036  1.00  0.00    -0.299 OA
ENDROOT
BRANCH   1   3
ATOM      3  C   UNL     1      -3.764   1.241  12.079  1.00  0.00     0.053 C 
ATOM      4  C   UNL     1      -5.163   0.969  12.641  1.00  0.00     0.016 C 
BRANCH   3   5
ATOM      5  C   UNL     1      -3.176   2.524  12.712  1.00  0.00     0.015 C 
BRANCH   5   6
ATOM      6  C   UNL     1      -1.711   2.788  12.335  1.00  0.00     0.028 C 
BRANCH   6   7
ATOM      7  C   UNL     1      -0.794   1.739  12.920  1.00  0.00    -0.028 C 
ATOM      8  C   UNL     1      -0.128   0.806  12.205  1.00  0.00    -0.070 CG0
ATOM      9  C   UNL     1       0.751  -0.167  12.950  1.00  0.00     0.039 C 
ATOM     10  G   UNL     1      -0.220   0.705  10.693  1.00  0.00     0.000 G0
ENDBRANCH   6   7
ENDBRANCH   5   6
ENDBRANCH   3   5
ENDBRANCH   1   3
BRANCH   1  11
ATOM     11  C   UNL     1      -3.311   0.201   9.705  1.00  0.00     0.087 C 
BRANCH  11  12
ATOM     12  C   UNL     1      -2.419  -0.815  10.469  1.00  0.00     0.066 C 
BRANCH  12  13
ATOM     13  C   UNL     1      -0.944  -0.542  10.188  1.00  0.00     0.140 C 
ATOM     14  O   UNL     1      -0.290  -1.394   9.601  1.00  0.00    -0.299 OA
BRANCH  13  15
ATOM     15  C   UNL     1      -0.219   0.693  10.684  1.00  0.00     0.106 CG0
ATOM     16  G   UNL     1      -0.131   0.802  12.196  1.00  0.00     0.000 G0
ENDBRANCH  13  15
ENDBRANCH  12  13
BRANCH  12  17
ATOM     17  C   UNL     1      -2.779  -2.287  10.090  1.00  0.00    -0.006 C 
ATOM     18  C   UNL     1      -3.586  -2.371   8.782  1.00  0.00     0.008 C 
ATOM     19  C   UNL     1      -3.577  -2.980  11.209  1.00  0.00     0.008 C 
ENDBRANCH  12  17
ENDBRANCH  11  12
ENDBRANCH   1  11
TORSDOF 1
ENDMDL
