MODEL 1
REMARK VINA RESULT:    -5.264      0.000      0.000
REMARK INTER + INTRA:          -9.358
REMARK INTER:                  -8.034
REMARK INTRA:                  -1.324
REMARK UNBOUND:                -1.324
REMARK SMILES OC[C@@H]1O[C@@](CO)(O[C@@H]2O[C@@H](CO)[C@@H](O)[C@H](O)[C@@H]2O)[C@H](O)[C@@H]1O
REMARK SMILES IDX 8 1 9 2 11 3 14 4 10 5 16 6 18 7 12 8 13 9 15 11 17 13 19 15
REMARK SMILES IDX 5 17 20 18 4 19 22 20 3 21 6 22 7 23 21 25 23 27 2 29 1 30
REMARK H PARENT 13 10 15 12 17 14 19 16 7 24 21 26 23 28 1 31
REMARK Flexibility Score: inf
ROOT
ATOM      1  O   UNL     1      27.898   5.814 143.532  1.00  0.00    -0.313 OA
ENDROOT
BRANCH   1   2
ATOM      2  C   UNL     1      27.652   6.500 144.753  1.00  0.00     0.285 C 
ATOM      3  C   UNL     1      26.018   7.873 143.767  1.00  0.00     0.178 C 
ATOM      4  C   UNL     1      26.889   9.153 143.876  1.00  0.00     0.177 C 
ATOM      5  O   UNL     1      26.311   6.970 144.822  1.00  0.00    -0.341 OA
ATOM      6  C   UNL     1      28.384   8.784 143.898  1.00  0.00     0.179 C 
ATOM      7  C   UNL     1      28.652   7.660 144.924  1.00  0.00     0.202 C 
BRANCH   3   8
ATOM      8  C   UNL     1      24.518   8.201 143.810  1.00  0.00     0.191 C 
BRANCH   8   9
ATOM      9  O   UNL     1      24.032   8.167 145.125  1.00  0.00    -0.394 OA
ATOM     10  H   UNL     1      23.360   8.895 145.199  1.00  0.00     0.210 HD
ENDBRANCH   8   9
ENDBRANCH   3   8
BRANCH   4  11
ATOM     11  O   UNL     1      26.550   9.931 145.000  1.00  0.00    -0.387 OA
ATOM     12  H   UNL     1      25.751   9.528 145.427  1.00  0.00     0.211 HD
ENDBRANCH   4  11
BRANCH   6  13
ATOM     13  O   UNL     1      28.776   8.376 142.609  1.00  0.00    -0.387 OA
ATOM     14  H   UNL     1      27.998   8.523 142.009  1.00  0.00     0.211 HD
ENDBRANCH   6  13
BRANCH   7  15
ATOM     15  O   UNL     1      29.963   7.171 144.795  1.00  0.00    -0.385 OA
ATOM     16  H   UNL     1      30.304   7.024 145.717  1.00  0.00     0.211 HD
ENDBRANCH   7  15
ENDBRANCH   1   2
BRANCH   1  17
ATOM     17  C   UNL     1      27.862   4.392 143.649  1.00  0.00     0.224 C 
ATOM     18  C   UNL     1      26.404   3.886 143.571  1.00  0.00     0.208 C 
ATOM     19  O   UNL     1      28.614   3.755 142.626  1.00  0.00    -0.337 OA
ATOM     20  C   UNL     1      26.536   2.575 142.833  1.00  0.00     0.180 C 
ATOM     21  C   UNL     1      27.774   2.829 141.969  1.00  0.00     0.179 C 
BRANCH  17  22
ATOM     22  C   UNL     1      28.542   4.031 144.986  1.00  0.00     0.225 C 
BRANCH  22  23
ATOM     23  O   UNL     1      29.791   3.433 144.763  1.00  0.00    -0.391 OA
ATOM     24  H   UNL     1      30.470   4.097 145.055  1.00  0.00     0.210 HD
ENDBRANCH  22  23
ENDBRANCH  17  22
BRANCH  18  25
ATOM     25  O   UNL     1      25.803   3.728 144.831  1.00  0.00    -0.385 OA
ATOM     26  H   UNL     1      24.835   3.580 144.667  1.00  0.00     0.211 HD
ENDBRANCH  18  25
BRANCH  20  27
ATOM     27  O   UNL     1      26.744   1.523 143.745  1.00  0.00    -0.387 OA
ATOM     28  H   UNL     1      26.522   0.683 143.268  1.00  0.00     0.211 HD
ENDBRANCH  20  27
BRANCH  21  29
ATOM     29  C   UNL     1      28.559   1.558 141.628  1.00  0.00     0.191 C 
BRANCH  29  30
ATOM     30  O   UNL     1      29.837   1.629 142.196  1.00  0.00    -0.394 OA
ATOM     31  H   UNL     1      29.871   0.916 142.886  1.00  0.00     0.210 HD
ENDBRANCH  29  30
ENDBRANCH  21  29
ENDBRANCH   1  17
TORSDOF 13
ENDMDL
MODEL 2
REMARK VINA RESULT:    -5.164     12.912     14.489
REMARK INTER + INTRA:          -9.205
REMARK INTER:                  -7.658
REMARK INTRA:                  -1.547
REMARK UNBOUND:                -1.324
REMARK SMILES OC[C@@H]1O[C@@](CO)(O[C@@H]2O[C@@H](CO)[C@@H](O)[C@H](O)[C@@H]2O)[C@H](O)[C@@H]1O
REMARK SMILES IDX 8 1 9 2 11 3 14 4 10 5 16 6 18 7 12 8 13 9 15 11 17 13 19 15
REMARK SMILES IDX 5 17 20 18 4 19 22 20 3 21 6 22 7 23 21 25 23 27 2 29 1 30
REMARK H PARENT 13 10 15 12 17 14 19 16 7 24 21 26 23 28 1 31
REMARK Flexibility Score: inf
ROOT
ATOM      1  O   UNL     1      29.933  17.371 136.158  1.00  0.00    -0.313 OA
ENDROOT
BRANCH   1   2
ATOM      2  C   UNL     1      30.179  16.222 136.959  1.00  0.00     0.285 C 
ATOM      3  C   UNL     1      30.623  17.525 138.865  1.00  0.00     0.178 C 
ATOM      4  C   UNL     1      32.133  17.165 138.879  1.00  0.00     0.177 C 
ATOM      5  O   UNL     1      29.855  16.462 138.323  1.00  0.00    -0.341 OA
ATOM      6  C   UNL     1      32.609  16.797 137.461  1.00  0.00     0.179 C 
ATOM      7  C   UNL     1      31.647  15.775 136.813  1.00  0.00     0.202 C 
BRANCH   3   8
ATOM      8  C   UNL     1      30.099  17.833 140.276  1.00  0.00     0.191 C 
BRANCH   8   9
ATOM      9  O   UNL     1      30.466  19.125 140.679  1.00  0.00    -0.394 OA
ATOM     10  H   UNL     1      29.687  19.713 140.493  1.00  0.00     0.210 HD
ENDBRANCH   8   9
ENDBRANCH   3   8
BRANCH   4  11
ATOM     11  O   UNL     1      32.423  16.130 139.789  1.00  0.00    -0.387 OA
ATOM     12  H   UNL     1      32.409  16.509 140.705  1.00  0.00     0.211 HD
ENDBRANCH   4  11
BRANCH   6  13
ATOM     13  O   UNL     1      32.682  17.966 136.683  1.00  0.00    -0.387 OA
ATOM     14  H   UNL     1      32.693  18.734 137.312  1.00  0.00     0.211 HD
ENDBRANCH   6  13
BRANCH   7  15
ATOM     15  O   UNL     1      31.951  15.601 135.452  1.00  0.00    -0.385 OA
ATOM     16  H   UNL     1      32.867  15.217 135.412  1.00  0.00     0.211 HD
ENDBRANCH   7  15
ENDBRANCH   1   2
BRANCH   1  17
ATOM     17  C   UNL     1      28.813  17.237 135.283  1.00  0.00     0.224 C 
ATOM     18  C   UNL     1      28.479  15.743 135.069  1.00  0.00     0.208 C 
ATOM     19  O   UNL     1      27.658  17.885 135.796  1.00  0.00    -0.337 OA
ATOM     20  C   UNL     1      26.972  15.740 134.972  1.00  0.00     0.180 C 
ATOM     21  C   UNL     1      26.604  16.947 135.838  1.00  0.00     0.179 C 
BRANCH  17  22
ATOM     22  C   UNL     1      29.177  17.956 133.968  1.00  0.00     0.225 C 
BRANCH  22  23
ATOM     23  O   UNL     1      28.040  18.130 133.166  1.00  0.00    -0.391 OA
ATOM     24  H   UNL     1      28.122  19.034 132.764  1.00  0.00     0.210 HD
ENDBRANCH  22  23
ENDBRANCH  17  22
BRANCH  18  25
ATOM     25  O   UNL     1      29.086  15.197 133.924  1.00  0.00    -0.385 OA
ATOM     26  H   UNL     1      28.995  15.875 133.205  1.00  0.00     0.211 HD
ENDBRANCH  18  25
BRANCH  20  27
ATOM     27  O   UNL     1      26.571  15.916 133.635  1.00  0.00    -0.387 OA
ATOM     28  H   UNL     1      26.168  16.821 133.573  1.00  0.00     0.211 HD
ENDBRANCH  20  27
BRANCH  21  29
ATOM     29  C   UNL     1      25.287  17.617 135.433  1.00  0.00     0.191 C 
BRANCH  29  30
ATOM     30  O   UNL     1      25.550  18.679 134.559  1.00  0.00    -0.394 OA
ATOM     31  H   UNL     1      26.503  18.589 134.296  1.00  0.00     0.210 HD
ENDBRANCH  29  30
ENDBRANCH  21  29
ENDBRANCH   1  17
TORSDOF 13
ENDMDL
MODEL 3
REMARK VINA RESULT:    -4.994     11.700     13.935
REMARK INTER + INTRA:          -8.945
REMARK INTER:                  -7.352
REMARK INTRA:                  -1.593
REMARK UNBOUND:                -1.324
REMARK SMILES OC[C@@H]1O[C@@](CO)(O[C@@H]2O[C@@H](CO)[C@@H](O)[C@H](O)[C@@H]2O)[C@H](O)[C@@H]1O
REMARK SMILES IDX 8 1 9 2 11 3 14 4 10 5 16 6 18 7 12 8 13 9 15 11 17 13 19 15
REMARK SMILES IDX 5 17 20 18 4 19 22 20 3 21 6 22 7 23 21 25 23 27 2 29 1 30
REMARK H PARENT 13 10 15 12 17 14 19 16 7 24 21 26 23 28 1 31
REMARK Flexibility Score: inf
ROOT
ATOM      1  O   UNL     1      31.110  16.343 136.834  1.00  0.00    -0.313 OA
ENDROOT
BRANCH   1   2
ATOM      2  C   UNL     1      30.416  17.557 137.096  1.00  0.00     0.285 C 
ATOM      3  C   UNL     1      28.496  16.821 135.956  1.00  0.00     0.178 C 
ATOM      4  C   UNL     1      28.679  17.833 134.795  1.00  0.00     0.177 C 
ATOM      5  O   UNL     1      29.012  17.345 137.170  1.00  0.00    -0.341 OA
ATOM      6  C   UNL     1      30.163  18.222 134.651  1.00  0.00     0.179 C 
ATOM      7  C   UNL     1      30.758  18.609 136.024  1.00  0.00     0.202 C 
BRANCH   3   8
ATOM      8  C   UNL     1      27.018  16.462 136.170  1.00  0.00     0.191 C 
BRANCH   8   9
ATOM      9  O   UNL     1      26.293  17.567 136.641  1.00  0.00    -0.394 OA
ATOM     10  H   UNL     1      25.377  17.487 136.267  1.00  0.00     0.210 HD
ENDBRANCH   8   9
ENDBRANCH   3   8
BRANCH   4  11
ATOM     11  O   UNL     1      27.876  18.978 134.957  1.00  0.00    -0.387 OA
ATOM     12  H   UNL     1      27.061  18.866 134.404  1.00  0.00     0.211 HD
ENDBRANCH   4  11
BRANCH   6  13
ATOM     13  O   UNL     1      30.870  17.140 134.096  1.00  0.00    -0.387 OA
ATOM     14  H   UNL     1      31.347  16.691 134.842  1.00  0.00     0.211 HD
ENDBRANCH   6  13
BRANCH   7  15
ATOM     15  O   UNL     1      32.153  18.754 135.937  1.00  0.00    -0.385 OA
ATOM     16  H   UNL     1      32.439  18.270 135.117  1.00  0.00     0.211 HD
ENDBRANCH   7  15
ENDBRANCH   1   2
BRANCH   1  17
ATOM     17  C   UNL     1      32.104  16.024 137.806  1.00  0.00     0.224 C 
ATOM     18  C   UNL     1      32.423  14.512 137.768  1.00  0.00     0.208 C 
ATOM     19  O   UNL     1      33.310  16.742 137.590  1.00  0.00    -0.337 OA
ATOM     20  C   UNL     1      33.903  14.467 138.063  1.00  0.00     0.180 C 
ATOM     21  C   UNL     1      34.371  15.813 137.506  1.00  0.00     0.179 C 
BRANCH  17  22
ATOM     22  C   UNL     1      31.559  16.478 139.177  1.00  0.00     0.225 C 
BRANCH  22  23
ATOM     23  O   UNL     1      32.577  16.474 140.142  1.00  0.00    -0.391 OA
ATOM     24  H   UNL     1      32.182  16.877 140.960  1.00  0.00     0.210 HD
ENDBRANCH  22  23
ENDBRANCH  17  22
BRANCH  18  25
ATOM     25  O   UNL     1      31.674  13.763 138.692  1.00  0.00    -0.385 OA
ATOM     26  H   UNL     1      30.720  13.878 138.444  1.00  0.00     0.211 HD
ENDBRANCH  18  25
BRANCH  20  27
ATOM     27  O   UNL     1      34.120  14.373 139.450  1.00  0.00    -0.387 OA
ATOM     28  H   UNL     1      34.990  14.811 139.635  1.00  0.00     0.211 HD
ENDBRANCH  20  27
BRANCH  21  29
ATOM     29  C   UNL     1      35.614  16.371 138.207  1.00  0.00     0.191 C 
BRANCH  29  30
ATOM     30  O   UNL     1      35.260  16.869 139.467  1.00  0.00    -0.394 OA
ATOM     31  H   UNL     1      34.608  17.599 139.300  1.00  0.00     0.210 HD
ENDBRANCH  29  30
ENDBRANCH  21  29
ENDBRANCH   1  17
TORSDOF 13
ENDMDL
MODEL 4
REMARK VINA RESULT:    -4.807     12.584     13.666
REMARK INTER + INTRA:          -8.660
REMARK INTER:                  -6.903
REMARK INTRA:                  -1.757
REMARK UNBOUND:                -1.324
REMARK SMILES OC[C@@H]1O[C@@](CO)(O[C@@H]2O[C@@H](CO)[C@@H](O)[C@H](O)[C@@H]2O)[C@H](O)[C@@H]1O
REMARK SMILES IDX 8 1 9 2 11 3 14 4 10 5 16 6 18 7 12 8 13 9 15 11 17 13 19 15
REMARK SMILES IDX 5 17 20 18 4 19 22 20 3 21 6 22 7 23 21 25 23 27 2 29 1 30
REMARK H PARENT 13 10 15 12 17 14 19 16 7 24 21 26 23 28 1 31
REMARK Flexibility Score: inf
ROOT
ATOM      1  O   UNL     1      32.676  16.783 137.653  1.00  0.00    -0.313 OA
ENDROOT
BRANCH   1   2
ATOM      2  C   UNL     1      31.546  16.020 138.063  1.00  0.00     0.285 C 
ATOM      3  C   UNL     1      30.276  16.725 136.214  1.00  0.00     0.178 C 
ATOM      4  C   UNL     1      29.310  17.577 137.079  1.00  0.00     0.177 C 
ATOM      5  O   UNL     1      30.764  15.612 136.947  1.00  0.00    -0.341 OA
ATOM      6  C   UNL     1      30.007  18.025 138.378  1.00  0.00     0.179 C 
ATOM      7  C   UNL     1      30.697  16.825 139.066  1.00  0.00     0.202 C 
BRANCH   3   8
ATOM      8  C   UNL     1      29.591  16.206 134.941  1.00  0.00     0.191 C 
BRANCH   8   9
ATOM      9  O   UNL     1      28.614  17.105 134.491  1.00  0.00    -0.394 OA
ATOM     10  H   UNL     1      28.659  17.102 133.499  1.00  0.00     0.210 HD
ENDBRANCH   8   9
ENDBRANCH   3   8
BRANCH   4  11
ATOM     11  O   UNL     1      28.112  16.895 137.364  1.00  0.00    -0.387 OA
ATOM     12  H   UNL     1      28.341  16.028 137.788  1.00  0.00     0.211 HD
ENDBRANCH   4  11
BRANCH   6  13
ATOM     13  O   UNL     1      30.948  19.025 138.073  1.00  0.00    -0.387 OA
ATOM     14  H   UNL     1      31.774  18.811 138.581  1.00  0.00     0.211 HD
ENDBRANCH   6  13
BRANCH   7  15
ATOM     15  O   UNL     1      31.510  17.260 140.126  1.00  0.00    -0.385 OA
ATOM     16  H   UNL     1      32.451  17.110 139.844  1.00  0.00     0.211 HD
ENDBRANCH   7  15
ENDBRANCH   1   2
BRANCH   1  17
ATOM     17  C   UNL     1      33.925  16.129 137.872  1.00  0.00     0.224 C 
ATOM     18  C   UNL     1      33.772  15.033 138.952  1.00  0.00     0.208 C 
ATOM     19  O   UNL     1      34.423  15.524 136.688  1.00  0.00    -0.337 OA
ATOM     20  C   UNL     1      34.706  13.948 138.473  1.00  0.00     0.180 C 
ATOM     21  C   UNL     1      34.679  14.162 136.958  1.00  0.00     0.179 C 
BRANCH  17  22
ATOM     22  C   UNL     1      34.941  17.217 138.275  1.00  0.00     0.225 C 
BRANCH  22  23
ATOM     23  O   UNL     1      36.251  16.720 138.215  1.00  0.00    -0.391 OA
ATOM     24  H   UNL     1      36.168  15.743 138.054  1.00  0.00     0.210 HD
ENDBRANCH  22  23
ENDBRANCH  17  22
BRANCH  18  25
ATOM     25  O   UNL     1      34.094  15.479 140.245  1.00  0.00    -0.385 OA
ATOM     26  H   UNL     1      33.250  15.811 140.649  1.00  0.00     0.211 HD
ENDBRANCH  18  25
BRANCH  20  27
ATOM     27  O   UNL     1      35.995  14.147 139.004  1.00  0.00    -0.387 OA
ATOM     28  H   UNL     1      36.282  15.056 138.728  1.00  0.00     0.211 HD
ENDBRANCH  20  27
BRANCH  21  29
ATOM     29  C   UNL     1      35.962  13.717 136.249  1.00  0.00     0.191 C 
BRANCH  29  30
ATOM     30  O   UNL     1      36.903  14.754 136.287  1.00  0.00    -0.394 OA
ATOM     31  H   UNL     1      37.299  14.799 135.378  1.00  0.00     0.210 HD
ENDBRANCH  29  30
ENDBRANCH  21  29
ENDBRANCH   1  17
TORSDOF 13
ENDMDL
MODEL 5
REMARK VINA RESULT:    -4.791      1.806      2.575
REMARK INTER + INTRA:          -8.636
REMARK INTER:                  -7.244
REMARK INTRA:                  -1.391
REMARK UNBOUND:                -1.324
REMARK SMILES OC[C@@H]1O[C@@](CO)(O[C@@H]2O[C@@H](CO)[C@@H](O)[C@H](O)[C@@H]2O)[C@H](O)[C@@H]1O
REMARK SMILES IDX 8 1 9 2 11 3 14 4 10 5 16 6 18 7 12 8 13 9 15 11 17 13 19 15
REMARK SMILES IDX 5 17 20 18 4 19 22 20 3 21 6 22 7 23 21 25 23 27 2 29 1 30
REMARK H PARENT 13 10 15 12 17 14 19 16 7 24 21 26 23 28 1 31
REMARK Flexibility Score: inf
ROOT
ATOM      1  O   UNL     1      27.580   5.565 143.104  1.00  0.00    -0.313 OA
ENDROOT
BRANCH   1   2
ATOM      2  C   UNL     1      28.839   6.138 142.769  1.00  0.00     0.285 C 
ATOM      3  C   UNL     1      28.232   8.230 143.654  1.00  0.00     0.178 C 
ATOM      4  C   UNL     1      28.184   8.913 142.262  1.00  0.00     0.177 C 
ATOM      5  O   UNL     1      29.189   7.181 143.670  1.00  0.00    -0.341 OA
ATOM      6  C   UNL     1      27.892   7.873 141.164  1.00  0.00     0.179 C 
ATOM      7  C   UNL     1      28.822   6.648 141.315  1.00  0.00     0.202 C 
BRANCH   3   8
ATOM      8  C   UNL     1      28.587   9.229 144.766  1.00  0.00     0.191 C 
BRANCH   8   9
ATOM      9  O   UNL     1      29.976   9.323 144.935  1.00  0.00    -0.394 OA
ATOM     10  H   UNL     1      30.222  10.268 144.754  1.00  0.00     0.210 HD
ENDBRANCH   8   9
ENDBRANCH   3   8
BRANCH   4  11
ATOM     11  O   UNL     1      29.367   9.622 141.978  1.00  0.00    -0.387 OA
ATOM     12  H   UNL     1      29.255  10.554 142.297  1.00  0.00     0.211 HD
ENDBRANCH   4  11
BRANCH   6  13
ATOM     13  O   UNL     1      26.544   7.481 141.249  1.00  0.00    -0.387 OA
ATOM     14  H   UNL     1      26.338   6.967 140.425  1.00  0.00     0.211 HD
ENDBRANCH   6  13
BRANCH   7  15
ATOM     15  O   UNL     1      28.419   5.610 140.458  1.00  0.00    -0.385 OA
ATOM     16  H   UNL     1      28.152   4.849 141.039  1.00  0.00     0.211 HD
ENDBRANCH   7  15
ENDBRANCH   1   2
BRANCH   1  17
ATOM     17  C   UNL     1      27.644   4.175 143.421  1.00  0.00     0.224 C 
ATOM     18  C   UNL     1      26.223   3.566 143.442  1.00  0.00     0.208 C 
ATOM     19  O   UNL     1      28.428   3.451 142.483  1.00  0.00    -0.337 OA
ATOM     20  C   UNL     1      26.439   2.176 142.894  1.00  0.00     0.180 C 
ATOM     21  C   UNL     1      27.648   2.387 141.979  1.00  0.00     0.179 C 
BRANCH  17  22
ATOM     22  C   UNL     1      28.360   4.053 144.782  1.00  0.00     0.225 C 
BRANCH  22  23
ATOM     23  O   UNL     1      29.565   3.348 144.648  1.00  0.00    -0.391 OA
ATOM     24  H   UNL     1      29.354   2.401 144.857  1.00  0.00     0.210 HD
ENDBRANCH  22  23
ENDBRANCH  17  22
BRANCH  18  25
ATOM     25  O   UNL     1      25.647   3.548 144.723  1.00  0.00    -0.385 OA
ATOM     26  H   UNL     1      24.712   3.866 144.618  1.00  0.00     0.211 HD
ENDBRANCH  18  25
BRANCH  20  27
ATOM     27  O   UNL     1      26.728   1.280 143.940  1.00  0.00    -0.387 OA
ATOM     28  H   UNL     1      25.973   0.638 143.985  1.00  0.00     0.211 HD
ENDBRANCH  20  27
BRANCH  21  29
ATOM     29  C   UNL     1      28.515   1.136 141.805  1.00  0.00     0.191 C 
BRANCH  29  30
ATOM     30  O   UNL     1      29.849   1.445 142.100  1.00  0.00    -0.394 OA
ATOM     31  H   UNL     1      29.830   2.315 142.578  1.00  0.00     0.210 HD
ENDBRANCH  29  30
ENDBRANCH  21  29
ENDBRANCH   1  17
TORSDOF 13
ENDMDL
MODEL 6
REMARK VINA RESULT:    -4.711      1.541      2.513
REMARK INTER + INTRA:          -8.514
REMARK INTER:                  -6.837
REMARK INTRA:                  -1.677
REMARK UNBOUND:                -1.324
REMARK SMILES OC[C@@H]1O[C@@](CO)(O[C@@H]2O[C@@H](CO)[C@@H](O)[C@H](O)[C@@H]2O)[C@H](O)[C@@H]1O
REMARK SMILES IDX 8 1 9 2 11 3 14 4 10 5 16 6 18 7 12 8 13 9 15 11 17 13 19 15
REMARK SMILES IDX 5 17 20 18 4 19 22 20 3 21 6 22 7 23 21 25 23 27 2 29 1 30
REMARK H PARENT 13 10 15 12 17 14 19 16 7 24 21 26 23 28 1 31
REMARK Flexibility Score: inf
ROOT
ATOM      1  O   UNL     1      28.128   7.399 143.179  1.00  0.00    -0.313 OA
ENDROOT
BRANCH   1   2
ATOM      2  C   UNL     1      27.821   7.921 144.467  1.00  0.00     0.285 C 
ATOM      3  C   UNL     1      25.928   9.060 143.663  1.00  0.00     0.178 C 
ATOM      4  C   UNL     1      26.565  10.460 143.865  1.00  0.00     0.177 C 
ATOM      5  O   UNL     1      26.424   8.136 144.619  1.00  0.00    -0.341 OA
ATOM      6  C   UNL     1      28.101  10.364 143.807  1.00  0.00     0.179 C 
ATOM      7  C   UNL     1      28.609   9.222 144.715  1.00  0.00     0.202 C 
BRANCH   3   8
ATOM      8  C   UNL     1      24.397   9.109 143.781  1.00  0.00     0.191 C 
BRANCH   8   9
ATOM      9  O   UNL     1      23.995   9.110 145.125  1.00  0.00    -0.394 OA
ATOM     10  H   UNL     1      24.768   9.442 145.653  1.00  0.00     0.210 HD
ENDBRANCH   8   9
ENDBRANCH   3   8
BRANCH   4  11
ATOM     11  O   UNL     1      26.147  11.064 145.066  1.00  0.00    -0.387 OA
ATOM     12  H   UNL     1      26.516  11.984 145.097  1.00  0.00     0.211 HD
ENDBRANCH   4  11
BRANCH   6  13
ATOM     13  O   UNL     1      28.498  10.147 142.475  1.00  0.00    -0.387 OA
ATOM     14  H   UNL     1      28.378   9.179 142.289  1.00  0.00     0.211 HD
ENDBRANCH   6  13
BRANCH   7  15
ATOM     15  O   UNL     1      29.978   8.989 144.501  1.00  0.00    -0.385 OA
ATOM     16  H   UNL     1      30.415   9.018 145.394  1.00  0.00     0.211 HD
ENDBRANCH   7  15
ENDBRANCH   1   2
BRANCH   1  17
ATOM     17  C   UNL     1      28.399   5.998 143.173  1.00  0.00     0.224 C 
ATOM     18  C   UNL     1      29.103   5.584 144.485  1.00  0.00     0.208 C 
ATOM     19  O   UNL     1      27.212   5.228 143.038  1.00  0.00    -0.337 OA
ATOM     20  C   UNL     1      28.540   4.209 144.756  1.00  0.00     0.180 C 
ATOM     21  C   UNL     1      27.158   4.306 144.107  1.00  0.00     0.179 C 
BRANCH  17  22
ATOM     22  C   UNL     1      29.257   5.708 141.924  1.00  0.00     0.225 C 
BRANCH  22  23
ATOM     23  O   UNL     1      28.570   4.871 141.032  1.00  0.00    -0.391 OA
ATOM     24  H   UNL     1      27.941   4.337 141.585  1.00  0.00     0.210 HD
ENDBRANCH  22  23
ENDBRANCH  17  22
BRANCH  18  25
ATOM     25  O   UNL     1      30.504   5.573 144.383  1.00  0.00    -0.385 OA
ATOM     26  H   UNL     1      30.764   4.648 144.130  1.00  0.00     0.211 HD
ENDBRANCH  18  25
BRANCH  20  27
ATOM     27  O   UNL     1      29.337   3.227 144.138  1.00  0.00    -0.387 OA
ATOM     28  H   UNL     1      30.188   3.668 143.882  1.00  0.00     0.211 HD
ENDBRANCH  20  27
BRANCH  21  29
ATOM     29  C   UNL     1      26.611   2.962 143.614  1.00  0.00     0.191 C 
BRANCH  29  30
ATOM     30  O   UNL     1      26.956   2.780 142.269  1.00  0.00    -0.394 OA
ATOM     31  H   UNL     1      26.170   2.351 141.840  1.00  0.00     0.210 HD
ENDBRANCH  29  30
ENDBRANCH  21  29
ENDBRANCH   1  17
TORSDOF 13
ENDMDL
MODEL 7
REMARK VINA RESULT:    -4.689     12.160     14.180
REMARK INTER + INTRA:          -8.480
REMARK INTER:                  -6.601
REMARK INTRA:                  -1.879
REMARK UNBOUND:                -1.324
REMARK SMILES OC[C@@H]1O[C@@](CO)(O[C@@H]2O[C@@H](CO)[C@@H](O)[C@H](O)[C@@H]2O)[C@H](O)[C@@H]1O
REMARK SMILES IDX 8 1 9 2 11 3 14 4 10 5 16 6 18 7 12 8 13 9 15 11 17 13 19 15
REMARK SMILES IDX 5 17 20 18 4 19 22 20 3 21 6 22 7 23 21 25 23 27 2 29 1 30
REMARK H PARENT 13 10 15 12 17 14 19 16 7 24 21 26 23 28 1 31
REMARK Flexibility Score: inf
ROOT
ATOM      1  O   UNL     1      32.182  16.934 137.782  1.00  0.00    -0.313 OA
ENDROOT
BRANCH   1   2
ATOM      2  C   UNL     1      31.449  16.221 136.792  1.00  0.00     0.285 C 
ATOM      3  C   UNL     1      30.746  18.204 135.743  1.00  0.00     0.178 C 
ATOM      4  C   UNL     1      29.265  18.018 136.169  1.00  0.00     0.177 C 
ATOM      5  O   UNL     1      31.384  16.948 135.572  1.00  0.00    -0.341 OA
ATOM      6  C   UNL     1      29.178  17.167 137.450  1.00  0.00     0.179 C 
ATOM      7  C   UNL     1      30.037  15.889 137.312  1.00  0.00     0.202 C 
BRANCH   3   8
ATOM      8  C   UNL     1      30.865  18.993 134.431  1.00  0.00     0.191 C 
BRANCH   8   9
ATOM      9  O   UNL     1      30.603  18.174 133.323  1.00  0.00    -0.394 OA
ATOM     10  H   UNL     1      30.201  18.757 132.627  1.00  0.00     0.210 HD
ENDBRANCH   8   9
ENDBRANCH   3   8
BRANCH   4  11
ATOM     11  O   UNL     1      28.484  17.457 135.141  1.00  0.00    -0.387 OA
ATOM     12  H   UNL     1      27.848  16.815 135.549  1.00  0.00     0.211 HD
ENDBRANCH   4  11
BRANCH   6  13
ATOM     13  O   UNL     1      29.613  17.937 138.544  1.00  0.00    -0.387 OA
ATOM     14  H   UNL     1      29.297  18.865 138.390  1.00  0.00     0.211 HD
ENDBRANCH   6  13
BRANCH   7  15
ATOM     15  O   UNL     1      30.136  15.222 138.545  1.00  0.00    -0.385 OA
ATOM     16  H   UNL     1      31.071  15.339 138.858  1.00  0.00     0.211 HD
ENDBRANCH   7  15
ENDBRANCH   1   2
BRANCH   1  17
ATOM     17  C   UNL     1      33.395  16.294 138.176  1.00  0.00     0.224 C 
ATOM     18  C   UNL     1      33.408  14.827 137.687  1.00  0.00     0.208 C 
ATOM     19  O   UNL     1      34.539  16.952 137.649  1.00  0.00    -0.337 OA
ATOM     20  C   UNL     1      34.860  14.595 137.340  1.00  0.00     0.180 C 
ATOM     21  C   UNL     1      35.313  16.003 136.946  1.00  0.00     0.179 C 
BRANCH  17  22
ATOM     22  C   UNL     1      33.488  16.406 139.712  1.00  0.00     0.225 C 
BRANCH  22  23
ATOM     23  O   UNL     1      32.212  16.527 140.279  1.00  0.00    -0.391 OA
ATOM     24  H   UNL     1      32.143  17.463 140.605  1.00  0.00     0.210 HD
ENDBRANCH  22  23
ENDBRANCH  17  22
BRANCH  18  25
ATOM     25  O   UNL     1      32.941  13.917 138.650  1.00  0.00    -0.385 OA
ATOM     26  H   UNL     1      32.273  13.340 138.195  1.00  0.00     0.211 HD
ENDBRANCH  18  25
BRANCH  20  27
ATOM     27  O   UNL     1      35.558  14.119 138.466  1.00  0.00    -0.387 OA
ATOM     28  H   UNL     1      34.928  13.547 138.974  1.00  0.00     0.211 HD
ENDBRANCH  20  27
BRANCH  21  29
ATOM     29  C   UNL     1      36.804  16.260 137.186  1.00  0.00     0.191 C 
BRANCH  29  30
ATOM     30  O   UNL     1      37.013  16.600 138.528  1.00  0.00    -0.394 OA
ATOM     31  H   UNL     1      37.960  16.889 138.594  1.00  0.00     0.210 HD
ENDBRANCH  29  30
ENDBRANCH  21  29
ENDBRANCH   1  17
TORSDOF 13
ENDMDL
MODEL 8
REMARK VINA RESULT:    -4.688     12.304     14.603
REMARK INTER + INTRA:          -8.478
REMARK INTER:                  -6.945
REMARK INTRA:                  -1.533
REMARK UNBOUND:                -1.324
REMARK SMILES OC[C@@H]1O[C@@](CO)(O[C@@H]2O[C@@H](CO)[C@@H](O)[C@H](O)[C@@H]2O)[C@H](O)[C@@H]1O
REMARK SMILES IDX 8 1 9 2 11 3 14 4 10 5 16 6 18 7 12 8 13 9 15 11 17 13 19 15
REMARK SMILES IDX 5 17 20 18 4 19 22 20 3 21 6 22 7 23 21 25 23 27 2 29 1 30
REMARK H PARENT 13 10 15 12 17 14 19 16 7 24 21 26 23 28 1 31
REMARK Flexibility Score: inf
ROOT
ATOM      1  O   UNL     1      32.368  15.955 137.767  1.00  0.00    -0.313 OA
ENDROOT
BRANCH   1   2
ATOM      2  C   UNL     1      33.513  16.676 138.204  1.00  0.00     0.285 C 
ATOM      3  C   UNL     1      34.954  15.396 136.858  1.00  0.00     0.178 C 
ATOM      4  C   UNL     1      35.626  14.698 138.070  1.00  0.00     0.177 C 
ATOM      5  O   UNL     1      34.522  16.703 137.202  1.00  0.00    -0.341 OA
ATOM      6  C   UNL     1      34.664  14.671 139.273  1.00  0.00     0.179 C 
ATOM      7  C   UNL     1      34.055  16.071 139.514  1.00  0.00     0.202 C 
BRANCH   3   8
ATOM      8  C   UNL     1      35.911  15.499 135.660  1.00  0.00     0.191 C 
BRANCH   8   9
ATOM      9  O   UNL     1      36.820  14.432 135.647  1.00  0.00    -0.394 OA
ATOM     10  H   UNL     1      37.685  14.799 135.325  1.00  0.00     0.210 HD
ENDBRANCH   8   9
ENDBRANCH   3   8
BRANCH   4  11
ATOM     11  O   UNL     1      36.848  15.304 138.420  1.00  0.00    -0.387 OA
ATOM     12  H   UNL     1      37.476  14.593 138.708  1.00  0.00     0.211 HD
ENDBRANCH   4  11
BRANCH   6  13
ATOM     13  O   UNL     1      33.649  13.729 139.028  1.00  0.00    -0.387 OA
ATOM     14  H   UNL     1      32.793  14.140 139.320  1.00  0.00     0.211 HD
ENDBRANCH   6  13
BRANCH   7  15
ATOM     15  O   UNL     1      33.022  16.007 140.463  1.00  0.00    -0.385 OA
ATOM     16  H   UNL     1      33.075  16.842 141.000  1.00  0.00     0.211 HD
ENDBRANCH   7  15
ENDBRANCH   1   2
BRANCH   1  17
ATOM     17  C   UNL     1      31.313  16.784 137.281  1.00  0.00     0.224 C 
ATOM     18  C   UNL     1      31.645  17.291 135.859  1.00  0.00     0.208 C 
ATOM     19  O   UNL     1      30.073  16.094 137.233  1.00  0.00    -0.337 OA
ATOM     20  C   UNL     1      30.296  17.315 135.181  1.00  0.00     0.180 C 
ATOM     21  C   UNL     1      29.556  16.200 135.922  1.00  0.00     0.179 C 
BRANCH  17  22
ATOM     22  C   UNL     1      31.139  17.935 138.293  1.00  0.00     0.225 C 
BRANCH  22  23
ATOM     23  O   UNL     1      29.780  18.214 138.499  1.00  0.00    -0.391 OA
ATOM     24  H   UNL     1      29.279  17.463 138.085  1.00  0.00     0.210 HD
ENDBRANCH  22  23
ENDBRANCH  17  22
BRANCH  18  25
ATOM     25  O   UNL     1      32.266  18.552 135.850  1.00  0.00    -0.385 OA
ATOM     26  H   UNL     1      31.605  19.191 135.475  1.00  0.00     0.211 HD
ENDBRANCH  18  25
BRANCH  20  27
ATOM     27  O   UNL     1      29.678  18.566 135.372  1.00  0.00    -0.387 OA
ATOM     28  H   UNL     1      29.608  18.705 136.351  1.00  0.00     0.211 HD
ENDBRANCH  20  27
BRANCH  21  29
ATOM     29  C   UNL     1      28.037  16.392 135.971  1.00  0.00     0.191 C 
BRANCH  29  30
ATOM     30  O   UNL     1      27.706  17.255 137.023  1.00  0.00    -0.394 OA
ATOM     31  H   UNL     1      26.745  17.473 136.908  1.00  0.00     0.210 HD
ENDBRANCH  29  30
ENDBRANCH  21  29
ENDBRANCH   1  17
TORSDOF 13
ENDMDL
MODEL 9
REMARK VINA RESULT:    -4.653      1.648      2.775
REMARK INTER + INTRA:          -8.424
REMARK INTER:                  -6.898
REMARK INTRA:                  -1.526
REMARK UNBOUND:                -1.324
REMARK SMILES OC[C@@H]1O[C@@](CO)(O[C@@H]2O[C@@H](CO)[C@@H](O)[C@H](O)[C@@H]2O)[C@H](O)[C@@H]1O
REMARK SMILES IDX 8 1 9 2 11 3 14 4 10 5 16 6 18 7 12 8 13 9 15 11 17 13 19 15
REMARK SMILES IDX 5 17 20 18 4 19 22 20 3 21 6 22 7 23 21 25 23 27 2 29 1 30
REMARK H PARENT 13 10 15 12 17 14 19 16 7 24 21 26 23 28 1 31
REMARK Flexibility Score: inf
ROOT
ATOM      1  O   UNL     1      28.720   5.755 143.234  1.00  0.00    -0.313 OA
ENDROOT
BRANCH   1   2
ATOM      2  C   UNL     1      27.581   6.504 142.824  1.00  0.00     0.285 C 
ATOM      3  C   UNL     1      28.870   7.888 141.428  1.00  0.00     0.178 C 
ATOM      4  C   UNL     1      28.672   9.140 142.322  1.00  0.00     0.177 C 
ATOM      5  O   UNL     1      27.748   7.023 141.511  1.00  0.00    -0.341 OA
ATOM      6  C   UNL     1      28.395   8.720 143.778  1.00  0.00     0.179 C 
ATOM      7  C   UNL     1      27.296   7.635 143.831  1.00  0.00     0.202 C 
BRANCH   3   8
ATOM      8  C   UNL     1      29.083   8.269 139.955  1.00  0.00     0.191 C 
BRANCH   8   9
ATOM      9  O   UNL     1      30.443   8.235 139.615  1.00  0.00    -0.394 OA
ATOM     10  H   UNL     1      30.611   7.347 139.203  1.00  0.00     0.210 HD
ENDBRANCH   8   9
ENDBRANCH   3   8
BRANCH   4  11
ATOM     11  O   UNL     1      27.649   9.979 141.841  1.00  0.00    -0.387 OA
ATOM     12  H   UNL     1      27.092   9.457 141.207  1.00  0.00     0.211 HD
ENDBRANCH   4  11
BRANCH   6  13
ATOM     13  O   UNL     1      29.587   8.242 144.353  1.00  0.00    -0.387 OA
ATOM     14  H   UNL     1      29.770   8.802 145.152  1.00  0.00     0.211 HD
ENDBRANCH   6  13
BRANCH   7  15
ATOM     15  O   UNL     1      27.193   7.095 145.125  1.00  0.00    -0.385 OA
ATOM     16  H   UNL     1      26.974   6.132 145.015  1.00  0.00     0.211 HD
ENDBRANCH   7  15
ENDBRANCH   1   2
BRANCH   1  17
ATOM     17  C   UNL     1      28.496   4.347 143.288  1.00  0.00     0.224 C 
ATOM     18  C   UNL     1      27.028   4.053 143.671  1.00  0.00     0.208 C 
ATOM     19  O   UNL     1      28.771   3.717 142.045  1.00  0.00    -0.337 OA
ATOM     20  C   UNL     1      26.707   2.815 142.868  1.00  0.00     0.180 C 
ATOM     21  C   UNL     1      27.629   2.982 141.658  1.00  0.00     0.179 C 
BRANCH  17  22
ATOM     22  C   UNL     1      29.500   3.769 144.308  1.00  0.00     0.225 C 
BRANCH  22  23
ATOM     23  O   UNL     1      30.113   2.614 143.800  1.00  0.00    -0.391 OA
ATOM     24  H   UNL     1      30.353   2.060 144.589  1.00  0.00     0.210 HD
ENDBRANCH  22  23
ENDBRANCH  17  22
BRANCH  18  25
ATOM     25  O   UNL     1      26.842   3.855 145.049  1.00  0.00    -0.385 OA
ATOM     26  H   UNL     1      26.867   4.754 145.471  1.00  0.00     0.211 HD
ENDBRANCH  18  25
BRANCH  20  27
ATOM     27  O   UNL     1      27.024   1.660 143.609  1.00  0.00    -0.387 OA
ATOM     28  H   UNL     1      26.621   1.777 144.508  1.00  0.00     0.211 HD
ENDBRANCH  20  27
BRANCH  21  29
ATOM     29  C   UNL     1      28.051   1.656 141.016  1.00  0.00     0.191 C 
BRANCH  29  30
ATOM     30  O   UNL     1      29.210   1.179 141.642  1.00  0.00    -0.394 OA
ATOM     31  H   UNL     1      29.950   1.761 141.328  1.00  0.00     0.210 HD
ENDBRANCH  29  30
ENDBRANCH  21  29
ENDBRANCH   1  17
TORSDOF 13
ENDMDL
