MODEL 1
REMARK VINA RESULT:     0.837      0.000      0.000
REMARK INTER + INTRA:           0.689
REMARK INTER:                   0.984
REMARK INTRA:                  -0.295
REMARK UNBOUND:                -0.295
REMARK SMILES O=c1cc(-c2ccc(O)c(O)c2)oc2cc(O)cc(O)c12
REMARK SMILES IDX 4 1 3 2 2 3 1 4 21 5 19 6 18 7 16 8 15 9 14 10 13 11 5 12
REMARK SMILES IDX 6 13 7 14 8 15 12 16 10 17 9 18 11 20 20 22 17 24
REMARK H PARENT 9 19 11 21 20 23 17 25
REMARK Flexibility Score: inf
ROOT
ATOM      1  C   UNL     1     -37.422 -35.549 -33.753  1.00  0.00     0.138 A 
ATOM      2  C   UNL     1     -36.020 -35.629 -33.797  1.00  0.00     0.100 A 
ATOM      3  C   UNL     1     -35.380 -35.790 -35.026  1.00  0.00     0.197 A 
ATOM      4  O   UNL     1     -34.122 -35.862 -35.055  1.00  0.00    -0.289 OA
ATOM      5  C   UNL     1     -36.148 -35.874 -36.205  1.00  0.00     0.107 A 
ATOM      6  C   UNL     1     -35.579 -36.037 -37.490  1.00  0.00     0.134 A 
ATOM      7  C   UNL     1     -36.414 -36.118 -38.615  1.00  0.00     0.093 A 
ATOM      8  C   UNL     1     -37.802 -36.041 -38.478  1.00  0.00     0.123 A 
ATOM      9  C   UNL     1     -38.370 -35.880 -37.211  1.00  0.00     0.094 A 
ATOM     10  C   UNL     1     -37.555 -35.796 -36.078  1.00  0.00     0.146 A 
ATOM     11  O   UNL     1     -38.119 -35.642 -34.883  1.00  0.00    -0.456 OA
ENDROOT
BRANCH   1  12
ATOM     12  C   UNL     1     -38.158 -35.379 -32.474  1.00  0.00     0.021 A 
ATOM     13  C   UNL     1     -37.766 -36.121 -31.346  1.00  0.00     0.016 A 
ATOM     14  C   UNL     1     -38.446 -35.984 -30.135  1.00  0.00     0.051 A 
ATOM     15  C   UNL     1     -39.536 -35.112 -30.029  1.00  0.00     0.157 A 
ATOM     16  C   UNL     1     -39.264 -34.512 -32.366  1.00  0.00     0.062 A 
ATOM     17  C   UNL     1     -39.948 -34.376 -31.153  1.00  0.00     0.158 A 
BRANCH  15  18
ATOM     18  O   UNL     1     -40.212 -34.977 -28.818  1.00  0.00    -0.504 OA
ATOM     19  H   UNL     1     -39.716 -34.835 -27.946  1.00  0.00     0.293 HD
ENDBRANCH  15  18
BRANCH  17  20
ATOM     20  O   UNL     1     -41.037 -33.508 -31.084  1.00  0.00    -0.504 OA
ATOM     21  H   UNL     1     -41.553 -33.224 -31.908  1.00  0.00     0.293 HD
ENDBRANCH  17  20
ENDBRANCH   1  12
BRANCH   6  22
ATOM     22  O   UNL     1     -34.196 -36.118 -37.658  1.00  0.00    -0.507 OA
ATOM     23  H   UNL     1     -33.554 -35.921 -36.898  1.00  0.00     0.293 HD
ENDBRANCH   6  22
BRANCH   8  24
ATOM     24  O   UNL     1     -38.609 -36.125 -39.611  1.00  0.00    -0.508 OA
ATOM     25  H   UNL     1     -38.280 -35.818 -40.520  1.00  0.00     0.293 HD
ENDBRANCH   8  24
TORSDOF 5
ENDMDL
MODEL 2
REMARK VINA RESULT:     0.981      1.368      3.132
REMARK INTER + INTRA:           0.858
REMARK INTER:                   1.157
REMARK INTRA:                  -0.299
REMARK UNBOUND:                -0.295
REMARK SMILES O=c1cc(-c2ccc(O)c(O)c2)oc2cc(O)cc(O)c12
REMARK SMILES IDX 4 1 3 2 2 3 1 4 21 5 19 6 18 7 16 8 15 9 14 10 13 11 5 12
REMARK SMILES IDX 6 13 7 14 8 15 12 16 10 17 9 18 11 20 20 22 17 24
REMARK H PARENT 9 19 11 21 20 23 17 25
REMARK Flexibility Score: inf
ROOT
ATOM      1  C   UNL     1     -38.078 -35.475 -34.865  1.00  0.00     0.138 A 
ATOM      2  C   UNL     1     -39.091 -35.753 -35.798  1.00  0.00     0.100 A 
ATOM      3  C   UNL     1     -38.765 -35.877 -37.149  1.00  0.00     0.197 A 
ATOM      4  O   UNL     1     -39.681 -36.125 -37.978  1.00  0.00    -0.289 OA
ATOM      5  C   UNL     1     -37.425 -35.718 -37.559  1.00  0.00     0.107 A 
ATOM      6  C   UNL     1     -37.010 -35.828 -38.906  1.00  0.00     0.134 A 
ATOM      7  C   UNL     1     -35.658 -35.650 -39.234  1.00  0.00     0.093 A 
ATOM      8  C   UNL     1     -34.716 -35.364 -38.242  1.00  0.00     0.123 A 
ATOM      9  C   UNL     1     -35.121 -35.254 -36.908  1.00  0.00     0.094 A 
ATOM     10  C   UNL     1     -36.465 -35.429 -36.561  1.00  0.00     0.146 A 
ATOM     11  O   UNL     1     -36.825 -35.320 -35.286  1.00  0.00    -0.456 OA
ENDROOT
BRANCH   1  12
ATOM     12  C   UNL     1     -38.366 -35.331 -33.415  1.00  0.00     0.021 A 
ATOM     13  C   UNL     1     -39.544 -34.682 -33.005  1.00  0.00     0.016 A 
ATOM     14  C   UNL     1     -39.833 -34.528 -31.647  1.00  0.00     0.051 A 
ATOM     15  C   UNL     1     -38.947 -35.009 -30.675  1.00  0.00     0.157 A 
ATOM     16  C   UNL     1     -37.471 -35.801 -32.433  1.00  0.00     0.062 A 
ATOM     17  C   UNL     1     -37.759 -35.644 -31.072  1.00  0.00     0.158 A 
BRANCH  15  18
ATOM     18  O   UNL     1     -39.240 -34.853 -29.322  1.00  0.00    -0.504 OA
ATOM     19  H   UNL     1     -39.490 -35.643 -28.738  1.00  0.00     0.293 HD
ENDBRANCH  15  18
BRANCH  17  20
ATOM     20  O   UNL     1     -36.851 -36.124 -30.129  1.00  0.00    -0.504 OA
ATOM     21  H   UNL     1     -36.968 -35.960 -29.136  1.00  0.00     0.293 HD
ENDBRANCH  17  20
ENDBRANCH   1  12
BRANCH   6  22
ATOM     22  O   UNL     1     -37.927 -36.113 -39.920  1.00  0.00    -0.507 OA
ATOM     23  H   UNL     1     -38.894 -35.814 -39.863  1.00  0.00     0.293 HD
ENDBRANCH   6  22
BRANCH   8  24
ATOM     24  O   UNL     1     -33.379 -35.191 -38.594  1.00  0.00    -0.508 OA
ATOM     25  H   UNL     1     -32.970 -34.268 -38.681  1.00  0.00     0.293 HD
ENDBRANCH   8  24
TORSDOF 5
ENDMDL
