MODEL 1
REMARK VINA RESULT:    -2.648      0.000      0.000
REMARK INTER + INTRA:          -2.992
REMARK INTER:                  -2.957
REMARK INTRA:                  -0.034
REMARK UNBOUND:                -0.034
REMARK SMILES CCCC(=O)[O-]
REMARK SMILES IDX 3 1 4 2 5 3 6 4 2 5 1 6
REMARK H PARENT
REMARK Flexibility Score: inf
ROOT
ATOM      1  C   UNL     1       5.773   0.289  -7.518  1.00  0.00     0.052 C 
ENDROOT
BRANCH   1   2
ATOM      2  C   UNL     1       4.345   0.272  -7.071  1.00  0.00     0.041 C 
ATOM      3  O   UNL     1       3.967  -0.550  -6.194  1.00  0.00    -0.550 OA
ATOM      4  O   UNL     1       3.422   1.127  -7.657  1.00  0.00    -0.550 OA
ENDBRANCH   1   2
BRANCH   1   5
ATOM      5  C   UNL     1       6.531   1.438  -6.846  1.00  0.00     0.003 C 
ATOM      6  C   UNL     1       7.443   0.921  -5.737  1.00  0.00     0.004 C 
ENDBRANCH   1   5
TORSDOF 2
ENDMDL
MODEL 2
REMARK VINA RESULT:    -2.591     16.139     16.550
REMARK INTER + INTRA:          -2.928
REMARK INTER:                  -2.890
REMARK INTRA:                  -0.039
REMARK UNBOUND:                -0.034
REMARK SMILES CCCC(=O)[O-]
REMARK SMILES IDX 3 1 4 2 5 3 6 4 2 5 1 6
REMARK H PARENT
REMARK Flexibility Score: inf
ROOT
ATOM      1  C   UNL     1       1.828  10.125   5.689  1.00  0.00     0.052 C 
ENDROOT
BRANCH   1   2
ATOM      2  C   UNL     1       2.490   9.492   6.871  1.00  0.00     0.041 C 
ATOM      3  O   UNL     1       1.875   8.631   7.555  1.00  0.00    -0.550 OA
ATOM      4  O   UNL     1       3.766   9.888   7.249  1.00  0.00    -0.550 OA
ENDBRANCH   1   2
BRANCH   1   5
ATOM      5  C   UNL     1       0.315   9.888   5.731  1.00  0.00     0.003 C 
ATOM      6  C   UNL     1      -0.133   8.986   4.584  1.00  0.00     0.004 C 
ENDBRANCH   1   5
TORSDOF 2
ENDMDL
MODEL 3
REMARK VINA RESULT:    -2.588      1.900      2.969
REMARK INTER + INTRA:          -2.925
REMARK INTER:                  -2.895
REMARK INTRA:                  -0.029
REMARK UNBOUND:                -0.034
REMARK SMILES CCCC(=O)[O-]
REMARK SMILES IDX 3 1 4 2 5 3 6 4 2 5 1 6
REMARK H PARENT
REMARK Flexibility Score: inf
ROOT
ATOM      1  C   UNL     1       5.003  -0.578  -6.413  1.00  0.00     0.052 C 
ENDROOT
BRANCH   1   2
ATOM      2  C   UNL     1       4.822   0.753  -7.071  1.00  0.00     0.041 C 
ATOM      3  O   UNL     1       3.695   1.086  -7.524  1.00  0.00    -0.550 OA
ATOM      4  O   UNL     1       5.907   1.604  -7.229  1.00  0.00    -0.550 OA
ENDBRANCH   1   2
BRANCH   1   5
ATOM      5  C   UNL     1       4.112  -1.631  -7.079  1.00  0.00     0.003 C 
ATOM      6  C   UNL     1       4.941  -2.611  -7.905  1.00  0.00     0.004 C 
ENDBRANCH   1   5
TORSDOF 2
ENDMDL
MODEL 4
REMARK VINA RESULT:    -2.559      1.669      1.942
REMARK INTER + INTRA:          -2.893
REMARK INTER:                  -2.887
REMARK INTRA:                  -0.006
REMARK UNBOUND:                -0.034
REMARK SMILES CCCC(=O)[O-]
REMARK SMILES IDX 3 1 4 2 5 3 6 4 2 5 1 6
REMARK H PARENT
REMARK Flexibility Score: inf
ROOT
ATOM      1  C   UNL     1       6.518   0.992  -6.956  1.00  0.00     0.052 C 
ENDROOT
BRANCH   1   2
ATOM      2  C   UNL     1       5.147   1.270  -6.426  1.00  0.00     0.041 C 
ATOM      3  O   UNL     1       4.990   1.594  -5.219  1.00  0.00    -0.550 OA
ATOM      4  O   UNL     1       4.039   1.122  -7.249  1.00  0.00    -0.550 OA
ENDBRANCH   1   2
BRANCH   1   5
ATOM      5  C   UNL     1       6.546  -0.351  -7.693  1.00  0.00     0.003 C 
ATOM      6  C   UNL     1       7.979  -0.816  -7.936  1.00  0.00     0.004 C 
ENDBRANCH   1   5
TORSDOF 2
ENDMDL
MODEL 5
REMARK VINA RESULT:    -2.549     16.213     16.582
REMARK INTER + INTRA:          -2.882
REMARK INTER:                  -2.874
REMARK INTRA:                  -0.007
REMARK UNBOUND:                -0.034
REMARK SMILES CCCC(=O)[O-]
REMARK SMILES IDX 3 1 4 2 5 3 6 4 2 5 1 6
REMARK H PARENT
REMARK Flexibility Score: inf
ROOT
ATOM      1  C   UNL     1       0.050  10.113   6.119  1.00  0.00     0.052 C 
ENDROOT
BRANCH   1   2
ATOM      2  C   UNL     1       1.354   9.381   6.097  1.00  0.00     0.041 C 
ATOM      3  O   UNL     1       1.996   9.263   5.020  1.00  0.00    -0.550 OA
ATOM      4  O   UNL     1       1.836   8.784   7.255  1.00  0.00    -0.550 OA
ENDBRANCH   1   2
BRANCH   1   5
ATOM      5  C   UNL     1      -0.854   9.634   4.979  1.00  0.00     0.003 C 
ATOM      6  C   UNL     1      -2.286  10.125   5.168  1.00  0.00     0.004 C 
ENDBRANCH   1   5
TORSDOF 2
ENDMDL
MODEL 6
REMARK VINA RESULT:    -2.494     14.706     15.808
REMARK INTER + INTRA:          -2.820
REMARK INTER:                  -2.791
REMARK INTRA:                  -0.029
REMARK UNBOUND:                -0.034
REMARK SMILES CCCC(=O)[O-]
REMARK SMILES IDX 3 1 4 2 5 3 6 4 2 5 1 6
REMARK H PARENT
REMARK Flexibility Score: inf
ROOT
ATOM      1  C   UNL     1      -6.802  -9.151  -4.169  1.00  0.00     0.052 C 
ENDROOT
BRANCH   1   2
ATOM      2  C   UNL     1      -8.150  -9.151  -4.816  1.00  0.00     0.041 C 
ATOM      3  O   UNL     1      -8.502 -10.116  -5.546  1.00  0.00    -0.550 OA
ATOM      4  O   UNL     1      -8.999  -8.064  -4.655  1.00  0.00    -0.550 OA
ENDBRANCH   1   2
BRANCH   1   5
ATOM      5  C   UNL     1      -6.517  -7.791  -3.523  1.00  0.00     0.003 C 
ATOM      6  C   UNL     1      -5.253  -7.161  -4.102  1.00  0.00     0.004 C 
ENDBRANCH   1   5
TORSDOF 2
ENDMDL
MODEL 7
REMARK VINA RESULT:    -2.488     20.734     21.459
REMARK INTER + INTRA:          -2.813
REMARK INTER:                  -2.806
REMARK INTRA:                  -0.007
REMARK UNBOUND:                -0.034
REMARK SMILES CCCC(=O)[O-]
REMARK SMILES IDX 3 1 4 2 5 3 6 4 2 5 1 6
REMARK H PARENT
REMARK Flexibility Score: inf
ROOT
ATOM      1  C   UNL     1      -8.544   0.083   9.714  1.00  0.00     0.052 C 
ENDROOT
BRANCH   1   2
ATOM      2  C   UNL     1      -7.503   0.725   8.854  1.00  0.00     0.041 C 
ATOM      3  O   UNL     1      -6.344   0.926   9.306  1.00  0.00    -0.550 OA
ATOM      4  O   UNL     1      -7.824   1.148   7.571  1.00  0.00    -0.550 OA
ENDBRANCH   1   2
BRANCH   1   5
ATOM      5  C   UNL     1      -8.594   0.757  11.089  1.00  0.00     0.003 C 
ATOM      6  C   UNL     1      -9.858   0.363  11.849  1.00  0.00     0.004 C 
ENDBRANCH   1   5
TORSDOF 2
ENDMDL
MODEL 8
REMARK VINA RESULT:    -2.414     19.545     20.334
REMARK INTER + INTRA:          -2.730
REMARK INTER:                  -2.717
REMARK INTRA:                  -0.014
REMARK UNBOUND:                -0.034
REMARK SMILES CCCC(=O)[O-]
REMARK SMILES IDX 3 1 4 2 5 3 6 4 2 5 1 6
REMARK H PARENT
REMARK Flexibility Score: inf
ROOT
ATOM      1  C   UNL     1      -9.030  -0.623   7.588  1.00  0.00     0.052 C 
ENDROOT
BRANCH   1   2
ATOM      2  C   UNL     1      -8.295   0.614   7.179  1.00  0.00     0.041 C 
ATOM      3  O   UNL     1      -7.407   1.100   7.929  1.00  0.00    -0.550 OA
ATOM      4  O   UNL     1      -8.625   1.259   5.994  1.00  0.00    -0.550 OA
ENDBRANCH   1   2
BRANCH   1   5
ATOM      5  C   UNL     1      -8.730  -0.966   9.051  1.00  0.00     0.003 C 
ATOM      6  C   UNL     1      -9.161  -2.392   9.381  1.00  0.00     0.004 C 
ENDBRANCH   1   5
TORSDOF 2
ENDMDL
