MODEL 1
REMARK VINA RESULT:    -3.638      0.000      0.000
REMARK INTER + INTRA:          -4.943
REMARK INTER:                  -4.701
REMARK INTRA:                  -0.242
REMARK UNBOUND:                -0.242
REMARK SMILES CCCCCCC(=O)[O-]
REMARK SMILES IDX 5 1 6 2 7 3 8 4 9 5 4 6 3 7 2 8 1 9
REMARK H PARENT
REMARK Flexibility Score: inf
ROOT
ATOM      1  C   UNL     1      -4.123  -1.410  -6.390  1.00  0.00     0.006 C 
ENDROOT
BRANCH   1   2
ATOM      2  C   UNL     1      -3.595  -0.212  -7.189  1.00  0.00     0.053 C 
BRANCH   2   3
ATOM      3  C   UNL     1      -2.276  -0.510  -7.834  1.00  0.00     0.041 C 
ATOM      4  O   UNL     1      -2.042  -1.657  -8.297  1.00  0.00    -0.550 OA
ATOM      5  O   UNL     1      -1.291   0.468  -7.892  1.00  0.00    -0.550 OA
ENDBRANCH   2   3
ENDBRANCH   1   2
BRANCH   1   6
ATOM      6  C   UNL     1      -5.414  -1.078  -5.628  1.00  0.00     0.000 C 
BRANCH   6   7
ATOM      7  C   UNL     1      -5.117  -0.234  -4.383  1.00  0.00    -0.000 C 
BRANCH   7   8
ATOM      8  C   UNL     1      -6.213   0.813  -4.153  1.00  0.00    -0.003 C 
ATOM      9  C   UNL     1      -6.956   1.127  -5.448  1.00  0.00     0.004 C 
ENDBRANCH   7   8
ENDBRANCH   6   7
ENDBRANCH   1   6
TORSDOF 5
ENDMDL
MODEL 2
REMARK VINA RESULT:    -3.566     12.839     14.145
REMARK INTER + INTRA:          -4.850
REMARK INTER:                  -4.743
REMARK INTRA:                  -0.106
REMARK UNBOUND:                -0.242
REMARK SMILES CCCCCCC(=O)[O-]
REMARK SMILES IDX 5 1 6 2 7 3 8 4 9 5 4 6 3 7 2 8 1 9
REMARK H PARENT
REMARK Flexibility Score: inf
ROOT
ATOM      1  C   UNL     1      -3.508  -0.096   7.200  1.00  0.00     0.006 C 
ENDROOT
BRANCH   1   2
ATOM      2  C   UNL     1      -2.893   0.965   8.122  1.00  0.00     0.053 C 
BRANCH   2   3
ATOM      3  C   UNL     1      -3.380   2.342   7.787  1.00  0.00     0.041 C 
ATOM      4  O   UNL     1      -3.975   2.556   6.699  1.00  0.00    -0.550 OA
ATOM      5  O   UNL     1      -3.148   3.395   8.663  1.00  0.00    -0.550 OA
ENDBRANCH   2   3
ENDBRANCH   1   2
BRANCH   1   6
ATOM      6  C   UNL     1      -3.898  -1.372   7.961  1.00  0.00     0.000 C 
BRANCH   6   7
ATOM      7  C   UNL     1      -3.918  -2.586   7.025  1.00  0.00    -0.000 C 
BRANCH   7   8
ATOM      8  C   UNL     1      -5.304  -2.776   6.398  1.00  0.00    -0.003 C 
ATOM      9  C   UNL     1      -5.270  -3.826   5.291  1.00  0.00     0.004 C 
ENDBRANCH   7   8
ENDBRANCH   6   7
ENDBRANCH   1   6
TORSDOF 5
ENDMDL
MODEL 3
REMARK VINA RESULT:    -3.525     12.411     13.702
REMARK INTER + INTRA:          -4.797
REMARK INTER:                  -4.677
REMARK INTRA:                  -0.120
REMARK UNBOUND:                -0.242
REMARK SMILES CCCCCCC(=O)[O-]
REMARK SMILES IDX 5 1 6 2 7 3 8 4 9 5 4 6 3 7 2 8 1 9
REMARK H PARENT
REMARK Flexibility Score: inf
ROOT
ATOM      1  C   UNL     1      -3.800  -1.060   7.879  1.00  0.00     0.006 C 
ENDROOT
BRANCH   1   2
ATOM      2  C   UNL     1      -4.067   0.141   6.963  1.00  0.00     0.053 C 
BRANCH   2   3
ATOM      3  C   UNL     1      -3.327   1.362   7.418  1.00  0.00     0.041 C 
ATOM      4  O   UNL     1      -3.703   2.505   7.048  1.00  0.00    -0.550 OA
ATOM      5  O   UNL     1      -2.203   1.235   8.224  1.00  0.00    -0.550 OA
ENDBRANCH   2   3
ENDBRANCH   1   2
BRANCH   1   6
ATOM      6  C   UNL     1      -3.907  -2.397   7.130  1.00  0.00     0.000 C 
BRANCH   6   7
ATOM      7  C   UNL     1      -5.274  -2.540   6.451  1.00  0.00    -0.000 C 
BRANCH   7   8
ATOM      8  C   UNL     1      -5.363  -3.853   5.665  1.00  0.00    -0.003 C 
ATOM      9  C   UNL     1      -6.332  -3.730   4.493  1.00  0.00     0.004 C 
ENDBRANCH   7   8
ENDBRANCH   6   7
ENDBRANCH   1   6
TORSDOF 5
ENDMDL
MODEL 4
REMARK VINA RESULT:    -3.521      1.155      1.677
REMARK INTER + INTRA:          -4.792
REMARK INTER:                  -4.603
REMARK INTRA:                  -0.189
REMARK UNBOUND:                -0.242
REMARK SMILES CCCCCCC(=O)[O-]
REMARK SMILES IDX 5 1 6 2 7 3 8 4 9 5 4 6 3 7 2 8 1 9
REMARK H PARENT
REMARK Flexibility Score: inf
ROOT
ATOM      1  C   UNL     1      -4.964  -0.418  -6.589  1.00  0.00     0.006 C 
ENDROOT
BRANCH   1   2
ATOM      2  C   UNL     1      -3.571  -0.217  -7.198  1.00  0.00     0.053 C 
BRANCH   2   3
ATOM      3  C   UNL     1      -3.058  -1.471  -7.838  1.00  0.00     0.041 C 
ATOM      4  O   UNL     1      -1.900  -1.502  -8.332  1.00  0.00    -0.550 OA
ATOM      5  O   UNL     1      -3.870  -2.596  -7.917  1.00  0.00    -0.550 OA
ENDBRANCH   2   3
ENDBRANCH   1   2
BRANCH   1   6
ATOM      6  C   UNL     1      -4.900  -0.801  -5.102  1.00  0.00     0.000 C 
BRANCH   6   7
ATOM      7  C   UNL     1      -5.235   0.400  -4.210  1.00  0.00    -0.000 C 
BRANCH   7   8
ATOM      8  C   UNL     1      -6.679   0.865  -4.432  1.00  0.00    -0.003 C 
ATOM      9  C   UNL     1      -7.676  -0.146  -3.875  1.00  0.00     0.004 C 
ENDBRANCH   7   8
ENDBRANCH   6   7
ENDBRANCH   1   6
TORSDOF 5
ENDMDL
MODEL 5
REMARK VINA RESULT:    -3.381     12.038     13.245
REMARK INTER + INTRA:          -4.611
REMARK INTER:                  -4.486
REMARK INTRA:                  -0.125
REMARK UNBOUND:                -0.242
REMARK SMILES CCCCCCC(=O)[O-]
REMARK SMILES IDX 5 1 6 2 7 3 8 4 9 5 4 6 3 7 2 8 1 9
REMARK H PARENT
REMARK Flexibility Score: inf
ROOT
ATOM      1  C   UNL     1      -5.127  -2.277   6.549  1.00  0.00     0.006 C 
ENDROOT
BRANCH   1   2
ATOM      2  C   UNL     1      -5.396  -3.603   5.827  1.00  0.00     0.053 C 
BRANCH   2   3
ATOM      3  C   UNL     1      -6.415  -3.448   4.740  1.00  0.00     0.041 C 
ATOM      4  O   UNL     1      -7.088  -4.441   4.356  1.00  0.00    -0.550 OA
ATOM      5  O   UNL     1      -6.598  -2.215   4.126  1.00  0.00    -0.550 OA
ENDBRANCH   2   3
ENDBRANCH   1   2
BRANCH   1   6
ATOM      6  C   UNL     1      -3.954  -2.377   7.535  1.00  0.00     0.000 C 
BRANCH   6   7
ATOM      7  C   UNL     1      -3.683  -1.027   8.208  1.00  0.00    -0.000 C 
BRANCH   7   8
ATOM      8  C   UNL     1      -3.401   0.061   7.165  1.00  0.00    -0.003 C 
ATOM      9  C   UNL     1      -2.510   1.159   7.740  1.00  0.00     0.004 C 
ENDBRANCH   7   8
ENDBRANCH   6   7
ENDBRANCH   1   6
TORSDOF 5
ENDMDL
MODEL 6
REMARK VINA RESULT:    -3.355      2.953      4.829
REMARK INTER + INTRA:          -4.578
REMARK INTER:                  -4.419
REMARK INTRA:                  -0.159
REMARK UNBOUND:                -0.242
REMARK SMILES CCCCCCC(=O)[O-]
REMARK SMILES IDX 5 1 6 2 7 3 8 4 9 5 4 6 3 7 2 8 1 9
REMARK H PARENT
REMARK Flexibility Score: inf
ROOT
ATOM      1  C   UNL     1      -4.137  -0.259  -6.530  1.00  0.00     0.006 C 
ENDROOT
BRANCH   1   2
ATOM      2  C   UNL     1      -4.839  -1.166  -5.511  1.00  0.00     0.053 C 
BRANCH   2   3
ATOM      3  C   UNL     1      -5.382  -0.386  -4.353  1.00  0.00     0.041 C 
ATOM      4  O   UNL     1      -4.716   0.560  -3.858  1.00  0.00    -0.550 OA
ATOM      5  O   UNL     1      -6.611  -0.725  -3.800  1.00  0.00    -0.550 OA
ENDBRANCH   2   3
ENDBRANCH   1   2
BRANCH   1   6
ATOM      6  C   UNL     1      -3.660  -1.033  -7.767  1.00  0.00     0.000 C 
BRANCH   6   7
ATOM      7  C   UNL     1      -2.131  -0.997  -7.883  1.00  0.00    -0.000 C 
BRANCH   7   8
ATOM      8  C   UNL     1      -1.612   0.445  -7.870  1.00  0.00    -0.003 C 
ATOM      9  C   UNL     1      -1.967   1.171  -9.164  1.00  0.00     0.004 C 
ENDBRANCH   7   8
ENDBRANCH   6   7
ENDBRANCH   1   6
TORSDOF 5
ENDMDL
MODEL 7
REMARK VINA RESULT:    -3.126      9.329     10.814
REMARK INTER + INTRA:          -4.281
REMARK INTER:                  -4.012
REMARK INTRA:                  -0.269
REMARK UNBOUND:                -0.242
REMARK SMILES CCCCCCC(=O)[O-]
REMARK SMILES IDX 5 1 6 2 7 3 8 4 9 5 4 6 3 7 2 8 1 9
REMARK H PARENT
REMARK Flexibility Score: inf
ROOT
ATOM      1  C   UNL     1       2.779  -8.844  -8.500  1.00  0.00     0.006 C 
ENDROOT
BRANCH   1   2
ATOM      2  C   UNL     1       2.373  -7.831  -9.578  1.00  0.00     0.053 C 
BRANCH   2   3
ATOM      3  C   UNL     1       2.006  -6.505  -8.985  1.00  0.00     0.041 C 
ATOM      4  O   UNL     1       1.672  -6.423  -7.774  1.00  0.00    -0.550 OA
ATOM      5  O   UNL     1       1.999  -5.365  -9.778  1.00  0.00    -0.550 OA
ENDBRANCH   2   3
ENDBRANCH   1   2
BRANCH   1   6
ATOM      6  C   UNL     1       1.878 -10.088  -8.501  1.00  0.00     0.000 C 
BRANCH   6   7
ATOM      7  C   UNL     1       1.206 -10.282  -7.137  1.00  0.00    -0.000 C 
BRANCH   7   8
ATOM      8  C   UNL     1       2.006  -9.593  -6.026  1.00  0.00    -0.003 C 
ATOM      9  C   UNL     1       2.910 -10.585  -5.301  1.00  0.00     0.004 C 
ENDBRANCH   7   8
ENDBRANCH   6   7
ENDBRANCH   1   6
TORSDOF 5
ENDMDL
MODEL 8
REMARK VINA RESULT:    -3.112     12.491     13.761
REMARK INTER + INTRA:          -4.263
REMARK INTER:                  -4.071
REMARK INTRA:                  -0.192
REMARK UNBOUND:                -0.242
REMARK SMILES CCCCCCC(=O)[O-]
REMARK SMILES IDX 5 1 6 2 7 3 8 4 9 5 4 6 3 7 2 8 1 9
REMARK H PARENT
REMARK Flexibility Score: inf
ROOT
ATOM      1  C   UNL     1       4.943 -11.581  -5.656  1.00  0.00     0.006 C 
ENDROOT
BRANCH   1   2
ATOM      2  C   UNL     1       5.727 -10.936  -6.806  1.00  0.00     0.053 C 
BRANCH   2   3
ATOM      3  C   UNL     1       7.094 -10.504  -6.373  1.00  0.00     0.041 C 
ATOM      4  O   UNL     1       7.626  -9.482  -6.881  1.00  0.00    -0.550 OA
ATOM      5  O   UNL     1       7.796 -11.248  -5.433  1.00  0.00    -0.550 OA
ENDBRANCH   2   3
ENDBRANCH   1   2
BRANCH   1   6
ATOM      6  C   UNL     1       3.427 -11.553  -5.897  1.00  0.00     0.000 C 
BRANCH   6   7
ATOM      7  C   UNL     1       2.796 -10.297  -5.283  1.00  0.00    -0.000 C 
BRANCH   7   8
ATOM      8  C   UNL     1       1.620  -9.801  -6.131  1.00  0.00    -0.003 C 
ATOM      9  C   UNL     1       1.236 -10.825  -7.195  1.00  0.00     0.004 C 
ENDBRANCH   7   8
ENDBRANCH   6   7
ENDBRANCH   1   6
TORSDOF 5
ENDMDL
MODEL 9
REMARK VINA RESULT:    -3.075     13.608     14.663
REMARK INTER + INTRA:          -4.216
REMARK INTER:                  -4.048
REMARK INTRA:                  -0.168
REMARK UNBOUND:                -0.242
REMARK SMILES CCCCCCC(=O)[O-]
REMARK SMILES IDX 5 1 6 2 7 3 8 4 9 5 4 6 3 7 2 8 1 9
REMARK H PARENT
REMARK Flexibility Score: inf
ROOT
ATOM      1  C   UNL     1      -4.628   0.055   6.808  1.00  0.00     0.006 C 
ENDROOT
BRANCH   1   2
ATOM      2  C   UNL     1      -3.162   0.367   7.132  1.00  0.00     0.053 C 
BRANCH   2   3
ATOM      3  C   UNL     1      -3.016   1.676   7.846  1.00  0.00     0.041 C 
ATOM      4  O   UNL     1      -3.550   2.715   7.378  1.00  0.00    -0.550 OA
ATOM      5  O   UNL     1      -2.262   1.755   9.010  1.00  0.00    -0.550 OA
ENDBRANCH   2   3
ENDBRANCH   1   2
BRANCH   1   6
ATOM      6  C   UNL     1      -5.065  -1.317   7.344  1.00  0.00     0.000 C 
BRANCH   6   7
ATOM      7  C   UNL     1      -3.896  -2.309   7.332  1.00  0.00    -0.000 C 
BRANCH   7   8
ATOM      8  C   UNL     1      -3.529  -2.743   8.756  1.00  0.00    -0.003 C 
ATOM      9  C   UNL     1      -4.770  -2.858   9.635  1.00  0.00     0.004 C 
ENDBRANCH   7   8
ENDBRANCH   6   7
ENDBRANCH   1   6
TORSDOF 5
ENDMDL
