MODEL 1
REMARK VINA RESULT:    -3.602      0.000      0.000
REMARK INTER + INTRA:          -4.402
REMARK INTER:                  -4.234
REMARK INTRA:                  -0.168
REMARK UNBOUND:                -0.168
REMARK SMILES O=C([O-])CCC(=O)[O-]
REMARK SMILES IDX 4 1 2 2 1 3 3 4 5 5 6 6 7 7 8 8
REMARK H PARENT
REMARK Flexibility Score: inf
ROOT
ATOM      1  C   UNL     1      -5.407 -27.056  -3.151  1.00  0.00     0.059 C 
ENDROOT
BRANCH   1   2
ATOM      2  C   UNL     1      -5.955 -27.033  -1.757  1.00  0.00     0.042 C 
ATOM      3  O   UNL     1      -6.997 -26.378  -1.496  1.00  0.00    -0.550 OA
ATOM      4  O   UNL     1      -5.336 -27.770  -0.754  1.00  0.00    -0.550 OA
ENDBRANCH   1   2
BRANCH   1   5
ATOM      5  C   UNL     1      -5.123 -28.485  -3.623  1.00  0.00     0.059 C 
BRANCH   5   6
ATOM      6  C   UNL     1      -6.388 -29.262  -3.827  1.00  0.00     0.042 C 
ATOM      7  O   UNL     1      -7.287 -28.819  -4.588  1.00  0.00    -0.550 OA
ATOM      8  O   UNL     1      -6.554 -30.496  -3.210  1.00  0.00    -0.550 OA
ENDBRANCH   5   6
ENDBRANCH   1   5
TORSDOF 3
ENDMDL
MODEL 2
REMARK VINA RESULT:    -3.595      0.100      3.269
REMARK INTER + INTRA:          -4.393
REMARK INTER:                  -4.226
REMARK INTRA:                  -0.167
REMARK UNBOUND:                -0.168
REMARK SMILES O=C([O-])CCC(=O)[O-]
REMARK SMILES IDX 4 1 2 2 1 3 3 4 5 5 6 6 7 7 8 8
REMARK H PARENT
REMARK Flexibility Score: inf
ROOT
ATOM      1  C   UNL     1      -5.142 -28.515  -3.627  1.00  0.00     0.059 C 
ENDROOT
BRANCH   1   2
ATOM      2  C   UNL     1      -6.376 -29.342  -3.824  1.00  0.00     0.042 C 
ATOM      3  O   UNL     1      -7.241 -28.999  -4.671  1.00  0.00    -0.550 OA
ATOM      4  O   UNL     1      -6.550 -30.516  -3.100  1.00  0.00    -0.550 OA
ENDBRANCH   1   2
BRANCH   1   5
ATOM      5  C   UNL     1      -5.482 -27.092  -3.174  1.00  0.00     0.059 C 
BRANCH   5   6
ATOM      6  C   UNL     1      -5.992 -27.066  -1.766  1.00  0.00     0.042 C 
ATOM      7  O   UNL     1      -7.051 -26.446  -1.488  1.00  0.00    -0.550 OA
ATOM      8  O   UNL     1      -5.320 -27.764  -0.769  1.00  0.00    -0.550 OA
ENDBRANCH   5   6
ENDBRANCH   1   5
TORSDOF 3
ENDMDL
MODEL 3
REMARK VINA RESULT:    -3.486     10.762     11.377
REMARK INTER + INTRA:          -4.265
REMARK INTER:                  -4.175
REMARK INTRA:                  -0.090
REMARK UNBOUND:                -0.168
REMARK SMILES O=C([O-])CCC(=O)[O-]
REMARK SMILES IDX 4 1 2 2 1 3 3 4 5 5 6 6 7 7 8 8
REMARK H PARENT
REMARK Flexibility Score: inf
ROOT
ATOM      1  C   UNL     1       1.546 -20.552  -7.714  1.00  0.00     0.059 C 
ENDROOT
BRANCH   1   2
ATOM      2  C   UNL     1       2.957 -20.312  -7.270  1.00  0.00     0.042 C 
ATOM      3  O   UNL     1       3.322 -19.162  -6.912  1.00  0.00    -0.550 OA
ATOM      4  O   UNL     1       3.857 -21.369  -7.212  1.00  0.00    -0.550 OA
ENDBRANCH   1   2
BRANCH   1   5
ATOM      5  C   UNL     1       1.231 -22.048  -7.812  1.00  0.00     0.059 C 
BRANCH   5   6
ATOM      6  C   UNL     1       0.500 -22.540  -6.601  1.00  0.00     0.042 C 
ATOM      7  O   UNL     1       0.160 -23.749  -6.515  1.00  0.00    -0.550 OA
ATOM      8  O   UNL     1       0.234 -21.673  -5.548  1.00  0.00    -0.550 OA
ENDBRANCH   5   6
ENDBRANCH   1   5
TORSDOF 3
ENDMDL
MODEL 4
REMARK VINA RESULT:    -3.480     10.739     11.554
REMARK INTER + INTRA:          -4.259
REMARK INTER:                  -4.158
REMARK INTRA:                  -0.101
REMARK UNBOUND:                -0.168
REMARK SMILES O=C([O-])CCC(=O)[O-]
REMARK SMILES IDX 4 1 2 2 1 3 3 4 5 5 6 6 7 7 8 8
REMARK H PARENT
REMARK Flexibility Score: inf
ROOT
ATOM      1  C   UNL     1       1.223 -22.029  -7.834  1.00  0.00     0.059 C 
ENDROOT
BRANCH   1   2
ATOM      2  C   UNL     1       0.464 -22.555  -6.654  1.00  0.00     0.042 C 
ATOM      3  O   UNL     1       0.135 -23.768  -6.603  1.00  0.00    -0.550 OA
ATOM      4  O   UNL     1       0.158 -21.713  -5.592  1.00  0.00    -0.550 OA
ENDBRANCH   1   2
BRANCH   1   5
ATOM      5  C   UNL     1       1.702 -20.592  -7.602  1.00  0.00     0.059 C 
BRANCH   5   6
ATOM      6  C   UNL     1       3.146 -20.547  -7.208  1.00  0.00     0.042 C 
ATOM      7  O   UNL     1       3.971 -19.894  -7.898  1.00  0.00    -0.550 OA
ATOM      8  O   UNL     1       3.573 -21.191  -6.052  1.00  0.00    -0.550 OA
ENDBRANCH   5   6
ENDBRANCH   1   5
TORSDOF 3
ENDMDL
MODEL 5
REMARK VINA RESULT:    -3.366      9.902     10.506
REMARK INTER + INTRA:          -4.124
REMARK INTER:                  -4.091
REMARK INTRA:                  -0.033
REMARK UNBOUND:                -0.168
REMARK SMILES O=C([O-])CCC(=O)[O-]
REMARK SMILES IDX 4 1 2 2 1 3 3 4 5 5 6 6 7 7 8 8
REMARK H PARENT
REMARK Flexibility Score: inf
ROOT
ATOM      1  C   UNL     1       0.335 -21.260  -5.010  1.00  0.00     0.059 C 
ENDROOT
BRANCH   1   2
ATOM      2  C   UNL     1       0.517 -20.351  -3.833  1.00  0.00     0.042 C 
ATOM      3  O   UNL     1       0.365 -20.790  -2.664  1.00  0.00    -0.550 OA
ATOM      4  O   UNL     1       0.897 -19.029  -4.027  1.00  0.00    -0.550 OA
ENDBRANCH   1   2
BRANCH   1   5
ATOM      5  C   UNL     1       1.342 -20.951  -6.123  1.00  0.00     0.059 C 
BRANCH   5   6
ATOM      6  C   UNL     1       1.096 -21.791  -7.339  1.00  0.00     0.042 C 
ATOM      7  O   UNL     1       0.593 -22.939  -7.225  1.00  0.00    -0.550 OA
ATOM      8  O   UNL     1       1.385 -21.289  -8.603  1.00  0.00    -0.550 OA
ENDBRANCH   5   6
ENDBRANCH   1   5
TORSDOF 3
ENDMDL
MODEL 6
REMARK VINA RESULT:    -3.363      9.932     10.450
REMARK INTER + INTRA:          -4.121
REMARK INTER:                  -4.087
REMARK INTRA:                  -0.034
REMARK UNBOUND:                -0.168
REMARK SMILES O=C([O-])CCC(=O)[O-]
REMARK SMILES IDX 4 1 2 2 1 3 3 4 5 5 6 6 7 7 8 8
REMARK H PARENT
REMARK Flexibility Score: inf
ROOT
ATOM      1  C   UNL     1       0.434 -21.247  -5.049  1.00  0.00     0.059 C 
ENDROOT
BRANCH   1   2
ATOM      2  C   UNL     1       0.614 -20.269  -3.928  1.00  0.00     0.042 C 
ATOM      3  O   UNL     1       0.944 -19.080  -4.171  1.00  0.00    -0.550 OA
ATOM      4  O   UNL     1       0.375 -20.662  -2.617  1.00  0.00    -0.550 OA
ENDBRANCH   1   2
BRANCH   1   5
ATOM      5  C   UNL     1       1.446 -21.009  -6.174  1.00  0.00     0.059 C 
BRANCH   5   6
ATOM      6  C   UNL     1       1.115 -21.812  -7.395  1.00  0.00     0.042 C 
ATOM      7  O   UNL     1       1.361 -21.354  -8.541  1.00  0.00    -0.550 OA
ATOM      8  O   UNL     1       0.574 -23.086  -7.265  1.00  0.00    -0.550 OA
ENDBRANCH   5   6
ENDBRANCH   1   5
TORSDOF 3
ENDMDL
MODEL 7
REMARK VINA RESULT:    -3.363      9.610     10.756
REMARK INTER + INTRA:          -4.120
REMARK INTER:                  -4.089
REMARK INTRA:                  -0.031
REMARK UNBOUND:                -0.168
REMARK SMILES O=C([O-])CCC(=O)[O-]
REMARK SMILES IDX 4 1 2 2 1 3 3 4 5 5 6 6 7 7 8 8
REMARK H PARENT
REMARK Flexibility Score: inf
ROOT
ATOM      1  C   UNL     1       0.128 -21.716  -5.550  1.00  0.00     0.059 C 
ENDROOT
BRANCH   1   2
ATOM      2  C   UNL     1       0.535 -22.593  -6.695  1.00  0.00     0.042 C 
ATOM      3  O   UNL     1       0.217 -23.810  -6.704  1.00  0.00    -0.550 OA
ATOM      4  O   UNL     1       1.228 -22.054  -7.772  1.00  0.00    -0.550 OA
ENDBRANCH   1   2
BRANCH   1   5
ATOM      5  C   UNL     1       1.179 -20.639  -5.262  1.00  0.00     0.059 C 
BRANCH   5   6
ATOM      6  C   UNL     1       0.893 -19.915  -3.982  1.00  0.00     0.042 C 
ATOM      7  O   UNL     1       1.048 -18.668  -3.911  1.00  0.00    -0.550 OA
ATOM      8  O   UNL     1       0.414 -20.613  -2.879  1.00  0.00    -0.550 OA
ENDBRANCH   5   6
ENDBRANCH   1   5
TORSDOF 3
ENDMDL
MODEL 8
REMARK VINA RESULT:    -3.134     13.546     15.117
REMARK INTER + INTRA:          -3.852
REMARK INTER:                  -3.753
REMARK INTRA:                  -0.098
REMARK UNBOUND:                -0.168
REMARK SMILES O=C([O-])CCC(=O)[O-]
REMARK SMILES IDX 4 1 2 2 1 3 3 4 5 5 6 6 7 7 8 8
REMARK H PARENT
REMARK Flexibility Score: inf
ROOT
ATOM      1  C   UNL     1      -2.052 -19.175   8.064  1.00  0.00     0.059 C 
ENDROOT
BRANCH   1   2
ATOM      2  C   UNL     1      -1.434 -18.436   9.212  1.00  0.00     0.042 C 
ATOM      3  O   UNL     1      -0.284 -18.744   9.619  1.00  0.00    -0.550 OA
ATOM      4  O   UNL     1      -2.113 -17.379   9.805  1.00  0.00    -0.550 OA
ENDBRANCH   1   2
BRANCH   1   5
ATOM      5  C   UNL     1      -2.224 -20.665   8.378  1.00  0.00     0.059 C 
BRANCH   5   6
ATOM      6  C   UNL     1      -3.596 -20.965   8.899  1.00  0.00     0.042 C 
ATOM      7  O   UNL     1      -3.851 -20.833  10.124  1.00  0.00    -0.550 OA
ATOM      8  O   UNL     1      -4.604 -21.351   8.023  1.00  0.00    -0.550 OA
ENDBRANCH   5   6
ENDBRANCH   1   5
TORSDOF 3
ENDMDL
MODEL 9
REMARK VINA RESULT:    -3.117     10.246     11.263
REMARK INTER + INTRA:          -3.831
REMARK INTER:                  -3.713
REMARK INTRA:                  -0.117
REMARK UNBOUND:                -0.168
REMARK SMILES O=C([O-])CCC(=O)[O-]
REMARK SMILES IDX 4 1 2 2 1 3 3 4 5 5 6 6 7 7 8 8
REMARK H PARENT
REMARK Flexibility Score: inf
ROOT
ATOM      1  C   UNL     1       0.500 -21.359  -5.499  1.00  0.00     0.059 C 
ENDROOT
BRANCH   1   2
ATOM      2  C   UNL     1       0.501 -22.357  -6.617  1.00  0.00     0.042 C 
ATOM      3  O   UNL     1       0.878 -22.018  -7.768  1.00  0.00    -0.550 OA
ATOM      4  O   UNL     1       0.125 -23.672  -6.375  1.00  0.00    -0.550 OA
ENDBRANCH   1   2
BRANCH   1   5
ATOM      5  C   UNL     1       1.566 -20.279  -5.705  1.00  0.00     0.059 C 
BRANCH   5   6
ATOM      6  C   UNL     1       2.853 -20.635  -5.025  1.00  0.00     0.042 C 
ATOM      7  O   UNL     1       3.733 -21.293  -5.639  1.00  0.00    -0.550 OA
ATOM      8  O   UNL     1       3.098 -20.202  -3.727  1.00  0.00    -0.550 OA
ENDBRANCH   5   6
ENDBRANCH   1   5
TORSDOF 3
ENDMDL
