MODEL 1
REMARK VINA RESULT:    -4.725      0.000      0.000
REMARK INTER + INTRA:          -5.015
REMARK INTER:                  -5.001
REMARK INTRA:                  -0.014
REMARK UNBOUND:                -0.014
REMARK SMILES O=Cc1ccccc1
REMARK SMILES IDX 6 1 5 2 4 3 3 4 8 5 7 6 2 7 1 8
REMARK H PARENT
REMARK Flexibility Score: inf
ROOT
ATOM      1  C   UNL     1     -12.708   3.990  -8.573  1.00  0.00     0.000 A 
ATOM      2  C   UNL     1     -14.102   3.916  -8.517  1.00  0.00     0.001 A 
ATOM      3  C   UNL     1     -14.761   2.759  -8.942  1.00  0.00     0.011 A 
ATOM      4  C   UNL     1     -14.025   1.663  -9.429  1.00  0.00     0.014 A 
ATOM      5  C   UNL     1     -12.625   1.746  -9.482  1.00  0.00     0.011 A 
ATOM      6  C   UNL     1     -11.970   2.905  -9.054  1.00  0.00     0.001 A 
ENDROOT
BRANCH   4   7
ATOM      7  C   UNL     1     -14.700   0.433  -9.882  1.00  0.00     0.260 C 
ATOM      8  O   UNL     1     -14.094  -0.424 -10.579  1.00  0.00    -0.298 OA
ENDBRANCH   4   7
TORSDOF 1
ENDMDL
MODEL 2
REMARK VINA RESULT:    -4.702      2.102      3.324
REMARK INTER + INTRA:          -4.990
REMARK INTER:                  -4.978
REMARK INTRA:                  -0.012
REMARK UNBOUND:                -0.014
REMARK SMILES O=Cc1ccccc1
REMARK SMILES IDX 6 1 5 2 4 3 3 4 8 5 7 6 2 7 1 8
REMARK H PARENT
REMARK Flexibility Score: inf
ROOT
ATOM      1  C   UNL     1     -14.430   0.108 -10.025  1.00  0.00     0.000 A 
ATOM      2  C   UNL     1     -15.125   1.269  -9.676  1.00  0.00     0.001 A 
ATOM      3  C   UNL     1     -14.425   2.417  -9.293  1.00  0.00     0.011 A 
ATOM      4  C   UNL     1     -13.018   2.410  -9.256  1.00  0.00     0.014 A 
ATOM      5  C   UNL     1     -12.328   1.238  -9.608  1.00  0.00     0.011 A 
ATOM      6  C   UNL     1     -13.033   0.093  -9.992  1.00  0.00     0.001 A 
ENDROOT
BRANCH   4   7
ATOM      7  C   UNL     1     -12.260   3.609  -8.855  1.00  0.00     0.260 C 
ATOM      8  O   UNL     1     -11.162   3.512  -8.245  1.00  0.00    -0.298 OA
ENDBRANCH   4   7
TORSDOF 1
ENDMDL
MODEL 3
REMARK VINA RESULT:    -4.479      2.018      3.422
REMARK INTER + INTRA:          -4.754
REMARK INTER:                  -4.743
REMARK INTRA:                  -0.011
REMARK UNBOUND:                -0.014
REMARK SMILES O=Cc1ccccc1
REMARK SMILES IDX 6 1 5 2 4 3 3 4 8 5 7 6 2 7 1 8
REMARK H PARENT
REMARK Flexibility Score: inf
ROOT
ATOM      1  C   UNL     1     -14.952   1.029  -9.929  1.00  0.00     0.000 A 
ATOM      2  C   UNL     1     -14.779  -0.287 -10.366  1.00  0.00     0.001 A 
ATOM      3  C   UNL     1     -13.497  -0.841 -10.431  1.00  0.00     0.011 A 
ATOM      4  C   UNL     1     -12.376  -0.079 -10.056  1.00  0.00     0.014 A 
ATOM      5  C   UNL     1     -12.559   1.242  -9.617  1.00  0.00     0.011 A 
ATOM      6  C   UNL     1     -13.843   1.792  -9.553  1.00  0.00     0.001 A 
ENDROOT
BRANCH   4   7
ATOM      7  C   UNL     1     -11.015  -0.645 -10.116  1.00  0.00     0.260 C 
ATOM      8  O   UNL     1     -10.796  -1.848  -9.814  1.00  0.00    -0.298 OA
ENDBRANCH   4   7
TORSDOF 1
ENDMDL
MODEL 4
REMARK VINA RESULT:    -4.420      2.027      3.572
REMARK INTER + INTRA:          -4.692
REMARK INTER:                  -4.679
REMARK INTRA:                  -0.013
REMARK UNBOUND:                -0.014
REMARK SMILES O=Cc1ccccc1
REMARK SMILES IDX 6 1 5 2 4 3 3 4 8 5 7 6 2 7 1 8
REMARK H PARENT
REMARK Flexibility Score: inf
ROOT
ATOM      1  C   UNL     1     -12.539  -0.613 -10.352  1.00  0.00     0.000 A 
ATOM      2  C   UNL     1     -11.841   0.447  -9.767  1.00  0.00     0.001 A 
ATOM      3  C   UNL     1     -12.532   1.570  -9.302  1.00  0.00     0.011 A 
ATOM      4  C   UNL     1     -13.932   1.639  -9.420  1.00  0.00     0.014 A 
ATOM      5  C   UNL     1     -14.625   0.570 -10.010  1.00  0.00     0.011 A 
ATOM      6  C   UNL     1     -13.930  -0.552 -10.472  1.00  0.00     0.001 A 
ENDROOT
BRANCH   4   7
ATOM      7  C   UNL     1     -14.681   2.814  -8.936  1.00  0.00     0.260 C 
ATOM      8  O   UNL     1     -14.082   3.832  -8.497  1.00  0.00    -0.298 OA
ENDBRANCH   4   7
TORSDOF 1
ENDMDL
MODEL 5
REMARK VINA RESULT:    -4.338      1.448      1.923
REMARK INTER + INTRA:          -4.605
REMARK INTER:                  -4.592
REMARK INTRA:                  -0.014
REMARK UNBOUND:                -0.014
REMARK SMILES O=Cc1ccccc1
REMARK SMILES IDX 6 1 5 2 4 3 3 4 8 5 7 6 2 7 1 8
REMARK H PARENT
REMARK Flexibility Score: inf
ROOT
ATOM      1  C   UNL     1     -14.225   3.438  -8.825  1.00  0.00     0.000 A 
ATOM      2  C   UNL     1     -14.969   2.318  -9.203  1.00  0.00     0.001 A 
ATOM      3  C   UNL     1     -14.318   1.150  -9.613  1.00  0.00     0.011 A 
ATOM      4  C   UNL     1     -12.913   1.097  -9.648  1.00  0.00     0.014 A 
ATOM      5  C   UNL     1     -12.174   2.228  -9.266  1.00  0.00     0.011 A 
ATOM      6  C   UNL     1     -12.829   3.393  -8.855  1.00  0.00     0.001 A 
ENDROOT
BRANCH   4   7
ATOM      7  C   UNL     1     -12.207  -0.125 -10.077  1.00  0.00     0.260 C 
ATOM      8  O   UNL     1     -10.993  -0.308  -9.794  1.00  0.00    -0.298 OA
ENDBRANCH   4   7
TORSDOF 1
ENDMDL
MODEL 6
REMARK VINA RESULT:    -4.049      7.239      8.082
REMARK INTER + INTRA:          -4.300
REMARK INTER:                  -4.290
REMARK INTRA:                  -0.010
REMARK UNBOUND:                -0.014
REMARK SMILES O=Cc1ccccc1
REMARK SMILES IDX 6 1 5 2 4 3 3 4 8 5 7 6 2 7 1 8
REMARK H PARENT
REMARK Flexibility Score: inf
ROOT
ATOM      1  C   UNL     1     -10.404  -3.757  -9.402  1.00  0.00     0.000 A 
ATOM      2  C   UNL     1      -9.709  -3.381  -8.251  1.00  0.00     0.001 A 
ATOM      3  C   UNL     1      -9.920  -4.064  -7.049  1.00  0.00     0.011 A 
ATOM      4  C   UNL     1     -10.834  -5.133  -6.993  1.00  0.00     0.014 A 
ATOM      5  C   UNL     1     -11.528  -5.504  -8.155  1.00  0.00     0.011 A 
ATOM      6  C   UNL     1     -11.312  -4.819  -9.355  1.00  0.00     0.001 A 
ENDROOT
BRANCH   4   7
ATOM      7  C   UNL     1     -11.071  -5.867  -5.736  1.00  0.00     0.260 C 
ATOM      8  O   UNL     1     -12.206  -5.868  -5.188  1.00  0.00    -0.298 OA
ENDBRANCH   4   7
TORSDOF 1
ENDMDL
MODEL 7
REMARK VINA RESULT:    -4.043      7.238      8.035
REMARK INTER + INTRA:          -4.293
REMARK INTER:                  -4.284
REMARK INTRA:                  -0.009
REMARK UNBOUND:                -0.014
REMARK SMILES O=Cc1ccccc1
REMARK SMILES IDX 6 1 5 2 4 3 3 4 8 5 7 6 2 7 1 8
REMARK H PARENT
REMARK Flexibility Score: inf
ROOT
ATOM      1  C   UNL     1     -10.368  -3.732  -9.386  1.00  0.00     0.000 A 
ATOM      2  C   UNL     1     -11.277  -4.793  -9.373  1.00  0.00     0.001 A 
ATOM      3  C   UNL     1     -11.515  -5.497  -8.188  1.00  0.00     0.011 A 
ATOM      4  C   UNL     1     -10.841  -5.143  -7.005  1.00  0.00     0.014 A 
ATOM      5  C   UNL     1      -9.930  -4.075  -7.029  1.00  0.00     0.011 A 
ATOM      6  C   UNL     1      -9.696  -3.372  -8.215  1.00  0.00     0.001 A 
ENDROOT
BRANCH   4   7
ATOM      7  C   UNL     1     -11.077  -5.872  -5.746  1.00  0.00     0.260 C 
ATOM      8  O   UNL     1     -12.209  -5.868  -5.193  1.00  0.00    -0.298 OA
ENDBRANCH   4   7
TORSDOF 1
ENDMDL
MODEL 8
REMARK VINA RESULT:    -3.971     16.711     17.500
REMARK INTER + INTRA:          -4.217
REMARK INTER:                  -4.205
REMARK INTRA:                  -0.012
REMARK UNBOUND:                -0.014
REMARK SMILES O=Cc1ccccc1
REMARK SMILES IDX 6 1 5 2 4 3 3 4 8 5 7 6 2 7 1 8
REMARK H PARENT
REMARK Flexibility Score: inf
ROOT
ATOM      1  C   UNL     1     -11.382   3.130   8.498  1.00  0.00     0.000 A 
ATOM      2  C   UNL     1     -10.713   4.184   9.125  1.00  0.00     0.001 A 
ATOM      3  C   UNL     1     -10.186   5.232   8.364  1.00  0.00     0.011 A 
ATOM      4  C   UNL     1     -10.327   5.232   6.964  1.00  0.00     0.014 A 
ATOM      5  C   UNL     1     -11.001   4.168   6.343  1.00  0.00     0.011 A 
ATOM      6  C   UNL     1     -11.527   3.123   7.108  1.00  0.00     0.001 A 
ENDROOT
BRANCH   4   7
ATOM      7  C   UNL     1      -9.780   6.327   6.142  1.00  0.00     0.260 C 
ATOM      8  O   UNL     1      -8.774   6.985   6.521  1.00  0.00    -0.298 OA
ENDBRANCH   4   7
TORSDOF 1
ENDMDL
MODEL 9
REMARK VINA RESULT:    -2.649     16.109     16.790
REMARK INTER + INTRA:          -2.818
REMARK INTER:                  -2.809
REMARK INTRA:                  -0.009
REMARK UNBOUND:                -0.014
REMARK SMILES O=Cc1ccccc1
REMARK SMILES IDX 6 1 5 2 4 3 3 4 8 5 7 6 2 7 1 8
REMARK H PARENT
REMARK Flexibility Score: inf
ROOT
ATOM      1  C   UNL     1     -10.624   4.179   9.125  1.00  0.00     0.000 A 
ATOM      2  C   UNL     1     -10.242   5.257   8.323  1.00  0.00     0.001 A 
ATOM      3  C   UNL     1     -10.596   5.285   6.970  1.00  0.00     0.011 A 
ATOM      4  C   UNL     1     -11.338   4.229   6.410  1.00  0.00     0.014 A 
ATOM      5  C   UNL     1     -11.717   3.150   7.224  1.00  0.00     0.011 A 
ATOM      6  C   UNL     1     -11.362   3.127   8.576  1.00  0.00     0.001 A 
ENDROOT
BRANCH   4   7
ATOM      7  C   UNL     1     -11.721   4.239   4.986  1.00  0.00     0.260 C 
ATOM      8  O   UNL     1     -12.858   4.642   4.621  1.00  0.00    -0.298 OA
ENDBRANCH   4   7
TORSDOF 1
ENDMDL
