MODEL 1
REMARK VINA RESULT:    -4.200      0.000      0.000
REMARK INTER + INTRA:          -5.814
REMARK INTER:                  -5.427
REMARK INTRA:                  -0.387
REMARK UNBOUND:                -0.387
REMARK SMILES CCO[C@@H]1O[C@H](CO)[C@@H](O)[C@@H](O)[C@H]1O
REMARK SMILES IDX 4 1 13 2 11 3 9 4 6 5 5 6 3 7 2 8 1 9 14 10 12 12 7 14 8 15
REMARK SMILES IDX 10 17
REMARK H PARENT 14 11 12 13 8 16 10 18
REMARK Flexibility Score: inf
ROOT
ATOM      1  C   UNL     1      37.891  -4.596  22.675  1.00  0.00     0.281 C 
ATOM      2  C   UNL     1      39.403  -4.291  22.692  1.00  0.00     0.202 C 
ATOM      3  C   UNL     1      40.092  -5.091  23.805  1.00  0.00     0.179 C 
ATOM      4  C   UNL     1      39.754  -6.589  23.675  1.00  0.00     0.177 C 
ATOM      5  C   UNL     1      38.229  -6.801  23.551  1.00  0.00     0.178 C 
ATOM      6  O   UNL     1      37.625  -5.987  22.548  1.00  0.00    -0.341 OA
ENDROOT
BRANCH   1   7
ATOM      7  O   UNL     1      37.254  -4.075  23.832  1.00  0.00    -0.350 OA
BRANCH   7   8
ATOM      8  C   UNL     1      35.952  -3.594  23.553  1.00  0.00     0.160 C 
ATOM      9  C   UNL     1      35.697  -2.292  24.304  1.00  0.00     0.035 C 
ENDBRANCH   7   8
ENDBRANCH   1   7
BRANCH   2  10
ATOM     10  O   UNL     1      39.951  -4.610  21.436  1.00  0.00    -0.385 OA
ATOM     11  H   UNL     1      40.705  -3.983  21.281  1.00  0.00     0.211 HD
ENDBRANCH   2  10
BRANCH   3  12
ATOM     12  O   UNL     1      41.480  -4.888  23.751  1.00  0.00    -0.387 OA
ATOM     13  H   UNL     1      41.664  -4.039  24.232  1.00  0.00     0.211 HD
ENDBRANCH   3  12
BRANCH   5  14
ATOM     14  C   UNL     1      37.494  -6.736  24.908  1.00  0.00     0.191 C 
BRANCH  14  15
ATOM     15  O   UNL     1      36.107  -6.841  24.727  1.00  0.00    -0.394 OA
ATOM     16  H   UNL     1      35.921  -6.566  23.791  1.00  0.00     0.210 HD
ENDBRANCH  14  15
ENDBRANCH   5  14
BRANCH   4  17
ATOM     17  O   UNL     1      40.384  -7.135  22.543  1.00  0.00    -0.387 OA
ATOM     18  H   UNL     1      39.773  -7.827  22.173  1.00  0.00     0.211 HD
ENDBRANCH   4  17
TORSDOF 7
ENDMDL
MODEL 2
REMARK VINA RESULT:    -4.091      1.910      4.540
REMARK INTER + INTRA:          -5.674
REMARK INTER:                  -5.254
REMARK INTRA:                  -0.420
REMARK UNBOUND:                -0.387
REMARK SMILES CCO[C@@H]1O[C@H](CO)[C@@H](O)[C@@H](O)[C@H]1O
REMARK SMILES IDX 4 1 13 2 11 3 9 4 6 5 5 6 3 7 2 8 1 9 14 10 12 12 7 14 8 15
REMARK SMILES IDX 10 17
REMARK H PARENT 14 11 12 13 8 16 10 18
REMARK Flexibility Score: inf
ROOT
ATOM      1  C   UNL     1      38.009  -6.706  22.148  1.00  0.00     0.281 C 
ATOM      2  C   UNL     1      37.786  -6.842  23.668  1.00  0.00     0.202 C 
ATOM      3  C   UNL     1      38.871  -6.074  24.433  1.00  0.00     0.179 C 
ATOM      4  C   UNL     1      38.945  -4.617  23.937  1.00  0.00     0.177 C 
ATOM      5  C   UNL     1      39.055  -4.564  22.397  1.00  0.00     0.178 C 
ATOM      6  O   UNL     1      38.065  -5.347  21.733  1.00  0.00    -0.341 OA
ENDROOT
BRANCH   1   7
ATOM      7  O   UNL     1      39.182  -7.395  21.741  1.00  0.00    -0.350 OA
BRANCH   7   8
ATOM      8  C   UNL     1      38.979  -8.140  20.555  1.00  0.00     0.160 C 
ATOM      9  C   UNL     1      40.184  -9.031  20.277  1.00  0.00     0.035 C 
ENDBRANCH   7   8
ENDBRANCH   1   7
BRANCH   2  10
ATOM     10  O   UNL     1      36.506  -6.355  23.990  1.00  0.00    -0.385 OA
ATOM     11  H   UNL     1      36.253  -5.711  23.278  1.00  0.00     0.211 HD
ENDBRANCH   2  10
BRANCH   3  12
ATOM     12  O   UNL     1      38.605  -6.118  25.811  1.00  0.00    -0.387 OA
ATOM     13  H   UNL     1      39.440  -5.844  26.273  1.00  0.00     0.211 HD
ENDBRANCH   3  12
BRANCH   5  14
ATOM     14  C   UNL     1      40.486  -4.831  21.881  1.00  0.00     0.191 C 
BRANCH  14  15
ATOM     15  O   UNL     1      40.492  -4.971  20.485  1.00  0.00    -0.394 OA
ATOM     16  H   UNL     1      41.443  -5.059  20.212  1.00  0.00     0.210 HD
ENDBRANCH  14  15
ENDBRANCH   5  14
BRANCH   4  17
ATOM     17  O   UNL     1      37.800  -3.906  24.337  1.00  0.00    -0.387 OA
ATOM     18  H   UNL     1      38.106  -3.017  24.660  1.00  0.00     0.211 HD
ENDBRANCH   4  17
TORSDOF 7
ENDMDL
MODEL 3
REMARK VINA RESULT:    -4.084     13.182     15.046
REMARK INTER + INTRA:          -5.665
REMARK INTER:                  -5.271
REMARK INTRA:                  -0.394
REMARK UNBOUND:                -0.387
REMARK SMILES CCO[C@@H]1O[C@H](CO)[C@@H](O)[C@@H](O)[C@H]1O
REMARK SMILES IDX 4 1 13 2 11 3 9 4 6 5 5 6 3 7 2 8 1 9 14 10 12 12 7 14 8 15
REMARK SMILES IDX 10 17
REMARK H PARENT 14 11 12 13 8 16 10 18
REMARK Flexibility Score: inf
ROOT
ATOM      1  C   UNL     1      31.581  -0.277  36.711  1.00  0.00     0.281 C 
ATOM      2  C   UNL     1      32.490   0.014  35.501  1.00  0.00     0.202 C 
ATOM      3  C   UNL     1      33.455  -1.156  35.269  1.00  0.00     0.179 C 
ATOM      4  C   UNL     1      32.674  -2.480  35.164  1.00  0.00     0.177 C 
ATOM      5  C   UNL     1      31.704  -2.644  36.355  1.00  0.00     0.178 C 
ATOM      6  O   UNL     1      30.875  -1.504  36.571  1.00  0.00    -0.341 OA
ENDROOT
BRANCH   1   7
ATOM      7  O   UNL     1      32.325  -0.273  37.921  1.00  0.00    -0.350 OA
BRANCH   7   8
ATOM      8  C   UNL     1      32.958   0.972  38.153  1.00  0.00     0.160 C 
ATOM      9  C   UNL     1      31.935   2.011  38.600  1.00  0.00     0.035 C 
ENDBRANCH   7   8
ENDBRANCH   1   7
BRANCH   2  10
ATOM     10  O   UNL     1      31.689   0.233  34.366  1.00  0.00    -0.385 OA
ATOM     11  H   UNL     1      30.768   0.412  34.690  1.00  0.00     0.211 HD
ENDBRANCH   2  10
BRANCH   3  12
ATOM     12  O   UNL     1      34.210  -0.930  34.107  1.00  0.00    -0.387 OA
ATOM     13  H   UNL     1      33.743  -1.398  33.366  1.00  0.00     0.211 HD
ENDBRANCH   3  12
BRANCH   5  14
ATOM     14  C   UNL     1      32.401  -3.138  37.642  1.00  0.00     0.191 C 
BRANCH  14  15
ATOM     15  O   UNL     1      31.514  -3.112  38.729  1.00  0.00    -0.394 OA
ATOM     16  H   UNL     1      32.033  -2.788  39.511  1.00  0.00     0.210 HD
ENDBRANCH  14  15
ENDBRANCH   5  14
BRANCH   4  17
ATOM     17  O   UNL     1      31.936  -2.519  33.968  1.00  0.00    -0.387 OA
ATOM     18  H   UNL     1      32.586  -2.634  33.226  1.00  0.00     0.211 HD
ENDBRANCH   4  17
TORSDOF 7
ENDMDL
MODEL 4
REMARK VINA RESULT:    -4.026      1.930      2.554
REMARK INTER + INTRA:          -5.589
REMARK INTER:                  -5.414
REMARK INTRA:                  -0.176
REMARK UNBOUND:                -0.387
REMARK SMILES CCO[C@@H]1O[C@H](CO)[C@@H](O)[C@@H](O)[C@H]1O
REMARK SMILES IDX 4 1 13 2 11 3 9 4 6 5 5 6 3 7 2 8 1 9 14 10 12 12 7 14 8 15
REMARK SMILES IDX 10 17
REMARK H PARENT 14 11 12 13 8 16 10 18
REMARK Flexibility Score: inf
ROOT
ATOM      1  C   UNL     1      38.586  -4.626  22.605  1.00  0.00     0.281 C 
ATOM      2  C   UNL     1      40.110  -4.490  22.799  1.00  0.00     0.202 C 
ATOM      3  C   UNL     1      40.820  -5.764  22.322  1.00  0.00     0.179 C 
ATOM      4  C   UNL     1      40.397  -6.104  20.880  1.00  0.00     0.177 C 
ATOM      5  C   UNL     1      38.859  -6.110  20.743  1.00  0.00     0.178 C 
ATOM      6  O   UNL     1      38.240  -4.934  21.261  1.00  0.00    -0.341 OA
ENDROOT
BRANCH   1   7
ATOM      7  O   UNL     1      38.044  -5.597  23.488  1.00  0.00    -0.350 OA
BRANCH   7   8
ATOM      8  C   UNL     1      36.769  -5.223  23.976  1.00  0.00     0.160 C 
ATOM      9  C   UNL     1      36.612  -3.707  23.940  1.00  0.00     0.035 C 
ENDBRANCH   7   8
ENDBRANCH   1   7
BRANCH   2  10
ATOM     10  O   UNL     1      40.566  -3.367  22.085  1.00  0.00    -0.385 OA
ATOM     11  H   UNL     1      41.551  -3.328  22.204  1.00  0.00     0.211 HD
ENDBRANCH   2  10
BRANCH   3  12
ATOM     12  O   UNL     1      42.211  -5.596  22.407  1.00  0.00    -0.387 OA
ATOM     13  H   UNL     1      42.377  -4.620  22.488  1.00  0.00     0.211 HD
ENDBRANCH   3  12
BRANCH   5  14
ATOM     14  C   UNL     1      38.208  -7.413  21.259  1.00  0.00     0.191 C 
BRANCH  14  15
ATOM     15  O   UNL     1      38.310  -8.432  20.300  1.00  0.00    -0.394 OA
ATOM     16  H   UNL     1      39.018  -8.152  19.662  1.00  0.00     0.210 HD
ENDBRANCH  14  15
ENDBRANCH   5  14
BRANCH   4  17
ATOM     17  O   UNL     1      40.930  -5.164  19.980  1.00  0.00    -0.387 OA
ATOM     18  H   UNL     1      40.463  -4.303  20.145  1.00  0.00     0.211 HD
ENDBRANCH   4  17
TORSDOF 7
ENDMDL
MODEL 5
REMARK VINA RESULT:    -3.944      1.421      2.192
REMARK INTER + INTRA:          -5.484
REMARK INTER:                  -5.032
REMARK INTRA:                  -0.452
REMARK UNBOUND:                -0.387
REMARK SMILES CCO[C@@H]1O[C@H](CO)[C@@H](O)[C@@H](O)[C@H]1O
REMARK SMILES IDX 4 1 13 2 11 3 9 4 6 5 5 6 3 7 2 8 1 9 14 10 12 12 7 14 8 15
REMARK SMILES IDX 10 17
REMARK H PARENT 14 11 12 13 8 16 10 18
REMARK Flexibility Score: inf
ROOT
ATOM      1  C   UNL     1      37.614  -5.245  23.088  1.00  0.00     0.281 C 
ATOM      2  C   UNL     1      38.364  -5.392  21.749  1.00  0.00     0.202 C 
ATOM      3  C   UNL     1      39.765  -4.775  21.855  1.00  0.00     0.179 C 
ATOM      4  C   UNL     1      40.517  -5.361  23.066  1.00  0.00     0.177 C 
ATOM      5  C   UNL     1      39.655  -5.276  24.345  1.00  0.00     0.178 C 
ATOM      6  O   UNL     1      38.340  -5.803  24.176  1.00  0.00    -0.341 OA
ENDROOT
BRANCH   1   7
ATOM      7  O   UNL     1      37.302  -3.884  23.350  1.00  0.00    -0.350 OA
BRANCH   7   8
ATOM      8  C   UNL     1      35.936  -3.702  23.674  1.00  0.00     0.160 C 
ATOM      9  C   UNL     1      35.730  -2.356  24.360  1.00  0.00     0.035 C 
ENDBRANCH   7   8
ENDBRANCH   1   7
BRANCH   2  10
ATOM     10  O   UNL     1      38.445  -6.757  21.415  1.00  0.00    -0.385 OA
ATOM     11  H   UNL     1      38.601  -6.807  20.436  1.00  0.00     0.211 HD
ENDBRANCH   2  10
BRANCH   3  12
ATOM     12  O   UNL     1      40.478  -5.002  20.668  1.00  0.00    -0.387 OA
ATOM     13  H   UNL     1      41.242  -5.592  20.901  1.00  0.00     0.211 HD
ENDBRANCH   3  12
BRANCH   5  14
ATOM     14  C   UNL     1      39.667  -3.875  24.994  1.00  0.00     0.191 C 
BRANCH  14  15
ATOM     15  O   UNL     1      38.700  -3.788  26.007  1.00  0.00    -0.394 OA
ATOM     16  H   UNL     1      39.130  -4.121  26.838  1.00  0.00     0.210 HD
ENDBRANCH  14  15
ENDBRANCH   5  14
BRANCH   4  17
ATOM     17  O   UNL     1      40.851  -6.706  22.829  1.00  0.00    -0.387 OA
ATOM     18  H   UNL     1      41.840  -6.752  22.746  1.00  0.00     0.211 HD
ENDBRANCH   4  17
TORSDOF 7
ENDMDL
MODEL 6
REMARK VINA RESULT:    -3.854      1.575      3.063
REMARK INTER + INTRA:          -5.367
REMARK INTER:                  -5.000
REMARK INTRA:                  -0.367
REMARK UNBOUND:                -0.387
REMARK SMILES CCO[C@@H]1O[C@H](CO)[C@@H](O)[C@@H](O)[C@H]1O
REMARK SMILES IDX 4 1 13 2 11 3 9 4 6 5 5 6 3 7 2 8 1 9 14 10 12 12 7 14 8 15
REMARK SMILES IDX 10 17
REMARK H PARENT 14 11 12 13 8 16 10 18
REMARK Flexibility Score: inf
ROOT
ATOM      1  C   UNL     1      37.942  -4.245  24.256  1.00  0.00     0.281 C 
ATOM      2  C   UNL     1      37.602  -5.319  25.309  1.00  0.00     0.202 C 
ATOM      3  C   UNL     1      37.598  -6.711  24.665  1.00  0.00     0.179 C 
ATOM      4  C   UNL     1      38.923  -6.960  23.919  1.00  0.00     0.177 C 
ATOM      5  C   UNL     1      39.248  -5.788  22.967  1.00  0.00     0.178 C 
ATOM      6  O   UNL     1      39.174  -4.511  23.596  1.00  0.00    -0.341 OA
ENDROOT
BRANCH   1   7
ATOM      7  O   UNL     1      36.894  -4.113  23.307  1.00  0.00    -0.350 OA
BRANCH   7   8
ATOM      8  C   UNL     1      35.645  -3.858  23.923  1.00  0.00     0.160 C 
ATOM      9  C   UNL     1      35.459  -2.361  24.143  1.00  0.00     0.035 C 
ENDBRANCH   7   8
ENDBRANCH   1   7
BRANCH   2  10
ATOM     10  O   UNL     1      38.545  -5.254  26.352  1.00  0.00    -0.385 OA
ATOM     11  H   UNL     1      39.389  -5.647  26.005  1.00  0.00     0.211 HD
ENDBRANCH   2  10
BRANCH   3  12
ATOM     12  O   UNL     1      37.388  -7.692  25.647  1.00  0.00    -0.387 OA
ATOM     13  H   UNL     1      36.835  -8.403  25.229  1.00  0.00     0.211 HD
ENDBRANCH   3  12
BRANCH   5  14
ATOM     14  C   UNL     1      38.467  -5.853  21.635  1.00  0.00     0.191 C 
BRANCH  14  15
ATOM     15  O   UNL     1      38.620  -4.661  20.912  1.00  0.00    -0.394 OA
ATOM     16  H   UNL     1      39.496  -4.276  21.180  1.00  0.00     0.210 HD
ENDBRANCH  14  15
ENDBRANCH   5  14
BRANCH   4  17
ATOM     17  O   UNL     1      39.979  -7.108  24.836  1.00  0.00    -0.387 OA
ATOM     18  H   UNL     1      39.651  -7.693  25.568  1.00  0.00     0.211 HD
ENDBRANCH   4  17
TORSDOF 7
ENDMDL
MODEL 7
REMARK VINA RESULT:    -3.832      1.505      3.633
REMARK INTER + INTRA:          -5.338
REMARK INTER:                  -5.165
REMARK INTRA:                  -0.173
REMARK UNBOUND:                -0.387
REMARK SMILES CCO[C@@H]1O[C@H](CO)[C@@H](O)[C@@H](O)[C@H]1O
REMARK SMILES IDX 4 1 13 2 11 3 9 4 6 5 5 6 3 7 2 8 1 9 14 10 12 12 7 14 8 15
REMARK SMILES IDX 10 17
REMARK H PARENT 14 11 12 13 8 16 10 18
REMARK Flexibility Score: inf
ROOT
ATOM      1  C   UNL     1      39.012  -5.997  24.575  1.00  0.00     0.281 C 
ATOM      2  C   UNL     1      39.217  -6.870  23.321  1.00  0.00     0.202 C 
ATOM      3  C   UNL     1      38.159  -6.533  22.262  1.00  0.00     0.179 C 
ATOM      4  C   UNL     1      38.149  -5.018  21.979  1.00  0.00     0.177 C 
ATOM      5  C   UNL     1      38.054  -4.213  23.294  1.00  0.00     0.178 C 
ATOM      6  O   UNL     1      39.016  -4.608  24.270  1.00  0.00    -0.341 OA
ENDROOT
BRANCH   1   7
ATOM      7  O   UNL     1      37.815  -6.350  25.252  1.00  0.00    -0.350 OA
BRANCH   7   8
ATOM      8  C   UNL     1      38.053  -6.740  26.592  1.00  0.00     0.160 C 
ATOM      9  C   UNL     1      38.399  -8.223  26.658  1.00  0.00     0.035 C 
ENDBRANCH   7   8
ENDBRANCH   1   7
BRANCH   2  10
ATOM     10  O   UNL     1      40.513  -6.655  22.818  1.00  0.00    -0.385 OA
ATOM     11  H   UNL     1      40.834  -5.796  23.199  1.00  0.00     0.211 HD
ENDBRANCH   2  10
BRANCH   3  12
ATOM     12  O   UNL     1      38.412  -7.257  21.086  1.00  0.00    -0.387 OA
ATOM     13  H   UNL     1      39.359  -7.087  20.843  1.00  0.00     0.211 HD
ENDBRANCH   3  12
BRANCH   5  14
ATOM     14  C   UNL     1      36.617  -4.134  23.856  1.00  0.00     0.191 C 
BRANCH  14  15
ATOM     15  O   UNL     1      35.868  -3.167  23.169  1.00  0.00    -0.394 OA
ATOM     16  H   UNL     1      34.987  -3.580  22.969  1.00  0.00     0.210 HD
ENDBRANCH  14  15
ENDBRANCH   5  14
BRANCH   4  17
ATOM     17  O   UNL     1      39.320  -4.641  21.298  1.00  0.00    -0.387 OA
ATOM     18  H   UNL     1      39.904  -4.176  21.953  1.00  0.00     0.211 HD
ENDBRANCH   4  17
TORSDOF 7
ENDMDL
MODEL 8
REMARK VINA RESULT:    -3.810      2.092      3.359
REMARK INTER + INTRA:          -5.310
REMARK INTER:                  -4.878
REMARK INTRA:                  -0.431
REMARK UNBOUND:                -0.387
REMARK SMILES CCO[C@@H]1O[C@H](CO)[C@@H](O)[C@@H](O)[C@H]1O
REMARK SMILES IDX 4 1 13 2 11 3 9 4 6 5 5 6 3 7 2 8 1 9 14 10 12 12 7 14 8 15
REMARK SMILES IDX 10 17
REMARK H PARENT 14 11 12 13 8 16 10 18
REMARK Flexibility Score: inf
ROOT
ATOM      1  C   UNL     1      40.145  -4.081  22.454  1.00  0.00     0.281 C 
ATOM      2  C   UNL     1      41.132  -3.457  23.460  1.00  0.00     0.202 C 
ATOM      3  C   UNL     1      42.137  -4.512  23.941  1.00  0.00     0.179 C 
ATOM      4  C   UNL     1      42.815  -5.193  22.737  1.00  0.00     0.177 C 
ATOM      5  C   UNL     1      41.762  -5.692  21.722  1.00  0.00     0.178 C 
ATOM      6  O   UNL     1      40.812  -4.693  21.357  1.00  0.00    -0.341 OA
ENDROOT
BRANCH   1   7
ATOM      7  O   UNL     1      39.288  -5.015  23.093  1.00  0.00    -0.350 OA
BRANCH   7   8
ATOM      8  C   UNL     1      37.961  -4.944  22.604  1.00  0.00     0.160 C 
ATOM      9  C   UNL     1      37.164  -3.907  23.388  1.00  0.00     0.035 C 
ENDBRANCH   7   8
ENDBRANCH   1   7
BRANCH   2  10
ATOM     10  O   UNL     1      41.796  -2.379  22.846  1.00  0.00    -0.385 OA
ATOM     11  H   UNL     1      42.556  -2.760  22.334  1.00  0.00     0.211 HD
ENDBRANCH   2  10
BRANCH   3  12
ATOM     12  O   UNL     1      43.093  -3.914  24.778  1.00  0.00    -0.387 OA
ATOM     13  H   UNL     1      42.855  -4.163  25.709  1.00  0.00     0.211 HD
ENDBRANCH   3  12
BRANCH   5  14
ATOM     14  C   UNL     1      41.108  -7.030  22.132  1.00  0.00     0.191 C 
BRANCH  14  15
ATOM     15  O   UNL     1      40.087  -7.379  21.236  1.00  0.00    -0.394 OA
ATOM     16  H   UNL     1      40.533  -7.687  20.404  1.00  0.00     0.210 HD
ENDBRANCH  14  15
ENDBRANCH   5  14
BRANCH   4  17
ATOM     17  O   UNL     1      43.681  -4.294  22.090  1.00  0.00    -0.387 OA
ATOM     18  H   UNL     1      43.524  -4.387  21.114  1.00  0.00     0.211 HD
ENDBRANCH   4  17
TORSDOF 7
ENDMDL
MODEL 9
REMARK VINA RESULT:    -3.786      1.594      4.056
REMARK INTER + INTRA:          -5.279
REMARK INTER:                  -4.872
REMARK INTRA:                  -0.407
REMARK UNBOUND:                -0.387
REMARK SMILES CCO[C@@H]1O[C@H](CO)[C@@H](O)[C@@H](O)[C@H]1O
REMARK SMILES IDX 4 1 13 2 11 3 9 4 6 5 5 6 3 7 2 8 1 9 14 10 12 12 7 14 8 15
REMARK SMILES IDX 10 17
REMARK H PARENT 14 11 12 13 8 16 10 18
REMARK Flexibility Score: inf
ROOT
ATOM      1  C   UNL     1      38.873  -4.632  22.399  1.00  0.00     0.281 C 
ATOM      2  C   UNL     1      37.424  -4.911  22.845  1.00  0.00     0.202 C 
ATOM      3  C   UNL     1      37.403  -5.987  23.938  1.00  0.00     0.179 C 
ATOM      4  C   UNL     1      38.350  -5.598  25.089  1.00  0.00     0.177 C 
ATOM      5  C   UNL     1      39.749  -5.226  24.549  1.00  0.00     0.178 C 
ATOM      6  O   UNL     1      39.711  -4.271  23.490  1.00  0.00    -0.341 OA
ENDROOT
BRANCH   1   7
ATOM      7  O   UNL     1      39.417  -5.746  21.707  1.00  0.00    -0.350 OA
BRANCH   7   8
ATOM      8  C   UNL     1      38.656  -6.087  20.563  1.00  0.00     0.160 C 
ATOM      9  C   UNL     1      38.412  -7.591  20.519  1.00  0.00     0.035 C 
ENDBRANCH   7   8
ENDBRANCH   1   7
BRANCH   2  10
ATOM     10  O   UNL     1      36.847  -3.715  23.311  1.00  0.00    -0.385 OA
ATOM     11  H   UNL     1      36.822  -3.086  22.543  1.00  0.00     0.211 HD
ENDBRANCH   2  10
BRANCH   3  12
ATOM     12  O   UNL     1      36.093  -6.164  24.410  1.00  0.00    -0.387 OA
ATOM     13  H   UNL     1      36.083  -5.850  25.352  1.00  0.00     0.211 HD
ENDBRANCH   3  12
BRANCH   5  14
ATOM     14  C   UNL     1      40.623  -6.457  24.224  1.00  0.00     0.191 C 
BRANCH  14  15
ATOM     15  O   UNL     1      41.802  -6.071  23.569  1.00  0.00    -0.394 OA
ATOM     16  H   UNL     1      42.124  -6.868  23.071  1.00  0.00     0.210 HD
ENDBRANCH  14  15
ENDBRANCH   5  14
BRANCH   4  17
ATOM     17  O   UNL     1      37.831  -4.503  25.802  1.00  0.00    -0.387 OA
ATOM     18  H   UNL     1      37.296  -4.871  26.554  1.00  0.00     0.211 HD
ENDBRANCH   4  17
TORSDOF 7
ENDMDL
