MODEL 1
REMARK VINA RESULT:    -3.372      0.000      0.000
REMARK INTER + INTRA:          -4.278
REMARK INTER:                  -4.062
REMARK INTRA:                  -0.217
REMARK UNBOUND:                -0.217
REMARK SMILES OCC(O)CO
REMARK SMILES IDX 3 1 5 2 6 3 2 5 1 6 4 8
REMARK H PARENT 6 4 1 7 4 9
REMARK Flexibility Score: inf
ROOT
ATOM      1  C   UNL     1     118.698 115.361  98.479  1.00  0.00     0.165 C 
ENDROOT
BRANCH   1   2
ATOM      2  C   UNL     1     117.244 114.864  98.449  1.00  0.00     0.190 C 
BRANCH   2   3
ATOM      3  O   UNL     1     116.339 115.933  98.529  1.00  0.00    -0.394 OA
ATOM      4  H   UNL     1     116.543 116.419  99.370  1.00  0.00     0.210 HD
ENDBRANCH   2   3
ENDBRANCH   1   2
BRANCH   1   5
ATOM      5  C   UNL     1     118.780 116.895  98.469  1.00  0.00     0.190 C 
BRANCH   5   6
ATOM      6  O   UNL     1     118.678 117.392  99.776  1.00  0.00    -0.394 OA
ATOM      7  H   UNL     1     118.923 116.641 100.376  1.00  0.00     0.210 HD
ENDBRANCH   5   6
ENDBRANCH   1   5
BRANCH   1   8
ATOM      8  O   UNL     1     119.336 114.856  99.624  1.00  0.00    -0.388 OA
ATOM      9  H   UNL     1     119.489 115.626 100.232  1.00  0.00     0.211 HD
ENDBRANCH   1   8
TORSDOF 5
ENDMDL
MODEL 2
REMARK VINA RESULT:    -3.154      1.249      3.188
REMARK INTER + INTRA:          -4.016
REMARK INTER:                  -4.014
REMARK INTRA:                  -0.002
REMARK UNBOUND:                -0.217
REMARK SMILES OCC(O)CO
REMARK SMILES IDX 3 1 5 2 6 3 2 5 1 6 4 8
REMARK H PARENT 6 4 1 7 4 9
REMARK Flexibility Score: inf
ROOT
ATOM      1  C   UNL     1     117.395 115.630  98.090  1.00  0.00     0.165 C 
ENDROOT
BRANCH   1   2
ATOM      2  C   UNL     1     118.798 115.277  98.611  1.00  0.00     0.190 C 
BRANCH   2   3
ATOM      3  O   UNL     1     118.847 115.318 100.012  1.00  0.00    -0.394 OA
ATOM      4  H   UNL     1     118.325 114.540 100.339  1.00  0.00     0.210 HD
ENDBRANCH   2   3
ENDBRANCH   1   2
BRANCH   1   5
ATOM      5  C   UNL     1     116.442 114.428  98.153  1.00  0.00     0.190 C 
BRANCH   5   6
ATOM      6  O   UNL     1     115.613 114.409  97.023  1.00  0.00    -0.394 OA
ATOM      7  H   UNL     1     115.804 115.248  96.528  1.00  0.00     0.210 HD
ENDBRANCH   5   6
ENDBRANCH   1   5
BRANCH   1   8
ATOM      8  O   UNL     1     116.874 116.692  98.848  1.00  0.00    -0.388 OA
ATOM      9  H   UNL     1     116.515 117.356  98.204  1.00  0.00     0.211 HD
ENDBRANCH   1   8
TORSDOF 5
ENDMDL
MODEL 3
REMARK VINA RESULT:    -3.149      0.640      2.396
REMARK INTER + INTRA:          -4.009
REMARK INTER:                  -3.828
REMARK INTRA:                  -0.182
REMARK UNBOUND:                -0.217
REMARK SMILES OCC(O)CO
REMARK SMILES IDX 3 1 5 2 6 3 2 5 1 6 4 8
REMARK H PARENT 6 4 1 7 4 9
REMARK Flexibility Score: inf
ROOT
ATOM      1  C   UNL     1     118.606 115.266  98.828  1.00  0.00     0.165 C 
ENDROOT
BRANCH   1   2
ATOM      2  C   UNL     1     118.853 116.759  98.555  1.00  0.00     0.190 C 
BRANCH   2   3
ATOM      3  O   UNL     1     118.684 117.524  99.718  1.00  0.00    -0.394 OA
ATOM      4  H   UNL     1     118.129 116.983 100.339  1.00  0.00     0.210 HD
ENDBRANCH   2   3
ENDBRANCH   1   2
BRANCH   1   5
ATOM      5  C   UNL     1     117.220 114.817  98.345  1.00  0.00     0.190 C 
BRANCH   5   6
ATOM      6  O   UNL     1     116.288 115.849  98.522  1.00  0.00    -0.394 OA
ATOM      7  H   UNL     1     115.397 115.413  98.550  1.00  0.00     0.210 HD
ENDBRANCH   5   6
ENDBRANCH   1   5
BRANCH   1   8
ATOM      8  O   UNL     1     119.602 114.508  98.191  1.00  0.00    -0.388 OA
ATOM      9  H   UNL     1     119.144 113.926  97.531  1.00  0.00     0.211 HD
ENDBRANCH   1   8
TORSDOF 5
ENDMDL
MODEL 4
REMARK VINA RESULT:    -3.140      1.270      1.603
REMARK INTER + INTRA:          -4.000
REMARK INTER:                  -3.996
REMARK INTRA:                  -0.003
REMARK UNBOUND:                -0.217
REMARK SMILES OCC(O)CO
REMARK SMILES IDX 3 1 5 2 6 3 2 5 1 6 4 8
REMARK H PARENT 6 4 1 7 4 9
REMARK Flexibility Score: inf
ROOT
ATOM      1  C   UNL     1     118.632 115.048  98.725  1.00  0.00     0.165 C 
ENDROOT
BRANCH   1   2
ATOM      2  C   UNL     1     117.127 114.966  98.423  1.00  0.00     0.190 C 
BRANCH   2   3
ATOM      3  O   UNL     1     116.498 116.202  98.629  1.00  0.00    -0.394 OA
ATOM      4  H   UNL     1     116.790 116.799  97.892  1.00  0.00     0.210 HD
ENDBRANCH   2   3
ENDBRANCH   1   2
BRANCH   1   5
ATOM      5  C   UNL     1     119.339 116.083  97.837  1.00  0.00     0.190 C 
BRANCH   5   6
ATOM      6  O   UNL     1     120.504 115.531  97.286  1.00  0.00    -0.394 OA
ATOM      7  H   UNL     1     121.216 115.658  97.965  1.00  0.00     0.210 HD
ENDBRANCH   5   6
ENDBRANCH   1   5
BRANCH   1   8
ATOM      8  O   UNL     1     118.815 115.377 100.079  1.00  0.00    -0.388 OA
ATOM      9  H   UNL     1     118.462 114.616 100.610  1.00  0.00     0.211 HD
ENDBRANCH   1   8
TORSDOF 5
ENDMDL
MODEL 5
REMARK VINA RESULT:    -3.077      1.045      2.625
REMARK INTER + INTRA:          -3.923
REMARK INTER:                  -3.706
REMARK INTRA:                  -0.217
REMARK UNBOUND:                -0.217
REMARK SMILES OCC(O)CO
REMARK SMILES IDX 3 1 5 2 6 3 2 5 1 6 4 8
REMARK H PARENT 6 4 1 7 4 9
REMARK Flexibility Score: inf
ROOT
ATOM      1  C   UNL     1     118.027 115.660  98.193  1.00  0.00     0.165 C 
ENDROOT
BRANCH   1   2
ATOM      2  C   UNL     1     118.489 117.070  98.599  1.00  0.00     0.190 C 
BRANCH   2   3
ATOM      3  O   UNL     1     119.814 117.305  98.204  1.00  0.00    -0.394 OA
ATOM      4  H   UNL     1     120.001 118.263  98.385  1.00  0.00     0.210 HD
ENDBRANCH   2   3
ENDBRANCH   1   2
BRANCH   1   5
ATOM      5  C   UNL     1     119.068 114.590  98.555  1.00  0.00     0.190 C 
BRANCH   5   6
ATOM      6  O   UNL     1     119.530 114.789  99.864  1.00  0.00    -0.394 OA
ATOM      7  H   UNL     1     118.740 114.681 100.454  1.00  0.00     0.210 HD
ENDBRANCH   5   6
ENDBRANCH   1   5
BRANCH   1   8
ATOM      8  O   UNL     1     116.807 115.373  98.827  1.00  0.00    -0.388 OA
ATOM      9  H   UNL     1     116.440 116.237  99.151  1.00  0.00     0.211 HD
ENDBRANCH   1   8
TORSDOF 5
ENDMDL
MODEL 6
REMARK VINA RESULT:    -3.052     12.738     13.670
REMARK INTER + INTRA:          -3.893
REMARK INTER:                  -3.678
REMARK INTRA:                  -0.215
REMARK UNBOUND:                -0.217
REMARK SMILES OCC(O)CO
REMARK SMILES IDX 3 1 5 2 6 3 2 5 1 6 4 8
REMARK H PARENT 6 4 1 7 4 9
REMARK Flexibility Score: inf
ROOT
ATOM      1  C   UNL     1     131.473 116.960 100.305  1.00  0.00     0.165 C 
ENDROOT
BRANCH   1   2
ATOM      2  C   UNL     1     132.705 117.716  99.781  1.00  0.00     0.190 C 
BRANCH   2   3
ATOM      3  O   UNL     1     133.060 117.281  98.495  1.00  0.00    -0.394 OA
ATOM      4  H   UNL     1     132.347 117.595  97.880  1.00  0.00     0.210 HD
ENDBRANCH   2   3
ENDBRANCH   1   2
BRANCH   1   5
ATOM      5  C   UNL     1     130.164 117.554  99.764  1.00  0.00     0.190 C 
BRANCH   5   6
ATOM      6  O   UNL     1     130.408 118.264  98.580  1.00  0.00    -0.394 OA
ATOM      7  H   UNL     1     130.728 119.161  98.860  1.00  0.00     0.210 HD
ENDBRANCH   5   6
ENDBRANCH   1   5
BRANCH   1   8
ATOM      8  O   UNL     1     131.570 115.607  99.940  1.00  0.00    -0.388 OA
ATOM      9  H   UNL     1     131.010 115.487  99.130  1.00  0.00     0.211 HD
ENDBRANCH   1   8
TORSDOF 5
ENDMDL
MODEL 7
REMARK VINA RESULT:    -3.039     12.636     13.549
REMARK INTER + INTRA:          -3.877
REMARK INTER:                  -3.661
REMARK INTRA:                  -0.216
REMARK UNBOUND:                -0.217
REMARK SMILES OCC(O)CO
REMARK SMILES IDX 3 1 5 2 6 3 2 5 1 6 4 8
REMARK H PARENT 6 4 1 7 4 9
REMARK Flexibility Score: inf
ROOT
ATOM      1  C   UNL     1     130.999 117.761  99.847  1.00  0.00     0.165 C 
ENDROOT
BRANCH   1   2
ATOM      2  C   UNL     1     130.437 116.362 100.151  1.00  0.00     0.190 C 
BRANCH   2   3
ATOM      3  O   UNL     1     131.407 115.369  99.951  1.00  0.00    -0.394 OA
ATOM      4  H   UNL     1     131.618 115.365  98.981  1.00  0.00     0.210 HD
ENDBRANCH   2   3
ENDBRANCH   1   2
BRANCH   1   5
ATOM      5  C   UNL     1     132.534 117.762  99.791  1.00  0.00     0.190 C 
BRANCH   5   6
ATOM      6  O   UNL     1     132.973 117.276  98.551  1.00  0.00    -0.394 OA
ATOM      7  H   UNL     1     132.319 116.580  98.282  1.00  0.00     0.210 HD
ENDBRANCH   5   6
ENDBRANCH   1   5
BRANCH   1   8
ATOM      8  O   UNL     1     130.477 118.213  98.624  1.00  0.00    -0.388 OA
ATOM      9  H   UNL     1     129.742 118.844  98.841  1.00  0.00     0.211 HD
ENDBRANCH   1   8
TORSDOF 5
ENDMDL
MODEL 8
REMARK VINA RESULT:    -2.966      0.832      2.204
REMARK INTER + INTRA:          -3.789
REMARK INTER:                  -3.566
REMARK INTRA:                  -0.224
REMARK UNBOUND:                -0.217
REMARK SMILES OCC(O)CO
REMARK SMILES IDX 3 1 5 2 6 3 2 5 1 6 4 8
REMARK H PARENT 6 4 1 7 4 9
REMARK Flexibility Score: inf
ROOT
ATOM      1  C   UNL     1     117.846 115.765  98.522  1.00  0.00     0.165 C 
ENDROOT
BRANCH   1   2
ATOM      2  C   UNL     1     118.953 114.699  98.470  1.00  0.00     0.190 C 
BRANCH   2   3
ATOM      3  O   UNL     1     119.649 114.627  99.685  1.00  0.00    -0.394 OA
ATOM      4  H   UNL     1     120.447 114.059  99.525  1.00  0.00     0.210 HD
ENDBRANCH   2   3
ENDBRANCH   1   2
BRANCH   1   5
ATOM      5  C   UNL     1     118.421 117.180  98.680  1.00  0.00     0.190 C 
BRANCH   5   6
ATOM      6  O   UNL     1     118.786 117.407 100.015  1.00  0.00    -0.394 OA
ATOM      7  H   UNL     1     118.856 116.512 100.436  1.00  0.00     0.210 HD
ENDBRANCH   5   6
ENDBRANCH   1   5
BRANCH   1   8
ATOM      8  O   UNL     1     117.077 115.691  97.349  1.00  0.00    -0.388 OA
ATOM      9  H   UNL     1     116.187 116.074  97.564  1.00  0.00     0.211 HD
ENDBRANCH   1   8
TORSDOF 5
ENDMDL
MODEL 9
REMARK VINA RESULT:    -2.896     13.036     13.936
REMARK INTER + INTRA:          -3.705
REMARK INTER:                  -3.485
REMARK INTRA:                  -0.219
REMARK UNBOUND:                -0.217
REMARK SMILES OCC(O)CO
REMARK SMILES IDX 3 1 5 2 6 3 2 5 1 6 4 8
REMARK H PARENT 6 4 1 7 4 9
REMARK Flexibility Score: inf
ROOT
ATOM      1  C   UNL     1     132.479 118.152  99.413  1.00  0.00     0.165 C 
ENDROOT
BRANCH   1   2
ATOM      2  C   UNL     1     131.388 118.943  98.672  1.00  0.00     0.190 C 
BRANCH   2   3
ATOM      3  O   UNL     1     130.245 118.159  98.461  1.00  0.00    -0.394 OA
ATOM      4  H   UNL     1     129.467 118.776  98.478  1.00  0.00     0.210 HD
ENDBRANCH   2   3
ENDBRANCH   1   2
BRANCH   1   5
ATOM      5  C   UNL     1     131.881 117.119 100.379  1.00  0.00     0.190 C 
BRANCH   5   6
ATOM      6  O   UNL     1     131.741 115.881  99.737  1.00  0.00    -0.394 OA
ATOM      7  H   UNL     1     132.055 115.198 100.385  1.00  0.00     0.210 HD
ENDBRANCH   5   6
ENDBRANCH   1   5
BRANCH   1   8
ATOM      8  O   UNL     1     133.302 117.508  98.474  1.00  0.00    -0.388 OA
ATOM      9  H   UNL     1     133.292 118.064  97.652  1.00  0.00     0.211 HD
ENDBRANCH   1   8
TORSDOF 5
ENDMDL
