MODEL 1
REMARK VINA RESULT:    -3.630      0.000      0.000
REMARK INTER + INTRA:          -6.207
REMARK INTER:                  -5.539
REMARK INTRA:                  -0.668
REMARK UNBOUND:                -0.668
REMARK SMILES CCCCCCCCCCC(=O)[O-]
REMARK SMILES IDX 7 1 8 2 9 3 10 4 11 5 12 6 13 7 6 8 5 9 4 10 3 11 2 12 1 13
REMARK H PARENT
REMARK Flexibility Score: inf
ROOT
ATOM      1  C   UNL     1     164.943 160.248 188.877  1.00  0.00     0.000 C 
ENDROOT
BRANCH   1   2
ATOM      2  C   UNL     1     166.402 160.616 189.207  1.00  0.00     0.000 C 
BRANCH   2   3
ATOM      3  C   UNL     1     166.584 161.601 190.379  1.00  0.00     0.006 C 
BRANCH   3   4
ATOM      4  C   UNL     1     166.194 163.051 190.041  1.00  0.00     0.053 C 
BRANCH   4   5
ATOM      5  C   UNL     1     167.387 163.949 189.909  1.00  0.00     0.041 C 
ATOM      6  O   UNL     1     167.473 164.996 190.603  1.00  0.00    -0.550 OA
ATOM      7  O   UNL     1     168.422 163.611 189.046  1.00  0.00    -0.550 OA
ENDBRANCH   4   5
ENDBRANCH   3   4
ENDBRANCH   2   3
ENDBRANCH   1   2
BRANCH   1   8
ATOM      8  C   UNL     1     164.529 160.471 187.407  1.00  0.00     0.000 C 
BRANCH   8   9
ATOM      9  C   UNL     1     163.131 161.089 187.210  1.00  0.00    -0.000 C 
BRANCH   9  10
ATOM     10  C   UNL     1     162.422 161.524 188.505  1.00  0.00    -0.000 C 
BRANCH  10  11
ATOM     11  C   UNL     1     162.328 163.050 188.652  1.00  0.00    -0.000 C 
BRANCH  11  12
ATOM     12  C   UNL     1     160.874 163.494 188.842  1.00  0.00    -0.003 C 
ATOM     13  C   UNL     1     159.978 162.311 189.197  1.00  0.00     0.004 C 
ENDBRANCH  11  12
ENDBRANCH  10  11
ENDBRANCH   9  10
ENDBRANCH   8   9
ENDBRANCH   1   8
TORSDOF 9
ENDMDL
MODEL 2
REMARK VINA RESULT:    -3.613     16.018     17.802
REMARK INTER + INTRA:          -6.181
REMARK INTER:                  -5.225
REMARK INTRA:                  -0.956
REMARK UNBOUND:                -0.668
REMARK SMILES CCCCCCCCCCC(=O)[O-]
REMARK SMILES IDX 7 1 8 2 9 3 10 4 11 5 12 6 13 7 6 8 5 9 4 10 3 11 2 12 1 13
REMARK H PARENT
REMARK Flexibility Score: inf
ROOT
ATOM      1  C   UNL     1     176.029 173.345 189.751  1.00  0.00     0.000 C 
ENDROOT
BRANCH   1   2
ATOM      2  C   UNL     1     174.962 173.482 188.649  1.00  0.00     0.000 C 
BRANCH   2   3
ATOM      3  C   UNL     1     174.737 174.914 188.125  1.00  0.00     0.006 C 
BRANCH   3   4
ATOM      4  C   UNL     1     175.250 175.141 186.691  1.00  0.00     0.053 C 
BRANCH   4   5
ATOM      5  C   UNL     1     176.393 176.109 186.637  1.00  0.00     0.041 C 
ATOM      6  O   UNL     1     176.251 177.283 187.070  1.00  0.00    -0.550 OA
ATOM      7  O   UNL     1     177.627 175.704 186.144  1.00  0.00    -0.550 OA
ENDBRANCH   4   5
ENDBRANCH   3   4
ENDBRANCH   2   3
ENDBRANCH   1   2
BRANCH   1   8
ATOM      8  C   UNL     1     176.988 174.545 189.888  1.00  0.00     0.000 C 
BRANCH   8   9
ATOM      9  C   UNL     1     178.394 174.330 189.294  1.00  0.00    -0.000 C 
BRANCH   9  10
ATOM     10  C   UNL     1     178.532 173.099 188.380  1.00  0.00    -0.000 C 
BRANCH  10  11
ATOM     11  C   UNL     1     179.905 172.420 188.496  1.00  0.00    -0.000 C 
BRANCH  11  12
ATOM     12  C   UNL     1     179.760 170.895 188.543  1.00  0.00    -0.003 C 
ATOM     13  C   UNL     1     178.326 170.486 188.869  1.00  0.00     0.004 C 
ENDBRANCH  11  12
ENDBRANCH  10  11
ENDBRANCH   9  10
ENDBRANCH   8   9
ENDBRANCH   1   8
TORSDOF 9
ENDMDL
MODEL 3
REMARK VINA RESULT:    -3.606     14.466     16.628
REMARK INTER + INTRA:          -6.171
REMARK INTER:                  -5.646
REMARK INTRA:                  -0.525
REMARK UNBOUND:                -0.668
REMARK SMILES CCCCCCCCCCC(=O)[O-]
REMARK SMILES IDX 7 1 8 2 9 3 10 4 11 5 12 6 13 7 6 8 5 9 4 10 3 11 2 12 1 13
REMARK H PARENT
REMARK Flexibility Score: inf
ROOT
ATOM      1  C   UNL     1     178.152 170.608 188.742  1.00  0.00     0.000 C 
ENDROOT
BRANCH   1   2
ATOM      2  C   UNL     1     177.665 169.599 187.686  1.00  0.00     0.000 C 
BRANCH   2   3
ATOM      3  C   UNL     1     178.578 168.376 187.473  1.00  0.00     0.006 C 
BRANCH   3   4
ATOM      4  C   UNL     1     177.816 167.052 187.285  1.00  0.00     0.053 C 
BRANCH   4   5
ATOM      5  C   UNL     1     178.731 165.867 187.220  1.00  0.00     0.041 C 
ATOM      6  O   UNL     1     179.890 165.934 187.706  1.00  0.00    -0.550 OA
ATOM      7  O   UNL     1     178.290 164.676 186.656  1.00  0.00    -0.550 OA
ENDBRANCH   4   5
ENDBRANCH   3   4
ENDBRANCH   2   3
ENDBRANCH   1   2
BRANCH   1   8
ATOM      8  C   UNL     1     179.600 171.106 188.554  1.00  0.00     0.000 C 
BRANCH   8   9
ATOM      9  C   UNL     1     179.750 172.632 188.393  1.00  0.00    -0.000 C 
BRANCH   9  10
ATOM     10  C   UNL     1     178.440 173.431 188.511  1.00  0.00    -0.000 C 
BRANCH  10  11
ATOM     11  C   UNL     1     178.531 174.580 189.525  1.00  0.00    -0.000 C 
BRANCH  11  12
ATOM     12  C   UNL     1     177.157 174.889 190.129  1.00  0.00    -0.003 C 
ATOM     13  C   UNL     1     176.279 173.641 190.171  1.00  0.00     0.004 C 
ENDBRANCH  11  12
ENDBRANCH  10  11
ENDBRANCH   9  10
ENDBRANCH   8   9
ENDBRANCH   1   8
TORSDOF 9
ENDMDL
MODEL 4
REMARK VINA RESULT:    -3.587      3.670      6.221
REMARK INTER + INTRA:          -6.141
REMARK INTER:                  -5.325
REMARK INTRA:                  -0.816
REMARK UNBOUND:                -0.668
REMARK SMILES CCCCCCCCCCC(=O)[O-]
REMARK SMILES IDX 7 1 8 2 9 3 10 4 11 5 12 6 13 7 6 8 5 9 4 10 3 11 2 12 1 13
REMARK H PARENT
REMARK Flexibility Score: inf
ROOT
ATOM      1  C   UNL     1     162.135 163.424 188.885  1.00  0.00     0.000 C 
ENDROOT
BRANCH   1   2
ATOM      2  C   UNL     1     160.732 162.790 188.924  1.00  0.00     0.000 C 
BRANCH   2   3
ATOM      3  C   UNL     1     159.878 163.002 187.659  1.00  0.00     0.006 C 
BRANCH   3   4
ATOM      4  C   UNL     1     159.946 161.835 186.657  1.00  0.00     0.053 C 
BRANCH   4   5
ATOM      5  C   UNL     1     160.684 162.197 185.404  1.00  0.00     0.041 C 
ATOM      6  O   UNL     1     160.683 161.413 184.419  1.00  0.00    -0.550 OA
ATOM      7  O   UNL     1     161.340 163.417 185.310  1.00  0.00    -0.550 OA
ENDBRANCH   4   5
ENDBRANCH   3   4
ENDBRANCH   2   3
ENDBRANCH   1   2
BRANCH   1   8
ATOM      8  C   UNL     1     163.255 162.504 188.357  1.00  0.00     0.000 C 
BRANCH   8   9
ATOM      9  C   UNL     1     162.971 160.994 188.480  1.00  0.00    -0.000 C 
BRANCH   9  10
ATOM     10  C   UNL     1     164.183 160.134 188.882  1.00  0.00    -0.000 C 
BRANCH  10  11
ATOM     11  C   UNL     1     165.523 160.852 188.664  1.00  0.00    -0.000 C 
BRANCH  11  12
ATOM     12  C   UNL     1     166.357 160.860 189.950  1.00  0.00    -0.003 C 
ATOM     13  C   UNL     1     166.613 162.286 190.432  1.00  0.00     0.004 C 
ENDBRANCH  11  12
ENDBRANCH  10  11
ENDBRANCH   9  10
ENDBRANCH   8   9
ENDBRANCH   1   8
TORSDOF 9
ENDMDL
MODEL 5
REMARK VINA RESULT:    -3.570     16.479     18.033
REMARK INTER + INTRA:          -6.116
REMARK INTER:                  -5.398
REMARK INTRA:                  -0.718
REMARK UNBOUND:                -0.668
REMARK SMILES CCCCCCCCCCC(=O)[O-]
REMARK SMILES IDX 7 1 8 2 9 3 10 4 11 5 12 6 13 7 6 8 5 9 4 10 3 11 2 12 1 13
REMARK H PARENT
REMARK Flexibility Score: inf
ROOT
ATOM      1  C   UNL     1     176.408 173.768 189.908  1.00  0.00     0.000 C 
ENDROOT
BRANCH   1   2
ATOM      2  C   UNL     1     177.446 174.902 189.995  1.00  0.00     0.000 C 
BRANCH   2   3
ATOM      3  C   UNL     1     178.860 174.540 189.499  1.00  0.00     0.006 C 
BRANCH   3   4
ATOM      4  C   UNL     1     178.889 173.374 188.495  1.00  0.00     0.053 C 
BRANCH   4   5
ATOM      5  C   UNL     1     179.226 173.822 187.105  1.00  0.00     0.041 C 
ATOM      6  O   UNL     1     178.916 174.979 186.720  1.00  0.00    -0.550 OA
ATOM      7  O   UNL     1     179.916 172.974 186.247  1.00  0.00    -0.550 OA
ENDBRANCH   4   5
ENDBRANCH   3   4
ENDBRANCH   2   3
ENDBRANCH   1   2
BRANCH   1   8
ATOM      8  C   UNL     1     175.231 174.031 188.946  1.00  0.00     0.000 C 
BRANCH   8   9
ATOM      9  C   UNL     1     175.502 175.086 187.855  1.00  0.00    -0.000 C 
BRANCH   9  10
ATOM     10  C   UNL     1     174.244 175.659 187.178  1.00  0.00    -0.000 C 
BRANCH  10  11
ATOM     11  C   UNL     1     174.070 177.165 187.418  1.00  0.00    -0.000 C 
BRANCH  11  12
ATOM     12  C   UNL     1     175.425 177.880 187.424  1.00  0.00    -0.003 C 
ATOM     13  C   UNL     1     175.259 179.375 187.684  1.00  0.00     0.004 C 
ENDBRANCH  11  12
ENDBRANCH  10  11
ENDBRANCH   9  10
ENDBRANCH   8   9
ENDBRANCH   1   8
TORSDOF 9
ENDMDL
MODEL 6
REMARK VINA RESULT:    -3.537     11.633     13.006
REMARK INTER + INTRA:          -6.065
REMARK INTER:                  -5.128
REMARK INTRA:                  -0.937
REMARK UNBOUND:                -0.668
REMARK SMILES CCCCCCCCCCC(=O)[O-]
REMARK SMILES IDX 7 1 8 2 9 3 10 4 11 5 12 6 13 7 6 8 5 9 4 10 3 11 2 12 1 13
REMARK H PARENT
REMARK Flexibility Score: inf
ROOT
ATOM      1  C   UNL     1     175.499 161.390 188.151  1.00  0.00     0.000 C 
ENDROOT
BRANCH   1   2
ATOM      2  C   UNL     1     175.528 160.849 186.710  1.00  0.00     0.000 C 
BRANCH   2   3
ATOM      3  C   UNL     1     175.000 161.816 185.632  1.00  0.00     0.006 C 
BRANCH   3   4
ATOM      4  C   UNL     1     176.021 162.884 185.198  1.00  0.00     0.053 C 
BRANCH   4   5
ATOM      5  C   UNL     1     177.348 162.292 184.828  1.00  0.00     0.041 C 
ATOM      6  O   UNL     1     178.340 162.435 185.590  1.00  0.00    -0.550 OA
ATOM      7  O   UNL     1     177.479 161.550 183.661  1.00  0.00    -0.550 OA
ENDBRANCH   4   5
ENDBRANCH   3   4
ENDBRANCH   2   3
ENDBRANCH   1   2
BRANCH   1   8
ATOM      8  C   UNL     1     176.864 161.415 188.869  1.00  0.00     0.000 C 
BRANCH   8   9
ATOM      9  C   UNL     1     177.178 162.719 189.630  1.00  0.00    -0.000 C 
BRANCH   9  10
ATOM     10  C   UNL     1     176.041 163.757 189.640  1.00  0.00    -0.000 C 
BRANCH  10  11
ATOM     11  C   UNL     1     176.416 165.061 188.921  1.00  0.00    -0.000 C 
BRANCH  11  12
ATOM     12  C   UNL     1     177.457 164.804 187.826  1.00  0.00    -0.003 C 
ATOM     13  C   UNL     1     178.459 165.952 187.738  1.00  0.00     0.004 C 
ENDBRANCH  11  12
ENDBRANCH  10  11
ENDBRANCH   9  10
ENDBRANCH   8   9
ENDBRANCH   1   8
TORSDOF 9
ENDMDL
MODEL 7
REMARK VINA RESULT:    -3.536      2.251      3.869
REMARK INTER + INTRA:          -6.064
REMARK INTER:                  -5.084
REMARK INTRA:                  -0.980
REMARK UNBOUND:                -0.668
REMARK SMILES CCCCCCCCCCC(=O)[O-]
REMARK SMILES IDX 7 1 8 2 9 3 10 4 11 5 12 6 13 7 6 8 5 9 4 10 3 11 2 12 1 13
REMARK H PARENT
REMARK Flexibility Score: inf
ROOT
ATOM      1  C   UNL     1     162.764 162.404 188.546  1.00  0.00     0.000 C 
ENDROOT
BRANCH   1   2
ATOM      2  C   UNL     1     162.958 160.876 188.554  1.00  0.00     0.000 C 
BRANCH   2   3
ATOM      3  C   UNL     1     164.296 160.379 187.973  1.00  0.00     0.006 C 
BRANCH   3   4
ATOM      4  C   UNL     1     165.483 161.320 188.246  1.00  0.00     0.053 C 
BRANCH   4   5
ATOM      5  C   UNL     1     166.516 160.698 189.136  1.00  0.00     0.041 C 
ATOM      6  O   UNL     1     166.253 160.465 190.345  1.00  0.00    -0.550 OA
ATOM      7  O   UNL     1     167.756 160.341 188.623  1.00  0.00    -0.550 OA
ENDBRANCH   4   5
ENDBRANCH   3   4
ENDBRANCH   2   3
ENDBRANCH   1   2
BRANCH   1   8
ATOM      8  C   UNL     1     161.302 162.877 188.406  1.00  0.00     0.000 C 
BRANCH   8   9
ATOM      9  C   UNL     1     160.300 161.786 187.980  1.00  0.00    -0.000 C 
BRANCH   9  10
ATOM     10  C   UNL     1     159.875 161.834 186.502  1.00  0.00    -0.000 C 
BRANCH  10  11
ATOM     11  C   UNL     1     160.708 160.902 185.610  1.00  0.00    -0.000 C 
BRANCH  11  12
ATOM     12  C   UNL     1     161.894 161.650 184.991  1.00  0.00    -0.003 C 
ATOM     13  C   UNL     1     162.789 160.702 184.197  1.00  0.00     0.004 C 
ENDBRANCH  11  12
ENDBRANCH  10  11
ENDBRANCH   9  10
ENDBRANCH   8   9
ENDBRANCH   1   8
TORSDOF 9
ENDMDL
MODEL 8
REMARK VINA RESULT:    -3.519      1.825      3.190
REMARK INTER + INTRA:          -6.038
REMARK INTER:                  -4.939
REMARK INTRA:                  -1.098
REMARK UNBOUND:                -0.668
REMARK SMILES CCCCCCCCCCC(=O)[O-]
REMARK SMILES IDX 7 1 8 2 9 3 10 4 11 5 12 6 13 7 6 8 5 9 4 10 3 11 2 12 1 13
REMARK H PARENT
REMARK Flexibility Score: inf
ROOT
ATOM      1  C   UNL     1     162.941 161.593 186.153  1.00  0.00     0.000 C 
ENDROOT
BRANCH   1   2
ATOM      2  C   UNL     1     163.856 160.641 186.946  1.00  0.00     0.000 C 
BRANCH   2   3
ATOM      3  C   UNL     1     163.632 160.631 188.471  1.00  0.00     0.006 C 
BRANCH   3   4
ATOM      4  C   UNL     1     164.876 160.223 189.281  1.00  0.00     0.053 C 
BRANCH   4   5
ATOM      5  C   UNL     1     166.090 161.018 188.908  1.00  0.00     0.041 C 
ATOM      6  O   UNL     1     167.128 160.435 188.497  1.00  0.00    -0.550 OA
ATOM      7  O   UNL     1     166.064 162.405 188.977  1.00  0.00    -0.550 OA
ENDBRANCH   4   5
ENDBRANCH   3   4
ENDBRANCH   2   3
ENDBRANCH   1   2
BRANCH   1   8
ATOM      8  C   UNL     1     161.556 161.019 185.789  1.00  0.00     0.000 C 
BRANCH   8   9
ATOM      9  C   UNL     1     160.357 161.771 186.398  1.00  0.00    -0.000 C 
BRANCH   9  10
ATOM     10  C   UNL     1     159.875 161.235 187.758  1.00  0.00    -0.000 C 
BRANCH  10  11
ATOM     11  C   UNL     1     160.226 162.168 188.926  1.00  0.00    -0.000 C 
BRANCH  11  12
ATOM     12  C   UNL     1     160.648 163.550 188.417  1.00  0.00    -0.003 C 
ATOM     13  C   UNL     1     162.065 163.895 188.867  1.00  0.00     0.004 C 
ENDBRANCH  11  12
ENDBRANCH  10  11
ENDBRANCH   9  10
ENDBRANCH   8   9
ENDBRANCH   1   8
TORSDOF 9
ENDMDL
MODEL 9
REMARK VINA RESULT:    -3.471      3.362      5.877
REMARK INTER + INTRA:          -5.965
REMARK INTER:                  -5.040
REMARK INTRA:                  -0.925
REMARK UNBOUND:                -0.668
REMARK SMILES CCCCCCCCCCC(=O)[O-]
REMARK SMILES IDX 7 1 8 2 9 3 10 4 11 5 12 6 13 7 6 8 5 9 4 10 3 11 2 12 1 13
REMARK H PARENT
REMARK Flexibility Score: inf
ROOT
ATOM      1  C   UNL     1     164.877 163.063 188.463  1.00  0.00     0.000 C 
ENDROOT
BRANCH   1   2
ATOM      2  C   UNL     1     163.513 163.639 188.889  1.00  0.00     0.000 C 
BRANCH   2   3
ATOM      3  C   UNL     1     162.297 162.738 188.597  1.00  0.00     0.006 C 
BRANCH   3   4
ATOM      4  C   UNL     1     162.665 161.373 187.987  1.00  0.00     0.053 C 
BRANCH   4   5
ATOM      5  C   UNL     1     162.035 161.156 186.644  1.00  0.00     0.041 C 
ATOM      6  O   UNL     1     162.705 160.656 185.703  1.00  0.00    -0.550 OA
ATOM      7  O   UNL     1     160.698 161.472 186.442  1.00  0.00    -0.550 OA
ENDBRANCH   4   5
ENDBRANCH   3   4
ENDBRANCH   2   3
ENDBRANCH   1   2
BRANCH   1   8
ATOM      8  C   UNL     1     165.956 163.055 189.565  1.00  0.00     0.000 C 
BRANCH   8   9
ATOM      9  C   UNL     1     166.355 161.657 190.079  1.00  0.00    -0.000 C 
BRANCH   9  10
ATOM     10  C   UNL     1     166.539 160.590 188.986  1.00  0.00    -0.000 C 
BRANCH  10  11
ATOM     11  C   UNL     1     167.834 160.775 188.182  1.00  0.00    -0.000 C 
BRANCH  11  12
ATOM     12  C   UNL     1     167.652 160.306 186.734  1.00  0.00    -0.003 C 
ATOM     13  C   UNL     1     166.179 160.303 186.335  1.00  0.00     0.004 C 
ENDBRANCH  11  12
ENDBRANCH  10  11
ENDBRANCH   9  10
ENDBRANCH   8   9
ENDBRANCH   1   8
TORSDOF 9
ENDMDL
