MODEL 1
REMARK VINA RESULT:    -4.206      0.000      0.000
REMARK INTER + INTRA:          -5.740
REMARK INTER:                  -6.174
REMARK INTRA:                   0.433
REMARK UNBOUND:                 0.433
REMARK SMILES C=C1CC=CC(C)(C)CC=C(C)CCC1
REMARK SMILES IDX 2 1 1 2 15 3 14 4 13 5 11 6 12 7 10 8 3 10 4 11 5 12 6 13
REMARK SMILES IDX 7 14 8 15 9 16
REMARK H PARENT
REMARK Flexibility Score: 60.00
ROOT
ATOM      1  C   UNL     1     147.819 148.860 159.703  1.00  0.00    -0.074 C 
ATOM      2  C   UNL     1     147.139 148.706 158.552  1.00  0.00     0.008 C 
ENDROOT
BRANCH   1   3
ATOM      3  C   UNL     1     149.003 147.949 159.991  1.00  0.00     0.031 C 
BRANCH   3   4
ATOM      4  C   UNL     1     148.644 146.455 159.967  1.00  0.00     0.009 C 
BRANCH   4   5
ATOM      5  C   UNL     1     147.715 146.025 161.121  1.00  0.00     0.030 C 
BRANCH   5   6
ATOM      6  C   UNL     1     148.354 146.296 162.474  1.00  0.00    -0.077 C 
ATOM      7  C   UNL     1     149.718 145.724 162.762  1.00  0.00     0.039 C 
ATOM      8  C   UNL     1     147.764 147.054 163.431  1.00  0.00    -0.027 CG0
ATOM      9  G   UNL     1     146.383 147.665 163.318  1.00  0.00     0.000 G0
ENDBRANCH   5   6
ENDBRANCH   4   5
ENDBRANCH   3   4
ENDBRANCH   1   3
BRANCH   1  10
ATOM     10  C   UNL     1     147.545 150.043 160.618  1.00  0.00     0.057 C 
BRANCH  10  11
ATOM     11  C   UNL     1     146.112 150.170 161.107  1.00  0.00    -0.026 C 
ATOM     12  C   UNL     1     145.589 149.850 162.317  1.00  0.00    -0.024 C 
BRANCH  12  13
ATOM     13  C   UNL     1     146.274 149.208 163.533  1.00  0.00    -0.014 C 
ATOM     14  C   UNL     1     145.382 149.475 164.771  1.00  0.00     0.016 C 
ATOM     15  C   UNL     1     147.640 149.884 163.810  1.00  0.00     0.016 C 
BRANCH  13  16
ATOM     16  C   UNL     1     146.366 147.665 163.326  1.00  0.00     0.038 CG0
ATOM     17  G   UNL     1     147.762 147.090 163.446  1.00  0.00     0.000 G0
ENDBRANCH  13  16
ENDBRANCH  12  13
ENDBRANCH  10  11
ENDBRANCH   1  10
TORSDOF 0
ENDMDL
MODEL 2
REMARK VINA RESULT:    -3.906      4.347      6.587
REMARK INTER + INTRA:          -5.299
REMARK INTER:                  -5.703
REMARK INTRA:                   0.404
REMARK UNBOUND:                 0.433
REMARK SMILES C=C1CC=CC(C)(C)CC=C(C)CCC1
REMARK SMILES IDX 2 1 1 2 15 3 14 4 13 5 11 6 12 7 10 8 3 10 4 11 5 12 6 13
REMARK SMILES IDX 7 14 8 15 9 16
REMARK H PARENT
REMARK Flexibility Score: 60.00
ROOT
ATOM      1  C   UNL     1     141.039 147.073 164.746  1.00  0.00    -0.074 C 
ATOM      2  C   UNL     1     140.124 147.922 165.249  1.00  0.00     0.008 C 
ENDROOT
BRANCH   1   3
ATOM      3  C   UNL     1     140.572 145.779 164.097  1.00  0.00     0.031 C 
BRANCH   3   4
ATOM      4  C   UNL     1     140.089 145.961 162.650  1.00  0.00     0.009 C 
BRANCH   4   5
ATOM      5  C   UNL     1     141.130 145.534 161.594  1.00  0.00     0.030 C 
BRANCH   5   6
ATOM      6  C   UNL     1     141.774 146.744 160.935  1.00  0.00    -0.077 C 
ATOM      7  C   UNL     1     140.889 147.770 160.276  1.00  0.00     0.039 C 
ATOM      8  C   UNL     1     143.113 146.959 160.933  1.00  0.00    -0.027 CG0
ATOM      9  G   UNL     1     144.140 146.009 161.512  1.00  0.00     0.000 G0
ENDBRANCH   5   6
ENDBRANCH   4   5
ENDBRANCH   3   4
ENDBRANCH   1   3
BRANCH   1  10
ATOM     10  C   UNL     1     142.502 147.476 164.647  1.00  0.00     0.057 C 
BRANCH  10  11
ATOM     11  C   UNL     1     143.502 146.346 164.817  1.00  0.00    -0.026 C 
ATOM     12  C   UNL     1     144.551 146.003 164.026  1.00  0.00    -0.024 C 
BRANCH  12  13
ATOM     13  C   UNL     1     145.005 146.619 162.695  1.00  0.00    -0.014 C 
ATOM     14  C   UNL     1     146.484 146.218 162.471  1.00  0.00     0.016 C 
ATOM     15  C   UNL     1     144.965 148.166 162.766  1.00  0.00     0.016 C 
BRANCH  13  16
ATOM     16  C   UNL     1     144.159 146.022 161.529  1.00  0.00     0.038 CG0
ATOM     17  G   UNL     1     143.136 146.968 160.934  1.00  0.00     0.000 G0
ENDBRANCH  13  16
ENDBRANCH  12  13
ENDBRANCH  10  11
ENDBRANCH   1  10
TORSDOF 0
ENDMDL
MODEL 3
REMARK VINA RESULT:    -3.896      5.364      7.067
REMARK INTER + INTRA:          -5.285
REMARK INTER:                  -5.633
REMARK INTRA:                   0.348
REMARK UNBOUND:                 0.433
REMARK SMILES C=C1CC=CC(C)(C)CC=C(C)CCC1
REMARK SMILES IDX 2 1 1 2 15 3 14 4 13 5 11 6 12 7 10 8 3 10 4 11 5 12 6 13
REMARK SMILES IDX 7 14 8 15 9 16
REMARK H PARENT
REMARK Flexibility Score: 60.00
ROOT
ATOM      1  C   UNL     1     144.478 141.446 164.475  1.00  0.00    -0.074 C 
ATOM      2  C   UNL     1     144.252 140.157 164.786  1.00  0.00     0.008 C 
ENDROOT
BRANCH   1   3
ATOM      3  C   UNL     1     145.609 141.792 163.519  1.00  0.00     0.031 C 
BRANCH   3   4
ATOM      4  C   UNL     1     145.500 141.082 162.160  1.00  0.00     0.009 C 
BRANCH   4   5
ATOM      5  C   UNL     1     145.147 142.031 160.996  1.00  0.00     0.030 C 
BRANCH   5   6
ATOM      6  C   UNL     1     143.650 142.288 160.929  1.00  0.00    -0.077 C 
ATOM      7  C   UNL     1     142.755 141.225 160.346  1.00  0.00     0.039 C 
ATOM      8  C   UNL     1     143.073 143.424 161.394  1.00  0.00    -0.027 CG0
ATOM      9  G   UNL     1     143.831 144.603 161.968  1.00  0.00     0.000 G0
ENDBRANCH   5   6
ENDBRANCH   4   5
ENDBRANCH   3   4
ENDBRANCH   1   3
BRANCH   1  10
ATOM     10  C   UNL     1     143.506 142.533 164.909  1.00  0.00     0.057 C 
BRANCH  10  11
ATOM     11  C   UNL     1     144.124 143.899 165.157  1.00  0.00    -0.026 C 
ATOM     12  C   UNL     1     143.956 145.054 164.466  1.00  0.00    -0.024 C 
BRANCH  12  13
ATOM     13  C   UNL     1     143.137 145.312 163.192  1.00  0.00    -0.014 C 
ATOM     14  C   UNL     1     143.141 146.840 162.932  1.00  0.00     0.016 C 
ATOM     15  C   UNL     1     141.660 144.895 163.398  1.00  0.00     0.016 C 
BRANCH  13  16
ATOM     16  C   UNL     1     143.824 144.613 161.979  1.00  0.00     0.038 CG0
ATOM     17  G   UNL     1     143.067 143.430 161.414  1.00  0.00     0.000 G0
ENDBRANCH  13  16
ENDBRANCH  12  13
ENDBRANCH  10  11
ENDBRANCH   1  10
TORSDOF 0
ENDMDL
MODEL 4
REMARK VINA RESULT:    -3.872      1.687      4.487
REMARK INTER + INTRA:          -5.249
REMARK INTER:                  -5.664
REMARK INTRA:                   0.415
REMARK UNBOUND:                 0.433
REMARK SMILES C=C1CC=CC(C)(C)CC=C(C)CCC1
REMARK SMILES IDX 2 1 1 2 15 3 14 4 13 5 11 6 12 7 10 8 3 10 4 11 5 12 6 13
REMARK SMILES IDX 7 14 8 15 9 16
REMARK H PARENT
REMARK Flexibility Score: 60.00
ROOT
ATOM      1  C   UNL     1     146.941 149.270 164.562  1.00  0.00    -0.074 C 
ATOM      2  C   UNL     1     147.774 150.275 164.887  1.00  0.00     0.008 C 
ENDROOT
BRANCH   1   3
ATOM      3  C   UNL     1     145.621 149.592 163.878  1.00  0.00     0.031 C 
BRANCH   3   4
ATOM      4  C   UNL     1     145.774 150.508 162.654  1.00  0.00     0.009 C 
BRANCH   4   5
ATOM      5  C   UNL     1     145.528 149.790 161.312  1.00  0.00     0.030 C 
BRANCH   5   6
ATOM      6  C   UNL     1     146.734 148.959 160.903  1.00  0.00    -0.077 C 
ATOM      7  C   UNL     1     147.912 149.650 160.266  1.00  0.00     0.039 C 
ATOM      8  C   UNL     1     146.813 147.620 161.107  1.00  0.00    -0.027 CG0
ATOM      9  G   UNL     1     145.705 146.771 161.694  1.00  0.00     0.000 G0
ENDBRANCH   5   6
ENDBRANCH   4   5
ENDBRANCH   3   4
ENDBRANCH   1   3
BRANCH   1  10
ATOM     10  C   UNL     1     147.382 147.820 164.693  1.00  0.00     0.057 C 
BRANCH  10  11
ATOM     11  C   UNL     1     146.265 146.816 164.916  1.00  0.00    -0.026 C 
ATOM     12  C   UNL     1     145.775 145.877 164.068  1.00  0.00    -0.024 C 
BRANCH  12  13
ATOM     13  C   UNL     1     146.163 145.589 162.610  1.00  0.00    -0.014 C 
ATOM     14  C   UNL     1     145.407 144.311 162.166  1.00  0.00     0.016 C 
ATOM     15  C   UNL     1     147.676 145.277 162.498  1.00  0.00     0.016 C 
BRANCH  13  16
ATOM     16  C   UNL     1     145.696 146.768 161.702  1.00  0.00     0.038 CG0
ATOM     17  G   UNL     1     146.815 147.609 161.126  1.00  0.00     0.000 G0
ENDBRANCH  13  16
ENDBRANCH  12  13
ENDBRANCH  10  11
ENDBRANCH   1  10
TORSDOF 0
ENDMDL
MODEL 5
REMARK VINA RESULT:    -3.864      2.073      4.394
REMARK INTER + INTRA:          -5.237
REMARK INTER:                  -5.577
REMARK INTRA:                   0.339
REMARK UNBOUND:                 0.433
REMARK SMILES C=C1CC=CC(C)(C)CC=C(C)CCC1
REMARK SMILES IDX 2 1 1 2 15 3 14 4 13 5 11 6 12 7 10 8 3 10 4 11 5 12 6 13
REMARK SMILES IDX 7 14 8 15 9 16
REMARK H PARENT
REMARK Flexibility Score: 60.00
ROOT
ATOM      1  C   UNL     1     148.280 144.677 164.802  1.00  0.00    -0.074 C 
ATOM      2  C   UNL     1     147.937 143.445 165.218  1.00  0.00     0.008 C 
ENDROOT
BRANCH   1   3
ATOM      3  C   UNL     1     149.753 145.040 164.694  1.00  0.00     0.031 C 
BRANCH   3   4
ATOM      4  C   UNL     1     150.440 144.446 163.454  1.00  0.00     0.009 C 
BRANCH   4   5
ATOM      5  C   UNL     1     150.381 145.366 162.217  1.00  0.00     0.030 C 
BRANCH   5   6
ATOM      6  C   UNL     1     149.308 144.907 161.241  1.00  0.00    -0.077 C 
ATOM      7  C   UNL     1     149.227 143.446 160.883  1.00  0.00     0.039 C 
ATOM      8  C   UNL     1     148.398 145.750 160.693  1.00  0.00    -0.027 CG0
ATOM      9  G   UNL     1     148.367 147.248 160.915  1.00  0.00     0.000 G0
ENDBRANCH   5   6
ENDBRANCH   4   5
ENDBRANCH   3   4
ENDBRANCH   1   3
BRANCH   1  10
ATOM     10  C   UNL     1     147.231 145.636 164.260  1.00  0.00     0.057 C 
BRANCH  10  11
ATOM     11  C   UNL     1     147.634 147.101 164.242  1.00  0.00    -0.026 C 
ATOM     12  C   UNL     1     147.580 147.991 163.220  1.00  0.00    -0.024 C 
BRANCH  12  13
ATOM     13  C   UNL     1     147.152 147.771 161.761  1.00  0.00    -0.014 C 
ATOM     14  C   UNL     1     146.735 149.145 161.180  1.00  0.00     0.016 C 
ATOM     15  C   UNL     1     145.905 146.856 161.690  1.00  0.00     0.016 C 
BRANCH  13  16
ATOM     16  C   UNL     1     148.366 147.244 160.936  1.00  0.00     0.038 CG0
ATOM     17  G   UNL     1     148.378 145.747 160.706  1.00  0.00     0.000 G0
ENDBRANCH  13  16
ENDBRANCH  12  13
ENDBRANCH  10  11
ENDBRANCH   1  10
TORSDOF 0
ENDMDL
MODEL 6
REMARK VINA RESULT:    -3.863      3.430      5.209
REMARK INTER + INTRA:          -5.237
REMARK INTER:                  -5.616
REMARK INTRA:                   0.379
REMARK UNBOUND:                 0.433
REMARK SMILES C=C1CC=CC(C)(C)CC=C(C)CCC1
REMARK SMILES IDX 2 1 1 2 15 3 14 4 13 5 11 6 12 7 10 8 3 10 4 11 5 12 6 13
REMARK SMILES IDX 7 14 8 15 9 16
REMARK H PARENT
REMARK Flexibility Score: 60.00
ROOT
ATOM      1  C   UNL     1     149.705 143.701 164.583  1.00  0.00    -0.074 C 
ATOM      2  C   UNL     1     150.416 142.603 164.897  1.00  0.00     0.008 C 
ENDROOT
BRANCH   1   3
ATOM      3  C   UNL     1     150.429 144.925 164.042  1.00  0.00     0.031 C 
BRANCH   3   4
ATOM      4  C   UNL     1     150.808 144.804 162.558  1.00  0.00     0.009 C 
BRANCH   4   5
ATOM      5  C   UNL     1     149.750 145.393 161.602  1.00  0.00     0.030 C 
BRANCH   5   6
ATOM      6  C   UNL     1     148.958 144.293 160.912  1.00  0.00    -0.077 C 
ATOM      7  C   UNL     1     149.704 143.149 160.276  1.00  0.00     0.039 C 
ATOM      8  C   UNL     1     147.603 144.278 160.862  1.00  0.00    -0.027 CG0
ATOM      9  G   UNL     1     146.707 145.368 161.414  1.00  0.00     0.000 G0
ENDBRANCH   5   6
ENDBRANCH   4   5
ENDBRANCH   3   4
ENDBRANCH   1   3
BRANCH   1  10
ATOM     10  C   UNL     1     148.184 143.669 164.580  1.00  0.00     0.057 C 
BRANCH  10  11
ATOM     11  C   UNL     1     147.503 145.022 164.691  1.00  0.00    -0.026 C 
ATOM     12  C   UNL     1     146.526 145.555 163.915  1.00  0.00    -0.024 C 
BRANCH  12  13
ATOM     13  C   UNL     1     145.858 144.975 162.659  1.00  0.00    -0.014 C 
ATOM     14  C   UNL     1     144.457 145.624 162.529  1.00  0.00     0.016 C 
ATOM     15  C   UNL     1     145.635 143.451 162.813  1.00  0.00     0.016 C 
BRANCH  13  16
ATOM     16  C   UNL     1     146.691 145.365 161.399  1.00  0.00     0.038 CG0
ATOM     17  G   UNL     1     147.599 144.272 160.874  1.00  0.00     0.000 G0
ENDBRANCH  13  16
ENDBRANCH  12  13
ENDBRANCH  10  11
ENDBRANCH   1  10
TORSDOF 0
ENDMDL
MODEL 7
REMARK VINA RESULT:    -3.820      3.153      5.771
REMARK INTER + INTRA:          -5.174
REMARK INTER:                  -5.572
REMARK INTRA:                   0.398
REMARK UNBOUND:                 0.433
REMARK SMILES C=C1CC=CC(C)(C)CC=C(C)CCC1
REMARK SMILES IDX 2 1 1 2 15 3 14 4 13 5 11 6 12 7 10 8 3 10 4 11 5 12 6 13
REMARK SMILES IDX 7 14 8 15 9 16
REMARK H PARENT
REMARK Flexibility Score: 60.00
ROOT
ATOM      1  C   UNL     1     150.252 144.313 163.617  1.00  0.00    -0.074 C 
ATOM      2  C   UNL     1     150.808 145.055 164.591  1.00  0.00     0.008 C 
ENDROOT
BRANCH   1   3
ATOM      3  C   UNL     1     149.487 143.052 163.990  1.00  0.00     0.031 C 
BRANCH   3   4
ATOM      4  C   UNL     1     148.393 143.289 165.042  1.00  0.00     0.009 C 
BRANCH   4   5
ATOM      5  C   UNL     1     146.978 143.421 164.442  1.00  0.00     0.030 C 
BRANCH   5   6
ATOM      6  C   UNL     1     146.786 144.776 163.778  1.00  0.00    -0.077 C 
ATOM      7  C   UNL     1     146.632 145.997 164.647  1.00  0.00     0.039 C 
ATOM      8  C   UNL     1     146.772 144.944 162.433  1.00  0.00    -0.027 CG0
ATOM      9  G   UNL     1     146.872 143.821 161.422  1.00  0.00     0.000 G0
ENDBRANCH   5   6
ENDBRANCH   4   5
ENDBRANCH   3   4
ENDBRANCH   1   3
BRANCH   1  10
ATOM     10  C   UNL     1     150.213 144.815 162.182  1.00  0.00     0.057 C 
BRANCH  10  11
ATOM     11  C   UNL     1     150.115 143.737 161.116  1.00  0.00    -0.026 C 
ATOM     12  C   UNL     1     149.100 143.472 160.256  1.00  0.00    -0.024 C 
BRANCH  12  13
ATOM     13  C   UNL     1     147.723 144.143 160.143  1.00  0.00    -0.014 C 
ATOM     14  C   UNL     1     147.004 143.537 158.912  1.00  0.00     0.016 C 
ATOM     15  C   UNL     1     147.875 145.660 159.871  1.00  0.00     0.016 C 
BRANCH  13  16
ATOM     16  C   UNL     1     146.876 143.814 161.410  1.00  0.00     0.038 CG0
ATOM     17  G   UNL     1     146.765 144.944 162.413  1.00  0.00     0.000 G0
ENDBRANCH  13  16
ENDBRANCH  12  13
ENDBRANCH  10  11
ENDBRANCH   1  10
TORSDOF 0
ENDMDL
MODEL 8
REMARK VINA RESULT:    -3.778      4.672      6.298
REMARK INTER + INTRA:          -5.112
REMARK INTER:                  -5.544
REMARK INTRA:                   0.432
REMARK UNBOUND:                 0.433
REMARK SMILES C=C1CC=CC(C)(C)CC=C(C)CCC1
REMARK SMILES IDX 2 1 1 2 15 3 14 4 13 5 11 6 12 7 10 8 3 10 4 11 5 12 6 13
REMARK SMILES IDX 7 14 8 15 9 16
REMARK H PARENT
REMARK Flexibility Score: 60.00
ROOT
ATOM      1  C   UNL     1     145.762 141.702 162.379  1.00  0.00    -0.074 C 
ATOM      2  C   UNL     1     145.168 140.504 162.528  1.00  0.00     0.008 C 
ENDROOT
BRANCH   1   3
ATOM      3  C   UNL     1     145.427 142.550 161.162  1.00  0.00     0.031 C 
BRANCH   3   4
ATOM      4  C   UNL     1     146.035 142.013 159.857  1.00  0.00     0.009 C 
BRANCH   4   5
ATOM      5  C   UNL     1     147.550 141.738 159.949  1.00  0.00     0.030 C 
BRANCH   5   6
ATOM      6  C   UNL     1     148.356 142.998 159.674  1.00  0.00    -0.077 C 
ATOM      7  C   UNL     1     148.196 143.689 158.345  1.00  0.00     0.039 C 
ATOM      8  C   UNL     1     149.199 143.549 160.583  1.00  0.00    -0.027 CG0
ATOM      9  G   UNL     1     149.504 142.960 161.944  1.00  0.00     0.000 G0
ENDBRANCH   5   6
ENDBRANCH   4   5
ENDBRANCH   3   4
ENDBRANCH   1   3
BRANCH   1  10
ATOM     10  C   UNL     1     146.606 142.296 163.497  1.00  0.00     0.057 C 
BRANCH  10  11
ATOM     11  C   UNL     1     146.820 143.798 163.424  1.00  0.00    -0.026 C 
ATOM     12  C   UNL     1     147.973 144.492 163.251  1.00  0.00    -0.024 C 
BRANCH  12  13
ATOM     13  C   UNL     1     149.412 143.970 163.134  1.00  0.00    -0.014 C 
ATOM     14  C   UNL     1     149.741 143.200 164.438  1.00  0.00     0.016 C 
ATOM     15  C   UNL     1     150.416 145.147 163.044  1.00  0.00     0.016 C 
BRANCH  13  16
ATOM     16  C   UNL     1     149.509 142.969 161.943  1.00  0.00     0.038 CG0
ATOM     17  G   UNL     1     149.187 143.560 160.586  1.00  0.00     0.000 G0
ENDBRANCH  13  16
ENDBRANCH  12  13
ENDBRANCH  10  11
ENDBRANCH   1  10
TORSDOF 0
ENDMDL
MODEL 9
REMARK VINA RESULT:    -3.750      4.129      5.177
REMARK INTER + INTRA:          -5.070
REMARK INTER:                  -5.861
REMARK INTRA:                   0.791
REMARK UNBOUND:                 0.433
REMARK SMILES C=C1CC=CC(C)(C)CC=C(C)CCC1
REMARK SMILES IDX 2 1 1 2 15 3 14 4 13 5 11 6 12 7 10 8 3 10 4 11 5 12 6 13
REMARK SMILES IDX 7 14 8 15 9 16
REMARK H PARENT
REMARK Flexibility Score: 60.00
ROOT
ATOM      1  C   UNL     1     149.136 144.007 161.101  1.00  0.00    -0.074 C 
ATOM      2  C   UNL     1     149.855 143.138 160.367  1.00  0.00     0.008 C 
ENDROOT
BRANCH   1   3
ATOM      3  C   UNL     1     149.816 145.249 161.657  1.00  0.00     0.031 C 
BRANCH   3   4
ATOM      4  C   UNL     1     150.399 145.049 163.064  1.00  0.00     0.009 C 
BRANCH   4   5
ATOM      5  C   UNL     1     149.373 145.272 164.194  1.00  0.00     0.030 C 
BRANCH   5   6
ATOM      6  C   UNL     1     148.982 143.956 164.850  1.00  0.00    -0.077 C 
ATOM      7  C   UNL     1     150.070 143.030 165.327  1.00  0.00     0.039 C 
ATOM      8  C   UNL     1     147.693 143.584 165.050  1.00  0.00    -0.027 CG0
ATOM      9  G   UNL     1     146.486 144.378 164.594  1.00  0.00     0.000 G0
ENDBRANCH   5   6
ENDBRANCH   4   5
ENDBRANCH   3   4
ENDBRANCH   1   3
BRANCH   1  10
ATOM     10  C   UNL     1     147.626 143.864 161.217  1.00  0.00     0.057 C 
BRANCH  10  11
ATOM     11  C   UNL     1     147.143 142.608 161.921  1.00  0.00    -0.026 C 
ATOM     12  C   UNL     1     146.239 142.482 162.926  1.00  0.00    -0.024 C 
BRANCH  12  13
ATOM     13  C   UNL     1     145.480 143.575 163.690  1.00  0.00    -0.014 C 
ATOM     14  C   UNL     1     144.452 142.876 164.615  1.00  0.00     0.016 C 
ATOM     15  C   UNL     1     144.671 144.465 162.714  1.00  0.00     0.016 C 
BRANCH  13  16
ATOM     16  C   UNL     1     146.475 144.372 164.588  1.00  0.00     0.038 CG0
ATOM     17  G   UNL     1     147.685 143.586 165.049  1.00  0.00     0.000 G0
ENDBRANCH  13  16
ENDBRANCH  12  13
ENDBRANCH  10  11
ENDBRANCH   1  10
TORSDOF 0
ENDMDL
