MODEL 1
REMARK VINA RESULT:    -6.027      0.000      0.000
REMARK INTER + INTRA:          -7.555
REMARK INTER:                  -7.436
REMARK INTRA:                  -0.119
REMARK UNBOUND:                -0.119
REMARK SMILES CCOC(=O)c1ccc(O)c(O)c1
REMARK SMILES IDX 4 1 5 2 3 3 2 4 1 5 6 6 13 7 7 8 11 9 8 10 9 11 12 12 10 14
REMARK H PARENT 12 13 10 15
REMARK Flexibility Score: inf
ROOT
ATOM      1  C   UNL     1       7.815  -7.198 -10.177  1.00  0.00     0.338 C 
ATOM      2  O   UNL     1       8.169  -8.379 -10.453  1.00  0.00    -0.246 OA
ENDROOT
BRANCH   1   3
ATOM      3  O   UNL     1       8.685  -6.132 -10.426  1.00  0.00    -0.462 OA
BRANCH   3   4
ATOM      4  C   UNL     1      10.028  -6.318 -10.859  1.00  0.00     0.230 C 
ATOM      5  C   UNL     1      10.865  -5.116 -10.454  1.00  0.00     0.049 C 
ENDBRANCH   3   4
ENDBRANCH   1   3
BRANCH   1   6
ATOM      6  C   UNL     1       6.482  -6.940  -9.591  1.00  0.00     0.064 A 
ATOM      7  C   UNL     1       5.319  -7.047 -10.375  1.00  0.00     0.065 A 
ATOM      8  C   UNL     1       6.360  -6.582  -8.238  1.00  0.00     0.020 A 
ATOM      9  C   UNL     1       4.056  -6.801  -9.816  1.00  0.00     0.158 A 
ATOM     10  C   UNL     1       5.102  -6.337  -7.680  1.00  0.00     0.051 A 
ATOM     11  C   UNL     1       3.948  -6.446  -8.466  1.00  0.00     0.157 A 
BRANCH   9  12
ATOM     12  O   UNL     1       2.906  -6.908 -10.595  1.00  0.00    -0.504 OA
ATOM     13  H   UNL     1       2.954  -6.985 -11.605  1.00  0.00     0.293 HD
ENDBRANCH   9  12
BRANCH  11  14
ATOM     14  O   UNL     1       2.692  -6.203  -7.914  1.00  0.00    -0.504 OA
ATOM     15  H   UNL     1       1.840  -6.450  -8.405  1.00  0.00     0.293 HD
ENDBRANCH  11  14
ENDBRANCH   1   6
TORSDOF 5
ENDMDL
MODEL 2
REMARK VINA RESULT:    -5.958      3.118      7.402
REMARK INTER + INTRA:          -7.470
REMARK INTER:                  -7.336
REMARK INTRA:                  -0.134
REMARK UNBOUND:                -0.119
REMARK SMILES CCOC(=O)c1ccc(O)c(O)c1
REMARK SMILES IDX 4 1 5 2 3 3 2 4 1 5 6 6 13 7 7 8 11 9 8 10 9 11 12 12 10 14
REMARK H PARENT 12 13 10 15
REMARK Flexibility Score: inf
ROOT
ATOM      1  C   UNL     1      10.195  -6.879 -11.057  1.00  0.00     0.338 C 
ATOM      2  O   UNL     1      10.447  -8.110 -11.175  1.00  0.00    -0.246 OA
ENDROOT
BRANCH   1   3
ATOM      3  O   UNL     1       9.010  -6.464 -10.441  1.00  0.00    -0.462 OA
BRANCH   3   4
ATOM      4  C   UNL     1       7.916  -7.343 -10.204  1.00  0.00     0.230 C 
ATOM      5  C   UNL     1       6.672  -6.533  -9.880  1.00  0.00     0.049 C 
ENDBRANCH   3   4
ENDBRANCH   1   3
BRANCH   1   6
ATOM      6  C   UNL     1      11.151  -5.872 -11.569  1.00  0.00     0.064 A 
ATOM      7  C   UNL     1      12.024  -6.183 -12.627  1.00  0.00     0.065 A 
ATOM      8  C   UNL     1      11.199  -4.587 -11.001  1.00  0.00     0.020 A 
ATOM      9  C   UNL     1      12.929  -5.225 -13.109  1.00  0.00     0.158 A 
ATOM     10  C   UNL     1      12.099  -3.633 -11.481  1.00  0.00     0.051 A 
ATOM     11  C   UNL     1      12.966  -3.949 -12.535  1.00  0.00     0.157 A 
BRANCH   9  12
ATOM     12  O   UNL     1      13.793  -5.536 -14.158  1.00  0.00    -0.504 OA
ATOM     13  H   UNL     1      14.800  -5.513 -14.040  1.00  0.00     0.293 HD
ENDBRANCH   9  12
BRANCH  11  14
ATOM     14  O   UNL     1      13.866  -3.000 -13.017  1.00  0.00    -0.504 OA
ATOM     15  H   UNL     1      14.803  -3.258 -13.307  1.00  0.00     0.293 HD
ENDBRANCH  11  14
ENDBRANCH   1   6
TORSDOF 5
ENDMDL
MODEL 3
REMARK VINA RESULT:    -5.950      4.803      8.691
REMARK INTER + INTRA:          -7.460
REMARK INTER:                  -7.217
REMARK INTRA:                  -0.243
REMARK UNBOUND:                -0.119
REMARK SMILES CCOC(=O)c1ccc(O)c(O)c1
REMARK SMILES IDX 4 1 5 2 3 3 2 4 1 5 6 6 13 7 7 8 11 9 8 10 9 11 12 12 10 14
REMARK H PARENT 12 13 10 15
REMARK Flexibility Score: inf
ROOT
ATOM      1  C   UNL     1      11.274  -4.687 -11.477  1.00  0.00     0.338 C 
ATOM      2  O   UNL     1      11.433  -4.005 -10.426  1.00  0.00    -0.246 OA
ENDROOT
BRANCH   1   3
ATOM      3  O   UNL     1      10.093  -5.411 -11.668  1.00  0.00    -0.462 OA
BRANCH   3   4
ATOM      4  C   UNL     1       9.689  -6.468 -10.805  1.00  0.00     0.230 C 
ATOM      5  C   UNL     1      10.430  -7.742 -11.178  1.00  0.00     0.049 C 
ENDBRANCH   3   4
ENDBRANCH   1   3
BRANCH   1   6
ATOM      6  C   UNL     1      12.335  -4.722 -12.508  1.00  0.00     0.064 A 
ATOM      7  C   UNL     1      12.429  -5.801 -13.406  1.00  0.00     0.065 A 
ATOM      8  C   UNL     1      13.266  -3.674 -12.602  1.00  0.00     0.020 A 
ATOM      9  C   UNL     1      13.437  -5.830 -14.382  1.00  0.00     0.158 A 
ATOM     10  C   UNL     1      14.270  -3.702 -13.574  1.00  0.00     0.051 A 
ATOM     11  C   UNL     1      14.358  -4.779 -14.466  1.00  0.00     0.157 A 
BRANCH   9  12
ATOM     12  O   UNL     1      13.527  -6.900 -15.270  1.00  0.00    -0.504 OA
ATOM     13  H   UNL     1      14.055  -6.830 -16.133  1.00  0.00     0.293 HD
ENDBRANCH   9  12
BRANCH  11  14
ATOM     14  O   UNL     1      15.357  -4.812 -15.437  1.00  0.00    -0.504 OA
ATOM     15  H   UNL     1      15.140  -4.728 -16.423  1.00  0.00     0.293 HD
ENDBRANCH  11  14
ENDBRANCH   1   6
TORSDOF 5
ENDMDL
MODEL 4
REMARK VINA RESULT:    -5.875      2.496      6.106
REMARK INTER + INTRA:          -7.367
REMARK INTER:                  -7.133
REMARK INTRA:                  -0.234
REMARK UNBOUND:                -0.119
REMARK SMILES CCOC(=O)c1ccc(O)c(O)c1
REMARK SMILES IDX 4 1 5 2 3 3 2 4 1 5 6 6 13 7 7 8 11 9 8 10 9 11 12 12 10 14
REMARK H PARENT 12 13 10 15
REMARK Flexibility Score: inf
ROOT
ATOM      1  C   UNL     1       1.860  -5.969  -8.332  1.00  0.00     0.338 C 
ATOM      2  O   UNL     1       1.010  -6.854  -8.033  1.00  0.00    -0.246 OA
ENDROOT
BRANCH   1   3
ATOM      3  O   UNL     1       1.561  -4.617  -8.130  1.00  0.00    -0.462 OA
BRANCH   3   4
ATOM      4  C   UNL     1       0.260  -4.077  -8.331  1.00  0.00     0.230 C 
ATOM      5  C   UNL     1       0.014  -3.879  -9.817  1.00  0.00     0.049 C 
ENDBRANCH   3   4
ENDBRANCH   1   3
BRANCH   1   6
ATOM      6  C   UNL     1       3.171  -6.357  -8.897  1.00  0.00     0.064 A 
ATOM      7  C   UNL     1       4.334  -6.317  -8.107  1.00  0.00     0.065 A 
ATOM      8  C   UNL     1       3.271  -6.772 -10.236  1.00  0.00     0.020 A 
ATOM      9  C   UNL     1       5.576  -6.686  -8.646  1.00  0.00     0.158 A 
ATOM     10  C   UNL     1       4.507  -7.140 -10.774  1.00  0.00     0.051 A 
ATOM     11  C   UNL     1       5.661  -7.098  -9.982  1.00  0.00     0.157 A 
BRANCH   9  12
ATOM     12  O   UNL     1       6.726  -6.645  -7.861  1.00  0.00    -0.504 OA
ATOM     13  H   UNL     1       6.826  -7.225  -7.035  1.00  0.00     0.293 HD
ENDBRANCH   9  12
BRANCH  11  14
ATOM     14  O   UNL     1       6.897  -7.464 -10.513  1.00  0.00    -0.504 OA
ATOM     15  H   UNL     1       6.980  -8.208 -11.197  1.00  0.00     0.293 HD
ENDBRANCH  11  14
ENDBRANCH   1   6
TORSDOF 5
ENDMDL
MODEL 5
REMARK VINA RESULT:    -5.834      0.805      1.834
REMARK INTER + INTRA:          -7.317
REMARK INTER:                  -7.198
REMARK INTRA:                  -0.119
REMARK UNBOUND:                -0.119
REMARK SMILES CCOC(=O)c1ccc(O)c(O)c1
REMARK SMILES IDX 4 1 5 2 3 3 2 4 1 5 6 6 13 7 7 8 11 9 8 10 9 11 12 12 10 14
REMARK H PARENT 12 13 10 15
REMARK Flexibility Score: inf
ROOT
ATOM      1  C   UNL     1       7.512  -7.239 -10.151  1.00  0.00     0.338 C 
ATOM      2  O   UNL     1       7.898  -8.428 -10.325  1.00  0.00    -0.246 OA
ENDROOT
BRANCH   1   3
ATOM      3  O   UNL     1       8.412  -6.181 -10.312  1.00  0.00    -0.462 OA
BRANCH   3   4
ATOM      4  C   UNL     1       9.762  -6.373 -10.720  1.00  0.00     0.230 C 
ATOM      5  C   UNL     1      10.555  -5.100 -10.475  1.00  0.00     0.049 C 
ENDBRANCH   3   4
ENDBRANCH   1   3
BRANCH   1   6
ATOM      6  C   UNL     1       6.107  -6.961  -9.778  1.00  0.00     0.064 A 
ATOM      7  C   UNL     1       5.791  -6.431  -8.514  1.00  0.00     0.065 A 
ATOM      8  C   UNL     1       5.067  -7.226 -10.685  1.00  0.00     0.020 A 
ATOM      9  C   UNL     1       4.458  -6.169  -8.164  1.00  0.00     0.158 A 
ATOM     10  C   UNL     1       3.739  -6.965 -10.337  1.00  0.00     0.051 A 
ATOM     11  C   UNL     1       3.431  -6.436  -9.078  1.00  0.00     0.157 A 
BRANCH   9  12
ATOM     12  O   UNL     1       4.148  -5.643  -6.912  1.00  0.00    -0.504 OA
ATOM     13  H   UNL     1       4.329  -6.160  -6.059  1.00  0.00     0.293 HD
ENDBRANCH   9  12
BRANCH  11  14
ATOM     14  O   UNL     1       2.108  -6.175  -8.726  1.00  0.00    -0.504 OA
ATOM     15  H   UNL     1       1.342  -6.373  -9.359  1.00  0.00     0.293 HD
ENDBRANCH  11  14
ENDBRANCH   1   6
TORSDOF 5
ENDMDL
MODEL 6
REMARK VINA RESULT:    -5.829      5.178      7.093
REMARK INTER + INTRA:          -7.311
REMARK INTER:                  -7.099
REMARK INTRA:                  -0.213
REMARK UNBOUND:                -0.119
REMARK SMILES CCOC(=O)c1ccc(O)c(O)c1
REMARK SMILES IDX 4 1 5 2 3 3 2 4 1 5 6 6 13 7 7 8 11 9 8 10 9 11 12 12 10 14
REMARK H PARENT 12 13 10 15
REMARK Flexibility Score: inf
ROOT
ATOM      1  C   UNL     1      12.745  -3.896 -12.619  1.00  0.00     0.338 C 
ATOM      2  O   UNL     1      12.606  -2.838 -11.944  1.00  0.00    -0.246 OA
ENDROOT
BRANCH   1   3
ATOM      3  O   UNL     1      13.570  -3.900 -13.749  1.00  0.00    -0.462 OA
BRANCH   3   4
ATOM      4  C   UNL     1      14.823  -3.227 -13.790  1.00  0.00     0.230 C 
ATOM      5  C   UNL     1      15.944  -4.245 -13.920  1.00  0.00     0.049 C 
ENDBRANCH   3   4
ENDBRANCH   1   3
BRANCH   1   6
ATOM      6  C   UNL     1      12.037  -5.131 -12.218  1.00  0.00     0.064 A 
ATOM      7  C   UNL     1      12.114  -6.292 -13.009  1.00  0.00     0.065 A 
ATOM      8  C   UNL     1      11.276  -5.161 -11.038  1.00  0.00     0.020 A 
ATOM      9  C   UNL     1      11.441  -7.462 -12.626  1.00  0.00     0.158 A 
ATOM     10  C   UNL     1      10.606  -6.326 -10.655  1.00  0.00     0.051 A 
ATOM     11  C   UNL     1      10.686  -7.478 -11.447  1.00  0.00     0.157 A 
BRANCH   9  12
ATOM     12  O   UNL     1      11.519  -8.611 -13.411  1.00  0.00    -0.504 OA
ATOM     13  H   UNL     1      10.916  -9.409 -13.246  1.00  0.00     0.293 HD
ENDBRANCH   9  12
BRANCH  11  14
ATOM     14  O   UNL     1      10.020  -8.643 -11.069  1.00  0.00    -0.504 OA
ATOM     15  H   UNL     1      10.262  -9.544 -11.465  1.00  0.00     0.293 HD
ENDBRANCH  11  14
ENDBRANCH   1   6
TORSDOF 5
ENDMDL
MODEL 7
REMARK VINA RESULT:    -5.817      5.330      6.961
REMARK INTER + INTRA:          -7.297
REMARK INTER:                  -7.147
REMARK INTRA:                  -0.149
REMARK UNBOUND:                -0.119
REMARK SMILES CCOC(=O)c1ccc(O)c(O)c1
REMARK SMILES IDX 4 1 5 2 3 3 2 4 1 5 6 6 13 7 7 8 11 9 8 10 9 11 12 12 10 14
REMARK H PARENT 12 13 10 15
REMARK Flexibility Score: inf
ROOT
ATOM      1  C   UNL     1      11.216  -8.325 -12.359  1.00  0.00     0.338 C 
ATOM      2  O   UNL     1      11.718  -8.902 -13.364  1.00  0.00    -0.246 OA
ENDROOT
BRANCH   1   3
ATOM      3  O   UNL     1      10.413  -9.046 -11.468  1.00  0.00    -0.462 OA
BRANCH   3   4
ATOM      4  C   UNL     1      10.154 -10.438 -11.618  1.00  0.00     0.230 C 
ATOM      5  C   UNL     1       8.759 -10.754 -11.105  1.00  0.00     0.049 C 
ENDBRANCH   3   4
ENDBRANCH   1   3
BRANCH   1   6
ATOM      6  C   UNL     1      11.474  -6.888 -12.119  1.00  0.00     0.064 A 
ATOM      7  C   UNL     1      10.958  -6.245 -10.980  1.00  0.00     0.065 A 
ATOM      8  C   UNL     1      12.242  -6.145 -13.032  1.00  0.00     0.020 A 
ATOM      9  C   UNL     1      11.205  -4.882 -10.757  1.00  0.00     0.158 A 
ATOM     10  C   UNL     1      12.489  -4.788 -12.811  1.00  0.00     0.051 A 
ATOM     11  C   UNL     1      11.973  -4.153 -11.674  1.00  0.00     0.157 A 
BRANCH   9  12
ATOM     12  O   UNL     1      10.693  -4.247  -9.627  1.00  0.00    -0.504 OA
ATOM     13  H   UNL     1       9.701  -4.256  -9.418  1.00  0.00     0.293 HD
ENDBRANCH   9  12
BRANCH  11  14
ATOM     14  O   UNL     1      12.216  -2.800 -11.449  1.00  0.00    -0.504 OA
ATOM     15  H   UNL     1      12.277  -2.421 -10.510  1.00  0.00     0.293 HD
ENDBRANCH  11  14
ENDBRANCH   1   6
TORSDOF 5
ENDMDL
MODEL 8
REMARK VINA RESULT:    -5.663      2.553      6.088
REMARK INTER + INTRA:          -7.106
REMARK INTER:                  -6.942
REMARK INTRA:                  -0.165
REMARK UNBOUND:                -0.119
REMARK SMILES CCOC(=O)c1ccc(O)c(O)c1
REMARK SMILES IDX 4 1 5 2 3 3 2 4 1 5 6 6 13 7 7 8 11 9 8 10 9 11 12 12 10 14
REMARK H PARENT 12 13 10 15
REMARK Flexibility Score: inf
ROOT
ATOM      1  C   UNL     1       1.561  -5.756  -8.510  1.00  0.00     0.338 C 
ATOM      2  O   UNL     1       0.758  -6.628  -8.074  1.00  0.00    -0.246 OA
ENDROOT
BRANCH   1   3
ATOM      3  O   UNL     1       1.093  -4.482  -8.849  1.00  0.00    -0.462 OA
BRANCH   3   4
ATOM      4  C   UNL     1      -0.249  -4.069  -8.621  1.00  0.00     0.230 C 
ATOM      5  C   UNL     1      -0.348  -3.385  -7.267  1.00  0.00     0.049 C 
ENDBRANCH   3   4
ENDBRANCH   1   3
BRANCH   1   6
ATOM      6  C   UNL     1       2.997  -6.078  -8.663  1.00  0.00     0.064 A 
ATOM      7  C   UNL     1       3.465  -6.752  -9.806  1.00  0.00     0.065 A 
ATOM      8  C   UNL     1       3.915  -5.715  -7.663  1.00  0.00     0.020 A 
ATOM      9  C   UNL     1       4.828  -7.056  -9.946  1.00  0.00     0.158 A 
ATOM     10  C   UNL     1       5.272  -6.017  -7.802  1.00  0.00     0.051 A 
ATOM     11  C   UNL     1       5.732  -6.687  -8.943  1.00  0.00     0.157 A 
BRANCH   9  12
ATOM     12  O   UNL     1       5.288  -7.723 -11.080  1.00  0.00    -0.504 OA
ATOM     13  H   UNL     1       5.305  -8.735 -11.130  1.00  0.00     0.293 HD
ENDBRANCH   9  12
BRANCH  11  14
ATOM     14  O   UNL     1       7.084  -6.991  -9.087  1.00  0.00    -0.504 OA
ATOM     15  H   UNL     1       7.440  -7.444  -9.921  1.00  0.00     0.293 HD
ENDBRANCH  11  14
ENDBRANCH   1   6
TORSDOF 5
ENDMDL
