MODEL 1
REMARK VINA RESULT:    -2.478      0.000      0.000
REMARK INTER + INTRA:          -2.207
REMARK INTER:                  -3.058
REMARK INTRA:                   0.851
REMARK UNBOUND:                 0.851
REMARK SMILES CC1=CC=CC(C)(C)CC1=O
REMARK SMILES IDX 1 1 2 2 3 3 10 4 11 5 9 6 4 8 5 9 6 10 7 11 8 12
REMARK H PARENT
REMARK Flexibility Score: 80.00
ROOT
ATOM      1  C   UNL     1      19.401  38.179  89.081  1.00  0.00     0.048 C 
ATOM      2  C   UNL     1      20.171  39.477  89.164  1.00  0.00    -0.008 C 
ATOM      3  C   UNL     1      20.887  39.855  88.082  1.00  0.00     0.007 C 
ENDROOT
BRANCH   2   4
ATOM      4  C   UNL     1      20.027  40.260  90.420  1.00  0.00     0.159 C 
ATOM      5  O   UNL     1      19.323  39.783  91.351  1.00  0.00    -0.295 OA
BRANCH   4   6
ATOM      6  C   UNL     1      20.636  41.612  90.642  1.00  0.00     0.091 CG0
ATOM      7  G   UNL     1      22.138  41.689  90.288  1.00  0.00     0.000 G0
ENDBRANCH   4   6
ENDBRANCH   2   4
BRANCH   3   8
ATOM      8  C   UNL     1      21.735  41.052  87.881  1.00  0.00    -0.003 C 
ATOM      9  C   UNL     1      22.303  41.838  88.803  1.00  0.00    -0.020 C 
BRANCH   9  10
ATOM     10  C   UNL     1      22.143  41.714  90.300  1.00  0.00    -0.010 CG0
ATOM     11  C   UNL     1      22.969  40.518  90.829  1.00  0.00     0.016 C 
ATOM     12  C   UNL     1      22.697  43.001  90.953  1.00  0.00     0.016 C 
ATOM     13  G   UNL     1      20.642  41.604  90.649  1.00  0.00     0.000 G0
ENDBRANCH   9  10
ENDBRANCH   3   8
TORSDOF 0
ENDMDL
MODEL 2
REMARK VINA RESULT:    -2.473      2.721      4.484
REMARK INTER + INTRA:          -2.201
REMARK INTER:                  -3.049
REMARK INTRA:                   0.848
REMARK UNBOUND:                 0.851
REMARK SMILES CC1=CC=CC(C)(C)CC1=O
REMARK SMILES IDX 1 1 2 2 3 3 10 4 11 5 9 6 4 8 5 9 6 10 7 11 8 12
REMARK H PARENT
REMARK Flexibility Score: 80.00
ROOT
ATOM      1  C   UNL     1      20.631  42.996  95.198  1.00  0.00     0.048 C 
ATOM      2  C   UNL     1      20.201  42.178  94.002  1.00  0.00    -0.008 C 
ATOM      3  C   UNL     1      19.294  41.197  94.203  1.00  0.00     0.007 C 
ENDROOT
BRANCH   2   4
ATOM      4  C   UNL     1      20.779  42.563  92.687  1.00  0.00     0.159 C 
ATOM      5  O   UNL     1      21.655  43.469  92.655  1.00  0.00    -0.295 OA
BRANCH   4   6
ATOM      6  C   UNL     1      20.356  41.968  91.377  1.00  0.00     0.091 CG0
ATOM      7  G   UNL     1      20.397  40.423  91.347  1.00  0.00     0.000 G0
ENDBRANCH   4   6
ENDBRANCH   2   4
BRANCH   3   8
ATOM      8  C   UNL     1      18.705  40.242  93.237  1.00  0.00    -0.003 C 
ATOM      9  C   UNL     1      19.168  39.876  92.036  1.00  0.00    -0.020 C 
BRANCH   9  10
ATOM     10  C   UNL     1      20.396  40.425  91.350  1.00  0.00    -0.010 CG0
ATOM     11  C   UNL     1      21.676  39.841  91.995  1.00  0.00     0.016 C 
ATOM     12  C   UNL     1      20.363  39.978  89.870  1.00  0.00     0.016 C 
ATOM     13  G   UNL     1      20.360  41.969  91.388  1.00  0.00     0.000 G0
ENDBRANCH   9  10
ENDBRANCH   3   8
TORSDOF 0
ENDMDL
MODEL 3
REMARK VINA RESULT:    -2.470      1.392      2.148
REMARK INTER + INTRA:          -2.196
REMARK INTER:                  -3.038
REMARK INTRA:                   0.841
REMARK UNBOUND:                 0.851
REMARK SMILES CC1=CC=CC(C)(C)CC1=O
REMARK SMILES IDX 1 1 2 2 3 3 10 4 11 5 9 6 4 8 5 9 6 10 7 11 8 12
REMARK H PARENT
REMARK Flexibility Score: 80.00
ROOT
ATOM      1  C   UNL     1      21.708  40.197  87.524  1.00  0.00     0.048 C 
ATOM      2  C   UNL     1      21.565  41.119  88.713  1.00  0.00    -0.008 C 
ATOM      3  C   UNL     1      22.120  42.348  88.629  1.00  0.00     0.007 C 
ENDROOT
BRANCH   2   4
ATOM      4  C   UNL     1      20.770  40.608  89.862  1.00  0.00     0.159 C 
ATOM      5  O   UNL     1      20.360  39.416  89.829  1.00  0.00    -0.295 OA
BRANCH   4   6
ATOM      6  C   UNL     1      20.386  41.436  91.052  1.00  0.00     0.091 CG0
ATOM      7  G   UNL     1      21.577  42.145  91.734  1.00  0.00     0.000 G0
ENDBRANCH   4   6
ENDBRANCH   2   4
BRANCH   3   8
ATOM      8  C   UNL     1      22.148  43.443  89.625  1.00  0.00    -0.003 C 
ATOM      9  C   UNL     1      21.950  43.375  90.947  1.00  0.00    -0.020 C 
BRANCH   9  10
ATOM     10  C   UNL     1      21.574  42.139  91.729  1.00  0.00    -0.010 CG0
ATOM     11  C   UNL     1      22.805  41.217  91.898  1.00  0.00     0.016 C 
ATOM     12  C   UNL     1      21.113  42.579  93.137  1.00  0.00     0.016 C 
ATOM     13  G   UNL     1      20.390  41.431  91.033  1.00  0.00     0.000 G0
ENDBRANCH   9  10
ENDBRANCH   3   8
TORSDOF 0
ENDMDL
MODEL 4
REMARK VINA RESULT:    -2.399      3.291      5.143
REMARK INTER + INTRA:          -2.109
REMARK INTER:                  -2.944
REMARK INTRA:                   0.835
REMARK UNBOUND:                 0.851
REMARK SMILES CC1=CC=CC(C)(C)CC1=O
REMARK SMILES IDX 1 1 2 2 3 3 10 4 11 5 9 6 4 8 5 9 6 10 7 11 8 12
REMARK H PARENT
REMARK Flexibility Score: 80.00
ROOT
ATOM      1  C   UNL     1      18.276  40.346  94.892  1.00  0.00     0.048 C 
ATOM      2  C   UNL     1      18.080  39.769  93.509  1.00  0.00    -0.008 C 
ATOM      3  C   UNL     1      16.913  39.139  93.248  1.00  0.00     0.007 C 
ENDROOT
BRANCH   2   4
ATOM      4  C   UNL     1      19.176  39.993  92.530  1.00  0.00     0.159 C 
ATOM      5  O   UNL     1      20.220  40.584  92.918  1.00  0.00    -0.295 OA
BRANCH   4   6
ATOM      6  C   UNL     1      19.108  39.593  91.086  1.00  0.00     0.091 CG0
ATOM      7  G   UNL     1      18.678  38.127  90.860  1.00  0.00     0.000 G0
ENDBRANCH   4   6
ENDBRANCH   2   4
BRANCH   3   8
ATOM      8  C   UNL     1      16.453  38.477  92.007  1.00  0.00    -0.003 C 
ATOM      9  C   UNL     1      17.184  38.015  90.986  1.00  0.00    -0.020 C 
BRANCH   9  10
ATOM     10  C   UNL     1      18.683  38.132  90.839  1.00  0.00    -0.010 CG0
ATOM     11  C   UNL     1      19.393  37.118  91.767  1.00  0.00     0.016 C 
ATOM     12  C   UNL     1      19.054  37.782  89.380  1.00  0.00     0.016 C 
ATOM     13  G   UNL     1      19.113  39.591  91.110  1.00  0.00     0.000 G0
ENDBRANCH   9  10
ENDBRANCH   3   8
TORSDOF 0
ENDMDL
MODEL 5
REMARK VINA RESULT:    -2.387      2.311      3.067
REMARK INTER + INTRA:          -2.094
REMARK INTER:                  -2.945
REMARK INTRA:                   0.852
REMARK UNBOUND:                 0.851
REMARK SMILES CC1=CC=CC(C)(C)CC1=O
REMARK SMILES IDX 1 1 2 2 3 3 10 4 11 5 9 6 4 8 5 9 6 10 7 11 8 12
REMARK H PARENT
REMARK Flexibility Score: 80.00
ROOT
ATOM      1  C   UNL     1      19.395  40.307  90.759  1.00  0.00     0.048 C 
ATOM      2  C   UNL     1      20.194  41.487  91.262  1.00  0.00    -0.008 C 
ATOM      3  C   UNL     1      20.930  42.179  90.365  1.00  0.00     0.007 C 
ENDROOT
BRANCH   2   4
ATOM      4  C   UNL     1      20.055  41.821  92.705  1.00  0.00     0.159 C 
ATOM      5  O   UNL     1      19.355  41.067  93.434  1.00  0.00    -0.295 OA
BRANCH   4   6
ATOM      6  C   UNL     1      20.666  43.029  93.350  1.00  0.00     0.091 CG0
ATOM      7  G   UNL     1      22.173  43.204  93.054  1.00  0.00     0.000 G0
ENDBRANCH   4   6
ENDBRANCH   2   4
BRANCH   3   8
ATOM      8  C   UNL     1      21.807  43.354  90.567  1.00  0.00    -0.003 C 
ATOM      9  C   UNL     1      22.371  43.791  91.699  1.00  0.00    -0.020 C 
BRANCH   9  10
ATOM     10  C   UNL     1      22.176  43.203  93.076  1.00  0.00    -0.010 CG0
ATOM     11  C   UNL     1      22.972  41.883  93.213  1.00  0.00     0.016 C 
ATOM     12  C   UNL     1      22.733  44.204  94.113  1.00  0.00     0.016 C 
ATOM     13  G   UNL     1      20.666  43.019  93.347  1.00  0.00     0.000 G0
ENDBRANCH   9  10
ENDBRANCH   3   8
TORSDOF 0
ENDMDL
MODEL 6
REMARK VINA RESULT:    -2.333      2.242      2.903
REMARK INTER + INTRA:          -2.027
REMARK INTER:                  -2.871
REMARK INTRA:                   0.843
REMARK UNBOUND:                 0.851
REMARK SMILES CC1=CC=CC(C)(C)CC1=O
REMARK SMILES IDX 1 1 2 2 3 3 10 4 11 5 9 6 4 8 5 9 6 10 7 11 8 12
REMARK H PARENT
REMARK Flexibility Score: 80.00
ROOT
ATOM      1  C   UNL     1      18.274  36.487  88.866  1.00  0.00     0.048 C 
ATOM      2  C   UNL     1      18.853  37.731  89.500  1.00  0.00    -0.008 C 
ATOM      3  C   UNL     1      19.878  38.342  88.867  1.00  0.00     0.007 C 
ENDROOT
BRANCH   2   4
ATOM      4  C   UNL     1      18.203  38.208  90.749  1.00  0.00     0.159 C 
ATOM      5  O   UNL     1      17.290  37.504  91.261  1.00  0.00    -0.295 OA
BRANCH   4   6
ATOM      6  C   UNL     1      18.536  39.503  91.428  1.00  0.00     0.091 CG0
ATOM      7  G   UNL     1      20.040  39.687  91.727  1.00  0.00     0.000 G0
ENDBRANCH   4   6
ENDBRANCH   2   4
BRANCH   3   8
ATOM      8  C   UNL     1      20.639  39.552  89.251  1.00  0.00    -0.003 C 
ATOM      9  C   UNL     1      20.747  40.124  90.457  1.00  0.00    -0.020 C 
BRANCH   9  10
ATOM     10  C   UNL     1      20.038  39.686  91.716  1.00  0.00    -0.010 CG0
ATOM     11  C   UNL     1      20.706  38.416  92.294  1.00  0.00     0.016 C 
ATOM     12  C   UNL     1      20.175  40.814  92.765  1.00  0.00     0.016 C 
ATOM     13  G   UNL     1      18.535  39.486  91.417  1.00  0.00     0.000 G0
ENDBRANCH   9  10
ENDBRANCH   3   8
TORSDOF 0
ENDMDL
MODEL 7
REMARK VINA RESULT:    -2.301      1.342      2.208
REMARK INTER + INTRA:          -1.988
REMARK INTER:                  -2.840
REMARK INTRA:                   0.852
REMARK UNBOUND:                 0.851
REMARK SMILES CC1=CC=CC(C)(C)CC1=O
REMARK SMILES IDX 1 1 2 2 3 3 10 4 11 5 9 6 4 8 5 9 6 10 7 11 8 12
REMARK H PARENT
REMARK Flexibility Score: 80.00
ROOT
ATOM      1  C   UNL     1      18.545  39.623  92.460  1.00  0.00     0.048 C 
ATOM      2  C   UNL     1      19.388  39.869  91.230  1.00  0.00    -0.008 C 
ATOM      3  C   UNL     1      19.367  38.935  90.254  1.00  0.00     0.007 C 
ENDROOT
BRANCH   2   4
ATOM      4  C   UNL     1      20.132  41.156  91.177  1.00  0.00     0.159 C 
ATOM      5  O   UNL     1      20.112  41.907  92.190  1.00  0.00    -0.295 OA
BRANCH   4   6
ATOM      6  C   UNL     1      20.881  41.644  89.973  1.00  0.00     0.091 CG0
ATOM      7  G   UNL     1      21.900  40.627  89.412  1.00  0.00     0.000 G0
ENDBRANCH   4   6
ENDBRANCH   2   4
BRANCH   3   8
ATOM      8  C   UNL     1      20.088  38.902  88.962  1.00  0.00    -0.003 C 
ATOM      9  C   UNL     1      21.181  39.584  88.597  1.00  0.00    -0.020 C 
BRANCH   9  10
ATOM     10  C   UNL     1      21.901  40.620  89.425  1.00  0.00    -0.010 CG0
ATOM     11  C   UNL     1      22.730  39.936  90.538  1.00  0.00     0.016 C 
ATOM     12  C   UNL     1      22.882  41.380  88.502  1.00  0.00     0.016 C 
ATOM     13  G   UNL     1      20.878  41.636  89.981  1.00  0.00     0.000 G0
ENDBRANCH   9  10
ENDBRANCH   3   8
TORSDOF 0
ENDMDL
MODEL 8
REMARK VINA RESULT:    -2.298      4.827      5.803
REMARK INTER + INTRA:          -1.984
REMARK INTER:                  -2.832
REMARK INTRA:                   0.848
REMARK UNBOUND:                 0.851
REMARK SMILES CC1=CC=CC(C)(C)CC1=O
REMARK SMILES IDX 1 1 2 2 3 3 10 4 11 5 9 6 4 8 5 9 6 10 7 11 8 12
REMARK H PARENT
REMARK Flexibility Score: 80.00
ROOT
ATOM      1  C   UNL     1      14.354  35.875  89.043  1.00  0.00     0.048 C 
ATOM      2  C   UNL     1      15.526  36.662  89.583  1.00  0.00    -0.008 C 
ATOM      3  C   UNL     1      16.726  36.497  88.985  1.00  0.00     0.007 C 
ENDROOT
BRANCH   2   4
ATOM      4  C   UNL     1      15.242  37.600  90.702  1.00  0.00     0.159 C 
ATOM      5  O   UNL     1      14.081  37.619  91.194  1.00  0.00    -0.295 OA
BRANCH   4   6
ATOM      6  C   UNL     1      16.244  38.564  91.266  1.00  0.00     0.091 CG0
ATOM      7  G   UNL     1      17.590  37.913  91.655  1.00  0.00     0.000 G0
ENDBRANCH   4   6
ENDBRANCH   2   4
BRANCH   3   8
ATOM      8  C   UNL     1      18.033  37.117  89.299  1.00  0.00    -0.003 C 
ATOM      9  C   UNL     1      18.430  37.698  90.438  1.00  0.00    -0.020 C 
BRANCH   9  10
ATOM     10  C   UNL     1      17.582  37.916  91.669  1.00  0.00    -0.010 CG0
ATOM     11  C   UNL     1      17.403  36.586  92.439  1.00  0.00     0.016 C 
ATOM     12  C   UNL     1      18.323  38.906  92.596  1.00  0.00     0.016 C 
ATOM     13  G   UNL     1      16.236  38.554  91.259  1.00  0.00     0.000 G0
ENDBRANCH   9  10
ENDBRANCH   3   8
TORSDOF 0
ENDMDL
MODEL 9
REMARK VINA RESULT:    -2.282      4.783      6.876
REMARK INTER + INTRA:          -1.965
REMARK INTER:                  -2.814
REMARK INTRA:                   0.849
REMARK UNBOUND:                 0.851
REMARK SMILES CC1=CC=CC(C)(C)CC1=O
REMARK SMILES IDX 1 1 2 2 3 3 10 4 11 5 9 6 4 8 5 9 6 10 7 11 8 12
REMARK H PARENT
REMARK Flexibility Score: 80.00
ROOT
ATOM      1  C   UNL     1      19.118  40.530  94.034  1.00  0.00     0.048 C 
ATOM      2  C   UNL     1      17.881  39.779  93.598  1.00  0.00    -0.008 C 
ATOM      3  C   UNL     1      16.862  39.679  94.479  1.00  0.00     0.007 C 
ENDROOT
BRANCH   2   4
ATOM      4  C   UNL     1      17.873  39.256  92.206  1.00  0.00     0.159 C 
ATOM      5  O   UNL     1      18.909  39.400  91.501  1.00  0.00    -0.295 OA
BRANCH   4   6
ATOM      6  C   UNL     1      16.689  38.598  91.563  1.00  0.00     0.091 CG0
ATOM      7  G   UNL     1      16.076  37.453  92.400  1.00  0.00     0.000 G0
ENDBRANCH   4   6
ENDBRANCH   2   4
BRANCH   3   8
ATOM      8  C   UNL     1      15.552  39.004  94.336  1.00  0.00    -0.003 C 
ATOM      9  C   UNL     1      15.199  38.038  93.480  1.00  0.00    -0.020 C 
BRANCH   9  10
ATOM     10  C   UNL     1      16.066  37.453  92.391  1.00  0.00    -0.010 CG0
ATOM     11  C   UNL     1      17.120  36.499  93.000  1.00  0.00     0.016 C 
ATOM     12  C   UNL     1      15.164  36.624  91.448  1.00  0.00     0.016 C 
ATOM     13  G   UNL     1      16.700  38.597  91.569  1.00  0.00     0.000 G0
ENDBRANCH   9  10
ENDBRANCH   3   8
TORSDOF 0
ENDMDL
