MODEL 1
REMARK VINA RESULT:     6.052      0.000      0.000
REMARK INTER + INTRA:           7.219
REMARK INTER:                   7.467
REMARK INTRA:                  -0.248
REMARK UNBOUND:                -0.248
REMARK SMILES Oc1cc(O)c2cc(O)c(-c3cc(O)c(O)c(O)c3)[o+]c2c1
REMARK SMILES IDX 10 1 20 2 21 3 22 4 2 5 3 6 4 7 6 8 7 9 8 10 11 11 12 12
REMARK SMILES IDX 13 13 19 14 15 15 17 16 14 17 16 19 18 21 9 23 1 25 5 27
REMARK H PARENT 14 18 16 20 18 22 9 24 1 26 5 28
REMARK Flexibility Score: inf
ROOT
ATOM      1  C   UNL     1    -117.203 -98.646  37.963  1.00  0.00     0.402 A 
ATOM      2  O   UNL     1    -116.292 -98.091  37.169  1.00  0.00    -0.202 OA
ATOM      3  C   UNL     1    -116.276 -98.256  35.850  1.00  0.00     0.368 A 
ATOM      4  C   UNL     1    -115.279 -97.629  35.099  1.00  0.00     0.162 A 
ATOM      5  C   UNL     1    -115.238 -97.782  33.713  1.00  0.00     0.128 A 
ATOM      6  C   UNL     1    -116.202 -98.568  33.071  1.00  0.00     0.093 A 
ATOM      7  C   UNL     1    -117.212 -99.207  33.801  1.00  0.00     0.136 A 
ATOM      8  C   UNL     1    -117.254 -99.055  35.211  1.00  0.00     0.125 A 
ATOM      9  C   UNL     1    -118.221 -99.668  36.025  1.00  0.00     0.078 A 
ATOM     10  C   UNL     1    -118.196 -99.476  37.409  1.00  0.00     0.223 A 
ENDROOT
BRANCH   1  11
ATOM     11  C   UNL     1    -117.121 -98.379  39.417  1.00  0.00     0.091 A 
ATOM     12  C   UNL     1    -118.146 -97.658  40.046  1.00  0.00     0.068 A 
ATOM     13  C   UNL     1    -118.101 -97.409  41.424  1.00  0.00     0.162 A 
ATOM     14  C   UNL     1    -116.062 -98.882  40.195  1.00  0.00     0.068 A 
ATOM     15  C   UNL     1    -117.034 -97.895  42.190  1.00  0.00     0.200 A 
ATOM     16  C   UNL     1    -116.013 -98.638  41.573  1.00  0.00     0.162 A 
BRANCH  13  17
ATOM     17  O   UNL     1    -119.116 -96.679  42.042  1.00  0.00    -0.504 OA
ATOM     18  H   UNL     1    -119.862 -97.135  42.552  1.00  0.00     0.293 HD
ENDBRANCH  13  17
BRANCH  15  19
ATOM     19  O   UNL     1    -117.004 -97.635  43.561  1.00  0.00    -0.502 OA
ATOM     20  H   UNL     1    -116.263 -97.982  44.159  1.00  0.00     0.293 HD
ENDBRANCH  15  19
BRANCH  16  21
ATOM     21  O   UNL     1    -114.955 -99.136  42.335  1.00  0.00    -0.504 OA
ATOM     22  H   UNL     1    -114.385 -98.529  42.912  1.00  0.00     0.293 HD
ENDBRANCH  16  21
ENDBRANCH   1  11
BRANCH  10  23
ATOM     23  O   UNL     1    -119.125-100.124  38.223  1.00  0.00    -0.500 OA
ATOM     24  H   UNL     1    -119.433-101.070  38.030  1.00  0.00     0.294 HD
ENDBRANCH  10  23
BRANCH   5  25
ATOM     25  O   UNL     1    -114.236 -97.149  32.981  1.00  0.00    -0.507 OA
ATOM     26  H   UNL     1    -114.236 -97.155  31.967  1.00  0.00     0.293 HD
ENDBRANCH   5  25
BRANCH   7  27
ATOM     27  O   UNL     1    -118.139 -99.970  33.085  1.00  0.00    -0.507 OA
ATOM     28  H   UNL     1    -118.007-100.939  32.835  1.00  0.00     0.293 HD
ENDBRANCH   7  27
TORSDOF 7
ENDMDL
MODEL 2
REMARK VINA RESULT:     6.388      1.731      6.882
REMARK INTER + INTRA:           7.634
REMARK INTER:                   7.709
REMARK INTRA:                  -0.075
REMARK UNBOUND:                -0.248
REMARK SMILES Oc1cc(O)c2cc(O)c(-c3cc(O)c(O)c(O)c3)[o+]c2c1
REMARK SMILES IDX 10 1 20 2 21 3 22 4 2 5 3 6 4 7 6 8 7 9 8 10 11 11 12 12
REMARK SMILES IDX 13 13 19 14 15 15 17 16 14 17 16 19 18 21 9 23 1 25 5 27
REMARK H PARENT 14 18 16 20 18 22 9 24 1 26 5 28
REMARK Flexibility Score: inf
ROOT
ATOM      1  C   UNL     1    -116.919 -99.321  37.809  1.00  0.00     0.402 A 
ATOM      2  O   UNL     1    -116.080 -98.961  38.777  1.00  0.00    -0.202 OA
ATOM      3  C   UNL     1    -116.375 -99.052  40.069  1.00  0.00     0.368 A 
ATOM      4  C   UNL     1    -115.427 -98.652  41.013  1.00  0.00     0.162 A 
ATOM      5  C   UNL     1    -115.707 -98.740  42.377  1.00  0.00     0.128 A 
ATOM      6  C   UNL     1    -116.946 -99.232  42.803  1.00  0.00     0.093 A 
ATOM      7  C   UNL     1    -117.914 -99.640  41.877  1.00  0.00     0.136 A 
ATOM      8  C   UNL     1    -117.632 -99.550  40.489  1.00  0.00     0.125 A 
ATOM      9  C   UNL     1    -118.547 -99.923  39.491  1.00  0.00     0.078 A 
ATOM     10  C   UNL     1    -118.200 -99.802  38.142  1.00  0.00     0.223 A 
ENDROOT
BRANCH   1  11
ATOM     11  C   UNL     1    -116.470 -99.180  36.406  1.00  0.00     0.091 A 
ATOM     12  C   UNL     1    -117.244 -98.434  35.505  1.00  0.00     0.068 A 
ATOM     13  C   UNL     1    -116.831 -98.269  34.176  1.00  0.00     0.162 A 
ATOM     14  C   UNL     1    -115.253 -99.732  35.967  1.00  0.00     0.068 A 
ATOM     15  C   UNL     1    -115.627 -98.837  33.740  1.00  0.00     0.200 A 
ATOM     16  C   UNL     1    -114.834 -99.568  34.640  1.00  0.00     0.162 A 
BRANCH  13  17
ATOM     17  O   UNL     1    -117.611 -97.538  33.281  1.00  0.00    -0.504 OA
ATOM     18  H   UNL     1    -118.272 -97.990  32.661  1.00  0.00     0.293 HD
ENDBRANCH  13  17
BRANCH  15  19
ATOM     19  O   UNL     1    -115.233 -98.665  32.412  1.00  0.00    -0.502 OA
ATOM     20  H   UNL     1    -115.821 -98.197  31.733  1.00  0.00     0.293 HD
ENDBRANCH  15  19
BRANCH  16  21
ATOM     21  O   UNL     1    -113.628-100.125  34.214  1.00  0.00    -0.504 OA
ATOM     22  H   UNL     1    -113.598-100.999  33.703  1.00  0.00     0.293 HD
ENDBRANCH  16  21
ENDBRANCH   1  11
BRANCH  10  23
ATOM     23  O   UNL     1    -119.125-100.125  37.149  1.00  0.00    -0.500 OA
ATOM     24  H   UNL     1    -120.117 -99.959  37.271  1.00  0.00     0.294 HD
ENDBRANCH  10  23
BRANCH   5  25
ATOM     25  O   UNL     1    -114.748 -98.335  43.303  1.00  0.00    -0.507 OA
ATOM     26  H   UNL     1    -114.089 -98.992  43.705  1.00  0.00     0.293 HD
ENDBRANCH   5  25
BRANCH   7  27
ATOM     27  O   UNL     1    -119.125-100.124  42.383  1.00  0.00    -0.507 OA
ATOM     28  H   UNL     1    -119.239-100.521  43.303  1.00  0.00     0.293 HD
ENDBRANCH   7  27
TORSDOF 7
ENDMDL
MODEL 3
REMARK VINA RESULT:     6.908      0.859      1.964
REMARK INTER + INTRA:           8.276
REMARK INTER:                   8.658
REMARK INTRA:                  -0.382
REMARK UNBOUND:                -0.248
REMARK SMILES Oc1cc(O)c2cc(O)c(-c3cc(O)c(O)c(O)c3)[o+]c2c1
REMARK SMILES IDX 10 1 20 2 21 3 22 4 2 5 3 6 4 7 6 8 7 9 8 10 11 11 12 12
REMARK SMILES IDX 13 13 19 14 15 15 17 16 14 17 16 19 18 21 9 23 1 25 5 27
REMARK H PARENT 14 18 16 20 18 22 9 24 1 26 5 28
REMARK Flexibility Score: inf
ROOT
ATOM      1  C   UNL     1    -117.244 -98.574  37.238  1.00  0.00     0.402 A 
ATOM      2  O   UNL     1    -116.314 -97.892  36.574  1.00  0.00    -0.202 OA
ATOM      3  C   UNL     1    -116.229 -97.876  35.248  1.00  0.00     0.368 A 
ATOM      4  C   UNL     1    -115.218 -97.127  34.641  1.00  0.00     0.162 A 
ATOM      5  C   UNL     1    -115.106 -97.089  33.251  1.00  0.00     0.128 A 
ATOM      6  C   UNL     1    -116.011 -97.806  32.460  1.00  0.00     0.093 A 
ATOM      7  C   UNL     1    -117.032 -98.565  33.044  1.00  0.00     0.136 A 
ATOM      8  C   UNL     1    -117.148 -98.607  34.458  1.00  0.00     0.125 A 
ATOM      9  C   UNL     1    -118.132 -99.351  35.130  1.00  0.00     0.078 A 
ATOM     10  C   UNL     1    -118.180 -99.347  36.527  1.00  0.00     0.223 A 
ENDROOT
BRANCH   1  11
ATOM     11  C   UNL     1    -117.240 -98.504  38.717  1.00  0.00     0.091 A 
ATOM     12  C   UNL     1    -116.382 -99.341  39.446  1.00  0.00     0.068 A 
ATOM     13  C   UNL     1    -116.346 -99.280  40.845  1.00  0.00     0.162 A 
ATOM     14  C   UNL     1    -118.039 -97.576  39.408  1.00  0.00     0.068 A 
ATOM     15  C   UNL     1    -117.158 -98.367  41.529  1.00  0.00     0.200 A 
ATOM     16  C   UNL     1    -118.005 -97.509  40.807  1.00  0.00     0.162 A 
BRANCH  13  17
ATOM     17  O   UNL     1    -115.501-100.125  41.565  1.00  0.00    -0.504 OA
ATOM     18  H   UNL     1    -114.506 -99.947  41.635  1.00  0.00     0.293 HD
ENDBRANCH  13  17
BRANCH  15  19
ATOM     19  O   UNL     1    -117.110 -98.323  42.924  1.00  0.00    -0.502 OA
ATOM     20  H   UNL     1    -117.089 -99.164  43.488  1.00  0.00     0.293 HD
ENDBRANCH  15  19
BRANCH  16  21
ATOM     21  O   UNL     1    -118.806 -96.588  41.484  1.00  0.00    -0.504 OA
ATOM     22  H   UNL     1    -118.446 -96.037  42.253  1.00  0.00     0.293 HD
ENDBRANCH  16  21
ENDBRANCH   1  11
BRANCH  10  23
ATOM     23  O   UNL     1    -119.125-100.124  37.197  1.00  0.00    -0.500 OA
ATOM     24  H   UNL     1    -119.981-100.426  36.747  1.00  0.00     0.294 HD
ENDBRANCH  10  23
BRANCH   5  25
ATOM     25  O   UNL     1    -114.092 -96.336  32.664  1.00  0.00    -0.507 OA
ATOM     26  H   UNL     1    -114.256 -95.784  31.830  1.00  0.00     0.293 HD
ENDBRANCH   5  25
BRANCH   7  27
ATOM     27  O   UNL     1    -117.898 -99.249  32.184  1.00  0.00    -0.507 OA
ATOM     28  H   UNL     1    -118.885 -99.375  32.352  1.00  0.00     0.293 HD
ENDBRANCH   7  27
TORSDOF 7
ENDMDL
MODEL 4
REMARK VINA RESULT:     8.343      1.532      2.689
REMARK INTER + INTRA:          10.046
REMARK INTER:                  10.205
REMARK INTRA:                  -0.159
REMARK UNBOUND:                -0.248
REMARK SMILES Oc1cc(O)c2cc(O)c(-c3cc(O)c(O)c(O)c3)[o+]c2c1
REMARK SMILES IDX 10 1 20 2 21 3 22 4 2 5 3 6 4 7 6 8 7 9 8 10 11 11 12 12
REMARK SMILES IDX 13 13 19 14 15 15 17 16 14 17 16 19 18 21 9 23 1 25 5 27
REMARK H PARENT 14 18 16 20 18 22 9 24 1 26 5 28
REMARK Flexibility Score: inf
ROOT
ATOM      1  C   UNL     1    -116.445 -98.919  37.048  1.00  0.00     0.402 A 
ATOM      2  O   UNL     1    -117.409 -99.122  36.154  1.00  0.00    -0.202 OA
ATOM      3  C   UNL     1    -117.173 -99.327  34.862  1.00  0.00     0.368 A 
ATOM      4  C   UNL     1    -118.252 -99.534  33.999  1.00  0.00     0.162 A 
ATOM      5  C   UNL     1    -118.035 -99.754  32.638  1.00  0.00     0.128 A 
ATOM      6  C   UNL     1    -116.730 -99.768  32.135  1.00  0.00     0.093 A 
ATOM      7  C   UNL     1    -115.631 -99.562  32.979  1.00  0.00     0.136 A 
ATOM      8  C   UNL     1    -115.849 -99.336  34.363  1.00  0.00     0.125 A 
ATOM      9  C   UNL     1    -114.810 -99.108  35.280  1.00  0.00     0.078 A 
ATOM     10  C   UNL     1    -115.102 -98.888  36.629  1.00  0.00     0.223 A 
ENDROOT
BRANCH   1  11
ATOM     11  C   UNL     1    -116.835 -98.713  38.462  1.00  0.00     0.091 A 
ATOM     12  C   UNL     1    -117.788 -97.733  38.779  1.00  0.00     0.068 A 
ATOM     13  C   UNL     1    -118.188 -97.532  40.107  1.00  0.00     0.162 A 
ATOM     14  C   UNL     1    -116.313 -99.517  39.490  1.00  0.00     0.068 A 
ATOM     15  C   UNL     1    -117.649 -98.322  41.130  1.00  0.00     0.200 A 
ATOM     16  C   UNL     1    -116.711 -99.321  40.819  1.00  0.00     0.162 A 
BRANCH  13  17
ATOM     17  O   UNL     1    -119.125 -96.547  40.418  1.00  0.00    -0.504 OA
ATOM     18  H   UNL     1    -119.907 -96.347  39.807  1.00  0.00     0.293 HD
ENDBRANCH  13  17
BRANCH  15  19
ATOM     19  O   UNL     1    -118.058 -98.106  42.447  1.00  0.00    -0.502 OA
ATOM     20  H   UNL     1    -117.602 -97.428  43.046  1.00  0.00     0.293 HD
ENDBRANCH  15  19
BRANCH  16  21
ATOM     21  O   UNL     1    -116.181-100.120  41.833  1.00  0.00    -0.504 OA
ATOM     22  H   UNL     1    -116.769-100.522  42.554  1.00  0.00     0.293 HD
ENDBRANCH  16  21
ENDBRANCH   1  11
BRANCH  10  23
ATOM     23  O   UNL     1    -114.076 -98.612  37.532  1.00  0.00    -0.500 OA
ATOM     24  H   UNL     1    -114.167 -97.889  38.237  1.00  0.00     0.294 HD
ENDBRANCH  10  23
BRANCH   5  25
ATOM     25  O   UNL     1    -119.124 -99.959  31.794  1.00  0.00    -0.507 OA
ATOM     26  H   UNL     1    -119.676 -99.185  31.444  1.00  0.00     0.293 HD
ENDBRANCH   5  25
BRANCH   7  27
ATOM     27  O   UNL     1    -114.359 -99.595  32.399  1.00  0.00    -0.507 OA
ATOM     28  H   UNL     1    -113.742-100.393  32.425  1.00  0.00     0.293 HD
ENDBRANCH   7  27
TORSDOF 7
ENDMDL
