MODEL 1
REMARK VINA RESULT:    -4.553      0.000      0.000
REMARK INTER + INTRA:          -5.596
REMARK INTER:                  -5.485
REMARK INTRA:                  -0.111
REMARK UNBOUND:                -0.111
REMARK SMILES CC[C@H](C)[C@@H]([NH3+])C(=O)[O-]
REMARK SMILES IDX 3 1 4 2 5 3 6 4 7 8 8 9 9 10 2 11 1 12
REMARK H PARENT 6 5 6 6 6 7
REMARK Flexibility Score: inf
ROOT
ATOM      1  C   UNL     1      33.783   4.575  -9.103  1.00  0.00     0.050 C 
ATOM      2  C   UNL     1      34.684   5.110 -10.230  1.00  0.00     0.014 C 
ENDROOT
BRANCH   1   3
ATOM      3  C   UNL     1      33.767   5.558  -7.890  1.00  0.00     0.230 C 
BRANCH   3   4
ATOM      4  N   UNL     1      32.430   5.667  -7.288  1.00  0.00    -0.350 N 
ATOM      5  H   UNL     1      32.304   4.973  -6.517  1.00  0.00     0.345 HD
ATOM      6  H   UNL     1      32.302   6.629  -6.895  1.00  0.00     0.345 HD
ATOM      7  H   UNL     1      31.697   5.515  -8.018  1.00  0.00     0.345 HD
ENDBRANCH   3   4
BRANCH   3   8
ATOM      8  C   UNL     1      34.805   5.224  -6.843  1.00  0.00     0.099 C 
ATOM      9  O   UNL     1      34.476   4.687  -5.752  1.00  0.00    -0.544 OA
ATOM     10  O   UNL     1      36.145   5.493  -7.091  1.00  0.00    -0.544 OA
ENDBRANCH   3   8
ENDBRANCH   1   3
BRANCH   1  11
ATOM     11  C   UNL     1      34.179   3.115  -8.734  1.00  0.00     0.006 C 
ATOM     12  C   UNL     1      35.464   2.664  -9.433  1.00  0.00     0.004 C 
ENDBRANCH   1  11
TORSDOF 4
ENDMDL
MODEL 2
REMARK VINA RESULT:    -4.552      2.038      2.532
REMARK INTER + INTRA:          -5.595
REMARK INTER:                  -5.477
REMARK INTRA:                  -0.118
REMARK UNBOUND:                -0.111
REMARK SMILES CC[C@H](C)[C@@H]([NH3+])C(=O)[O-]
REMARK SMILES IDX 3 1 4 2 5 3 6 4 7 8 8 9 9 10 2 11 1 12
REMARK H PARENT 6 5 6 6 6 7
REMARK Flexibility Score: inf
ROOT
ATOM      1  C   UNL     1      35.569   3.641  -8.600  1.00  0.00     0.050 C 
ATOM      2  C   UNL     1      35.202   3.604 -10.094  1.00  0.00     0.014 C 
ENDROOT
BRANCH   1   3
ATOM      3  C   UNL     1      34.285   3.657  -7.713  1.00  0.00     0.230 C 
BRANCH   3   4
ATOM      4  N   UNL     1      34.403   2.754  -6.558  1.00  0.00    -0.350 N 
ATOM      5  H   UNL     1      33.502   2.258  -6.372  1.00  0.00     0.345 HD
ATOM      6  H   UNL     1      35.144   2.040  -6.748  1.00  0.00     0.345 HD
ATOM      7  H   UNL     1      34.684   3.296  -5.710  1.00  0.00     0.345 HD
ENDBRANCH   3   4
BRANCH   3   8
ATOM      8  C   UNL     1      33.886   5.047  -7.273  1.00  0.00     0.099 C 
ATOM      9  O   UNL     1      33.299   5.834  -8.062  1.00  0.00    -0.544 OA
ATOM     10  O   UNL     1      34.151   5.461  -5.973  1.00  0.00    -0.544 OA
ENDBRANCH   3   8
ENDBRANCH   1   3
BRANCH   1  11
ATOM     11  C   UNL     1      36.558   4.809  -8.311  1.00  0.00     0.006 C 
ATOM     12  C   UNL     1      36.776   5.706  -9.530  1.00  0.00     0.004 C 
ENDBRANCH   1  11
TORSDOF 4
ENDMDL
MODEL 3
REMARK VINA RESULT:    -4.509      2.407      3.107
REMARK INTER + INTRA:          -5.543
REMARK INTER:                  -5.409
REMARK INTRA:                  -0.134
REMARK UNBOUND:                -0.111
REMARK SMILES CC[C@H](C)[C@@H]([NH3+])C(=O)[O-]
REMARK SMILES IDX 3 1 4 2 5 3 6 4 7 8 8 9 9 10 2 11 1 12
REMARK H PARENT 6 5 6 6 6 7
REMARK Flexibility Score: inf
ROOT
ATOM      1  C   UNL     1      35.394   5.379  -8.144  1.00  0.00     0.050 C 
ATOM      2  C   UNL     1      36.781   5.741  -8.705  1.00  0.00     0.014 C 
ENDROOT
BRANCH   1   3
ATOM      3  C   UNL     1      35.402   3.945  -7.527  1.00  0.00     0.230 C 
BRANCH   3   4
ATOM      4  N   UNL     1      34.641   3.882  -6.270  1.00  0.00    -0.350 N 
ATOM      5  H   UNL     1      35.277   3.773  -5.447  1.00  0.00     0.345 HD
ATOM      6  H   UNL     1      34.090   4.764  -6.152  1.00  0.00     0.345 HD
ATOM      7  H   UNL     1      33.970   3.081  -6.300  1.00  0.00     0.345 HD
ENDBRANCH   3   4
BRANCH   3   8
ATOM      8  C   UNL     1      34.936   2.881  -8.494  1.00  0.00     0.099 C 
ATOM      9  O   UNL     1      33.807   2.337  -8.366  1.00  0.00    -0.544 OA
ATOM     10  O   UNL     1      35.752   2.508  -9.555  1.00  0.00    -0.544 OA
ENDBRANCH   3   8
ENDBRANCH   1   3
BRANCH   1  11
ATOM     11  C   UNL     1      34.294   5.602  -9.223  1.00  0.00     0.006 C 
ATOM     12  C   UNL     1      32.968   6.068  -8.618  1.00  0.00     0.004 C 
ENDBRANCH   1  11
TORSDOF 4
ENDMDL
MODEL 4
REMARK VINA RESULT:    -4.458      2.019      2.203
REMARK INTER + INTRA:          -5.482
REMARK INTER:                  -5.417
REMARK INTRA:                  -0.065
REMARK UNBOUND:                -0.111
REMARK SMILES CC[C@H](C)[C@@H]([NH3+])C(=O)[O-]
REMARK SMILES IDX 3 1 4 2 5 3 6 4 7 8 8 9 9 10 2 11 1 12
REMARK H PARENT 6 5 6 6 6 7
REMARK Flexibility Score: inf
ROOT
ATOM      1  C   UNL     1      35.550   4.171  -8.756  1.00  0.00     0.050 C 
ATOM      2  C   UNL     1      36.937   4.595  -9.274  1.00  0.00     0.014 C 
ENDROOT
BRANCH   1   3
ATOM      3  C   UNL     1      35.383   4.545  -7.250  1.00  0.00     0.230 C 
BRANCH   3   4
ATOM      4  N   UNL     1      36.421   5.482  -6.797  1.00  0.00    -0.350 N 
ATOM      5  H   UNL     1      36.688   5.300  -5.802  1.00  0.00     0.345 HD
ATOM      6  H   UNL     1      37.273   5.376  -7.395  1.00  0.00     0.345 HD
ATOM      7  H   UNL     1      36.079   6.465  -6.891  1.00  0.00     0.345 HD
ENDBRANCH   3   4
BRANCH   3   8
ATOM      8  C   UNL     1      34.003   5.065  -6.918  1.00  0.00     0.099 C 
ATOM      9  O   UNL     1      33.562   5.029  -5.739  1.00  0.00    -0.544 OA
ATOM     10  O   UNL     1      33.213   5.612  -7.922  1.00  0.00    -0.544 OA
ENDBRANCH   3   8
ENDBRANCH   1   3
BRANCH   1  11
ATOM     11  C   UNL     1      35.285   2.670  -9.074  1.00  0.00     0.006 C 
ATOM     12  C   UNL     1      35.933   2.228 -10.388  1.00  0.00     0.004 C 
ENDBRANCH   1  11
TORSDOF 4
ENDMDL
MODEL 5
REMARK VINA RESULT:    -4.410      2.457      3.345
REMARK INTER + INTRA:          -5.424
REMARK INTER:                  -5.340
REMARK INTRA:                  -0.083
REMARK UNBOUND:                -0.111
REMARK SMILES CC[C@H](C)[C@@H]([NH3+])C(=O)[O-]
REMARK SMILES IDX 3 1 4 2 5 3 6 4 7 8 8 9 9 10 2 11 1 12
REMARK H PARENT 6 5 6 6 6 7
REMARK Flexibility Score: inf
ROOT
ATOM      1  C   UNL     1      34.032   4.821  -7.574  1.00  0.00     0.050 C 
ATOM      2  C   UNL     1      34.082   5.066  -6.055  1.00  0.00     0.014 C 
ENDROOT
BRANCH   1   3
ATOM      3  C   UNL     1      35.471   4.789  -8.179  1.00  0.00     0.230 C 
BRANCH   3   4
ATOM      4  N   UNL     1      36.501   5.049  -7.163  1.00  0.00    -0.350 N 
ATOM      5  H   UNL     1      36.301   4.528  -6.279  1.00  0.00     0.345 HD
ATOM      6  H   UNL     1      37.434   4.744  -7.526  1.00  0.00     0.345 HD
ATOM      7  H   UNL     1      36.551   6.073  -6.960  1.00  0.00     0.345 HD
ENDBRANCH   3   4
BRANCH   3   8
ATOM      8  C   UNL     1      35.767   3.514  -8.935  1.00  0.00     0.099 C 
ATOM      9  O   UNL     1      35.219   2.427  -8.613  1.00  0.00    -0.544 OA
ATOM     10  O   UNL     1      36.641   3.540 -10.015  1.00  0.00    -0.544 OA
ENDBRANCH   3   8
ENDBRANCH   1   3
BRANCH   1  11
ATOM     11  C   UNL     1      33.075   5.841  -8.259  1.00  0.00     0.006 C 
ATOM     12  C   UNL     1      33.526   6.206  -9.675  1.00  0.00     0.004 C 
ENDBRANCH   1  11
TORSDOF 4
ENDMDL
MODEL 6
REMARK VINA RESULT:    -4.368      2.535      2.883
REMARK INTER + INTRA:          -5.373
REMARK INTER:                  -5.240
REMARK INTRA:                  -0.134
REMARK UNBOUND:                -0.111
REMARK SMILES CC[C@H](C)[C@@H]([NH3+])C(=O)[O-]
REMARK SMILES IDX 3 1 4 2 5 3 6 4 7 8 8 9 9 10 2 11 1 12
REMARK H PARENT 6 5 6 6 6 7
REMARK Flexibility Score: inf
ROOT
ATOM      1  C   UNL     1      34.279   5.071  -8.282  1.00  0.00     0.050 C 
ATOM      2  C   UNL     1      33.301   6.102  -8.873  1.00  0.00     0.014 C 
ENDROOT
BRANCH   1   3
ATOM      3  C   UNL     1      35.730   5.643  -8.239  1.00  0.00     0.230 C 
BRANCH   3   4
ATOM      4  N   UNL     1      36.438   5.257  -7.010  1.00  0.00    -0.350 N 
ATOM      5  H   UNL     1      35.782   4.839  -6.310  1.00  0.00     0.345 HD
ATOM      6  H   UNL     1      37.175   4.550  -7.239  1.00  0.00     0.345 HD
ATOM      7  H   UNL     1      36.907   6.091  -6.591  1.00  0.00     0.345 HD
ENDBRANCH   3   4
BRANCH   3   8
ATOM      8  C   UNL     1      36.543   5.290  -9.464  1.00  0.00     0.099 C 
ATOM      9  O   UNL     1      37.454   4.422  -9.409  1.00  0.00    -0.544 OA
ATOM     10  O   UNL     1      36.272   5.915 -10.674  1.00  0.00    -0.544 OA
ENDBRANCH   3   8
ENDBRANCH   1   3
BRANCH   1  11
ATOM     11  C   UNL     1      34.152   3.710  -9.029  1.00  0.00     0.006 C 
ATOM     12  C   UNL     1      34.395   2.513  -8.108  1.00  0.00     0.004 C 
ENDBRANCH   1  11
TORSDOF 4
ENDMDL
MODEL 7
REMARK VINA RESULT:    -4.365      1.440      2.199
REMARK INTER + INTRA:          -5.369
REMARK INTER:                  -5.263
REMARK INTRA:                  -0.106
REMARK UNBOUND:                -0.111
REMARK SMILES CC[C@H](C)[C@@H]([NH3+])C(=O)[O-]
REMARK SMILES IDX 3 1 4 2 5 3 6 4 7 8 8 9 9 10 2 11 1 12
REMARK H PARENT 6 5 6 6 6 7
REMARK Flexibility Score: inf
ROOT
ATOM      1  C   UNL     1      35.323   4.007  -9.096  1.00  0.00     0.050 C 
ATOM      2  C   UNL     1      35.491   2.563  -9.601  1.00  0.00     0.014 C 
ENDROOT
BRANCH   1   3
ATOM      3  C   UNL     1      34.400   4.050  -7.838  1.00  0.00     0.230 C 
BRANCH   3   4
ATOM      4  N   UNL     1      34.185   2.713  -7.267  1.00  0.00    -0.350 N 
ATOM      5  H   UNL     1      33.688   2.768  -6.349  1.00  0.00     0.345 HD
ATOM      6  H   UNL     1      33.606   2.141  -7.925  1.00  0.00     0.345 HD
ATOM      7  H   UNL     1      35.102   2.229  -7.138  1.00  0.00     0.345 HD
ENDBRANCH   3   4
BRANCH   3   8
ATOM      8  C   UNL     1      34.883   5.018  -6.781  1.00  0.00     0.099 C 
ATOM      9  O   UNL     1      34.174   5.285  -5.775  1.00  0.00    -0.544 OA
ATOM     10  O   UNL     1      36.134   5.607  -6.907  1.00  0.00    -0.544 OA
ENDBRANCH   3   8
ENDBRANCH   1   3
BRANCH   1  11
ATOM     11  C   UNL     1      34.866   4.941 -10.255  1.00  0.00     0.006 C 
ATOM     12  C   UNL     1      33.420   5.412 -10.091  1.00  0.00     0.004 C 
ENDBRANCH   1  11
TORSDOF 4
ENDMDL
MODEL 8
REMARK VINA RESULT:    -4.364      2.155      2.588
REMARK INTER + INTRA:          -5.369
REMARK INTER:                  -5.344
REMARK INTRA:                  -0.025
REMARK UNBOUND:                -0.111
REMARK SMILES CC[C@H](C)[C@@H]([NH3+])C(=O)[O-]
REMARK SMILES IDX 3 1 4 2 5 3 6 4 7 8 8 9 9 10 2 11 1 12
REMARK H PARENT 6 5 6 6 6 7
REMARK Flexibility Score: inf
ROOT
ATOM      1  C   UNL     1      35.342   5.813  -8.768  1.00  0.00     0.050 C 
ATOM      2  C   UNL     1      36.240   5.387  -9.944  1.00  0.00     0.014 C 
ENDROOT
BRANCH   1   3
ATOM      3  C   UNL     1      35.639   4.950  -7.502  1.00  0.00     0.230 C 
BRANCH   3   4
ATOM      4  N   UNL     1      36.129   5.766  -6.382  1.00  0.00    -0.350 N 
ATOM      5  H   UNL     1      35.959   6.784  -6.552  1.00  0.00     0.345 HD
ATOM      6  H   UNL     1      35.633   5.487  -5.504  1.00  0.00     0.345 HD
ATOM      7  H   UNL     1      37.152   5.603  -6.242  1.00  0.00     0.345 HD
ENDBRANCH   3   4
BRANCH   3   8
ATOM      8  C   UNL     1      34.465   4.098  -7.077  1.00  0.00     0.099 C 
ATOM      9  O   UNL     1      34.301   2.939  -7.543  1.00  0.00    -0.544 OA
ATOM     10  O   UNL     1      33.560   4.588  -6.143  1.00  0.00    -0.544 OA
ENDBRANCH   3   8
ENDBRANCH   1   3
BRANCH   1  11
ATOM     11  C   UNL     1      33.846   5.819  -9.199  1.00  0.00     0.006 C 
ATOM     12  C   UNL     1      33.638   5.239 -10.600  1.00  0.00     0.004 C 
ENDBRANCH   1  11
TORSDOF 4
ENDMDL
MODEL 9
REMARK VINA RESULT:    -4.234      2.085      3.051
REMARK INTER + INTRA:          -5.211
REMARK INTER:                  -5.094
REMARK INTRA:                  -0.117
REMARK UNBOUND:                -0.111
REMARK SMILES CC[C@H](C)[C@@H]([NH3+])C(=O)[O-]
REMARK SMILES IDX 3 1 4 2 5 3 6 4 7 8 8 9 9 10 2 11 1 12
REMARK H PARENT 6 5 6 6 6 7
REMARK Flexibility Score: inf
ROOT
ATOM      1  C   UNL     1      33.813   4.559  -7.889  1.00  0.00     0.050 C 
ATOM      2  C   UNL     1      33.429   5.028  -6.474  1.00  0.00     0.014 C 
ENDROOT
BRANCH   1   3
ATOM      3  C   UNL     1      35.131   3.723  -7.857  1.00  0.00     0.230 C 
BRANCH   3   4
ATOM      4  N   UNL     1      35.068   2.561  -8.755  1.00  0.00    -0.350 N 
ATOM      5  H   UNL     1      34.106   2.151  -8.777  1.00  0.00     0.345 HD
ATOM      6  H   UNL     1      35.328   2.854  -9.725  1.00  0.00     0.345 HD
ATOM      7  H   UNL     1      35.749   1.832  -8.443  1.00  0.00     0.345 HD
ENDBRANCH   3   4
BRANCH   3   8
ATOM      8  C   UNL     1      36.365   4.552  -8.133  1.00  0.00     0.099 C 
ATOM      9  O   UNL     1      37.005   4.424  -9.211  1.00  0.00    -0.544 OA
ATOM     10  O   UNL     1      36.792   5.485  -7.197  1.00  0.00    -0.544 OA
ENDBRANCH   3   8
ENDBRANCH   1   3
BRANCH   1  11
ATOM     11  C   UNL     1      33.847   5.765  -8.873  1.00  0.00     0.006 C 
ATOM     12  C   UNL     1      33.463   5.367 -10.299  1.00  0.00     0.004 C 
ENDBRANCH   1  11
TORSDOF 4
ENDMDL
