MODEL 1
REMARK VINA RESULT:    -4.142      0.000      0.000
REMARK INTER + INTRA:          -6.330
REMARK INTER:                  -6.079
REMARK INTRA:                  -0.251
REMARK UNBOUND:                -0.251
REMARK SMILES O=C([O-])CCCCCCCC(=O)[O-]
REMARK SMILES IDX 7 1 6 2 5 3 4 4 2 5 1 6 3 7 8 8 9 9 10 10 11 11 12 12 13 13
REMARK H PARENT
REMARK Flexibility Score: inf
ROOT
ATOM      1  C   UNL     1       4.745  44.200  11.881  1.00  0.00     0.000 C 
ENDROOT
BRANCH   1   2
ATOM      2  C   UNL     1       6.157  44.756  12.123  1.00  0.00     0.000 C 
BRANCH   2   3
ATOM      3  C   UNL     1       7.095  44.526  10.925  1.00  0.00     0.006 C 
BRANCH   3   4
ATOM      4  C   UNL     1       8.277  43.617  11.281  1.00  0.00     0.053 C 
BRANCH   4   5
ATOM      5  C   UNL     1       7.826  42.251  11.700  1.00  0.00     0.041 C 
ATOM      6  O   UNL     1       7.620  41.360  10.834  1.00  0.00    -0.550 OA
ATOM      7  O   UNL     1       7.661  41.953  13.046  1.00  0.00    -0.550 OA
ENDBRANCH   4   5
ENDBRANCH   3   4
ENDBRANCH   2   3
ENDBRANCH   1   2
BRANCH   1   8
ATOM      8  C   UNL     1       3.885  45.125  11.004  1.00  0.00     0.000 C 
BRANCH   8   9
ATOM      9  C   UNL     1       3.122  44.371   9.900  1.00  0.00     0.006 C 
BRANCH   9  10
ATOM     10  C   UNL     1       2.663  42.962  10.311  1.00  0.00     0.053 C 
BRANCH  10  11
ATOM     11  C   UNL     1       1.373  42.977  11.076  1.00  0.00     0.041 C 
ATOM     12  O   UNL     1       1.272  43.650  12.135  1.00  0.00    -0.550 OA
ATOM     13  O   UNL     1       0.272  42.275  10.601  1.00  0.00    -0.550 OA
ENDBRANCH  10  11
ENDBRANCH   9  10
ENDBRANCH   8   9
ENDBRANCH   1   8
TORSDOF 8
ENDMDL
MODEL 2
REMARK VINA RESULT:    -4.123      0.139      5.550
REMARK INTER + INTRA:          -6.302
REMARK INTER:                  -5.911
REMARK INTRA:                  -0.392
REMARK UNBOUND:                -0.251
REMARK SMILES O=C([O-])CCCCCCCC(=O)[O-]
REMARK SMILES IDX 7 1 6 2 5 3 4 4 2 5 1 6 3 7 8 8 9 9 10 10 11 11 12 12 13 13
REMARK H PARENT
REMARK Flexibility Score: inf
ROOT
ATOM      1  C   UNL     1       4.751  44.299  11.937  1.00  0.00     0.000 C 
ENDROOT
BRANCH   1   2
ATOM      2  C   UNL     1       3.887  45.125  10.971  1.00  0.00     0.000 C 
BRANCH   2   3
ATOM      3  C   UNL     1       3.229  44.260   9.881  1.00  0.00     0.006 C 
BRANCH   3   4
ATOM      4  C   UNL     1       2.791  42.890  10.415  1.00  0.00     0.053 C 
BRANCH   4   5
ATOM      5  C   UNL     1       1.407  42.931  10.986  1.00  0.00     0.041 C 
ATOM      6  O   UNL     1       0.472  42.298  10.425  1.00  0.00    -0.550 OA
ATOM      7  O   UNL     1       1.153  43.641  12.152  1.00  0.00    -0.550 OA
ENDBRANCH   4   5
ENDBRANCH   3   4
ENDBRANCH   2   3
ENDBRANCH   1   2
BRANCH   1   8
ATOM      8  C   UNL     1       6.144  44.912  12.159  1.00  0.00     0.000 C 
BRANCH   8   9
ATOM      9  C   UNL     1       7.118  44.633  11.000  1.00  0.00     0.006 C 
BRANCH   9  10
ATOM     10  C   UNL     1       8.276  43.692  11.374  1.00  0.00     0.053 C 
BRANCH  10  11
ATOM     11  C   UNL     1       7.803  42.322  11.756  1.00  0.00     0.041 C 
ATOM     12  O   UNL     1       7.590  41.454  10.869  1.00  0.00    -0.550 OA
ATOM     13  O   UNL     1       7.631  41.991  13.095  1.00  0.00    -0.550 OA
ENDBRANCH  10  11
ENDBRANCH   9  10
ENDBRANCH   8   9
ENDBRANCH   1   8
TORSDOF 8
ENDMDL
MODEL 3
REMARK VINA RESULT:    -3.935      1.295      1.640
REMARK INTER + INTRA:          -6.025
REMARK INTER:                  -5.560
REMARK INTRA:                  -0.465
REMARK UNBOUND:                -0.251
REMARK SMILES O=C([O-])CCCCCCCC(=O)[O-]
REMARK SMILES IDX 7 1 6 2 5 3 4 4 2 5 1 6 3 7 8 8 9 9 10 10 11 11 12 12 13 13
REMARK H PARENT
REMARK Flexibility Score: inf
ROOT
ATOM      1  C   UNL     1       5.526  43.484   9.910  1.00  0.00     0.000 C 
ENDROOT
BRANCH   1   2
ATOM      2  C   UNL     1       7.041  43.744   9.875  1.00  0.00     0.000 C 
BRANCH   2   3
ATOM      3  C   UNL     1       7.637  43.947  11.280  1.00  0.00     0.006 C 
BRANCH   3   4
ATOM      4  C   UNL     1       7.883  42.616  12.001  1.00  0.00     0.053 C 
BRANCH   4   5
ATOM      5  C   UNL     1       7.059  42.495  13.246  1.00  0.00     0.041 C 
ATOM      6  O   UNL     1       7.354  41.636  14.120  1.00  0.00    -0.550 OA
ATOM      7  O   UNL     1       5.984  43.349  13.458  1.00  0.00    -0.550 OA
ENDBRANCH   4   5
ENDBRANCH   3   4
ENDBRANCH   2   3
ENDBRANCH   1   2
BRANCH   1   8
ATOM      8  C   UNL     1       4.721  44.726  10.331  1.00  0.00     0.000 C 
BRANCH   8   9
ATOM      9  C   UNL     1       3.228  44.629   9.967  1.00  0.00     0.006 C 
BRANCH   9  10
ATOM     10  C   UNL     1       2.657  43.204  10.057  1.00  0.00     0.053 C 
BRANCH  10  11
ATOM     11  C   UNL     1       1.559  43.088  11.071  1.00  0.00     0.041 C 
ATOM     12  O   UNL     1       1.611  43.749  12.141  1.00  0.00    -0.550 OA
ATOM     13  O   UNL     1       0.460  42.274  10.821  1.00  0.00    -0.550 OA
ENDBRANCH  10  11
ENDBRANCH   9  10
ENDBRANCH   8   9
ENDBRANCH   1   8
TORSDOF 8
ENDMDL
MODEL 4
REMARK VINA RESULT:    -3.828      1.117      5.515
REMARK INTER + INTRA:          -5.869
REMARK INTER:                  -5.521
REMARK INTRA:                  -0.348
REMARK UNBOUND:                -0.251
REMARK SMILES O=C([O-])CCCCCCCC(=O)[O-]
REMARK SMILES IDX 7 1 6 2 5 3 4 4 2 5 1 6 3 7 8 8 9 9 10 10 11 11 12 12 13 13
REMARK H PARENT
REMARK Flexibility Score: inf
ROOT
ATOM      1  C   UNL     1       5.696  44.145   9.991  1.00  0.00     0.000 C 
ENDROOT
BRANCH   1   2
ATOM      2  C   UNL     1       4.417  44.617  10.701  1.00  0.00     0.000 C 
BRANCH   2   3
ATOM      3  C   UNL     1       3.146  44.324   9.884  1.00  0.00     0.006 C 
BRANCH   3   4
ATOM      4  C   UNL     1       2.584  42.926  10.169  1.00  0.00     0.053 C 
BRANCH   4   5
ATOM      5  C   UNL     1       1.395  42.976  11.078  1.00  0.00     0.041 C 
ATOM      6  O   UNL     1       1.423  43.684  12.120  1.00  0.00    -0.550 OA
ATOM      7  O   UNL     1       0.243  42.266  10.761  1.00  0.00    -0.550 OA
ENDBRANCH   4   5
ENDBRANCH   3   4
ENDBRANCH   2   3
ENDBRANCH   1   2
BRANCH   1   8
ATOM      8  C   UNL     1       6.950  44.901  10.462  1.00  0.00     0.000 C 
BRANCH   8   9
ATOM      9  C   UNL     1       8.010  43.978  11.089  1.00  0.00     0.006 C 
BRANCH   9  10
ATOM     10  C   UNL     1       7.470  42.596  11.497  1.00  0.00     0.053 C 
BRANCH  10  11
ATOM     11  C   UNL     1       7.070  42.539  12.941  1.00  0.00     0.041 C 
ATOM     12  O   UNL     1       6.164  43.296  13.378  1.00  0.00    -0.550 OA
ATOM     13  O   UNL     1       7.672  41.625  13.797  1.00  0.00    -0.550 OA
ENDBRANCH  10  11
ENDBRANCH   9  10
ENDBRANCH   8   9
ENDBRANCH   1   8
TORSDOF 8
ENDMDL
MODEL 5
REMARK VINA RESULT:    -3.281      1.843      5.395
REMARK INTER + INTRA:          -5.066
REMARK INTER:                  -4.628
REMARK INTRA:                  -0.438
REMARK UNBOUND:                -0.251
REMARK SMILES O=C([O-])CCCCCCCC(=O)[O-]
REMARK SMILES IDX 7 1 6 2 5 3 4 4 2 5 1 6 3 7 8 8 9 9 10 10 11 11 12 12 13 13
REMARK H PARENT
REMARK Flexibility Score: inf
ROOT
ATOM      1  C   UNL     1       5.347  43.302  13.070  1.00  0.00     0.000 C 
ENDROOT
BRANCH   1   2
ATOM      2  C   UNL     1       5.365  44.746  12.543  1.00  0.00     0.000 C 
BRANCH   2   3
ATOM      3  C   UNL     1       4.389  44.959  11.372  1.00  0.00     0.006 C 
BRANCH   3   4
ATOM      4  C   UNL     1       2.987  44.420  11.682  1.00  0.00     0.053 C 
BRANCH   4   5
ATOM      5  C   UNL     1       2.598  43.310  10.754  1.00  0.00     0.041 C 
ATOM      6  O   UNL     1       1.415  42.877  10.745  1.00  0.00    -0.550 OA
ATOM      7  O   UNL     1       3.533  42.773   9.878  1.00  0.00    -0.550 OA
ENDBRANCH   4   5
ENDBRANCH   3   4
ENDBRANCH   2   3
ENDBRANCH   1   2
BRANCH   1   8
ATOM      8  C   UNL     1       6.727  42.832  13.561  1.00  0.00     0.000 C 
BRANCH   8   9
ATOM      9  C   UNL     1       7.601  42.247  12.437  1.00  0.00     0.006 C 
BRANCH   9  10
ATOM     10  C   UNL     1       8.484  43.288  11.728  1.00  0.00     0.053 C 
BRANCH  10  11
ATOM     11  C   UNL     1       7.886  43.769  10.441  1.00  0.00     0.041 C 
ATOM     12  O   UNL     1       6.972  43.108   9.881  1.00  0.00    -0.550 OA
ATOM     13  O   UNL     1       8.313  44.964   9.875  1.00  0.00    -0.550 OA
ENDBRANCH  10  11
ENDBRANCH   9  10
ENDBRANCH   8   9
ENDBRANCH   1   8
TORSDOF 8
ENDMDL
MODEL 6
REMARK VINA RESULT:    -3.139      1.439      1.824
REMARK INTER + INTRA:          -4.858
REMARK INTER:                  -4.377
REMARK INTRA:                  -0.481
REMARK UNBOUND:                -0.251
REMARK SMILES O=C([O-])CCCCCCCC(=O)[O-]
REMARK SMILES IDX 7 1 6 2 5 3 4 4 2 5 1 6 3 7 8 8 9 9 10 10 11 11 12 12 13 13
REMARK H PARENT
REMARK Flexibility Score: inf
ROOT
ATOM      1  C   UNL     1       5.423  43.635  13.095  1.00  0.00     0.000 C 
ENDROOT
BRANCH   1   2
ATOM      2  C   UNL     1       6.867  43.121  12.975  1.00  0.00     0.000 C 
BRANCH   2   3
ATOM      3  C   UNL     1       7.716  43.966  12.008  1.00  0.00     0.006 C 
BRANCH   3   4
ATOM      4  C   UNL     1       8.264  43.135  10.842  1.00  0.00     0.053 C 
BRANCH   4   5
ATOM      5  C   UNL     1       7.307  42.060  10.424  1.00  0.00     0.041 C 
ATOM      6  O   UNL     1       6.213  42.364   9.878  1.00  0.00    -0.550 OA
ATOM      7  O   UNL     1       7.635  40.723  10.610  1.00  0.00    -0.550 OA
ENDBRANCH   4   5
ENDBRANCH   3   4
ENDBRANCH   2   3
ENDBRANCH   1   2
BRANCH   1   8
ATOM      8  C   UNL     1       5.190  44.937  12.309  1.00  0.00     0.000 C 
BRANCH   8   9
ATOM      9  C   UNL     1       4.060  44.820  11.270  1.00  0.00     0.006 C 
BRANCH   9  10
ATOM     10  C   UNL     1       2.795  44.124  11.802  1.00  0.00     0.053 C 
BRANCH  10  11
ATOM     11  C   UNL     1       2.230  43.136  10.827  1.00  0.00     0.041 C 
ATOM     12  O   UNL     1       1.002  42.859  10.845  1.00  0.00    -0.550 OA
ATOM     13  O   UNL     1       3.052  42.545   9.875  1.00  0.00    -0.550 OA
ENDBRANCH  10  11
ENDBRANCH   9  10
ENDBRANCH   8   9
ENDBRANCH   1   8
TORSDOF 8
ENDMDL
MODEL 7
REMARK VINA RESULT:    -2.449      2.817      3.822
REMARK INTER + INTRA:          -3.845
REMARK INTER:                  -3.590
REMARK INTRA:                  -0.255
REMARK UNBOUND:                -0.251
REMARK SMILES O=C([O-])CCCCCCCC(=O)[O-]
REMARK SMILES IDX 7 1 6 2 5 3 4 4 2 5 1 6 3 7 8 8 9 9 10 10 11 11 12 12 13 13
REMARK H PARENT
REMARK Flexibility Score: inf
ROOT
ATOM      1  C   UNL     1       1.925  43.210  10.963  1.00  0.00     0.000 C 
ENDROOT
BRANCH   1   2
ATOM      2  C   UNL     1       3.020  43.906  10.139  1.00  0.00     0.000 C 
BRANCH   2   3
ATOM      3  C   UNL     1       3.952  44.771  11.008  1.00  0.00     0.006 C 
BRANCH   3   4
ATOM      4  C   UNL     1       5.410  44.703  10.537  1.00  0.00     0.053 C 
BRANCH   4   5
ATOM      5  C   UNL     1       6.348  44.409  11.667  1.00  0.00     0.041 C 
ATOM      6  O   UNL     1       5.903  43.981  12.765  1.00  0.00    -0.550 OA
ATOM      7  O   UNL     1       7.717  44.576  11.499  1.00  0.00    -0.550 OA
ENDBRANCH   4   5
ENDBRANCH   3   4
ENDBRANCH   2   3
ENDBRANCH   1   2
BRANCH   1   8
ATOM      8  C   UNL     1       1.594  43.961  12.264  1.00  0.00     0.000 C 
BRANCH   8   9
ATOM      9  C   UNL     1       0.180  43.658  12.792  1.00  0.00     0.006 C 
BRANCH   9  10
ATOM     10  C   UNL     1      -0.294  44.622  13.894  1.00  0.00     0.053 C 
BRANCH  10  11
ATOM     11  C   UNL     1      -1.628  44.239  14.458  1.00  0.00     0.041 C 
ATOM     12  O   UNL     1      -2.404  45.122  14.907  1.00  0.00    -0.550 OA
ATOM     13  O   UNL     1      -2.031  42.908  14.458  1.00  0.00    -0.550 OA
ENDBRANCH  10  11
ENDBRANCH   9  10
ENDBRANCH   8   9
ENDBRANCH   1   8
TORSDOF 8
ENDMDL
MODEL 8
REMARK VINA RESULT:    -2.333      1.412      1.964
REMARK INTER + INTRA:          -3.674
REMARK INTER:                  -3.251
REMARK INTRA:                  -0.423
REMARK UNBOUND:                -0.251
REMARK SMILES O=C([O-])CCCCCCCC(=O)[O-]
REMARK SMILES IDX 7 1 6 2 5 3 4 4 2 5 1 6 3 7 8 8 9 9 10 10 11 11 12 12 13 13
REMARK H PARENT
REMARK Flexibility Score: inf
ROOT
ATOM      1  C   UNL     1       4.403  45.111  10.882  1.00  0.00     0.000 C 
ENDROOT
BRANCH   1   2
ATOM      2  C   UNL     1       4.741  44.303  12.146  1.00  0.00     0.000 C 
BRANCH   2   3
ATOM      3  C   UNL     1       6.208  43.839  12.175  1.00  0.00     0.006 C 
BRANCH   3   4
ATOM      4  C   UNL     1       6.773  43.620  10.766  1.00  0.00     0.053 C 
BRANCH   4   5
ATOM      5  C   UNL     1       8.259  43.807  10.725  1.00  0.00     0.041 C 
ATOM      6  O   UNL     1       8.777  44.578   9.875  1.00  0.00    -0.550 OA
ATOM      7  O   UNL     1       9.070  43.153  11.645  1.00  0.00    -0.550 OA
ENDBRANCH   4   5
ENDBRANCH   3   4
ENDBRANCH   2   3
ENDBRANCH   1   2
BRANCH   1   8
ATOM      8  C   UNL     1       3.115  44.627  10.195  1.00  0.00     0.000 C 
BRANCH   8   9
ATOM      9  C   UNL     1       2.745  43.178  10.561  1.00  0.00     0.006 C 
BRANCH   9  10
ATOM     10  C   UNL     1       1.433  42.691   9.921  1.00  0.00     0.053 C 
BRANCH  10  11
ATOM     11  C   UNL     1       0.353  42.456  10.933  1.00  0.00     0.041 C 
ATOM     12  O   UNL     1      -0.439  41.486  10.803  1.00  0.00    -0.550 OA
ATOM     13  O   UNL     1       0.240  43.289  12.040  1.00  0.00    -0.550 OA
ENDBRANCH  10  11
ENDBRANCH   9  10
ENDBRANCH   8   9
ENDBRANCH   1   8
TORSDOF 8
ENDMDL
MODEL 9
REMARK VINA RESULT:    -2.190      2.726      6.773
REMARK INTER + INTRA:          -3.465
REMARK INTER:                  -3.141
REMARK INTRA:                  -0.324
REMARK UNBOUND:                -0.251
REMARK SMILES O=C([O-])CCCCCCCC(=O)[O-]
REMARK SMILES IDX 7 1 6 2 5 3 4 4 2 5 1 6 3 7 8 8 9 9 10 10 11 11 12 12 13 13
REMARK H PARENT
REMARK Flexibility Score: inf
ROOT
ATOM      1  C   UNL     1       1.982  43.196  10.834  1.00  0.00     0.000 C 
ENDROOT
BRANCH   1   2
ATOM      2  C   UNL     1       1.619  43.996  12.095  1.00  0.00     0.000 C 
BRANCH   2   3
ATOM      3  C   UNL     1       0.225  43.638  12.639  1.00  0.00     0.006 C 
BRANCH   3   4
ATOM      4  C   UNL     1      -0.094  44.377  13.945  1.00  0.00     0.053 C 
BRANCH   4   5
ATOM      5  C   UNL     1      -1.509  44.151  14.383  1.00  0.00     0.041 C 
ATOM      6  O   UNL     1      -2.225  45.125  14.737  1.00  0.00    -0.550 OA
ATOM      7  O   UNL     1      -2.047  42.870  14.372  1.00  0.00    -0.550 OA
ENDBRANCH   4   5
ENDBRANCH   3   4
ENDBRANCH   2   3
ENDBRANCH   1   2
BRANCH   1   8
ATOM      8  C   UNL     1       3.011  43.920   9.949  1.00  0.00     0.000 C 
BRANCH   8   9
ATOM      9  C   UNL     1       3.881  44.921  10.730  1.00  0.00     0.006 C 
BRANCH   9  10
ATOM     10  C   UNL     1       5.393  44.735  10.512  1.00  0.00     0.053 C 
BRANCH  10  11
ATOM     11  C   UNL     1       6.101  44.282  11.753  1.00  0.00     0.041 C 
ATOM     12  O   UNL     1       5.445  43.843  12.733  1.00  0.00    -0.550 OA
ATOM     13  O   UNL     1       7.489  44.312  11.815  1.00  0.00    -0.550 OA
ENDBRANCH  10  11
ENDBRANCH   9  10
ENDBRANCH   8   9
ENDBRANCH   1   8
TORSDOF 8
ENDMDL
