MODEL 1
REMARK VINA RESULT:    -4.745      0.000      0.000
REMARK INTER + INTRA:          -5.069
REMARK INTER:                  -5.161
REMARK INTRA:                   0.093
REMARK UNBOUND:                 0.093
REMARK SMILES COc1cc2ccc(=O)oc2cc1O
REMARK SMILES IDX 3 1 13 2 12 3 11 4 5 5 4 6 6 7 7 8 8 9 9 10 10 11 2 12 1 13
REMARK SMILES IDX 14 14
REMARK H PARENT 14 15
REMARK Flexibility Score: inf
ROOT
ATOM      1  C   UNL     1      41.966  20.329  -1.536  1.00  0.00     0.161 A 
ATOM      2  C   UNL     1      42.319  18.996  -1.280  1.00  0.00     0.161 A 
ATOM      3  C   UNL     1      43.117  18.287  -2.191  1.00  0.00     0.098 A 
ATOM      4  C   UNL     1      43.567  18.904  -3.360  1.00  0.00     0.142 A 
ATOM      5  C   UNL     1      43.217  20.244  -3.625  1.00  0.00     0.022 A 
ATOM      6  C   UNL     1      42.420  20.953  -2.716  1.00  0.00     0.062 A 
ATOM      7  C   UNL     1      43.682  20.834  -4.806  1.00  0.00     0.019 A 
ATOM      8  C   UNL     1      44.472  20.087  -5.678  1.00  0.00     0.094 A 
ATOM      9  C   UNL     1      44.778  18.762  -5.350  1.00  0.00     0.336 A 
ATOM     10  O   UNL     1      45.490  18.071  -6.125  1.00  0.00    -0.246 OA
ATOM     11  O   UNL     1      44.323  18.226  -4.221  1.00  0.00    -0.423 OA
ENDROOT
BRANCH   1  12
ATOM     12  O   UNL     1      41.166  21.000  -0.597  1.00  0.00    -0.493 OA
ATOM     13  C   UNL     1      39.775  20.764  -0.406  1.00  0.00     0.278 C 
ENDBRANCH   1  12
BRANCH   2  14
ATOM     14  O   UNL     1      41.872  18.378  -0.113  1.00  0.00    -0.504 OA
ATOM     15  H   UNL     1      42.445  17.708   0.386  1.00  0.00     0.293 HD
ENDBRANCH   2  14
TORSDOF 2
ENDMDL
MODEL 2
REMARK VINA RESULT:    -4.427      6.821      9.260
REMARK INTER + INTRA:          -4.723
REMARK INTER:                  -4.676
REMARK INTRA:                  -0.046
REMARK UNBOUND:                 0.093
REMARK SMILES COc1cc2ccc(=O)oc2cc1O
REMARK SMILES IDX 3 1 13 2 12 3 11 4 5 5 4 6 6 7 7 8 8 9 9 10 10 11 2 12 1 13
REMARK SMILES IDX 14 14
REMARK H PARENT 14 15
REMARK Flexibility Score: inf
ROOT
ATOM      1  C   UNL     1      49.855  15.397  -4.719  1.00  0.00     0.161 A 
ATOM      2  C   UNL     1      48.642  16.024  -4.394  1.00  0.00     0.161 A 
ATOM      3  C   UNL     1      47.673  15.346  -3.640  1.00  0.00     0.098 A 
ATOM      4  C   UNL     1      47.908  14.040  -3.205  1.00  0.00     0.142 A 
ATOM      5  C   UNL     1      49.124  13.402  -3.526  1.00  0.00     0.022 A 
ATOM      6  C   UNL     1      50.093  14.079  -4.280  1.00  0.00     0.062 A 
ATOM      7  C   UNL     1      49.330  12.093  -3.077  1.00  0.00     0.019 A 
ATOM      8  C   UNL     1      48.336  11.462  -2.330  1.00  0.00     0.094 A 
ATOM      9  C   UNL     1      47.154  12.157  -2.050  1.00  0.00     0.336 A 
ATOM     10  O   UNL     1      46.245  11.604  -1.378  1.00  0.00    -0.246 OA
ATOM     11  O   UNL     1      46.985  13.401  -2.490  1.00  0.00    -0.423 OA
ENDROOT
BRANCH   1  12
ATOM     12  O   UNL     1      50.796  16.114  -5.475  1.00  0.00    -0.493 OA
ATOM     13  C   UNL     1      52.195  15.850  -5.482  1.00  0.00     0.278 C 
ENDBRANCH   1  12
BRANCH   2  14
ATOM     14  O   UNL     1      48.406  17.328  -4.827  1.00  0.00    -0.504 OA
ATOM     15  H   UNL     1      49.157  17.918  -5.167  1.00  0.00     0.293 HD
ENDBRANCH   2  14
TORSDOF 2
ENDMDL
MODEL 3
REMARK VINA RESULT:    -4.398      7.163     10.144
REMARK INTER + INTRA:          -4.691
REMARK INTER:                  -4.646
REMARK INTRA:                  -0.045
REMARK UNBOUND:                 0.093
REMARK SMILES COc1cc2ccc(=O)oc2cc1O
REMARK SMILES IDX 3 1 13 2 12 3 11 4 5 5 4 6 6 7 7 8 8 9 9 10 10 11 2 12 1 13
REMARK SMILES IDX 14 14
REMARK H PARENT 14 15
REMARK Flexibility Score: inf
ROOT
ATOM      1  C   UNL     1      51.512  14.492  -5.385  1.00  0.00     0.161 A 
ATOM      2  C   UNL     1      50.875  15.742  -5.418  1.00  0.00     0.161 A 
ATOM      3  C   UNL     1      49.660  15.936  -4.745  1.00  0.00     0.098 A 
ATOM      4  C   UNL     1      49.073  14.886  -4.036  1.00  0.00     0.142 A 
ATOM      5  C   UNL     1      49.706  13.626  -3.998  1.00  0.00     0.022 A 
ATOM      6  C   UNL     1      50.921  13.431  -4.669  1.00  0.00     0.062 A 
ATOM      7  C   UNL     1      49.092  12.593  -3.280  1.00  0.00     0.019 A 
ATOM      8  C   UNL     1      47.884  12.837  -2.628  1.00  0.00     0.094 A 
ATOM      9  C   UNL     1      47.315  14.112  -2.710  1.00  0.00     0.336 A 
ATOM     10  O   UNL     1      46.224  14.352  -2.129  1.00  0.00    -0.246 OA
ATOM     11  O   UNL     1      47.920  15.076  -3.400  1.00  0.00    -0.423 OA
ENDROOT
BRANCH   1  12
ATOM     12  O   UNL     1      52.727  14.342  -6.072  1.00  0.00    -0.493 OA
ATOM     13  C   UNL     1      53.522  13.161  -6.059  1.00  0.00     0.278 C 
ENDBRANCH   1  12
BRANCH   2  14
ATOM     14  O   UNL     1      51.460  16.792  -6.125  1.00  0.00    -0.504 OA
ATOM     15  H   UNL     1      52.139  16.624  -6.859  1.00  0.00     0.293 HD
ENDBRANCH   2  14
TORSDOF 2
ENDMDL
MODEL 4
REMARK VINA RESULT:    -4.350      1.851      5.004
REMARK INTER + INTRA:          -4.638
REMARK INTER:                  -4.585
REMARK INTRA:                  -0.054
REMARK UNBOUND:                 0.093
REMARK SMILES COc1cc2ccc(=O)oc2cc1O
REMARK SMILES IDX 3 1 13 2 12 3 11 4 5 5 4 6 6 7 7 8 8 9 9 10 10 11 2 12 1 13
REMARK SMILES IDX 14 14
REMARK H PARENT 14 15
REMARK Flexibility Score: inf
ROOT
ATOM      1  C   UNL     1      43.795  16.979  -3.206  1.00  0.00     0.161 A 
ATOM      2  C   UNL     1      42.835  16.270  -2.469  1.00  0.00     0.161 A 
ATOM      3  C   UNL     1      41.892  16.955  -1.688  1.00  0.00     0.098 A 
ATOM      4  C   UNL     1      41.903  18.350  -1.637  1.00  0.00     0.142 A 
ATOM      5  C   UNL     1      42.864  19.072  -2.374  1.00  0.00     0.022 A 
ATOM      6  C   UNL     1      43.806  18.388  -3.156  1.00  0.00     0.062 A 
ATOM      7  C   UNL     1      42.849  20.469  -2.302  1.00  0.00     0.019 A 
ATOM      8  C   UNL     1      41.892  21.103  -1.511  1.00  0.00     0.094 A 
ATOM      9  C   UNL     1      40.970  20.322  -0.807  1.00  0.00     0.336 A 
ATOM     10  O   UNL     1      40.097  20.875  -0.087  1.00  0.00    -0.246 OA
ATOM     11  O   UNL     1      41.006  18.995  -0.893  1.00  0.00    -0.423 OA
ENDROOT
BRANCH   1  12
ATOM     12  O   UNL     1      44.719  16.253  -3.974  1.00  0.00    -0.493 OA
ATOM     13  C   UNL     1      46.123  16.487  -3.983  1.00  0.00     0.278 C 
ENDBRANCH   1  12
BRANCH   2  14
ATOM     14  O   UNL     1      42.822  14.876  -2.519  1.00  0.00    -0.504 OA
ATOM     15  H   UNL     1      42.015  14.364  -2.857  1.00  0.00     0.293 HD
ENDBRANCH   2  14
TORSDOF 2
ENDMDL
MODEL 5
REMARK VINA RESULT:    -4.350      1.210      1.398
REMARK INTER + INTRA:          -4.638
REMARK INTER:                  -4.604
REMARK INTRA:                  -0.034
REMARK UNBOUND:                 0.093
REMARK SMILES COc1cc2ccc(=O)oc2cc1O
REMARK SMILES IDX 3 1 13 2 12 3 11 4 5 5 4 6 6 7 7 8 8 9 9 10 10 11 2 12 1 13
REMARK SMILES IDX 14 14
REMARK H PARENT 14 15
REMARK Flexibility Score: inf
ROOT
ATOM      1  C   UNL     1      42.140  19.367  -2.460  1.00  0.00     0.161 A 
ATOM      2  C   UNL     1      42.502  18.093  -1.997  1.00  0.00     0.161 A 
ATOM      3  C   UNL     1      43.470  17.340  -2.678  1.00  0.00     0.098 A 
ATOM      4  C   UNL     1      44.083  17.854  -3.823  1.00  0.00     0.142 A 
ATOM      5  C   UNL     1      43.726  19.134  -4.295  1.00  0.00     0.022 A 
ATOM      6  C   UNL     1      42.759  19.887  -3.615  1.00  0.00     0.062 A 
ATOM      7  C   UNL     1      44.357  19.621  -5.445  1.00  0.00     0.019 A 
ATOM      8  C   UNL     1      45.314  18.834  -6.086  1.00  0.00     0.094 A 
ATOM      9  C   UNL     1      45.616  17.574  -5.560  1.00  0.00     0.336 A 
ATOM     10  O   UNL     1      46.477  16.848  -6.124  1.00  0.00    -0.246 OA
ATOM     11  O   UNL     1      45.001  17.135  -4.465  1.00  0.00    -0.423 OA
ENDROOT
BRANCH   1  12
ATOM     12  O   UNL     1      41.167  20.085  -1.747  1.00  0.00    -0.493 OA
ATOM     13  C   UNL     1      41.446  20.964  -0.662  1.00  0.00     0.278 C 
ENDBRANCH   1  12
BRANCH   2  14
ATOM     14  O   UNL     1      41.892  17.578  -0.854  1.00  0.00    -0.504 OA
ATOM     15  H   UNL     1      40.964  17.172  -0.886  1.00  0.00     0.293 HD
ENDBRANCH   2  14
TORSDOF 2
ENDMDL
MODEL 6
REMARK VINA RESULT:    -4.327      7.275      8.971
REMARK INTER + INTRA:          -4.613
REMARK INTER:                  -4.558
REMARK INTRA:                  -0.055
REMARK UNBOUND:                 0.093
REMARK SMILES COc1cc2ccc(=O)oc2cc1O
REMARK SMILES IDX 3 1 13 2 12 3 11 4 5 5 4 6 6 7 7 8 8 9 9 10 10 11 2 12 1 13
REMARK SMILES IDX 14 14
REMARK H PARENT 14 15
REMARK Flexibility Score: inf
ROOT
ATOM      1  C   UNL     1      48.169  12.895  -2.912  1.00  0.00     0.161 A 
ATOM      2  C   UNL     1      47.791  14.247  -2.874  1.00  0.00     0.161 A 
ATOM      3  C   UNL     1      48.559  15.215  -3.537  1.00  0.00     0.098 A 
ATOM      4  C   UNL     1      49.706  14.843  -4.241  1.00  0.00     0.142 A 
ATOM      5  C   UNL     1      50.093  13.488  -4.284  1.00  0.00     0.022 A 
ATOM      6  C   UNL     1      49.326  12.518  -3.623  1.00  0.00     0.062 A 
ATOM      7  C   UNL     1      51.247  13.146  -4.997  1.00  0.00     0.019 A 
ATOM      8  C   UNL     1      51.976  14.147  -5.639  1.00  0.00     0.094 A 
ATOM      9  C   UNL     1      51.532  15.470  -5.552  1.00  0.00     0.336 A 
ATOM     10  O   UNL     1      52.176  16.388  -6.125  1.00  0.00    -0.246 OA
ATOM     11  O   UNL     1      50.430  15.767  -4.868  1.00  0.00    -0.423 OA
ENDROOT
BRANCH   1  12
ATOM     12  O   UNL     1      47.371  11.960  -2.235  1.00  0.00    -0.493 OA
ATOM     13  C   UNL     1      47.612  11.504  -0.907  1.00  0.00     0.278 C 
ENDBRANCH   1  12
BRANCH   2  14
ATOM     14  O   UNL     1      46.646  14.620  -2.172  1.00  0.00    -0.504 OA
ATOM     15  H   UNL     1      46.635  15.436  -1.570  1.00  0.00     0.293 HD
ENDBRANCH   2  14
TORSDOF 2
ENDMDL
MODEL 7
REMARK VINA RESULT:    -4.281      5.668      8.124
REMARK INTER + INTRA:          -4.564
REMARK INTER:                  -4.519
REMARK INTRA:                  -0.045
REMARK UNBOUND:                 0.093
REMARK SMILES COc1cc2ccc(=O)oc2cc1O
REMARK SMILES IDX 3 1 13 2 12 3 11 4 5 5 4 6 6 7 7 8 8 9 9 10 10 11 2 12 1 13
REMARK SMILES IDX 14 14
REMARK H PARENT 14 15
REMARK Flexibility Score: inf
ROOT
ATOM      1  C   UNL     1      49.333  13.915  -3.840  1.00  0.00     0.161 A 
ATOM      2  C   UNL     1      48.704  13.096  -2.890  1.00  0.00     0.161 A 
ATOM      3  C   UNL     1      47.426  13.420  -2.410  1.00  0.00     0.098 A 
ATOM      4  C   UNL     1      46.769  14.560  -2.874  1.00  0.00     0.142 A 
ATOM      5  C   UNL     1      47.392  15.389  -3.830  1.00  0.00     0.022 A 
ATOM      6  C   UNL     1      48.669  15.066  -4.311  1.00  0.00     0.062 A 
ATOM      7  C   UNL     1      46.708  16.525  -4.275  1.00  0.00     0.019 A 
ATOM      8  C   UNL     1      45.440  16.803  -3.767  1.00  0.00     0.094 A 
ATOM      9  C   UNL     1      44.884  15.936  -2.821  1.00  0.00     0.336 A 
ATOM     10  O   UNL     1      43.740  16.170  -2.350  1.00  0.00    -0.246 OA
ATOM     11  O   UNL     1      45.557  14.862  -2.414  1.00  0.00    -0.423 OA
ENDROOT
BRANCH   1  12
ATOM     12  O   UNL     1      50.611  13.552  -4.293  1.00  0.00    -0.493 OA
ATOM     13  C   UNL     1      51.322  14.227  -5.326  1.00  0.00     0.278 C 
ENDBRANCH   1  12
BRANCH   2  14
ATOM     14  O   UNL     1      49.359  11.956  -2.425  1.00  0.00    -0.504 OA
ATOM     15  H   UNL     1      49.611  11.850  -1.448  1.00  0.00     0.293 HD
ENDBRANCH   2  14
TORSDOF 2
ENDMDL
MODEL 8
REMARK VINA RESULT:    -4.224      6.200      7.785
REMARK INTER + INTRA:          -4.502
REMARK INTER:                  -4.439
REMARK INTRA:                  -0.063
REMARK UNBOUND:                 0.093
REMARK SMILES COc1cc2ccc(=O)oc2cc1O
REMARK SMILES IDX 3 1 13 2 12 3 11 4 5 5 4 6 6 7 7 8 8 9 9 10 10 11 2 12 1 13
REMARK SMILES IDX 14 14
REMARK H PARENT 14 15
REMARK Flexibility Score: inf
ROOT
ATOM      1  C   UNL     1      47.313  12.859  -2.345  1.00  0.00     0.161 A 
ATOM      2  C   UNL     1      48.651  12.680  -2.729  1.00  0.00     0.161 A 
ATOM      3  C   UNL     1      49.290  13.634  -3.535  1.00  0.00     0.098 A 
ATOM      4  C   UNL     1      48.600  14.770  -3.963  1.00  0.00     0.142 A 
ATOM      5  C   UNL     1      47.255  14.957  -3.582  1.00  0.00     0.022 A 
ATOM      6  C   UNL     1      46.615  14.005  -2.776  1.00  0.00     0.062 A 
ATOM      7  C   UNL     1      46.590  16.105  -4.027  1.00  0.00     0.019 A 
ATOM      8  C   UNL     1      47.270  17.023  -4.827  1.00  0.00     0.094 A 
ATOM      9  C   UNL     1      48.603  16.770  -5.165  1.00  0.00     0.336 A 
ATOM     10  O   UNL     1      49.234  17.587  -5.887  1.00  0.00    -0.246 OA
ATOM     11  O   UNL     1      49.212  15.670  -4.728  1.00  0.00    -0.423 OA
ENDROOT
BRANCH   1  12
ATOM     12  O   UNL     1      46.714  11.879  -1.537  1.00  0.00    -0.493 OA
ATOM     13  C   UNL     1      45.650  11.030  -1.954  1.00  0.00     0.278 C 
ENDBRANCH   1  12
BRANCH   2  14
ATOM     14  O   UNL     1      49.342  11.547  -2.303  1.00  0.00    -0.504 OA
ATOM     15  H   UNL     1      49.762  10.902  -2.963  1.00  0.00     0.293 HD
ENDBRANCH   2  14
TORSDOF 2
ENDMDL
MODEL 9
REMARK VINA RESULT:    -4.153      1.867      2.851
REMARK INTER + INTRA:          -4.424
REMARK INTER:                  -4.360
REMARK INTRA:                  -0.064
REMARK UNBOUND:                 0.093
REMARK SMILES COc1cc2ccc(=O)oc2cc1O
REMARK SMILES IDX 3 1 13 2 12 3 11 4 5 5 4 6 6 7 7 8 8 9 9 10 10 11 2 12 1 13
REMARK SMILES IDX 14 14
REMARK H PARENT 14 15
REMARK Flexibility Score: inf
ROOT
ATOM      1  C   UNL     1      42.356  17.687  -2.294  1.00  0.00     0.161 A 
ATOM      2  C   UNL     1      42.170  18.973  -1.763  1.00  0.00     0.161 A 
ATOM      3  C   UNL     1      42.640  20.099  -2.453  1.00  0.00     0.098 A 
ATOM      4  C   UNL     1      43.299  19.951  -3.676  1.00  0.00     0.142 A 
ATOM      5  C   UNL     1      43.490  18.663  -4.217  1.00  0.00     0.022 A 
ATOM      6  C   UNL     1      43.020  17.536  -3.528  1.00  0.00     0.062 A 
ATOM      7  C   UNL     1      44.154  18.546  -5.443  1.00  0.00     0.019 A 
ATOM      8  C   UNL     1      44.603  19.697  -6.090  1.00  0.00     0.094 A 
ATOM      9  C   UNL     1      44.378  20.942  -5.493  1.00  0.00     0.336 A 
ATOM     10  O   UNL     1      44.775  21.993  -6.061  1.00  0.00    -0.246 OA
ATOM     11  O   UNL     1      43.744  21.024  -4.326  1.00  0.00    -0.423 OA
ENDROOT
BRANCH   1  12
ATOM     12  O   UNL     1      41.868  16.588  -1.569  1.00  0.00    -0.493 OA
ATOM     13  C   UNL     1      40.776  15.771  -1.980  1.00  0.00     0.278 C 
ENDBRANCH   1  12
BRANCH   2  14
ATOM     14  O   UNL     1      41.512  19.123  -0.543  1.00  0.00    -0.504 OA
ATOM     15  H   UNL     1      41.831  18.647   0.294  1.00  0.00     0.293 HD
ENDBRANCH   2  14
TORSDOF 2
ENDMDL
