MODEL 1
REMARK VINA RESULT:    -5.143      0.000      0.000
REMARK INTER + INTRA:          -5.293
REMARK INTER:                  -5.293
REMARK INTRA:                   0.000
REMARK UNBOUND:                 0.000
REMARK SMILES Cc1cccc(O)c1C
REMARK SMILES IDX 1 1 2 2 8 3 6 4 5 5 4 6 3 7 9 8 7 9
REMARK H PARENT 7 10
REMARK Flexibility Score: inf
ROOT
ATOM      1  C   UNL     1      64.998 152.231   4.271  1.00  0.00     0.045 C 
ATOM      2  C   UNL     1      64.090 151.293   5.025  1.00  0.00    -0.045 A 
ATOM      3  C   UNL     1      64.207 149.878   4.917  1.00  0.00    -0.006 A 
ATOM      4  C   UNL     1      63.318 149.057   5.656  1.00  0.00     0.118 A 
ATOM      5  C   UNL     1      62.346 149.636   6.476  1.00  0.00     0.046 A 
ATOM      6  C   UNL     1      62.237 151.020   6.576  1.00  0.00     0.004 A 
ATOM      7  C   UNL     1      63.101 151.843   5.858  1.00  0.00     0.004 A 
ATOM      8  C   UNL     1      65.251 149.231   4.036  1.00  0.00     0.048 C 
ENDROOT
BRANCH   4   9
ATOM      9  O   UNL     1      63.374 147.662   5.599  1.00  0.00    -0.508 OA
ATOM     10  H   UNL     1      62.907 147.113   4.889  1.00  0.00     0.293 HD
ENDBRANCH   4   9
TORSDOF 1
ENDMDL
MODEL 2
REMARK VINA RESULT:    -5.127      2.027      3.774
REMARK INTER + INTRA:          -5.277
REMARK INTER:                  -5.277
REMARK INTRA:                   0.000
REMARK UNBOUND:                 0.000
REMARK SMILES Cc1cccc(O)c1C
REMARK SMILES IDX 1 1 2 2 8 3 6 4 5 5 4 6 3 7 9 8 7 9
REMARK H PARENT 7 10
REMARK Flexibility Score: inf
ROOT
ATOM      1  C   UNL     1      62.372 149.634   7.320  1.00  0.00     0.045 C 
ATOM      2  C   UNL     1      63.268 149.984   6.159  1.00  0.00    -0.045 A 
ATOM      3  C   UNL     1      63.277 151.283   5.577  1.00  0.00    -0.006 A 
ATOM      4  C   UNL     1      64.146 151.541   4.486  1.00  0.00     0.118 A 
ATOM      5  C   UNL     1      64.979 150.530   3.999  1.00  0.00     0.046 A 
ATOM      6  C   UNL     1      64.964 149.262   4.573  1.00  0.00     0.004 A 
ATOM      7  C   UNL     1      64.117 148.989   5.645  1.00  0.00     0.004 A 
ATOM      8  C   UNL     1      62.386 152.391   6.089  1.00  0.00     0.048 C 
ENDROOT
BRANCH   4   9
ATOM      9  O   UNL     1      64.209 152.791   3.865  1.00  0.00    -0.508 OA
ATOM     10  H   UNL     1      64.996 153.100   3.311  1.00  0.00     0.293 HD
ENDBRANCH   4   9
TORSDOF 1
ENDMDL
MODEL 3
REMARK VINA RESULT:    -4.961      1.822      2.822
REMARK INTER + INTRA:          -5.106
REMARK INTER:                  -5.106
REMARK INTRA:                   0.000
REMARK UNBOUND:                 0.000
REMARK SMILES Cc1cccc(O)c1C
REMARK SMILES IDX 1 1 2 2 8 3 6 4 5 5 4 6 3 7 9 8 7 9
REMARK H PARENT 7 10
REMARK Flexibility Score: inf
ROOT
ATOM      1  C   UNL     1      65.358 149.252   3.905  1.00  0.00     0.045 C 
ATOM      2  C   UNL     1      64.328 149.825   4.845  1.00  0.00    -0.045 A 
ATOM      3  C   UNL     1      64.152 151.227   5.010  1.00  0.00    -0.006 A 
ATOM      4  C   UNL     1      63.163 151.694   5.913  1.00  0.00     0.118 A 
ATOM      5  C   UNL     1      62.377 150.784   6.624  1.00  0.00     0.046 A 
ATOM      6  C   UNL     1      62.555 149.413   6.458  1.00  0.00     0.004 A 
ATOM      7  C   UNL     1      63.522 148.935   5.577  1.00  0.00     0.004 A 
ATOM      8  C   UNL     1      64.990 152.230   4.250  1.00  0.00     0.048 C 
ENDROOT
BRANCH   4   9
ATOM      9  O   UNL     1      62.934 153.056   6.125  1.00  0.00    -0.508 OA
ATOM     10  H   UNL     1      62.043 153.505   5.961  1.00  0.00     0.293 HD
ENDBRANCH   4   9
TORSDOF 1
ENDMDL
MODEL 4
REMARK VINA RESULT:    -4.914      0.809      2.608
REMARK INTER + INTRA:          -5.058
REMARK INTER:                  -5.058
REMARK INTRA:                   0.000
REMARK UNBOUND:                 0.000
REMARK SMILES Cc1cccc(O)c1C
REMARK SMILES IDX 1 1 2 2 8 3 6 4 5 5 4 6 3 7 9 8 7 9
REMARK H PARENT 7 10
REMARK Flexibility Score: inf
ROOT
ATOM      1  C   UNL     1      62.338 152.616   6.124  1.00  0.00     0.045 C 
ATOM      2  C   UNL     1      63.176 151.488   5.579  1.00  0.00    -0.045 A 
ATOM      3  C   UNL     1      62.945 150.131   5.941  1.00  0.00    -0.006 A 
ATOM      4  C   UNL     1      63.774 149.122   5.388  1.00  0.00     0.118 A 
ATOM      5  C   UNL     1      64.800 149.464   4.503  1.00  0.00     0.046 A 
ATOM      6  C   UNL     1      65.020 150.793   4.153  1.00  0.00     0.004 A 
ATOM      7  C   UNL     1      64.217 151.798   4.686  1.00  0.00     0.004 A 
ATOM      8  C   UNL     1      61.842 149.739   6.896  1.00  0.00     0.048 C 
ENDROOT
BRANCH   4   9
ATOM      9  O   UNL     1      63.606 147.770   5.698  1.00  0.00    -0.508 OA
ATOM     10  H   UNL     1      62.702 147.331   5.807  1.00  0.00     0.293 HD
ENDBRANCH   4   9
TORSDOF 1
ENDMDL
MODEL 5
REMARK VINA RESULT:    -4.848      5.679      6.120
REMARK INTER + INTRA:          -4.990
REMARK INTER:                  -4.990
REMARK INTRA:                   0.000
REMARK UNBOUND:                 0.000
REMARK SMILES Cc1cccc(O)c1C
REMARK SMILES IDX 1 1 2 2 8 3 6 4 5 5 4 6 3 7 9 8 7 9
REMARK H PARENT 7 10
REMARK Flexibility Score: inf
ROOT
ATOM      1  C   UNL     1      61.183 153.863  -0.332  1.00  0.00     0.045 C 
ATOM      2  C   UNL     1      60.289 153.770   0.878  1.00  0.00    -0.045 A 
ATOM      3  C   UNL     1      60.579 152.902   1.967  1.00  0.00    -0.006 A 
ATOM      4  C   UNL     1      59.692 152.866   3.073  1.00  0.00     0.118 A 
ATOM      5  C   UNL     1      58.553 153.676   3.085  1.00  0.00     0.046 A 
ATOM      6  C   UNL     1      58.275 154.523   2.015  1.00  0.00     0.004 A 
ATOM      7  C   UNL     1      59.134 154.572   0.920  1.00  0.00     0.004 A 
ATOM      8  C   UNL     1      61.805 152.018   1.976  1.00  0.00     0.048 C 
ENDROOT
BRANCH   4   9
ATOM      9  O   UNL     1      59.913 152.039   4.177  1.00  0.00    -0.508 OA
ATOM     10  H   UNL     1      60.156 152.386   5.095  1.00  0.00     0.293 HD
ENDBRANCH   4   9
TORSDOF 1
ENDMDL
MODEL 6
REMARK VINA RESULT:    -4.659     17.475     18.779
REMARK INTER + INTRA:          -4.795
REMARK INTER:                  -4.795
REMARK INTRA:                   0.000
REMARK UNBOUND:                 0.000
REMARK SMILES Cc1cccc(O)c1C
REMARK SMILES IDX 1 1 2 2 8 3 6 4 5 5 4 6 3 7 9 8 7 9
REMARK H PARENT 7 10
REMARK Flexibility Score: inf
ROOT
ATOM      1  C   UNL     1      71.742 138.817  -9.802  1.00  0.00     0.045 C 
ATOM      2  C   UNL     1      71.278 138.492  -8.405  1.00  0.00    -0.045 A 
ATOM      3  C   UNL     1      70.279 139.260  -7.742  1.00  0.00    -0.006 A 
ATOM      4  C   UNL     1      69.892 138.896  -6.427  1.00  0.00     0.118 A 
ATOM      5  C   UNL     1      70.486 137.798  -5.800  1.00  0.00     0.046 A 
ATOM      6  C   UNL     1      71.463 137.052  -6.454  1.00  0.00     0.004 A 
ATOM      7  C   UNL     1      71.856 137.394  -7.745  1.00  0.00     0.004 A 
ATOM      8  C   UNL     1      69.623 140.451  -8.402  1.00  0.00     0.048 C 
ENDROOT
BRANCH   4   9
ATOM      9  O   UNL     1      68.919 139.604  -5.716  1.00  0.00    -0.508 OA
ATOM     10  H   UNL     1      67.996 139.801  -6.079  1.00  0.00     0.293 HD
ENDBRANCH   4   9
TORSDOF 1
ENDMDL
MODEL 7
REMARK VINA RESULT:    -4.574      1.379      2.576
REMARK INTER + INTRA:          -4.708
REMARK INTER:                  -4.708
REMARK INTRA:                   0.000
REMARK UNBOUND:                 0.000
REMARK SMILES Cc1cccc(O)c1C
REMARK SMILES IDX 1 1 2 2 8 3 6 4 5 5 4 6 3 7 9 8 7 9
REMARK H PARENT 7 10
REMARK Flexibility Score: inf
ROOT
ATOM      1  C   UNL     1      64.822 152.608   5.363  1.00  0.00     0.045 C 
ATOM      2  C   UNL     1      64.230 151.222   5.390  1.00  0.00    -0.045 A 
ATOM      3  C   UNL     1      62.828 151.001   5.492  1.00  0.00    -0.006 A 
ATOM      4  C   UNL     1      62.342 149.668   5.513  1.00  0.00     0.118 A 
ATOM      5  C   UNL     1      63.233 148.595   5.432  1.00  0.00     0.046 A 
ATOM      6  C   UNL     1      64.604 148.819   5.333  1.00  0.00     0.004 A 
ATOM      7  C   UNL     1      65.100 150.121   5.312  1.00  0.00     0.004 A 
ATOM      8  C   UNL     1      61.845 152.146   5.580  1.00  0.00     0.048 C 
ENDROOT
BRANCH   4   9
ATOM      9  O   UNL     1      60.979 149.375   5.611  1.00  0.00    -0.508 OA
ATOM     10  H   UNL     1      60.611 148.434   5.642  1.00  0.00     0.293 HD
ENDBRANCH   4   9
TORSDOF 1
ENDMDL
MODEL 8
REMARK VINA RESULT:    -4.528     17.967     19.287
REMARK INTER + INTRA:          -4.660
REMARK INTER:                  -4.660
REMARK INTRA:                   0.000
REMARK UNBOUND:                 0.000
REMARK SMILES Cc1cccc(O)c1C
REMARK SMILES IDX 1 1 2 2 8 3 6 4 5 5 4 6 3 7 9 8 7 9
REMARK H PARENT 7 10
REMARK Flexibility Score: inf
ROOT
ATOM      1  C   UNL     1      72.991 137.049  -8.095  1.00  0.00     0.045 C 
ATOM      2  C   UNL     1      71.888 138.055  -8.310  1.00  0.00    -0.045 A 
ATOM      3  C   UNL     1      71.003 138.441  -7.264  1.00  0.00    -0.006 A 
ATOM      4  C   UNL     1      69.989 139.393  -7.540  1.00  0.00     0.118 A 
ATOM      5  C   UNL     1      69.868 139.939  -8.820  1.00  0.00     0.046 A 
ATOM      6  C   UNL     1      70.737 139.556  -9.838  1.00  0.00     0.004 A 
ATOM      7  C   UNL     1      71.740 138.622  -9.587  1.00  0.00     0.004 A 
ATOM      8  C   UNL     1      71.116 137.865  -5.872  1.00  0.00     0.048 C 
ENDROOT
BRANCH   4   9
ATOM      9  O   UNL     1      69.085 139.820  -6.563  1.00  0.00    -0.508 OA
ATOM     10  H   UNL     1      68.091 139.915  -6.726  1.00  0.00     0.293 HD
ENDBRANCH   4   9
TORSDOF 1
ENDMDL
MODEL 9
REMARK VINA RESULT:    -4.298      1.274      2.218
REMARK INTER + INTRA:          -4.424
REMARK INTER:                  -4.424
REMARK INTRA:                   0.000
REMARK UNBOUND:                 0.000
REMARK SMILES Cc1cccc(O)c1C
REMARK SMILES IDX 1 1 2 2 8 3 6 4 5 5 4 6 3 7 9 8 7 9
REMARK H PARENT 7 10
REMARK Flexibility Score: inf
ROOT
ATOM      1  C   UNL     1      62.188 152.546   6.140  1.00  0.00     0.045 C 
ATOM      2  C   UNL     1      62.531 151.096   5.916  1.00  0.00    -0.045 A 
ATOM      3  C   UNL     1      63.843 150.676   5.557  1.00  0.00    -0.006 A 
ATOM      4  C   UNL     1      64.093 149.294   5.361  1.00  0.00     0.118 A 
ATOM      5  C   UNL     1      63.061 148.365   5.521  1.00  0.00     0.046 A 
ATOM      6  C   UNL     1      61.780 148.783   5.872  1.00  0.00     0.004 A 
ATOM      7  C   UNL     1      61.515 150.136   6.068  1.00  0.00     0.004 A 
ATOM      8  C   UNL     1      64.974 151.663   5.380  1.00  0.00     0.048 C 
ENDROOT
BRANCH   4   9
ATOM      9  O   UNL     1      65.355 148.810   5.009  1.00  0.00    -0.508 OA
ATOM     10  H   UNL     1      65.956 149.258   4.331  1.00  0.00     0.293 HD
ENDBRANCH   4   9
TORSDOF 1
ENDMDL
