MODEL 1
REMARK VINA RESULT:     2.425      0.000      0.000
REMARK INTER + INTRA:           4.122
REMARK INTER:                   3.702
REMARK INTRA:                   0.421
REMARK UNBOUND:                 0.421
REMARK SMILES CC1=CCC[C@H](C)C(=O)C[C@H](C(C)C)C(=O)C1
REMARK SMILES IDX 8 1 9 2 6 3 7 4 5 5 4 6 3 7 2 8 1 9 10 11 11 12 15 13 16 14
REMARK SMILES IDX 17 15 12 17 13 18 14 19
REMARK H PARENT
REMARK Flexibility Score: 70.00
ROOT
ATOM      1  C   UNL     1      25.077 -18.545   0.056  1.00  0.00     0.136 C 
ATOM      2  O   UNL     1      24.709 -19.409  -0.727  1.00  0.00    -0.299 OA
ENDROOT
BRANCH   1   3
ATOM      3  C   UNL     1      25.974 -18.951   1.213  1.00  0.00     0.053 C 
ATOM      4  C   UNL     1      26.667 -20.290   0.929  1.00  0.00     0.016 C 
BRANCH   3   5
ATOM      5  C   UNL     1      27.005 -17.834   1.497  1.00  0.00     0.015 C 
BRANCH   5   6
ATOM      6  C   UNL     1      26.667 -17.017   2.763  1.00  0.00     0.028 C 
BRANCH   6   7
ATOM      7  C   UNL     1      25.407 -17.510   3.434  1.00  0.00    -0.028 C 
ATOM      8  C   UNL     1      24.166 -17.011   3.222  1.00  0.00    -0.070 CG0
ATOM      9  C   UNL     1      23.021 -17.604   4.004  1.00  0.00     0.039 C 
ATOM     10  G   UNL     1      23.874 -15.882   2.249  1.00  0.00     0.000 G0
ENDBRANCH   6   7
ENDBRANCH   5   6
ENDBRANCH   3   5
ENDBRANCH   1   3
BRANCH   1  11
ATOM     11  C   UNL     1      24.639 -17.117  -0.224  1.00  0.00     0.087 C 
BRANCH  11  12
ATOM     12  C   UNL     1      23.124 -16.792  -0.092  1.00  0.00     0.066 C 
BRANCH  12  13
ATOM     13  C   UNL     1      22.789 -16.190   1.266  1.00  0.00     0.140 C 
ATOM     14  O   UNL     1      21.620 -16.010   1.577  1.00  0.00    -0.299 OA
BRANCH  13  15
ATOM     15  C   UNL     1      23.884 -15.876   2.263  1.00  0.00     0.106 CG0
ATOM     16  G   UNL     1      24.142 -17.020   3.229  1.00  0.00     0.000 G0
ENDBRANCH  13  15
ENDBRANCH  12  13
BRANCH  12  17
ATOM     17  C   UNL     1      22.623 -15.905  -1.276  1.00  0.00    -0.006 C 
ATOM     18  C   UNL     1      21.168 -16.174  -1.703  1.00  0.00     0.008 C 
ATOM     19  C   UNL     1      23.551 -16.015  -2.496  1.00  0.00     0.008 C 
ENDBRANCH  12  17
ENDBRANCH  11  12
ENDBRANCH   1  11
TORSDOF 1
ENDMDL
MODEL 2
REMARK VINA RESULT:     3.330      2.177      4.204
REMARK INTER + INTRA:           5.503
REMARK INTER:                   3.536
REMARK INTRA:                   1.967
REMARK UNBOUND:                 0.421
REMARK SMILES CC1=CCC[C@H](C)C(=O)C[C@H](C(C)C)C(=O)C1
REMARK SMILES IDX 8 1 9 2 6 3 7 4 5 5 4 6 3 7 2 8 1 9 10 11 11 12 15 13 16 14
REMARK SMILES IDX 17 15 12 17 13 18 14 19
REMARK H PARENT
REMARK Flexibility Score: 70.00
ROOT
ATOM      1  C   UNL     1      26.134 -18.065   0.449  1.00  0.00     0.136 C 
ATOM      2  O   UNL     1      27.068 -17.647   1.121  1.00  0.00    -0.299 OA
ENDROOT
BRANCH   1   3
ATOM      3  C   UNL     1      25.329 -17.070  -0.369  1.00  0.00     0.053 C 
ATOM      4  C   UNL     1      24.123 -17.749  -1.031  1.00  0.00     0.016 C 
BRANCH   3   5
ATOM      5  C   UNL     1      24.887 -15.888   0.526  1.00  0.00     0.015 C 
BRANCH   5   6
ATOM      6  C   UNL     1      25.319 -16.061   1.999  1.00  0.00     0.028 C 
BRANCH   6   7
ATOM      7  C   UNL     1      24.138 -16.312   2.908  1.00  0.00    -0.028 C 
ATOM      8  C   UNL     1      23.396 -17.444   2.924  1.00  0.00    -0.070 CG0
ATOM      9  C   UNL     1      22.230 -17.514   3.877  1.00  0.00     0.039 C 
ATOM     10  G   UNL     1      23.672 -18.638   2.025  1.00  0.00     0.000 G0
ENDBRANCH   6   7
ENDBRANCH   5   6
ENDBRANCH   3   5
ENDBRANCH   1   3
BRANCH   1  11
ATOM     11  C   UNL     1      25.886 -19.564   0.455  1.00  0.00     0.087 C 
BRANCH  11  12
ATOM     12  C   UNL     1      25.742 -20.262   1.836  1.00  0.00     0.066 C 
BRANCH  12  13
ATOM     13  C   UNL     1      24.603 -19.668   2.656  1.00  0.00     0.140 C 
ATOM     14  O   UNL     1      24.494 -19.958   3.839  1.00  0.00    -0.299 OA
BRANCH  13  15
ATOM     15  C   UNL     1      23.646 -18.671   2.039  1.00  0.00     0.106 CG0
ATOM     16  G   UNL     1      23.403 -17.464   2.930  1.00  0.00     0.000 G0
ENDBRANCH  13  15
ENDBRANCH  12  13
BRANCH  12  17
ATOM     17  C   UNL     1      25.620 -21.812   1.686  1.00  0.00    -0.006 C 
ATOM     18  C   UNL     1      26.940 -22.578   1.893  1.00  0.00     0.008 C 
ATOM     19  C   UNL     1      25.001 -22.201   0.334  1.00  0.00     0.008 C 
ENDBRANCH  12  17
ENDBRANCH  11  12
ENDBRANCH   1  11
TORSDOF 1
ENDMDL
MODEL 3
REMARK VINA RESULT:     5.423      1.584      3.983
REMARK INTER + INTRA:           8.697
REMARK INTER:                   5.597
REMARK INTRA:                   3.100
REMARK UNBOUND:                 0.421
REMARK SMILES CC1=CCC[C@H](C)C(=O)C[C@H](C(C)C)C(=O)C1
REMARK SMILES IDX 8 1 9 2 6 3 7 4 5 5 4 6 3 7 2 8 1 9 10 11 11 12 15 13 16 14
REMARK SMILES IDX 17 15 12 17 13 18 14 19
REMARK H PARENT
REMARK Flexibility Score: 70.00
ROOT
ATOM      1  C   UNL     1      24.800 -17.732  -0.984  1.00  0.00     0.136 C 
ATOM      2  O   UNL     1      24.322 -18.831  -1.227  1.00  0.00    -0.299 OA
ENDROOT
BRANCH   1   3
ATOM      3  C   UNL     1      23.960 -16.499  -1.275  1.00  0.00     0.053 C 
ATOM      4  C   UNL     1      22.786 -16.838  -2.203  1.00  0.00     0.016 C 
BRANCH   3   5
ATOM      5  C   UNL     1      23.465 -15.875   0.051  1.00  0.00     0.015 C 
BRANCH   5   6
ATOM      6  C   UNL     1      22.066 -16.382   0.463  1.00  0.00     0.028 C 
BRANCH   6   7
ATOM      7  C   UNL     1      21.971 -16.631   1.950  1.00  0.00    -0.028 C 
ATOM      8  C   UNL     1      22.747 -17.495   2.646  1.00  0.00    -0.070 CG0
ATOM      9  C   UNL     1      22.494 -17.643   4.125  1.00  0.00     0.039 C 
ATOM     10  G   UNL     1      23.848 -18.328   2.010  1.00  0.00     0.000 G0
ENDBRANCH   6   7
ENDBRANCH   5   6
ENDBRANCH   3   5
ENDBRANCH   1   3
BRANCH   1  11
ATOM     11  C   UNL     1      26.187 -17.693  -0.365  1.00  0.00     0.087 C 
BRANCH  11  12
ATOM     12  C   UNL     1      26.319 -18.120   1.124  1.00  0.00     0.066 C 
BRANCH  12  13
ATOM     13  C   UNL     1      25.174 -17.582   1.972  1.00  0.00     0.140 C 
ATOM     14  O   UNL     1      25.300 -16.512   2.551  1.00  0.00    -0.299 OA
BRANCH  13  15
ATOM     15  C   UNL     1      23.857 -18.324   2.051  1.00  0.00     0.106 CG0
ATOM     16  G   UNL     1      22.749 -17.486   2.667  1.00  0.00     0.000 G0
ENDBRANCH  13  15
ENDBRANCH  12  13
BRANCH  12  17
ATOM     17  C   UNL     1      26.488 -19.666   1.265  1.00  0.00    -0.006 C 
ATOM     18  C   UNL     1      26.938 -20.379  -0.024  1.00  0.00     0.008 C 
ATOM     19  C   UNL     1      25.209 -20.326   1.804  1.00  0.00     0.008 C 
ENDBRANCH  12  17
ENDBRANCH  11  12
ENDBRANCH   1  11
TORSDOF 1
ENDMDL
