MODEL 1
REMARK VINA RESULT:    -4.554      0.000      0.000
REMARK INTER + INTRA:         -16.595
REMARK INTER:                 -11.477
REMARK INTRA:                  -5.118
REMARK UNBOUND:                -5.118
REMARK SMILES CCCCCCCCCCCCCCCCCCCCCCCCCCCC(=O)[O-]
REMARK SMILES IDX 15 1 16 2 17 3 18 4 19 5 20 6 21 7 22 8 23 9 24 10 25 11
REMARK SMILES IDX 26 12 27 13 28 14 29 15 30 16 14 17 13 18 12 19 11 20 10 21
REMARK SMILES IDX 9 22 8 23 7 24 6 25 5 26 4 27 3 28 2 29 1 30
REMARK H PARENT
REMARK Flexibility Score: inf
ROOT
ATOM      1  C   UNL     1      15.751   1.946   2.101  1.00  0.00     0.000 C 
ENDROOT
BRANCH   1   2
ATOM      2  C   UNL     1      15.373   3.404   1.763  1.00  0.00     0.000 C 
BRANCH   2   3
ATOM      3  C   UNL     1      14.552   3.592   0.474  1.00  0.00     0.000 C 
BRANCH   3   4
ATOM      4  C   UNL     1      13.037   3.642   0.733  1.00  0.00     0.000 C 
BRANCH   4   5
ATOM      5  C   UNL     1      12.695   3.959   2.200  1.00  0.00     0.000 C 
BRANCH   5   6
ATOM      6  C   UNL     1      11.471   4.875   2.405  1.00  0.00     0.000 C 
BRANCH   6   7
ATOM      7  C   UNL     1      10.717   5.258   1.118  1.00  0.00     0.000 C 
BRANCH   7   8
ATOM      8  C   UNL     1       9.379   4.521   0.967  1.00  0.00     0.000 C 
BRANCH   8   9
ATOM      9  C   UNL     1       9.120   4.141  -0.500  1.00  0.00     0.000 C 
BRANCH   9  10
ATOM     10  C   UNL     1      10.284   4.546  -1.430  1.00  0.00     0.000 C 
BRANCH  10  11
ATOM     11  C   UNL     1       9.941   5.696  -2.397  1.00  0.00     0.000 C 
BRANCH  11  12
ATOM     12  C   UNL     1       8.643   6.454  -2.073  1.00  0.00     0.006 C 
BRANCH  12  13
ATOM     13  C   UNL     1       8.584   7.841  -2.730  1.00  0.00     0.053 C 
BRANCH  13  14
ATOM     14  C   UNL     1       8.660   8.922  -1.697  1.00  0.00     0.041 C 
ATOM     15  O   UNL     1       8.468  10.124  -2.023  1.00  0.00    -0.550 OA
ATOM     16  O   UNL     1       8.967   8.607  -0.378  1.00  0.00    -0.550 OA
ENDBRANCH  13  14
ENDBRANCH  12  13
ENDBRANCH  11  12
ENDBRANCH  10  11
ENDBRANCH   9  10
ENDBRANCH   8   9
ENDBRANCH   7   8
ENDBRANCH   6   7
ENDBRANCH   5   6
ENDBRANCH   4   5
ENDBRANCH   3   4
ENDBRANCH   2   3
ENDBRANCH   1   2
BRANCH   1  17
ATOM     17  C   UNL     1      15.269   1.440   3.473  1.00  0.00     0.000 C 
BRANCH  17  18
ATOM     18  C   UNL     1      14.220   0.322   3.363  1.00  0.00     0.000 C 
BRANCH  18  19
ATOM     19  C   UNL     1      13.697   0.131   1.928  1.00  0.00     0.000 C 
BRANCH  19  20
ATOM     20  C   UNL     1      12.252  -0.394   1.820  1.00  0.00     0.000 C 
BRANCH  20  21
ATOM     21  C   UNL     1      11.163   0.695   1.811  1.00  0.00     0.000 C 
BRANCH  21  22
ATOM     22  C   UNL     1      10.501   0.939   0.440  1.00  0.00    -0.000 C 
BRANCH  22  23
ATOM     23  C   UNL     1      11.173   0.223  -0.748  1.00  0.00    -0.000 C 
BRANCH  23  24
ATOM     24  C   UNL     1      11.626   1.147  -1.893  1.00  0.00    -0.000 C 
BRANCH  24  25
ATOM     25  C   UNL     1      13.156   1.187  -2.057  1.00  0.00    -0.000 C 
BRANCH  25  26
ATOM     26  C   UNL     1      13.837  -0.133  -1.653  1.00  0.00    -0.000 C 
BRANCH  26  27
ATOM     27  C   UNL     1      15.362  -0.048  -1.457  1.00  0.00    -0.000 C 
BRANCH  27  28
ATOM     28  C   UNL     1      15.981   1.213  -2.085  1.00  0.00    -0.000 C 
BRANCH  28  29
ATOM     29  C   UNL     1      17.198   1.725  -1.298  1.00  0.00    -0.003 C 
ATOM     30  C   UNL     1      18.523   1.191  -1.840  1.00  0.00     0.004 C 
ENDBRANCH  28  29
ENDBRANCH  27  28
ENDBRANCH  26  27
ENDBRANCH  25  26
ENDBRANCH  24  25
ENDBRANCH  23  24
ENDBRANCH  22  23
ENDBRANCH  21  22
ENDBRANCH  20  21
ENDBRANCH  19  20
ENDBRANCH  18  19
ENDBRANCH  17  18
ENDBRANCH   1  17
TORSDOF 26
ENDMDL
MODEL 2
REMARK VINA RESULT:    -4.544      1.548      3.939
REMARK INTER + INTRA:         -16.568
REMARK INTER:                 -11.043
REMARK INTRA:                  -5.525
REMARK UNBOUND:                -5.118
REMARK SMILES CCCCCCCCCCCCCCCCCCCCCCCCCCCC(=O)[O-]
REMARK SMILES IDX 15 1 16 2 17 3 18 4 19 5 20 6 21 7 22 8 23 9 24 10 25 11
REMARK SMILES IDX 26 12 27 13 28 14 29 15 30 16 14 17 13 18 12 19 11 20 10 21
REMARK SMILES IDX 9 22 8 23 7 24 6 25 5 26 4 27 3 28 2 29 1 30
REMARK H PARENT
REMARK Flexibility Score: inf
ROOT
ATOM      1  C   UNL     1      16.908   2.226  -0.582  1.00  0.00     0.000 C 
ENDROOT
BRANCH   1   2
ATOM      2  C   UNL     1      16.118   2.908   0.555  1.00  0.00     0.000 C 
BRANCH   2   3
ATOM      3  C   UNL     1      15.027   3.895   0.102  1.00  0.00     0.000 C 
BRANCH   3   4
ATOM      4  C   UNL     1      14.235   4.490   1.278  1.00  0.00     0.000 C 
BRANCH   4   5
ATOM      5  C   UNL     1      12.715   4.296   1.129  1.00  0.00     0.000 C 
BRANCH   5   6
ATOM      6  C   UNL     1      11.870   4.794   2.320  1.00  0.00     0.000 C 
BRANCH   6   7
ATOM      7  C   UNL     1      11.160   3.691   3.126  1.00  0.00     0.000 C 
BRANCH   7   8
ATOM      8  C   UNL     1      11.111   2.346   2.387  1.00  0.00     0.000 C 
BRANCH   8   9
ATOM      9  C   UNL     1       9.661   1.882   2.178  1.00  0.00     0.000 C 
BRANCH   9  10
ATOM     10  C   UNL     1       9.241   1.906   0.692  1.00  0.00     0.000 C 
BRANCH  10  11
ATOM     11  C   UNL     1       8.924   3.315   0.154  1.00  0.00     0.000 C 
BRANCH  11  12
ATOM     12  C   UNL     1       9.428   3.597  -1.271  1.00  0.00     0.006 C 
BRANCH  12  13
ATOM     13  C   UNL     1      10.297   4.860  -1.356  1.00  0.00     0.053 C 
BRANCH  13  14
ATOM     14  C   UNL     1       9.451   6.093  -1.281  1.00  0.00     0.041 C 
ATOM     15  O   UNL     1       9.658   6.949  -0.379  1.00  0.00    -0.550 OA
ATOM     16  O   UNL     1       8.417   6.286  -2.190  1.00  0.00    -0.550 OA
ENDBRANCH  13  14
ENDBRANCH  12  13
ENDBRANCH  11  12
ENDBRANCH  10  11
ENDBRANCH   9  10
ENDBRANCH   8   9
ENDBRANCH   7   8
ENDBRANCH   6   7
ENDBRANCH   5   6
ENDBRANCH   4   5
ENDBRANCH   3   4
ENDBRANCH   2   3
ENDBRANCH   1   2
BRANCH   1  17
ATOM     17  C   UNL     1      16.156   2.088  -1.918  1.00  0.00     0.000 C 
BRANCH  17  18
ATOM     18  C   UNL     1      15.934   0.624  -2.331  1.00  0.00     0.000 C 
BRANCH  18  19
ATOM     19  C   UNL     1      14.475   0.326  -2.720  1.00  0.00     0.000 C 
BRANCH  19  20
ATOM     20  C   UNL     1      13.524   1.538  -2.680  1.00  0.00     0.000 C 
BRANCH  20  21
ATOM     21  C   UNL     1      12.473   1.505  -1.554  1.00  0.00     0.000 C 
BRANCH  21  22
ATOM     22  C   UNL     1      11.931   0.102  -1.214  1.00  0.00    -0.000 C 
BRANCH  22  23
ATOM     23  C   UNL     1      12.333  -0.437   0.173  1.00  0.00    -0.000 C 
BRANCH  23  24
ATOM     24  C   UNL     1      13.464   0.341   0.870  1.00  0.00    -0.000 C 
BRANCH  24  25
ATOM     25  C   UNL     1      14.756  -0.483   1.011  1.00  0.00    -0.000 C 
BRANCH  25  26
ATOM     26  C   UNL     1      15.443  -0.291   2.376  1.00  0.00    -0.000 C 
BRANCH  26  27
ATOM     27  C   UNL     1      14.653   0.556   3.391  1.00  0.00    -0.000 C 
BRANCH  27  28
ATOM     28  C   UNL     1      15.407   1.821   3.835  1.00  0.00    -0.000 C 
BRANCH  28  29
ATOM     29  C   UNL     1      15.940   1.714   5.273  1.00  0.00    -0.003 C 
ATOM     30  C   UNL     1      17.379   2.209   5.411  1.00  0.00     0.004 C 
ENDBRANCH  28  29
ENDBRANCH  27  28
ENDBRANCH  26  27
ENDBRANCH  25  26
ENDBRANCH  24  25
ENDBRANCH  23  24
ENDBRANCH  22  23
ENDBRANCH  21  22
ENDBRANCH  20  21
ENDBRANCH  19  20
ENDBRANCH  18  19
ENDBRANCH  17  18
ENDBRANCH   1  17
TORSDOF 26
ENDMDL
MODEL 3
REMARK VINA RESULT:    -4.474      1.434      3.951
REMARK INTER + INTRA:         -16.392
REMARK INTER:                 -11.176
REMARK INTRA:                  -5.216
REMARK UNBOUND:                -5.118
REMARK SMILES CCCCCCCCCCCCCCCCCCCCCCCCCCCC(=O)[O-]
REMARK SMILES IDX 15 1 16 2 17 3 18 4 19 5 20 6 21 7 22 8 23 9 24 10 25 11
REMARK SMILES IDX 26 12 27 13 28 14 29 15 30 16 14 17 13 18 12 19 11 20 10 21
REMARK SMILES IDX 9 22 8 23 7 24 6 25 5 26 4 27 3 28 2 29 1 30
REMARK H PARENT
REMARK Flexibility Score: inf
ROOT
ATOM      1  C   UNL     1      14.805   4.135   0.740  1.00  0.00     0.000 C 
ENDROOT
BRANCH   1   2
ATOM      2  C   UNL     1      13.293   3.885   0.925  1.00  0.00     0.000 C 
BRANCH   2   3
ATOM      3  C   UNL     1      12.613   4.726   2.022  1.00  0.00     0.000 C 
BRANCH   3   4
ATOM      4  C   UNL     1      11.638   3.907   2.883  1.00  0.00     0.000 C 
BRANCH   4   5
ATOM      5  C   UNL     1      11.436   2.476   2.354  1.00  0.00     0.000 C 
BRANCH   5   6
ATOM      6  C   UNL     1       9.999   1.927   2.477  1.00  0.00     0.000 C 
BRANCH   6   7
ATOM      7  C   UNL     1       9.772   0.539   1.850  1.00  0.00     0.000 C 
BRANCH   7   8
ATOM      8  C   UNL     1      10.013   0.520   0.334  1.00  0.00     0.000 C 
BRANCH   8   9
ATOM      9  C   UNL     1       9.157   1.581  -0.375  1.00  0.00     0.000 C 
BRANCH   9  10
ATOM     10  C   UNL     1      10.011   2.607  -1.152  1.00  0.00     0.000 C 
BRANCH  10  11
ATOM     11  C   UNL     1       9.367   4.002  -1.262  1.00  0.00     0.000 C 
BRANCH  11  12
ATOM     12  C   UNL     1       9.097   4.703   0.080  1.00  0.00     0.006 C 
BRANCH  12  13
ATOM     13  C   UNL     1       9.843   6.039   0.215  1.00  0.00     0.053 C 
BRANCH  13  14
ATOM     14  C   UNL     1       8.965   7.181  -0.190  1.00  0.00     0.041 C 
ATOM     15  O   UNL     1       8.199   7.721   0.653  1.00  0.00    -0.550 OA
ATOM     16  O   UNL     1       8.971   7.634  -1.505  1.00  0.00    -0.550 OA
ENDBRANCH  13  14
ENDBRANCH  12  13
ENDBRANCH  11  12
ENDBRANCH  10  11
ENDBRANCH   9  10
ENDBRANCH   8   9
ENDBRANCH   7   8
ENDBRANCH   6   7
ENDBRANCH   5   6
ENDBRANCH   4   5
ENDBRANCH   3   4
ENDBRANCH   2   3
ENDBRANCH   1   2
BRANCH   1  17
ATOM     17  C   UNL     1      15.377   3.732  -0.631  1.00  0.00     0.000 C 
BRANCH  17  18
ATOM     18  C   UNL     1      16.533   2.724  -0.524  1.00  0.00     0.000 C 
BRANCH  18  19
ATOM     19  C   UNL     1      16.789   1.964  -1.838  1.00  0.00     0.000 C 
BRANCH  19  20
ATOM     20  C   UNL     1      16.469   0.457  -1.798  1.00  0.00     0.000 C 
BRANCH  20  21
ATOM     21  C   UNL     1      15.352   0.003  -2.757  1.00  0.00     0.000 C 
BRANCH  21  22
ATOM     22  C   UNL     1      14.082   0.878  -2.734  1.00  0.00    -0.000 C 
BRANCH  22  23
ATOM     23  C   UNL     1      13.133   0.623  -1.546  1.00  0.00    -0.000 C 
BRANCH  23  24
ATOM     24  C   UNL     1      13.211  -0.791  -0.943  1.00  0.00    -0.000 C 
BRANCH  24  25
ATOM     25  C   UNL     1      13.455  -0.779   0.577  1.00  0.00    -0.000 C 
BRANCH  25  26
ATOM     26  C   UNL     1      14.258   0.448   1.045  1.00  0.00    -0.000 C 
BRANCH  26  27
ATOM     27  C   UNL     1      14.472   0.547   2.567  1.00  0.00    -0.000 C 
BRANCH  27  28
ATOM     28  C   UNL     1      15.698   1.395   2.949  1.00  0.00    -0.000 C 
BRANCH  28  29
ATOM     29  C   UNL     1      15.834   1.580   4.469  1.00  0.00    -0.003 C 
ATOM     30  C   UNL     1      16.736   0.530   5.116  1.00  0.00     0.004 C 
ENDBRANCH  28  29
ENDBRANCH  27  28
ENDBRANCH  26  27
ENDBRANCH  25  26
ENDBRANCH  24  25
ENDBRANCH  23  24
ENDBRANCH  22  23
ENDBRANCH  21  22
ENDBRANCH  20  21
ENDBRANCH  19  20
ENDBRANCH  18  19
ENDBRANCH  17  18
ENDBRANCH   1  17
TORSDOF 26
ENDMDL
MODEL 4
REMARK VINA RESULT:    -4.352      3.477      6.974
REMARK INTER + INTRA:         -16.086
REMARK INTER:                 -10.894
REMARK INTRA:                  -5.192
REMARK UNBOUND:                -5.118
REMARK SMILES CCCCCCCCCCCCCCCCCCCCCCCCCCCC(=O)[O-]
REMARK SMILES IDX 15 1 16 2 17 3 18 4 19 5 20 6 21 7 22 8 23 9 24 10 25 11
REMARK SMILES IDX 26 12 27 13 28 14 29 15 30 16 14 17 13 18 12 19 11 20 10 21
REMARK SMILES IDX 9 22 8 23 7 24 6 25 5 26 4 27 3 28 2 29 1 30
REMARK H PARENT
REMARK Flexibility Score: inf
ROOT
ATOM      1  C   UNL     1      14.042  -0.116   0.029  1.00  0.00     0.000 C 
ENDROOT
BRANCH   1   2
ATOM      2  C   UNL     1      13.021  -0.998   0.779  1.00  0.00     0.000 C 
BRANCH   2   3
ATOM      3  C   UNL     1      12.377  -0.353   2.020  1.00  0.00     0.000 C 
BRANCH   3   4
ATOM      4  C   UNL     1      10.945   0.145   1.759  1.00  0.00     0.000 C 
BRANCH   4   5
ATOM      5  C   UNL     1      10.500   1.226   2.761  1.00  0.00     0.000 C 
BRANCH   5   6
ATOM      6  C   UNL     1      10.657   2.679   2.269  1.00  0.00     0.000 C 
BRANCH   6   7
ATOM      7  C   UNL     1      10.997   3.708   3.364  1.00  0.00     0.000 C 
BRANCH   7   8
ATOM      8  C   UNL     1      11.713   4.951   2.816  1.00  0.00     0.000 C 
BRANCH   8   9
ATOM      9  C   UNL     1      12.398   4.648   1.474  1.00  0.00     0.000 C 
BRANCH   9  10
ATOM     10  C   UNL     1      13.913   4.393   1.627  1.00  0.00     0.000 C 
BRANCH  10  11
ATOM     11  C   UNL     1      14.278   2.913   1.857  1.00  0.00     0.000 C 
BRANCH  11  12
ATOM     12  C   UNL     1      15.717   2.666   2.339  1.00  0.00     0.006 C 
BRANCH  12  13
ATOM     13  C   UNL     1      15.869   1.342   3.103  1.00  0.00     0.053 C 
BRANCH  13  14
ATOM     14  C   UNL     1      16.143   1.592   4.553  1.00  0.00     0.041 C 
ATOM     15  O   UNL     1      15.384   1.107   5.434  1.00  0.00    -0.550 OA
ATOM     16  O   UNL     1      17.220   2.385   4.933  1.00  0.00    -0.550 OA
ENDBRANCH  13  14
ENDBRANCH  12  13
ENDBRANCH  11  12
ENDBRANCH  10  11
ENDBRANCH   9  10
ENDBRANCH   8   9
ENDBRANCH   7   8
ENDBRANCH   6   7
ENDBRANCH   5   6
ENDBRANCH   4   5
ENDBRANCH   3   4
ENDBRANCH   2   3
ENDBRANCH   1   2
BRANCH   1  17
ATOM     17  C   UNL     1      15.430  -0.748  -0.183  1.00  0.00     0.000 C 
BRANCH  17  18
ATOM     18  C   UNL     1      16.516   0.291  -0.506  1.00  0.00     0.000 C 
BRANCH  18  19
ATOM     19  C   UNL     1      16.163   1.170  -1.719  1.00  0.00     0.000 C 
BRANCH  19  20
ATOM     20  C   UNL     1      16.335   2.687  -1.503  1.00  0.00     0.000 C 
BRANCH  20  21
ATOM     21  C   UNL     1      15.079   3.532  -1.789  1.00  0.00     0.000 C 
BRANCH  21  22
ATOM     22  C   UNL     1      13.852   2.729  -2.267  1.00  0.00    -0.000 C 
BRANCH  22  23
ATOM     23  C   UNL     1      12.553   2.989  -1.480  1.00  0.00    -0.000 C 
BRANCH  23  24
ATOM     24  C   UNL     1      11.545   1.826  -1.485  1.00  0.00    -0.000 C 
BRANCH  24  25
ATOM     25  C   UNL     1      10.092   2.294  -1.286  1.00  0.00    -0.000 C 
BRANCH  25  26
ATOM     26  C   UNL     1       9.953   3.827  -1.276  1.00  0.00    -0.000 C 
BRANCH  26  27
ATOM     27  C   UNL     1       8.757   4.369  -0.471  1.00  0.00    -0.000 C 
BRANCH  27  28
ATOM     28  C   UNL     1       8.165   5.659  -1.067  1.00  0.00    -0.000 C 
BRANCH  28  29
ATOM     29  C   UNL     1       8.964   6.167  -2.278  1.00  0.00    -0.003 C 
ATOM     30  C   UNL     1       8.518   7.552  -2.745  1.00  0.00     0.004 C 
ENDBRANCH  28  29
ENDBRANCH  27  28
ENDBRANCH  26  27
ENDBRANCH  25  26
ENDBRANCH  24  25
ENDBRANCH  23  24
ENDBRANCH  22  23
ENDBRANCH  21  22
ENDBRANCH  20  21
ENDBRANCH  19  20
ENDBRANCH  18  19
ENDBRANCH  17  18
ENDBRANCH   1  17
TORSDOF 26
ENDMDL
MODEL 5
REMARK VINA RESULT:    -4.133      2.839      6.045
REMARK INTER + INTRA:         -15.533
REMARK INTER:                 -10.394
REMARK INTRA:                  -5.138
REMARK UNBOUND:                -5.118
REMARK SMILES CCCCCCCCCCCCCCCCCCCCCCCCCCCC(=O)[O-]
REMARK SMILES IDX 15 1 16 2 17 3 18 4 19 5 20 6 21 7 22 8 23 9 24 10 25 11
REMARK SMILES IDX 26 12 27 13 28 14 29 15 30 16 14 17 13 18 12 19 11 20 10 21
REMARK SMILES IDX 9 22 8 23 7 24 6 25 5 26 4 27 3 28 2 29 1 30
REMARK H PARENT
REMARK Flexibility Score: inf
ROOT
ATOM      1  C   UNL     1      11.413   4.992   2.023  1.00  0.00     0.000 C 
ENDROOT
BRANCH   1   2
ATOM      2  C   UNL     1      10.099   5.270   1.262  1.00  0.00     0.000 C 
BRANCH   2   3
ATOM      3  C   UNL     1      10.168   5.091  -0.266  1.00  0.00     0.000 C 
BRANCH   3   4
ATOM      4  C   UNL     1       9.347   3.890  -0.764  1.00  0.00     0.000 C 
BRANCH   4   5
ATOM      5  C   UNL     1      10.229   2.693  -1.163  1.00  0.00     0.000 C 
BRANCH   5   6
ATOM      6  C   UNL     1      11.720   3.019  -1.379  1.00  0.00     0.000 C 
BRANCH   6   7
ATOM      7  C   UNL     1      12.708   2.025  -0.741  1.00  0.00     0.000 C 
BRANCH   7   8
ATOM      8  C   UNL     1      12.852   0.725  -1.545  1.00  0.00     0.000 C 
BRANCH   8   9
ATOM      9  C   UNL     1      13.985   0.835  -2.577  1.00  0.00     0.000 C 
BRANCH   9  10
ATOM     10  C   UNL     1      14.988  -0.335  -2.482  1.00  0.00     0.000 C 
BRANCH  10  11
ATOM     11  C   UNL     1      16.387   0.078  -1.984  1.00  0.00     0.000 C 
BRANCH  11  12
ATOM     12  C   UNL     1      16.711   1.575  -2.121  1.00  0.00     0.006 C 
BRANCH  12  13
ATOM     13  C   UNL     1      16.647   2.323  -0.781  1.00  0.00     0.053 C 
BRANCH  13  14
ATOM     14  C   UNL     1      15.954   3.640  -0.941  1.00  0.00     0.041 C 
ATOM     15  O   UNL     1      15.904   4.451   0.023  1.00  0.00    -0.550 OA
ATOM     16  O   UNL     1      15.339   3.964  -2.145  1.00  0.00    -0.550 OA
ENDBRANCH  13  14
ENDBRANCH  12  13
ENDBRANCH  11  12
ENDBRANCH  10  11
ENDBRANCH   9  10
ENDBRANCH   8   9
ENDBRANCH   7   8
ENDBRANCH   6   7
ENDBRANCH   5   6
ENDBRANCH   4   5
ENDBRANCH   3   4
ENDBRANCH   2   3
ENDBRANCH   1   2
BRANCH   1  17
ATOM     17  C   UNL     1      11.356   3.836   3.038  1.00  0.00     0.000 C 
BRANCH  17  18
ATOM     18  C   UNL     1      11.396   2.451   2.370  1.00  0.00     0.000 C 
BRANCH  18  19
ATOM     19  C   UNL     1      10.119   1.629   2.621  1.00  0.00     0.000 C 
BRANCH  19  20
ATOM     20  C   UNL     1       9.875   0.476   1.628  1.00  0.00     0.000 C 
BRANCH  20  21
ATOM     21  C   UNL     1      11.032  -0.534   1.505  1.00  0.00     0.000 C 
BRANCH  21  22
ATOM     22  C   UNL     1      11.566  -1.074   2.847  1.00  0.00    -0.000 C 
BRANCH  22  23
ATOM     23  C   UNL     1      13.100  -1.052   2.997  1.00  0.00    -0.000 C 
BRANCH  23  24
ATOM     24  C   UNL     1      13.878  -0.788   1.695  1.00  0.00    -0.000 C 
BRANCH  24  25
ATOM     25  C   UNL     1      15.117   0.099   1.909  1.00  0.00    -0.000 C 
BRANCH  25  26
ATOM     26  C   UNL     1      14.759   1.563   2.221  1.00  0.00    -0.000 C 
BRANCH  26  27
ATOM     27  C   UNL     1      15.133   2.040   3.637  1.00  0.00    -0.000 C 
BRANCH  27  28
ATOM     28  C   UNL     1      15.435   0.881   4.603  1.00  0.00    -0.000 C 
BRANCH  28  29
ATOM     29  C   UNL     1      16.831   0.992   5.236  1.00  0.00    -0.003 C 
ATOM     30  C   UNL     1      17.262   2.439   5.471  1.00  0.00     0.004 C 
ENDBRANCH  28  29
ENDBRANCH  27  28
ENDBRANCH  26  27
ENDBRANCH  25  26
ENDBRANCH  24  25
ENDBRANCH  23  24
ENDBRANCH  22  23
ENDBRANCH  21  22
ENDBRANCH  20  21
ENDBRANCH  19  20
ENDBRANCH  18  19
ENDBRANCH  17  18
ENDBRANCH   1  17
TORSDOF 26
ENDMDL
MODEL 6
REMARK VINA RESULT:    -4.049      2.983      6.487
REMARK INTER + INTRA:         -15.322
REMARK INTER:                 -10.158
REMARK INTRA:                  -5.163
REMARK UNBOUND:                -5.118
REMARK SMILES CCCCCCCCCCCCCCCCCCCCCCCCCCCC(=O)[O-]
REMARK SMILES IDX 15 1 16 2 17 3 18 4 19 5 20 6 21 7 22 8 23 9 24 10 25 11
REMARK SMILES IDX 26 12 27 13 28 14 29 15 30 16 14 17 13 18 12 19 11 20 10 21
REMARK SMILES IDX 9 22 8 23 7 24 6 25 5 26 4 27 3 28 2 29 1 30
REMARK H PARENT
REMARK Flexibility Score: inf
ROOT
ATOM      1  C   UNL     1      13.578   3.527  -2.446  1.00  0.00     0.000 C 
ENDROOT
BRANCH   1   2
ATOM      2  C   UNL     1      15.101   3.766  -2.367  1.00  0.00     0.000 C 
BRANCH   2   3
ATOM      3  C   UNL     1      15.704   3.724  -0.950  1.00  0.00     0.000 C 
BRANCH   3   4
ATOM      4  C   UNL     1      16.805   2.661  -0.802  1.00  0.00     0.000 C 
BRANCH   4   5
ATOM      5  C   UNL     1      16.795   1.631  -1.947  1.00  0.00     0.000 C 
BRANCH   5   6
ATOM      6  C   UNL     1      16.199   0.255  -1.586  1.00  0.00     0.000 C 
BRANCH   6   7
ATOM      7  C   UNL     1      14.861  -0.079  -2.271  1.00  0.00     0.000 C 
BRANCH   7   8
ATOM      8  C   UNL     1      13.833  -0.691  -1.309  1.00  0.00     0.000 C 
BRANCH   8   9
ATOM      9  C   UNL     1      14.095  -0.244   0.138  1.00  0.00     0.000 C 
BRANCH   9  10
ATOM     10  C   UNL     1      12.933  -0.604   1.088  1.00  0.00     0.000 C 
BRANCH  10  11
ATOM     11  C   UNL     1      11.651  -1.061   0.365  1.00  0.00     0.000 C 
BRANCH  11  12
ATOM     12  C   UNL     1      10.362  -0.960   1.198  1.00  0.00     0.006 C 
BRANCH  12  13
ATOM     13  C   UNL     1      10.609  -0.420   2.614  1.00  0.00     0.053 C 
BRANCH  13  14
ATOM     14  C   UNL     1       9.644   0.676   2.941  1.00  0.00     0.041 C 
ATOM     15  O   UNL     1      10.065   1.839   3.185  1.00  0.00    -0.550 OA
ATOM     16  O   UNL     1       8.281   0.410   3.004  1.00  0.00    -0.550 OA
ENDBRANCH  13  14
ENDBRANCH  12  13
ENDBRANCH  11  12
ENDBRANCH  10  11
ENDBRANCH   9  10
ENDBRANCH   8   9
ENDBRANCH   7   8
ENDBRANCH   6   7
ENDBRANCH   5   6
ENDBRANCH   4   5
ENDBRANCH   3   4
ENDBRANCH   2   3
ENDBRANCH   1   2
BRANCH   1  17
ATOM     17  C   UNL     1      12.947   2.876  -1.202  1.00  0.00     0.000 C 
BRANCH  17  18
ATOM     18  C   UNL     1      11.495   2.425  -1.434  1.00  0.00     0.000 C 
BRANCH  18  19
ATOM     19  C   UNL     1      10.652   2.433  -0.147  1.00  0.00     0.000 C 
BRANCH  19  20
ATOM     20  C   UNL     1       9.434   3.378  -0.165  1.00  0.00     0.000 C 
BRANCH  20  21
ATOM     21  C   UNL     1       9.488   4.530   0.856  1.00  0.00     0.000 C 
BRANCH  21  22
ATOM     22  C   UNL     1      10.842   5.263   0.936  1.00  0.00    -0.000 C 
BRANCH  22  23
ATOM     23  C   UNL     1      11.737   4.857   2.123  1.00  0.00    -0.000 C 
BRANCH  23  24
ATOM     24  C   UNL     1      13.194   4.523   1.756  1.00  0.00    -0.000 C 
BRANCH  24  25
ATOM     25  C   UNL     1      13.660   3.173   2.329  1.00  0.00    -0.000 C 
BRANCH  25  26
ATOM     26  C   UNL     1      15.191   3.069   2.446  1.00  0.00    -0.000 C 
BRANCH  26  27
ATOM     27  C   UNL     1      15.732   1.649   2.696  1.00  0.00    -0.000 C 
BRANCH  27  28
ATOM     28  C   UNL     1      15.047   0.943   3.879  1.00  0.00    -0.000 C 
BRANCH  28  29
ATOM     29  C   UNL     1      15.582   1.420   5.238  1.00  0.00    -0.003 C 
ATOM     30  C   UNL     1      17.011   1.956   5.158  1.00  0.00     0.004 C 
ENDBRANCH  28  29
ENDBRANCH  27  28
ENDBRANCH  26  27
ENDBRANCH  25  26
ENDBRANCH  24  25
ENDBRANCH  23  24
ENDBRANCH  22  23
ENDBRANCH  21  22
ENDBRANCH  20  21
ENDBRANCH  19  20
ENDBRANCH  18  19
ENDBRANCH  17  18
ENDBRANCH   1  17
TORSDOF 26
ENDMDL
MODEL 7
REMARK VINA RESULT:    -4.046      1.630      4.906
REMARK INTER + INTRA:         -15.314
REMARK INTER:                 -10.643
REMARK INTRA:                  -4.671
REMARK UNBOUND:                -5.118
REMARK SMILES CCCCCCCCCCCCCCCCCCCCCCCCCCCC(=O)[O-]
REMARK SMILES IDX 15 1 16 2 17 3 18 4 19 5 20 6 21 7 22 8 23 9 24 10 25 11
REMARK SMILES IDX 26 12 27 13 28 14 29 15 30 16 14 17 13 18 12 19 11 20 10 21
REMARK SMILES IDX 9 22 8 23 7 24 6 25 5 26 4 27 3 28 2 29 1 30
REMARK H PARENT
REMARK Flexibility Score: inf
ROOT
ATOM      1  C   UNL     1       8.394   1.637   0.335  1.00  0.00     0.000 C 
ENDROOT
BRANCH   1   2
ATOM      2  C   UNL     1       8.189   0.108   0.405  1.00  0.00     0.000 C 
BRANCH   2   3
ATOM      3  C   UNL     1       8.965  -0.612   1.523  1.00  0.00     0.000 C 
BRANCH   3   4
ATOM      4  C   UNL     1      10.436  -0.871   1.158  1.00  0.00     0.000 C 
BRANCH   4   5
ATOM      5  C   UNL     1      11.404   0.093   1.869  1.00  0.00     0.000 C 
BRANCH   5   6
ATOM      6  C   UNL     1      10.763   0.982   2.955  1.00  0.00     0.000 C 
BRANCH   6   7
ATOM      7  C   UNL     1      10.948   2.498   2.752  1.00  0.00     0.000 C 
BRANCH   7   8
ATOM      8  C   UNL     1      12.134   2.840   1.840  1.00  0.00     0.000 C 
BRANCH   8   9
ATOM      9  C   UNL     1      12.389   4.355   1.809  1.00  0.00     0.000 C 
BRANCH   9  10
ATOM     10  C   UNL     1      11.090   5.177   1.956  1.00  0.00     0.000 C 
BRANCH  10  11
ATOM     11  C   UNL     1      10.408   5.517   0.616  1.00  0.00     0.000 C 
BRANCH  11  12
ATOM     12  C   UNL     1       8.872   5.571   0.662  1.00  0.00     0.006 C 
BRANCH  12  13
ATOM     13  C   UNL     1       8.326   7.005   0.603  1.00  0.00     0.053 C 
BRANCH  13  14
ATOM     14  C   UNL     1       8.552   7.606  -0.749  1.00  0.00     0.041 C 
ATOM     15  O   UNL     1       8.775   8.841  -0.864  1.00  0.00    -0.550 OA
ATOM     16  O   UNL     1       8.493   6.807  -1.886  1.00  0.00    -0.550 OA
ENDBRANCH  13  14
ENDBRANCH  12  13
ENDBRANCH  11  12
ENDBRANCH  10  11
ENDBRANCH   9  10
ENDBRANCH   8   9
ENDBRANCH   7   8
ENDBRANCH   6   7
ENDBRANCH   5   6
ENDBRANCH   4   5
ENDBRANCH   3   4
ENDBRANCH   2   3
ENDBRANCH   1   2
BRANCH   1  17
ATOM     17  C   UNL     1       8.789   2.187  -1.048  1.00  0.00     0.000 C 
BRANCH  17  18
ATOM     18  C   UNL     1      10.290   2.502  -1.160  1.00  0.00     0.000 C 
BRANCH  18  19
ATOM     19  C   UNL     1      11.114   1.312  -1.683  1.00  0.00     0.000 C 
BRANCH  19  20
ATOM     20  C   UNL     1      12.621   1.365  -1.362  1.00  0.00     0.000 C 
BRANCH  20  21
ATOM     21  C   UNL     1      13.512   1.885  -2.505  1.00  0.00     0.000 C 
BRANCH  21  22
ATOM     22  C   UNL     1      13.917   3.368  -2.389  1.00  0.00    -0.000 C 
BRANCH  22  23
ATOM     23  C   UNL     1      15.304   3.622  -1.766  1.00  0.00    -0.000 C 
BRANCH  23  24
ATOM     24  C   UNL     1      16.149   2.358  -1.523  1.00  0.00    -0.000 C 
BRANCH  24  25
ATOM     25  C   UNL     1      16.127   1.898  -0.055  1.00  0.00    -0.000 C 
BRANCH  25  26
ATOM     26  C   UNL     1      15.760   3.030   0.922  1.00  0.00    -0.000 C 
BRANCH  26  27
ATOM     27  C   UNL     1      15.723   2.625   2.407  1.00  0.00    -0.000 C 
BRANCH  27  28
ATOM     28  C   UNL     1      15.360   1.144   2.618  1.00  0.00    -0.000 C 
BRANCH  28  29
ATOM     29  C   UNL     1      15.880   0.597   3.958  1.00  0.00    -0.003 C 
ATOM     30  C   UNL     1      16.464   1.686   4.857  1.00  0.00     0.004 C 
ENDBRANCH  28  29
ENDBRANCH  27  28
ENDBRANCH  26  27
ENDBRANCH  25  26
ENDBRANCH  24  25
ENDBRANCH  23  24
ENDBRANCH  22  23
ENDBRANCH  21  22
ENDBRANCH  20  21
ENDBRANCH  19  20
ENDBRANCH  18  19
ENDBRANCH  17  18
ENDBRANCH   1  17
TORSDOF 26
ENDMDL
MODEL 8
REMARK VINA RESULT:    -4.032      3.097      6.957
REMARK INTER + INTRA:         -15.278
REMARK INTER:                 -10.399
REMARK INTRA:                  -4.878
REMARK UNBOUND:                -5.118
REMARK SMILES CCCCCCCCCCCCCCCCCCCCCCCCCCCC(=O)[O-]
REMARK SMILES IDX 15 1 16 2 17 3 18 4 19 5 20 6 21 7 22 8 23 9 24 10 25 11
REMARK SMILES IDX 26 12 27 13 28 14 29 15 30 16 14 17 13 18 12 19 11 20 10 21
REMARK SMILES IDX 9 22 8 23 7 24 6 25 5 26 4 27 3 28 2 29 1 30
REMARK H PARENT
REMARK Flexibility Score: inf
ROOT
ATOM      1  C   UNL     1      11.846   0.643   2.324  1.00  0.00     0.000 C 
ENDROOT
BRANCH   1   2
ATOM      2  C   UNL     1      10.549  -0.049   2.794  1.00  0.00     0.000 C 
BRANCH   2   3
ATOM      3  C   UNL     1       9.380   0.896   3.132  1.00  0.00     0.000 C 
BRANCH   3   4
ATOM      4  C   UNL     1       8.173   0.709   2.198  1.00  0.00     0.000 C 
BRANCH   4   5
ATOM      5  C   UNL     1       7.879   1.960   1.349  1.00  0.00     0.000 C 
BRANCH   5   6
ATOM      6  C   UNL     1       8.422   1.915  -0.094  1.00  0.00     0.000 C 
BRANCH   6   7
ATOM      7  C   UNL     1       9.028   0.566  -0.525  1.00  0.00     0.000 C 
BRANCH   7   8
ATOM      8  C   UNL     1      10.023   0.700  -1.686  1.00  0.00     0.000 C 
BRANCH   8   9
ATOM      9  C   UNL     1      11.317   1.391  -1.228  1.00  0.00     0.000 C 
BRANCH   9  10
ATOM     10  C   UNL     1      12.558   0.894  -2.000  1.00  0.00     0.000 C 
BRANCH  10  11
ATOM     11  C   UNL     1      13.687   0.362  -1.095  1.00  0.00     0.000 C 
BRANCH  11  12
ATOM     12  C   UNL     1      15.010   0.057  -1.816  1.00  0.00     0.006 C 
BRANCH  12  13
ATOM     13  C   UNL     1      16.243   0.416  -0.974  1.00  0.00     0.053 C 
BRANCH  13  14
ATOM     14  C   UNL     1      17.055   1.479  -1.647  1.00  0.00     0.041 C 
ATOM     15  O   UNL     1      18.271   1.277  -1.909  1.00  0.00    -0.550 OA
ATOM     16  O   UNL     1      16.477   2.704  -1.961  1.00  0.00    -0.550 OA
ENDBRANCH  13  14
ENDBRANCH  12  13
ENDBRANCH  11  12
ENDBRANCH  10  11
ENDBRANCH   9  10
ENDBRANCH   8   9
ENDBRANCH   7   8
ENDBRANCH   6   7
ENDBRANCH   5   6
ENDBRANCH   4   5
ENDBRANCH   3   4
ENDBRANCH   2   3
ENDBRANCH   1   2
BRANCH   1  17
ATOM     17  C   UNL     1      13.117  -0.223   2.387  1.00  0.00     0.000 C 
BRANCH  17  18
ATOM     18  C   UNL     1      14.203   0.373   3.297  1.00  0.00     0.000 C 
BRANCH  18  19
ATOM     19  C   UNL     1      15.437   0.860   2.517  1.00  0.00     0.000 C 
BRANCH  19  20
ATOM     20  C   UNL     1      15.758   2.361   2.666  1.00  0.00     0.000 C 
BRANCH  20  21
ATOM     21  C   UNL     1      15.535   3.204   1.396  1.00  0.00     0.000 C 
BRANCH  21  22
ATOM     22  C   UNL     1      14.068   3.305   0.934  1.00  0.00    -0.000 C 
BRANCH  22  23
ATOM     23  C   UNL     1      13.308   4.549   1.436  1.00  0.00    -0.000 C 
BRANCH  23  24
ATOM     24  C   UNL     1      12.566   4.363   2.772  1.00  0.00    -0.000 C 
BRANCH  24  25
ATOM     25  C   UNL     1      11.047   4.197   2.594  1.00  0.00    -0.000 C 
BRANCH  25  26
ATOM     26  C   UNL     1      10.595   4.351   1.130  1.00  0.00    -0.000 C 
BRANCH  26  27
ATOM     27  C   UNL     1       9.954   5.708   0.784  1.00  0.00    -0.000 C 
BRANCH  27  28
ATOM     28  C   UNL     1       8.474   5.589   0.380  1.00  0.00    -0.000 C 
BRANCH  28  29
ATOM     29  C   UNL     1       8.275   5.639  -1.143  1.00  0.00    -0.003 C 
ATOM     30  C   UNL     1       9.550   5.316  -1.920  1.00  0.00     0.004 C 
ENDBRANCH  28  29
ENDBRANCH  27  28
ENDBRANCH  26  27
ENDBRANCH  25  26
ENDBRANCH  24  25
ENDBRANCH  23  24
ENDBRANCH  22  23
ENDBRANCH  21  22
ENDBRANCH  20  21
ENDBRANCH  19  20
ENDBRANCH  18  19
ENDBRANCH  17  18
ENDBRANCH   1  17
TORSDOF 26
ENDMDL
MODEL 9
REMARK VINA RESULT:    -4.012      1.287      4.632
REMARK INTER + INTRA:         -15.229
REMARK INTER:                 -10.319
REMARK INTRA:                  -4.909
REMARK UNBOUND:                -5.118
REMARK SMILES CCCCCCCCCCCCCCCCCCCCCCCCCCCC(=O)[O-]
REMARK SMILES IDX 15 1 16 2 17 3 18 4 19 5 20 6 21 7 22 8 23 9 24 10 25 11
REMARK SMILES IDX 26 12 27 13 28 14 29 15 30 16 14 17 13 18 12 19 11 20 10 21
REMARK SMILES IDX 9 22 8 23 7 24 6 25 5 26 4 27 3 28 2 29 1 30
REMARK H PARENT
REMARK Flexibility Score: inf
ROOT
ATOM      1  C   UNL     1      16.127   2.190   3.490  1.00  0.00     0.000 C 
ENDROOT
BRANCH   1   2
ATOM      2  C   UNL     1      15.300   1.062   4.142  1.00  0.00     0.000 C 
BRANCH   2   3
ATOM      3  C   UNL     1      15.585  -0.356   3.615  1.00  0.00     0.000 C 
BRANCH   3   4
ATOM      4  C   UNL     1      14.693  -0.741   2.424  1.00  0.00     0.000 C 
BRANCH   4   5
ATOM      5  C   UNL     1      13.196  -0.509   2.703  1.00  0.00     0.000 C 
BRANCH   5   6
ATOM      6  C   UNL     1      12.527   0.574   1.833  1.00  0.00     0.000 C 
BRANCH   6   7
ATOM      7  C   UNL     1      11.111   0.987   2.275  1.00  0.00     0.000 C 
BRANCH   7   8
ATOM      8  C   UNL     1      10.904   2.508   2.279  1.00  0.00     0.000 C 
BRANCH   8   9
ATOM      9  C   UNL     1      11.886   3.202   1.323  1.00  0.00     0.000 C 
BRANCH   9  10
ATOM     10  C   UNL     1      11.884   4.737   1.484  1.00  0.00     0.000 C 
BRANCH  10  11
ATOM     11  C   UNL     1      10.624   5.424   0.921  1.00  0.00     0.000 C 
BRANCH  11  12
ATOM     12  C   UNL     1      10.202   4.961  -0.483  1.00  0.00     0.006 C 
BRANCH  12  13
ATOM     13  C   UNL     1       8.861   5.561  -0.930  1.00  0.00     0.053 C 
BRANCH  13  14
ATOM     14  C   UNL     1       9.028   6.993  -1.333  1.00  0.00     0.041 C 
ATOM     15  O   UNL     1       9.074   7.897  -0.456  1.00  0.00    -0.550 OA
ATOM     16  O   UNL     1       9.107   7.334  -2.679  1.00  0.00    -0.550 OA
ENDBRANCH  13  14
ENDBRANCH  12  13
ENDBRANCH  11  12
ENDBRANCH  10  11
ENDBRANCH   9  10
ENDBRANCH   8   9
ENDBRANCH   7   8
ENDBRANCH   6   7
ENDBRANCH   5   6
ENDBRANCH   4   5
ENDBRANCH   3   4
ENDBRANCH   2   3
ENDBRANCH   1   2
BRANCH   1  17
ATOM     17  C   UNL     1      15.422   2.952   2.352  1.00  0.00     0.000 C 
BRANCH  17  18
ATOM     18  C   UNL     1      15.754   2.390   0.960  1.00  0.00     0.000 C 
BRANCH  18  19
ATOM     19  C   UNL     1      15.340   3.335  -0.182  1.00  0.00     0.000 C 
BRANCH  19  20
ATOM     20  C   UNL     1      16.107   3.142  -1.505  1.00  0.00     0.000 C 
BRANCH  20  21
ATOM     21  C   UNL     1      16.860   1.804  -1.632  1.00  0.00     0.000 C 
BRANCH  21  22
ATOM     22  C   UNL     1      16.068   0.677  -2.326  1.00  0.00    -0.000 C 
BRANCH  22  23
ATOM     23  C   UNL     1      15.441  -0.363  -1.377  1.00  0.00    -0.000 C 
BRANCH  23  24
ATOM     24  C   UNL     1      13.914  -0.516  -1.496  1.00  0.00    -0.000 C 
BRANCH  24  25
ATOM     25  C   UNL     1      13.181   0.836  -1.549  1.00  0.00    -0.000 C 
BRANCH  25  26
ATOM     26  C   UNL     1      11.855   0.768  -2.329  1.00  0.00    -0.000 C 
BRANCH  26  27
ATOM     27  C   UNL     1      10.606   1.188  -1.531  1.00  0.00    -0.000 C 
BRANCH  27  28
ATOM     28  C   UNL     1       9.789  -0.011  -1.018  1.00  0.00    -0.000 C 
BRANCH  28  29
ATOM     29  C   UNL     1       8.395   0.401  -0.516  1.00  0.00    -0.003 C 
ATOM     30  C   UNL     1       8.256   1.910  -0.321  1.00  0.00     0.004 C 
ENDBRANCH  28  29
ENDBRANCH  27  28
ENDBRANCH  26  27
ENDBRANCH  25  26
ENDBRANCH  24  25
ENDBRANCH  23  24
ENDBRANCH  22  23
ENDBRANCH  21  22
ENDBRANCH  20  21
ENDBRANCH  19  20
ENDBRANCH  18  19
ENDBRANCH  17  18
ENDBRANCH   1  17
TORSDOF 26
ENDMDL
