MODEL 1
REMARK VINA RESULT:    -3.970      0.000      0.000
REMARK INTER + INTRA:          -9.447
REMARK INTER:                  -6.988
REMARK INTRA:                  -2.459
REMARK UNBOUND:                -2.459
REMARK SMILES CCCCCCCCCCCCCCC(=O)[O-]
REMARK SMILES IDX 9 1 10 2 11 3 12 4 13 5 14 6 15 7 16 8 17 9 8 10 7 11 6 12
REMARK SMILES IDX 5 13 4 14 3 15 2 16 1 17
REMARK H PARENT
REMARK Flexibility Score: inf
ROOT
ATOM      1  C   UNL     1       7.255  -5.940 -21.409  1.00  0.00     0.000 C 
ENDROOT
BRANCH   1   2
ATOM      2  C   UNL     1       7.515  -4.875 -22.487  1.00  0.00     0.000 C 
BRANCH   2   3
ATOM      3  C   UNL     1       7.310  -5.396 -23.929  1.00  0.00     0.000 C 
BRANCH   3   4
ATOM      4  C   UNL     1       8.454  -5.005 -24.883  1.00  0.00     0.000 C 
BRANCH   4   5
ATOM      5  C   UNL     1       9.263  -3.776 -24.410  1.00  0.00     0.006 C 
BRANCH   5   6
ATOM      6  C   UNL     1      10.584  -3.574 -25.176  1.00  0.00     0.053 C 
BRANCH   6   7
ATOM      7  C   UNL     1      11.762  -3.447 -24.258  1.00  0.00     0.041 C 
ATOM      8  O   UNL     1      12.762  -4.201 -24.403  1.00  0.00    -0.550 OA
ATOM      9  O   UNL     1      11.743  -2.512 -23.229  1.00  0.00    -0.550 OA
ENDBRANCH   6   7
ENDBRANCH   5   6
ENDBRANCH   4   5
ENDBRANCH   3   4
ENDBRANCH   2   3
ENDBRANCH   1   2
BRANCH   1  10
ATOM     10  C   UNL     1       6.698  -7.247 -21.992  1.00  0.00     0.000 C 
BRANCH  10  11
ATOM     11  C   UNL     1       7.251  -8.464 -21.239  1.00  0.00    -0.000 C 
BRANCH  11  12
ATOM     12  C   UNL     1       8.139  -9.324 -22.153  1.00  0.00    -0.000 C 
BRANCH  12  13
ATOM     13  C   UNL     1       9.620  -8.906 -22.118  1.00  0.00    -0.000 C 
BRANCH  13  14
ATOM     14  C   UNL     1      10.081  -8.029 -23.296  1.00  0.00    -0.000 C 
BRANCH  14  15
ATOM     15  C   UNL     1      10.885  -6.799 -22.849  1.00  0.00    -0.000 C 
BRANCH  15  16
ATOM     16  C   UNL     1      10.780  -6.548 -21.336  1.00  0.00    -0.003 C 
ATOM     17  C   UNL     1      10.925  -5.073 -20.966  1.00  0.00     0.004 C 
ENDBRANCH  15  16
ENDBRANCH  14  15
ENDBRANCH  13  14
ENDBRANCH  12  13
ENDBRANCH  11  12
ENDBRANCH  10  11
ENDBRANCH   1  10
TORSDOF 13
ENDMDL
MODEL 2
REMARK VINA RESULT:    -3.953      8.829     10.576
REMARK INTER + INTRA:          -9.416
REMARK INTER:                  -7.467
REMARK INTRA:                  -1.949
REMARK UNBOUND:                -2.459
REMARK SMILES CCCCCCCCCCCCCCC(=O)[O-]
REMARK SMILES IDX 9 1 10 2 11 3 12 4 13 5 14 6 15 7 16 8 17 9 8 10 7 11 6 12
REMARK SMILES IDX 5 13 4 14 3 15 2 16 1 17
REMARK H PARENT
REMARK Flexibility Score: inf
ROOT
ATOM      1  C   UNL     1      18.310  -2.783 -17.974  1.00  0.00     0.000 C 
ENDROOT
BRANCH   1   2
ATOM      2  C   UNL     1      18.470  -3.004 -19.488  1.00  0.00     0.000 C 
BRANCH   2   3
ATOM      3  C   UNL     1      19.752  -2.365 -20.070  1.00  0.00     0.000 C 
BRANCH   3   4
ATOM      4  C   UNL     1      20.842  -3.399 -20.413  1.00  0.00     0.000 C 
BRANCH   4   5
ATOM      5  C   UNL     1      20.905  -3.759 -21.914  1.00  0.00     0.006 C 
BRANCH   5   6
ATOM      6  C   UNL     1      20.656  -5.250 -22.202  1.00  0.00     0.053 C 
BRANCH   6   7
ATOM      7  C   UNL     1      19.197  -5.591 -22.224  1.00  0.00     0.041 C 
ATOM      8  O   UNL     1      18.804  -6.724 -21.832  1.00  0.00    -0.550 OA
ATOM      9  O   UNL     1      18.274  -4.667 -22.702  1.00  0.00    -0.550 OA
ENDBRANCH   6   7
ENDBRANCH   5   6
ENDBRANCH   4   5
ENDBRANCH   3   4
ENDBRANCH   2   3
ENDBRANCH   1   2
BRANCH   1  10
ATOM     10  C   UNL     1      16.847  -2.570 -17.560  1.00  0.00     0.000 C 
BRANCH  10  11
ATOM     11  C   UNL     1      16.315  -3.778 -16.779  1.00  0.00    -0.000 C 
BRANCH  11  12
ATOM     12  C   UNL     1      15.983  -4.945 -17.723  1.00  0.00    -0.000 C 
BRANCH  12  13
ATOM     13  C   UNL     1      16.730  -6.241 -17.362  1.00  0.00    -0.000 C 
BRANCH  13  14
ATOM     14  C   UNL     1      17.791  -6.099 -16.254  1.00  0.00    -0.000 C 
BRANCH  14  15
ATOM     15  C   UNL     1      19.214  -6.398 -16.746  1.00  0.00    -0.000 C 
BRANCH  15  16
ATOM     16  C   UNL     1      19.302  -6.476 -18.279  1.00  0.00    -0.003 C 
ATOM     17  C   UNL     1      20.719  -6.748 -18.781  1.00  0.00     0.004 C 
ENDBRANCH  15  16
ENDBRANCH  14  15
ENDBRANCH  13  14
ENDBRANCH  12  13
ENDBRANCH  11  12
ENDBRANCH  10  11
ENDBRANCH   1  10
TORSDOF 13
ENDMDL
MODEL 3
REMARK VINA RESULT:    -3.927      8.179     10.917
REMARK INTER + INTRA:          -9.371
REMARK INTER:                  -7.551
REMARK INTRA:                  -1.820
REMARK UNBOUND:                -2.459
REMARK SMILES CCCCCCCCCCCCCCC(=O)[O-]
REMARK SMILES IDX 9 1 10 2 11 3 12 4 13 5 14 6 15 7 16 8 17 9 8 10 7 11 6 12
REMARK SMILES IDX 5 13 4 14 3 15 2 16 1 17
REMARK H PARENT
REMARK Flexibility Score: inf
ROOT
ATOM      1  C   UNL     1      19.687  -6.281 -17.354  1.00  0.00     0.000 C 
ENDROOT
BRANCH   1   2
ATOM      2  C   UNL     1      18.373  -6.131 -18.139  1.00  0.00     0.000 C 
BRANCH   2   3
ATOM      3  C   UNL     1      17.111  -6.256 -17.254  1.00  0.00     0.000 C 
BRANCH   3   4
ATOM      4  C   UNL     1      17.014  -5.155 -16.181  1.00  0.00     0.000 C 
BRANCH   4   5
ATOM      5  C   UNL     1      16.515  -3.798 -16.727  1.00  0.00     0.006 C 
BRANCH   5   6
ATOM      6  C   UNL     1      15.447  -3.931 -17.827  1.00  0.00     0.053 C 
BRANCH   6   7
ATOM      7  C   UNL     1      15.795  -3.151 -19.059  1.00  0.00     0.041 C 
ATOM      8  O   UNL     1      15.076  -3.242 -20.091  1.00  0.00    -0.550 OA
ATOM      9  O   UNL     1      16.928  -2.344 -19.073  1.00  0.00    -0.550 OA
ENDBRANCH   6   7
ENDBRANCH   5   6
ENDBRANCH   4   5
ENDBRANCH   3   4
ENDBRANCH   2   3
ENDBRANCH   1   2
BRANCH   1  10
ATOM     10  C   UNL     1      20.728  -5.218 -17.736  1.00  0.00     0.000 C 
BRANCH  10  11
ATOM     11  C   UNL     1      20.063  -3.852 -17.953  1.00  0.00    -0.000 C 
BRANCH  11  12
ATOM     12  C   UNL     1      20.918  -2.961 -18.869  1.00  0.00    -0.000 C 
BRANCH  12  13
ATOM     13  C   UNL     1      20.254  -2.687 -20.230  1.00  0.00    -0.000 C 
BRANCH  13  14
ATOM     14  C   UNL     1      20.869  -3.441 -21.423  1.00  0.00    -0.000 C 
BRANCH  14  15
ATOM     15  C   UNL     1      19.974  -4.578 -21.939  1.00  0.00    -0.000 C 
BRANCH  15  16
ATOM     16  C   UNL     1      18.546  -4.501 -21.376  1.00  0.00    -0.003 C 
ATOM     17  C   UNL     1      17.475  -4.528 -22.466  1.00  0.00     0.004 C 
ENDBRANCH  15  16
ENDBRANCH  14  15
ENDBRANCH  13  14
ENDBRANCH  12  13
ENDBRANCH  11  12
ENDBRANCH  10  11
ENDBRANCH   1  10
TORSDOF 13
ENDMDL
MODEL 4
REMARK VINA RESULT:    -3.875      8.476     10.608
REMARK INTER + INTRA:          -9.279
REMARK INTER:                  -6.887
REMARK INTRA:                  -2.392
REMARK UNBOUND:                -2.459
REMARK SMILES CCCCCCCCCCCCCCC(=O)[O-]
REMARK SMILES IDX 9 1 10 2 11 3 12 4 13 5 14 6 15 7 16 8 17 9 8 10 7 11 6 12
REMARK SMILES IDX 5 13 4 14 3 15 2 16 1 17
REMARK H PARENT
REMARK Flexibility Score: inf
ROOT
ATOM      1  C   UNL     1      20.908  -3.897 -21.656  1.00  0.00     0.000 C 
ENDROOT
BRANCH   1   2
ATOM      2  C   UNL     1      20.201  -2.930 -20.691  1.00  0.00     0.000 C 
BRANCH   2   3
ATOM      3  C   UNL     1      20.704  -3.041 -19.233  1.00  0.00     0.000 C 
BRANCH   3   4
ATOM      4  C   UNL     1      19.571  -2.950 -18.192  1.00  0.00     0.000 C 
BRANCH   4   5
ATOM      5  C   UNL     1      18.213  -2.522 -18.791  1.00  0.00     0.006 C 
BRANCH   5   6
ATOM      6  C   UNL     1      17.006  -2.893 -17.910  1.00  0.00     0.053 C 
BRANCH   6   7
ATOM      7  C   UNL     1      15.866  -3.448 -18.709  1.00  0.00     0.041 C 
ATOM      8  O   UNL     1      14.991  -4.166 -18.151  1.00  0.00    -0.550 OA
ATOM      9  O   UNL     1      15.784  -3.194 -20.074  1.00  0.00    -0.550 OA
ENDBRANCH   6   7
ENDBRANCH   5   6
ENDBRANCH   4   5
ENDBRANCH   3   4
ENDBRANCH   2   3
ENDBRANCH   1   2
BRANCH   1  10
ATOM     10  C   UNL     1      19.928  -4.835 -22.376  1.00  0.00     0.000 C 
BRANCH  10  11
ATOM     11  C   UNL     1      18.498  -4.638 -21.857  1.00  0.00    -0.000 C 
BRANCH  11  12
ATOM     12  C   UNL     1      17.956  -5.930 -21.224  1.00  0.00    -0.000 C 
BRANCH  12  13
ATOM     13  C   UNL     1      19.066  -6.825 -20.646  1.00  0.00    -0.000 C 
BRANCH  13  14
ATOM     14  C   UNL     1      19.366  -6.613 -19.150  1.00  0.00    -0.000 C 
BRANCH  14  15
ATOM     15  C   UNL     1      18.099  -6.402 -18.309  1.00  0.00    -0.000 C 
BRANCH  15  16
ATOM     16  C   UNL     1      18.405  -6.268 -16.809  1.00  0.00    -0.003 C 
ATOM     17  C   UNL     1      17.150  -6.073 -15.961  1.00  0.00     0.004 C 
ENDBRANCH  15  16
ENDBRANCH  14  15
ENDBRANCH  13  14
ENDBRANCH  12  13
ENDBRANCH  11  12
ENDBRANCH  10  11
ENDBRANCH   1  10
TORSDOF 13
ENDMDL
MODEL 5
REMARK VINA RESULT:    -3.875      7.258      9.833
REMARK INTER + INTRA:          -9.279
REMARK INTER:                  -7.143
REMARK INTRA:                  -2.136
REMARK UNBOUND:                -2.459
REMARK SMILES CCCCCCCCCCCCCCC(=O)[O-]
REMARK SMILES IDX 9 1 10 2 11 3 12 4 13 5 14 6 15 7 16 8 17 9 8 10 7 11 6 12
REMARK SMILES IDX 5 13 4 14 3 15 2 16 1 17
REMARK H PARENT
REMARK Flexibility Score: inf
ROOT
ATOM      1  C   UNL     1      18.859  -6.067 -16.699  1.00  0.00     0.000 C 
ENDROOT
BRANCH   1   2
ATOM      2  C   UNL     1      17.330  -5.972 -16.840  1.00  0.00     0.000 C 
BRANCH   2   3
ATOM      3  C   UNL     1      16.738  -4.672 -16.249  1.00  0.00     0.000 C 
BRANCH   3   4
ATOM      4  C   UNL     1      15.871  -3.890 -17.254  1.00  0.00     0.000 C 
BRANCH   4   5
ATOM      5  C   UNL     1      15.415  -4.732 -18.466  1.00  0.00     0.006 C 
BRANCH   5   6
ATOM      6  C   UNL     1      14.162  -4.176 -19.168  1.00  0.00     0.053 C 
BRANCH   6   7
ATOM      7  C   UNL     1      14.502  -3.278 -20.318  1.00  0.00     0.041 C 
ATOM      8  O   UNL     1      15.007  -2.141 -20.106  1.00  0.00    -0.550 OA
ATOM      9  O   UNL     1      14.239  -3.687 -21.621  1.00  0.00    -0.550 OA
ENDBRANCH   6   7
ENDBRANCH   5   6
ENDBRANCH   4   5
ENDBRANCH   3   4
ENDBRANCH   2   3
ENDBRANCH   1   2
BRANCH   1  10
ATOM     10  C   UNL     1      19.537  -6.610 -17.966  1.00  0.00     0.000 C 
BRANCH  10  11
ATOM     11  C   UNL     1      18.531  -6.730 -19.118  1.00  0.00    -0.000 C 
BRANCH  11  12
ATOM     12  C   UNL     1      19.028  -5.980 -20.365  1.00  0.00    -0.000 C 
BRANCH  12  13
ATOM     13  C   UNL     1      17.901  -5.243 -21.110  1.00  0.00    -0.000 C 
BRANCH  13  14
ATOM     14  C   UNL     1      18.049  -3.711 -21.173  1.00  0.00    -0.000 C 
BRANCH  14  15
ATOM     15  C   UNL     1      18.519  -3.100 -19.845  1.00  0.00    -0.000 C 
BRANCH  15  16
ATOM     16  C   UNL     1      19.847  -2.338 -19.986  1.00  0.00    -0.003 C 
ATOM     17  C   UNL     1      20.987  -2.979 -19.197  1.00  0.00     0.004 C 
ENDBRANCH  15  16
ENDBRANCH  14  15
ENDBRANCH  13  14
ENDBRANCH  12  13
ENDBRANCH  11  12
ENDBRANCH  10  11
ENDBRANCH   1  10
TORSDOF 13
ENDMDL
MODEL 6
REMARK VINA RESULT:    -3.842      8.849     11.496
REMARK INTER + INTRA:          -9.221
REMARK INTER:                  -7.074
REMARK INTRA:                  -2.147
REMARK UNBOUND:                -2.459
REMARK SMILES CCCCCCCCCCCCCCC(=O)[O-]
REMARK SMILES IDX 9 1 10 2 11 3 12 4 13 5 14 6 15 7 16 8 17 9 8 10 7 11 6 12
REMARK SMILES IDX 5 13 4 14 3 15 2 16 1 17
REMARK H PARENT
REMARK Flexibility Score: inf
ROOT
ATOM      1  C   UNL     1      21.246  -4.979 -17.529  1.00  0.00     0.000 C 
ENDROOT
BRANCH   1   2
ATOM      2  C   UNL     1      20.342  -6.215 -17.386  1.00  0.00     0.000 C 
BRANCH   2   3
ATOM      3  C   UNL     1      18.845  -5.912 -17.627  1.00  0.00     0.000 C 
BRANCH   3   4
ATOM      4  C   UNL     1      17.991  -6.027 -16.349  1.00  0.00     0.000 C 
BRANCH   4   5
ATOM      5  C   UNL     1      16.757  -5.098 -16.342  1.00  0.00     0.006 C 
BRANCH   5   6
ATOM      6  C   UNL     1      16.977  -3.773 -17.096  1.00  0.00     0.053 C 
BRANCH   6   7
ATOM      7  C   UNL     1      15.956  -3.549 -18.169  1.00  0.00     0.041 C 
ATOM      8  O   UNL     1      15.966  -2.482 -18.842  1.00  0.00    -0.550 OA
ATOM      9  O   UNL     1      14.978  -4.508 -18.408  1.00  0.00    -0.550 OA
ENDBRANCH   6   7
ENDBRANCH   5   6
ENDBRANCH   4   5
ENDBRANCH   3   4
ENDBRANCH   2   3
ENDBRANCH   1   2
BRANCH   1  10
ATOM     10  C   UNL     1      20.467  -3.722 -17.942  1.00  0.00     0.000 C 
BRANCH  10  11
ATOM     11  C   UNL     1      21.166  -2.998 -19.099  1.00  0.00    -0.000 C 
BRANCH  11  12
ATOM     12  C   UNL     1      20.143  -2.443 -20.104  1.00  0.00    -0.000 C 
BRANCH  12  13
ATOM     13  C   UNL     1      18.986  -3.420 -20.382  1.00  0.00    -0.000 C 
BRANCH  13  14
ATOM     14  C   UNL     1      19.180  -4.334 -21.606  1.00  0.00    -0.000 C 
BRANCH  14  15
ATOM     15  C   UNL     1      19.071  -5.827 -21.261  1.00  0.00    -0.000 C 
BRANCH  15  16
ATOM     16  C   UNL     1      20.316  -6.620 -21.687  1.00  0.00    -0.003 C 
ATOM     17  C   UNL     1      21.609  -6.063 -21.093  1.00  0.00     0.004 C 
ENDBRANCH  15  16
ENDBRANCH  14  15
ENDBRANCH  13  14
ENDBRANCH  12  13
ENDBRANCH  11  12
ENDBRANCH  10  11
ENDBRANCH   1  10
TORSDOF 13
ENDMDL
MODEL 7
REMARK VINA RESULT:    -3.837      3.083      4.697
REMARK INTER + INTRA:          -9.211
REMARK INTER:                  -6.957
REMARK INTRA:                  -2.254
REMARK UNBOUND:                -2.459
REMARK SMILES CCCCCCCCCCCCCCC(=O)[O-]
REMARK SMILES IDX 9 1 10 2 11 3 12 4 13 5 14 6 15 7 16 8 17 9 8 10 7 11 6 12
REMARK SMILES IDX 5 13 4 14 3 15 2 16 1 17
REMARK H PARENT
REMARK Flexibility Score: inf
ROOT
ATOM      1  C   UNL     1       9.088  -7.855 -23.831  1.00  0.00     0.000 C 
ENDROOT
BRANCH   1   2
ATOM      2  C   UNL     1       8.837  -7.337 -25.257  1.00  0.00     0.000 C 
BRANCH   2   3
ATOM      3  C   UNL     1       7.457  -6.662 -25.432  1.00  0.00     0.000 C 
BRANCH   3   4
ATOM      4  C   UNL     1       7.029  -5.833 -24.206  1.00  0.00     0.000 C 
BRANCH   4   5
ATOM      5  C   UNL     1       7.384  -4.334 -24.317  1.00  0.00     0.006 C 
BRANCH   5   6
ATOM      6  C   UNL     1       6.993  -3.704 -25.666  1.00  0.00     0.053 C 
BRANCH   6   7
ATOM      7  C   UNL     1       5.518  -3.463 -25.777  1.00  0.00     0.041 C 
ATOM      8  O   UNL     1       4.975  -2.540 -25.110  1.00  0.00    -0.550 OA
ATOM      9  O   UNL     1       4.740  -4.273 -26.597  1.00  0.00    -0.550 OA
ENDBRANCH   6   7
ENDBRANCH   5   6
ENDBRANCH   4   5
ENDBRANCH   3   4
ENDBRANCH   2   3
ENDBRANCH   1   2
BRANCH   1  10
ATOM     10  C   UNL     1      10.488  -7.498 -23.311  1.00  0.00     0.000 C 
BRANCH  10  11
ATOM     11  C   UNL     1      10.419  -6.954 -21.878  1.00  0.00    -0.000 C 
BRANCH  11  12
ATOM     12  C   UNL     1       9.829  -5.535 -21.853  1.00  0.00    -0.000 C 
BRANCH  12  13
ATOM     13  C   UNL     1      10.899  -4.438 -21.995  1.00  0.00    -0.000 C 
BRANCH  13  14
ATOM     14  C   UNL     1      10.675  -3.450 -23.155  1.00  0.00    -0.000 C 
BRANCH  14  15
ATOM     15  C   UNL     1      11.605  -3.710 -24.350  1.00  0.00    -0.000 C 
BRANCH  15  16
ATOM     16  C   UNL     1      10.859  -4.302 -25.556  1.00  0.00    -0.003 C 
ATOM     17  C   UNL     1      11.704  -5.298 -26.348  1.00  0.00     0.004 C 
ENDBRANCH  15  16
ENDBRANCH  14  15
ENDBRANCH  13  14
ENDBRANCH  12  13
ENDBRANCH  11  12
ENDBRANCH  10  11
ENDBRANCH   1  10
TORSDOF 13
ENDMDL
MODEL 8
REMARK VINA RESULT:    -3.809      8.721     11.577
REMARK INTER + INTRA:          -9.163
REMARK INTER:                  -7.146
REMARK INTRA:                  -2.018
REMARK UNBOUND:                -2.459
REMARK SMILES CCCCCCCCCCCCCCC(=O)[O-]
REMARK SMILES IDX 9 1 10 2 11 3 12 4 13 5 14 6 15 7 16 8 17 9 8 10 7 11 6 12
REMARK SMILES IDX 5 13 4 14 3 15 2 16 1 17
REMARK H PARENT
REMARK Flexibility Score: inf
ROOT
ATOM      1  C   UNL     1      20.774  -3.758 -17.537  1.00  0.00     0.000 C 
ENDROOT
BRANCH   1   2
ATOM      2  C   UNL     1      21.242  -5.223 -17.515  1.00  0.00     0.000 C 
BRANCH   2   3
ATOM      3  C   UNL     1      20.098  -6.230 -17.254  1.00  0.00     0.000 C 
BRANCH   3   4
ATOM      4  C   UNL     1      19.195  -6.453 -18.482  1.00  0.00     0.000 C 
BRANCH   4   5
ATOM      5  C   UNL     1      17.868  -5.664 -18.428  1.00  0.00     0.006 C 
BRANCH   5   6
ATOM      6  C   UNL     1      17.268  -5.563 -17.013  1.00  0.00     0.053 C 
BRANCH   6   7
ATOM      7  C   UNL     1      16.824  -4.171 -16.680  1.00  0.00     0.041 C 
ATOM      8  O   UNL     1      16.007  -3.975 -15.738  1.00  0.00    -0.550 OA
ATOM      9  O   UNL     1      17.293  -3.095 -17.424  1.00  0.00    -0.550 OA
ENDBRANCH   6   7
ENDBRANCH   5   6
ENDBRANCH   4   5
ENDBRANCH   3   4
ENDBRANCH   2   3
ENDBRANCH   1   2
BRANCH   1  10
ATOM     10  C   UNL     1      21.231  -3.011 -18.798  1.00  0.00     0.000 C 
BRANCH  10  11
ATOM     11  C   UNL     1      20.030  -2.600 -19.659  1.00  0.00    -0.000 C 
BRANCH  11  12
ATOM     12  C   UNL     1      20.258  -2.962 -21.136  1.00  0.00    -0.000 C 
BRANCH  12  13
ATOM     13  C   UNL     1      20.774  -4.399 -21.329  1.00  0.00    -0.000 C 
BRANCH  13  14
ATOM     14  C   UNL     1      20.114  -5.184 -22.477  1.00  0.00    -0.000 C 
BRANCH  14  15
ATOM     15  C   UNL     1      18.709  -5.695 -22.124  1.00  0.00    -0.000 C 
BRANCH  15  16
ATOM     16  C   UNL     1      17.598  -4.862 -22.784  1.00  0.00    -0.003 C 
ATOM     17  C   UNL     1      16.767  -4.074 -21.773  1.00  0.00     0.004 C 
ENDBRANCH  15  16
ENDBRANCH  14  15
ENDBRANCH  13  14
ENDBRANCH  12  13
ENDBRANCH  11  12
ENDBRANCH  10  11
ENDBRANCH   1  10
TORSDOF 13
ENDMDL
MODEL 9
REMARK VINA RESULT:    -3.804      9.403     11.217
REMARK INTER + INTRA:          -9.155
REMARK INTER:                  -6.888
REMARK INTRA:                  -2.266
REMARK UNBOUND:                -2.459
REMARK SMILES CCCCCCCCCCCCCCC(=O)[O-]
REMARK SMILES IDX 9 1 10 2 11 3 12 4 13 5 14 6 15 7 16 8 17 9 8 10 7 11 6 12
REMARK SMILES IDX 5 13 4 14 3 15 2 16 1 17
REMARK H PARENT
REMARK Flexibility Score: inf
ROOT
ATOM      1  C   UNL     1      20.811  -3.643 -18.287  1.00  0.00     0.000 C 
ENDROOT
BRANCH   1   2
ATOM      2  C   UNL     1      20.855  -2.617 -19.432  1.00  0.00     0.000 C 
BRANCH   2   3
ATOM      3  C   UNL     1      20.313  -3.168 -20.772  1.00  0.00     0.000 C 
BRANCH   3   4
ATOM      4  C   UNL     1      18.867  -3.692 -20.669  1.00  0.00     0.000 C 
BRANCH   4   5
ATOM      5  C   UNL     1      18.538  -4.805 -21.689  1.00  0.00     0.006 C 
BRANCH   5   6
ATOM      6  C   UNL     1      19.767  -5.315 -22.465  1.00  0.00     0.053 C 
BRANCH   6   7
ATOM      7  C   UNL     1      20.281  -6.616 -21.929  1.00  0.00     0.041 C 
ATOM      8  O   UNL     1      19.474  -7.498 -21.524  1.00  0.00    -0.550 OA
ATOM      9  O   UNL     1      21.651  -6.844 -21.854  1.00  0.00    -0.550 OA
ENDBRANCH   6   7
ENDBRANCH   5   6
ENDBRANCH   4   5
ENDBRANCH   3   4
ENDBRANCH   2   3
ENDBRANCH   1   2
BRANCH   1  10
ATOM     10  C   UNL     1      21.613  -4.914 -18.602  1.00  0.00     0.000 C 
BRANCH  10  11
ATOM     11  C   UNL     1      20.768  -6.171 -18.354  1.00  0.00    -0.000 C 
BRANCH  11  12
ATOM     12  C   UNL     1      19.483  -5.830 -17.582  1.00  0.00    -0.000 C 
BRANCH  12  13
ATOM     13  C   UNL     1      18.225  -6.464 -18.201  1.00  0.00    -0.000 C 
BRANCH  13  14
ATOM     14  C   UNL     1      16.890  -5.829 -17.769  1.00  0.00    -0.000 C 
BRANCH  14  15
ATOM     15  C   UNL     1      17.045  -4.851 -16.595  1.00  0.00    -0.000 C 
BRANCH  15  16
ATOM     16  C   UNL     1      16.372  -3.496 -16.867  1.00  0.00    -0.003 C 
ATOM     17  C   UNL     1      17.316  -2.482 -17.510  1.00  0.00     0.004 C 
ENDBRANCH  15  16
ENDBRANCH  14  15
ENDBRANCH  13  14
ENDBRANCH  12  13
ENDBRANCH  11  12
ENDBRANCH  10  11
ENDBRANCH   1  10
TORSDOF 13
ENDMDL
