MODEL 1
REMARK VINA RESULT:    -4.504      0.000      0.000
REMARK INTER + INTRA:          -6.841
REMARK INTER:                  -6.084
REMARK INTRA:                  -0.756
REMARK UNBOUND:                -0.756
REMARK SMILES CC(=O)CCC=C(C)CCC=C(C)C
REMARK SMILES IDX 7 1 6 2 8 3 9 4 10 5 11 6 13 7 12 8 14 9 5 10 4 11 2 12 3 13
REMARK SMILES IDX 1 14
REMARK H PARENT
REMARK Flexibility Score: inf
ROOT
ATOM      1  C   UNL     1       3.741  76.647 -29.862  1.00  0.00    -0.077 C 
ATOM      2  C   UNL     1       3.197  75.453 -30.197  1.00  0.00    -0.028 C 
ATOM      3  C   UNL     1       5.186  76.890 -30.221  1.00  0.00     0.039 C 
ENDROOT
BRANCH   1   4
ATOM      4  C   UNL     1       2.966  77.753 -29.168  1.00  0.00     0.034 C 
BRANCH   4   5
ATOM      5  C   UNL     1       3.011  79.057 -29.973  1.00  0.00     0.032 C 
BRANCH   5   6
ATOM      6  C   UNL     1       1.930  79.089 -31.026  1.00  0.00    -0.028 C 
ATOM      7  C   UNL     1       0.445  80.484 -29.581  1.00  0.00     0.039 C 
ATOM      8  C   UNL     1       0.757  79.738 -30.855  1.00  0.00    -0.080 C 
ATOM      9  C   UNL     1      -0.280  79.727 -31.947  1.00  0.00     0.039 C 
ENDBRANCH   5   6
ENDBRANCH   4   5
ENDBRANCH   1   4
BRANCH   2  10
ATOM     10  C   UNL     1       1.780  75.012 -29.906  1.00  0.00     0.035 C 
BRANCH  10  11
ATOM     11  C   UNL     1       1.743  73.836 -28.918  1.00  0.00     0.079 C 
BRANCH  11  12
ATOM     12  C   UNL     1       1.030  74.192 -27.640  1.00  0.00     0.130 C 
ATOM     13  O   UNL     1       0.872  75.365 -27.336  1.00  0.00    -0.300 OA
ATOM     14  C   UNL     1       0.472  73.116 -26.758  1.00  0.00     0.087 C 
ENDBRANCH  11  12
ENDBRANCH  10  11
ENDBRANCH   2  10
TORSDOF 6
ENDMDL
MODEL 2
REMARK VINA RESULT:    -4.469      6.369      8.402
REMARK INTER + INTRA:          -6.793
REMARK INTER:                  -5.908
REMARK INTRA:                  -0.885
REMARK UNBOUND:                -0.756
REMARK SMILES CC(=O)CCC=C(C)CCC=C(C)C
REMARK SMILES IDX 7 1 6 2 8 3 9 4 10 5 11 6 13 7 12 8 14 9 5 10 4 11 2 12 3 13
REMARK SMILES IDX 1 14
REMARK H PARENT
REMARK Flexibility Score: inf
ROOT
ATOM      1  C   UNL     1       5.377  70.745 -28.873  1.00  0.00    -0.077 C 
ATOM      2  C   UNL     1       4.649  69.608 -28.983  1.00  0.00    -0.028 C 
ATOM      3  C   UNL     1       4.712  71.952 -28.260  1.00  0.00     0.039 C 
ENDROOT
BRANCH   1   4
ATOM      4  C   UNL     1       6.825  70.855 -29.316  1.00  0.00     0.034 C 
BRANCH   4   5
ATOM      5  C   UNL     1       6.944  71.577 -30.664  1.00  0.00     0.032 C 
BRANCH   5   6
ATOM      6  C   UNL     1       8.197  72.415 -30.728  1.00  0.00    -0.028 C 
ATOM      7  C   UNL     1       6.927  74.506 -30.228  1.00  0.00     0.039 C 
ATOM      8  C   UNL     1       8.197  73.752 -30.530  1.00  0.00    -0.080 C 
ATOM      9  C   UNL     1       9.486  74.528 -30.611  1.00  0.00     0.039 C 
ENDBRANCH   5   6
ENDBRANCH   4   5
ENDBRANCH   1   4
BRANCH   2  10
ATOM     10  C   UNL     1       5.125  68.305 -29.586  1.00  0.00     0.035 C 
BRANCH  10  11
ATOM     11  C   UNL     1       4.093  67.723 -30.563  1.00  0.00     0.079 C 
BRANCH  11  12
ATOM     12  C   UNL     1       4.640  67.606 -31.962  1.00  0.00     0.130 C 
ATOM     13  O   UNL     1       4.639  66.524 -32.529  1.00  0.00    -0.300 OA
ATOM     14  C   UNL     1       5.148  68.819 -32.681  1.00  0.00     0.087 C 
ENDBRANCH  11  12
ENDBRANCH  10  11
ENDBRANCH   2  10
TORSDOF 6
ENDMDL
MODEL 3
REMARK VINA RESULT:    -4.338      2.677      6.340
REMARK INTER + INTRA:          -6.616
REMARK INTER:                  -6.083
REMARK INTRA:                  -0.533
REMARK UNBOUND:                -0.756
REMARK SMILES CC(=O)CCC=C(C)CCC=C(C)C
REMARK SMILES IDX 7 1 6 2 8 3 9 4 10 5 11 6 13 7 12 8 14 9 5 10 4 11 2 12 3 13
REMARK SMILES IDX 1 14
REMARK H PARENT
REMARK Flexibility Score: inf
ROOT
ATOM      1  C   UNL     1       2.489  75.988 -29.799  1.00  0.00    -0.077 C 
ATOM      2  C   UNL     1       1.799  77.114 -29.501  1.00  0.00    -0.028 C 
ATOM      3  C   UNL     1       1.744  74.676 -29.771  1.00  0.00     0.039 C 
ENDROOT
BRANCH   1   4
ATOM      4  C   UNL     1       3.959  75.984 -30.178  1.00  0.00     0.034 C 
BRANCH   4   5
ATOM      5  C   UNL     1       4.745  74.953 -29.358  1.00  0.00     0.032 C 
BRANCH   5   6
ATOM      6  C   UNL     1       6.045  74.592 -30.034  1.00  0.00    -0.028 C 
ATOM      7  C   UNL     1       6.011  72.292 -29.061  1.00  0.00     0.039 C 
ATOM      8  C   UNL     1       6.629  73.380 -29.903  1.00  0.00    -0.080 C 
ATOM      9  C   UNL     1       7.929  73.087 -30.604  1.00  0.00     0.039 C 
ENDBRANCH   5   6
ENDBRANCH   4   5
ENDBRANCH   1   4
BRANCH   2  10
ATOM     10  C   UNL     1       2.367  78.515 -29.454  1.00  0.00     0.035 C 
BRANCH  10  11
ATOM     11  C   UNL     1       2.021  79.311 -30.721  1.00  0.00     0.079 C 
BRANCH  11  12
ATOM     12  C   UNL     1       0.585  79.766 -30.729  1.00  0.00     0.130 C 
ATOM     13  O   UNL     1       0.098  80.266 -29.727  1.00  0.00    -0.300 OA
ATOM     14  C   UNL     1      -0.240  79.650 -31.976  1.00  0.00     0.087 C 
ENDBRANCH  11  12
ENDBRANCH  10  11
ENDBRANCH   2  10
TORSDOF 6
ENDMDL
MODEL 4
REMARK VINA RESULT:    -4.271     14.118     15.423
REMARK INTER + INTRA:          -6.525
REMARK INTER:                  -5.719
REMARK INTRA:                  -0.807
REMARK UNBOUND:                -0.756
REMARK SMILES CC(=O)CCC=C(C)CCC=C(C)C
REMARK SMILES IDX 7 1 6 2 8 3 9 4 10 5 11 6 13 7 12 8 14 9 5 10 4 11 2 12 3 13
REMARK SMILES IDX 1 14
REMARK H PARENT
REMARK Flexibility Score: inf
ROOT
ATOM      1  C   UNL     1       9.230  79.664 -17.432  1.00  0.00    -0.077 C 
ATOM      2  C   UNL     1      10.183  78.844 -16.926  1.00  0.00    -0.028 C 
ATOM      3  C   UNL     1       7.939  79.803 -16.664  1.00  0.00     0.039 C 
ENDROOT
BRANCH   1   4
ATOM      4  C   UNL     1       9.406  80.459 -18.713  1.00  0.00     0.034 C 
BRANCH   4   5
ATOM      5  C   UNL     1       9.492  81.964 -18.430  1.00  0.00     0.032 C 
BRANCH   5   6
ATOM      6  C   UNL     1      10.756  82.309 -17.681  1.00  0.00    -0.028 C 
ATOM      7  C   UNL     1      11.857  83.151 -19.758  1.00  0.00     0.039 C 
ATOM      8  C   UNL     1      11.839  82.852 -18.280  1.00  0.00    -0.080 C 
ATOM      9  C   UNL     1      13.070  83.170 -17.472  1.00  0.00     0.039 C 
ENDBRANCH   5   6
ENDBRANCH   4   5
ENDBRANCH   1   4
BRANCH   2  10
ATOM     10  C   UNL     1      11.528  78.556 -17.555  1.00  0.00     0.035 C 
BRANCH  10  11
ATOM     11  C   UNL     1      11.926  77.082 -17.391  1.00  0.00     0.079 C 
BRANCH  11  12
ATOM     12  C   UNL     1      12.612  76.541 -18.618  1.00  0.00     0.130 C 
ATOM     13  O   UNL     1      13.115  75.427 -18.594  1.00  0.00    -0.300 OA
ATOM     14  C   UNL     1      12.644  77.342 -19.884  1.00  0.00     0.087 C 
ENDBRANCH  11  12
ENDBRANCH  10  11
ENDBRANCH   2  10
TORSDOF 6
ENDMDL
MODEL 5
REMARK VINA RESULT:    -4.265      1.775      5.924
REMARK INTER + INTRA:          -6.518
REMARK INTER:                  -5.686
REMARK INTRA:                  -0.832
REMARK UNBOUND:                -0.756
REMARK SMILES CC(=O)CCC=C(C)CCC=C(C)C
REMARK SMILES IDX 7 1 6 2 8 3 9 4 10 5 11 6 13 7 12 8 14 9 5 10 4 11 2 12 3 13
REMARK SMILES IDX 1 14
REMARK H PARENT
REMARK Flexibility Score: inf
ROOT
ATOM      1  C   UNL     1       1.922  76.417 -29.410  1.00  0.00    -0.077 C 
ATOM      2  C   UNL     1       2.566  77.444 -30.014  1.00  0.00    -0.028 C 
ATOM      3  C   UNL     1       2.023  75.051 -30.043  1.00  0.00     0.039 C 
ENDROOT
BRANCH   1   4
ATOM      4  C   UNL     1       1.126  76.568 -28.126  1.00  0.00     0.034 C 
BRANCH   4   5
ATOM      5  C   UNL     1       1.692  75.683 -27.009  1.00  0.00     0.032 C 
BRANCH   5   6
ATOM      6  C   UNL     1       0.662  74.695 -26.518  1.00  0.00    -0.028 C 
ATOM      7  C   UNL     1       1.970  72.761 -27.405  1.00  0.00     0.039 C 
ATOM      8  C   UNL     1       0.783  73.360 -26.695  1.00  0.00    -0.080 C 
ATOM      9  C   UNL     1      -0.285  72.431 -26.180  1.00  0.00     0.039 C 
ENDBRANCH   5   6
ENDBRANCH   4   5
ENDBRANCH   1   4
BRANCH   2  10
ATOM     10  C   UNL     1       2.568  78.883 -29.550  1.00  0.00     0.035 C 
BRANCH  10  11
ATOM     11  C   UNL     1       1.949  79.818 -30.600  1.00  0.00     0.079 C 
BRANCH  11  12
ATOM     12  C   UNL     1       0.447  79.706 -30.643  1.00  0.00     0.130 C 
ATOM     13  O   UNL     1      -0.190  79.648 -29.602  1.00  0.00    -0.300 OA
ATOM     14  C   UNL     1      -0.276  79.710 -31.956  1.00  0.00     0.087 C 
ENDBRANCH  11  12
ENDBRANCH  10  11
ENDBRANCH   2  10
TORSDOF 6
ENDMDL
MODEL 6
REMARK VINA RESULT:    -4.200     10.876     12.916
REMARK INTER + INTRA:          -6.430
REMARK INTER:                  -5.624
REMARK INTRA:                  -0.806
REMARK UNBOUND:                -0.756
REMARK SMILES CC(=O)CCC=C(C)CCC=C(C)C
REMARK SMILES IDX 7 1 6 2 8 3 9 4 10 5 11 6 13 7 12 8 14 9 5 10 4 11 2 12 3 13
REMARK SMILES IDX 1 14
REMARK H PARENT
REMARK Flexibility Score: inf
ROOT
ATOM      1  C   UNL     1       2.661  79.566 -17.602  1.00  0.00    -0.077 C 
ATOM      2  C   UNL     1       1.671  80.147 -18.320  1.00  0.00    -0.028 C 
ATOM      3  C   UNL     1       3.902  80.378 -17.325  1.00  0.00     0.039 C 
ENDROOT
BRANCH   1   4
ATOM      4  C   UNL     1       2.575  78.155 -17.049  1.00  0.00     0.034 C 
BRANCH   4   5
ATOM      5  C   UNL     1       3.234  78.054 -15.668  1.00  0.00     0.032 C 
BRANCH   5   6
ATOM      6  C   UNL     1       3.890  76.709 -15.471  1.00  0.00    -0.028 C 
ATOM      7  C   UNL     1       6.095  77.572 -16.266  1.00  0.00     0.039 C 
ATOM      8  C   UNL     1       5.195  76.481 -15.741  1.00  0.00    -0.080 C 
ATOM      9  C   UNL     1       5.784  75.113 -15.523  1.00  0.00     0.039 C 
ENDBRANCH   5   6
ENDBRANCH   4   5
ENDBRANCH   1   4
BRANCH   2  10
ATOM     10  C   UNL     1       0.366  79.495 -18.719  1.00  0.00     0.035 C 
BRANCH  10  11
ATOM     11  C   UNL     1       0.261  79.323 -20.242  1.00  0.00     0.079 C 
BRANCH  11  12
ATOM     12  C   UNL     1      -0.133  77.921 -20.627  1.00  0.00     0.130 C 
ATOM     13  O   UNL     1      -0.859  77.735 -21.592  1.00  0.00    -0.300 OA
ATOM     14  C   UNL     1       0.398  76.747 -19.862  1.00  0.00     0.087 C 
ENDBRANCH  11  12
ENDBRANCH  10  11
ENDBRANCH   2  10
TORSDOF 6
ENDMDL
MODEL 7
REMARK VINA RESULT:    -4.124      6.282      7.647
REMARK INTER + INTRA:          -6.326
REMARK INTER:                  -5.148
REMARK INTRA:                  -1.179
REMARK UNBOUND:                -0.756
REMARK SMILES CC(=O)CCC=C(C)CCC=C(C)C
REMARK SMILES IDX 7 1 6 2 8 3 9 4 10 5 11 6 13 7 12 8 14 9 5 10 4 11 2 12 3 13
REMARK SMILES IDX 1 14
REMARK H PARENT
REMARK Flexibility Score: inf
ROOT
ATOM      1  C   UNL     1      -0.068  77.092 -24.783  1.00  0.00    -0.077 C 
ATOM      2  C   UNL     1      -0.215  76.453 -23.598  1.00  0.00    -0.028 C 
ATOM      3  C   UNL     1       1.020  76.613 -25.712  1.00  0.00     0.039 C 
ENDROOT
BRANCH   1   4
ATOM      4  C   UNL     1      -0.950  78.244 -25.227  1.00  0.00     0.034 C 
BRANCH   4   5
ATOM      5  C   UNL     1      -0.367  79.595 -24.794  1.00  0.00     0.032 C 
BRANCH   5   6
ATOM      6  C   UNL     1      -1.219  80.244 -23.730  1.00  0.00    -0.028 C 
ATOM      7  C   UNL     1       0.674  80.258 -22.102  1.00  0.00     0.039 C 
ATOM      8  C   UNL     1      -0.751  80.550 -22.500  1.00  0.00    -0.080 C 
ATOM      9  C   UNL     1      -1.658  81.195 -21.485  1.00  0.00     0.039 C 
ENDBRANCH   5   6
ENDBRANCH   4   5
ENDBRANCH   1   4
BRANCH   2  10
ATOM     10  C   UNL     1      -1.227  76.796 -22.527  1.00  0.00     0.035 C 
BRANCH  10  11
ATOM     11  C   UNL     1      -0.571  76.906 -21.142  1.00  0.00     0.079 C 
BRANCH  11  12
ATOM     12  C   UNL     1      -0.560  75.588 -20.414  1.00  0.00     0.130 C 
ATOM     13  O   UNL     1      -1.303  74.687 -20.773  1.00  0.00    -0.300 OA
ATOM     14  C   UNL     1       0.389  75.358 -19.277  1.00  0.00     0.087 C 
ENDBRANCH  11  12
ENDBRANCH  10  11
ENDBRANCH   2  10
TORSDOF 6
ENDMDL
MODEL 8
REMARK VINA RESULT:    -4.115     13.184     14.452
REMARK INTER + INTRA:          -6.315
REMARK INTER:                  -5.513
REMARK INTRA:                  -0.801
REMARK UNBOUND:                -0.756
REMARK SMILES CC(=O)CCC=C(C)CCC=C(C)C
REMARK SMILES IDX 7 1 6 2 8 3 9 4 10 5 11 6 13 7 12 8 14 9 5 10 4 11 2 12 3 13
REMARK SMILES IDX 1 14
REMARK H PARENT
REMARK Flexibility Score: inf
ROOT
ATOM      1  C   UNL     1       5.885  75.803 -15.749  1.00  0.00    -0.077 C 
ATOM      2  C   UNL     1       4.560  75.951 -15.513  1.00  0.00    -0.028 C 
ATOM      3  C   UNL     1       6.697  75.023 -14.745  1.00  0.00     0.039 C 
ENDROOT
BRANCH   1   4
ATOM      4  C   UNL     1       6.584  76.362 -16.975  1.00  0.00     0.034 C 
BRANCH   4   5
ATOM      5  C   UNL     1       7.250  77.711 -16.673  1.00  0.00     0.032 C 
BRANCH   5   6
ATOM      6  C   UNL     1       8.709  77.700 -17.060  1.00  0.00    -0.028 C 
ATOM      7  C   UNL     1       8.922  80.155 -16.649  1.00  0.00     0.039 C 
ATOM      8  C   UNL     1       9.478  78.812 -17.051  1.00  0.00    -0.080 C 
ATOM      9  C   UNL     1      10.928  78.730 -17.450  1.00  0.00     0.039 C 
ENDBRANCH   5   6
ENDBRANCH   4   5
ENDBRANCH   1   4
BRANCH   2  10
ATOM     10  C   UNL     1       3.586  76.713 -16.384  1.00  0.00     0.035 C 
BRANCH  10  11
ATOM     11  C   UNL     1       3.260  78.094 -15.795  1.00  0.00     0.079 C 
BRANCH  11  12
ATOM     12  C   UNL     1       3.444  79.198 -16.802  1.00  0.00     0.130 C 
ATOM     13  O   UNL     1       2.667  79.304 -17.740  1.00  0.00    -0.300 OA
ATOM     14  C   UNL     1       4.550  80.197 -16.639  1.00  0.00     0.087 C 
ENDBRANCH  11  12
ENDBRANCH  10  11
ENDBRANCH   2  10
TORSDOF 6
ENDMDL
MODEL 9
REMARK VINA RESULT:    -4.109      6.969      9.541
REMARK INTER + INTRA:          -6.307
REMARK INTER:                  -5.297
REMARK INTRA:                  -1.010
REMARK UNBOUND:                -0.756
REMARK SMILES CC(=O)CCC=C(C)CCC=C(C)C
REMARK SMILES IDX 7 1 6 2 8 3 9 4 10 5 11 6 13 7 12 8 14 9 5 10 4 11 2 12 3 13
REMARK SMILES IDX 1 14
REMARK H PARENT
REMARK Flexibility Score: inf
ROOT
ATOM      1  C   UNL     1      -0.514  77.042 -23.833  1.00  0.00    -0.077 C 
ATOM      2  C   UNL     1      -0.217  78.226 -24.421  1.00  0.00    -0.028 C 
ATOM      3  C   UNL     1       0.270  75.826 -24.259  1.00  0.00     0.039 C 
ENDROOT
BRANCH   1   4
ATOM      4  C   UNL     1      -1.577  76.886 -22.760  1.00  0.00     0.034 C 
BRANCH   4   5
ATOM      5  C   UNL     1      -1.010  76.210 -21.506  1.00  0.00     0.032 C 
BRANCH   5   6
ATOM      6  C   UNL     1      -0.168  77.169 -20.700  1.00  0.00    -0.028 C 
ATOM      7  C   UNL     1       0.569  75.354 -19.151  1.00  0.00     0.039 C 
ATOM      8  C   UNL     1       0.556  76.786 -19.624  1.00  0.00    -0.080 C 
ATOM      9  C   UNL     1       1.373  77.797 -18.864  1.00  0.00     0.039 C 
ENDBRANCH   5   6
ENDBRANCH   4   5
ENDBRANCH   1   4
BRANCH   2  10
ATOM     10  C   UNL     1      -0.901  79.547 -24.148  1.00  0.00     0.035 C 
BRANCH  10  11
ATOM     11  C   UNL     1      -0.123  80.388 -23.126  1.00  0.00     0.079 C 
BRANCH  11  12
ATOM     12  C   UNL     1      -0.935  80.671 -21.890  1.00  0.00     0.130 C 
ATOM     13  O   UNL     1      -0.401  80.654 -20.791  1.00  0.00    -0.300 OA
ATOM     14  C   UNL     1      -2.389  81.019 -22.001  1.00  0.00     0.087 C 
ENDBRANCH  11  12
ENDBRANCH  10  11
ENDBRANCH   2  10
TORSDOF 6
ENDMDL
