MODEL 1
REMARK VINA RESULT:    -4.422      0.000      0.000
REMARK INTER + INTRA:          -4.847
REMARK INTER:                  -4.680
REMARK INTRA:                  -0.167
REMARK UNBOUND:                -0.167
REMARK SMILES CC(C)[C@@H]1CC[C@@H](C)CC1=O
REMARK SMILES IDX 8 1 7 2 6 3 5 4 4 5 10 6 11 7 9 8 2 9 1 10 3 11
REMARK H PARENT
REMARK Flexibility Score: inf
ROOT
ATOM      1  C   UNL     1      12.670 -11.406  17.165  1.00  0.00     0.008 C 
ATOM      2  C   UNL     1      13.810 -10.722  17.927  1.00  0.00    -0.007 C 
ATOM      3  C   UNL     1      13.279  -9.515  18.728  1.00  0.00     0.004 C 
ATOM      4  C   UNL     1      14.410  -8.798  19.491  1.00  0.00     0.012 C 
ATOM      5  C   UNL     1      15.536  -8.327  18.540  1.00  0.00     0.058 C 
ATOM      6  C   UNL     1      15.972  -9.530  17.719  1.00  0.00     0.136 C 
ATOM      7  O   UNL     1      17.125  -9.937  17.730  1.00  0.00    -0.299 OA
ATOM      8  C   UNL     1      14.923 -10.285  16.958  1.00  0.00     0.079 C 
ENDROOT
BRANCH   5   9
ATOM      9  C   UNL     1      16.726  -7.634  19.285  1.00  0.00    -0.007 C 
ATOM     10  C   UNL     1      16.464  -7.460  20.791  1.00  0.00     0.008 C 
ATOM     11  C   UNL     1      17.023  -6.251  18.678  1.00  0.00     0.008 C 
ENDBRANCH   5   9
TORSDOF 1
ENDMDL
MODEL 2
REMARK VINA RESULT:    -4.389     14.758     17.820
REMARK INTER + INTRA:          -4.813
REMARK INTER:                  -4.649
REMARK INTRA:                  -0.164
REMARK UNBOUND:                -0.167
REMARK SMILES CC(C)[C@@H]1CC[C@@H](C)CC1=O
REMARK SMILES IDX 8 1 7 2 6 3 5 4 4 5 10 6 11 7 9 8 2 9 1 10 3 11
REMARK H PARENT
REMARK Flexibility Score: inf
ROOT
ATOM      1  C   UNL     1       2.842 -15.114  17.527  1.00  0.00     0.008 C 
ATOM      2  C   UNL     1       1.567 -15.648  18.186  1.00  0.00    -0.007 C 
ATOM      3  C   UNL     1       1.900 -16.789  19.170  1.00  0.00     0.004 C 
ATOM      4  C   UNL     1       0.631 -17.355  19.835  1.00  0.00     0.012 C 
ATOM      5  C   UNL     1      -0.389 -17.864  18.787  1.00  0.00     0.058 C 
ATOM      6  C   UNL     1      -0.627 -16.734  17.798  1.00  0.00     0.136 C 
ATOM      7  O   UNL     1      -1.739 -16.265  17.607  1.00  0.00    -0.299 OA
ATOM      8  C   UNL     1       0.565 -16.125  17.120  1.00  0.00     0.079 C 
ENDROOT
BRANCH   5   9
ATOM      9  C   UNL     1      -1.712 -18.405  19.424  1.00  0.00    -0.007 C 
ATOM     10  C   UNL     1      -1.616 -18.564  20.951  1.00  0.00     0.008 C 
ATOM     11  C   UNL     1      -2.098 -19.766  18.814  1.00  0.00     0.008 C 
ENDBRANCH   5   9
TORSDOF 1
ENDMDL
MODEL 3
REMARK VINA RESULT:    -4.268     18.427     19.940
REMARK INTER + INTRA:          -4.684
REMARK INTER:                  -4.510
REMARK INTRA:                  -0.174
REMARK UNBOUND:                -0.167
REMARK SMILES CC(C)[C@@H]1CC[C@@H](C)CC1=O
REMARK SMILES IDX 8 1 7 2 6 3 5 4 4 5 10 6 11 7 9 8 2 9 1 10 3 11
REMARK H PARENT
REMARK Flexibility Score: inf
ROOT
ATOM      1  C   UNL     1       3.618 -15.161  27.710  1.00  0.00     0.008 C 
ATOM      2  C   UNL     1       2.901 -15.200  29.064  1.00  0.00    -0.007 C 
ATOM      3  C   UNL     1       3.611 -16.174  30.027  1.00  0.00     0.004 C 
ATOM      4  C   UNL     1       2.899 -16.245  31.391  1.00  0.00     0.012 C 
ATOM      5  C   UNL     1       1.415 -16.661  31.244  1.00  0.00     0.058 C 
ATOM      6  C   UNL     1       0.778 -15.724  30.230  1.00  0.00     0.136 C 
ATOM      7  O   UNL     1      -0.184 -15.024  30.511  1.00  0.00    -0.299 OA
ATOM      8  C   UNL     1       1.424 -15.595  28.883  1.00  0.00     0.079 C 
ENDROOT
BRANCH   5   9
ATOM      9  C   UNL     1       0.645 -16.699  32.606  1.00  0.00    -0.007 C 
ATOM     10  C   UNL     1       1.409 -15.996  33.742  1.00  0.00     0.008 C 
ATOM     11  C   UNL     1       0.360 -18.150  33.035  1.00  0.00     0.008 C 
ENDBRANCH   5   9
TORSDOF 1
ENDMDL
MODEL 4
REMARK VINA RESULT:    -4.263     14.666     16.275
REMARK INTER + INTRA:          -4.679
REMARK INTER:                  -4.507
REMARK INTRA:                  -0.171
REMARK UNBOUND:                -0.167
REMARK SMILES CC(C)[C@@H]1CC[C@@H](C)CC1=O
REMARK SMILES IDX 8 1 7 2 6 3 5 4 4 5 10 6 11 7 9 8 2 9 1 10 3 11
REMARK H PARENT
REMARK Flexibility Score: inf
ROOT
ATOM      1  C   UNL     1      -0.770 -18.241  20.328  1.00  0.00     0.008 C 
ATOM      2  C   UNL     1      -0.196 -17.261  19.300  1.00  0.00    -0.007 C 
ATOM      3  C   UNL     1      -0.492 -17.745  17.865  1.00  0.00     0.004 C 
ATOM      4  C   UNL     1       0.090 -16.785  16.810  1.00  0.00     0.012 C 
ATOM      5  C   UNL     1       1.617 -16.598  16.983  1.00  0.00     0.058 C 
ATOM      6  C   UNL     1       1.866 -16.199  18.428  1.00  0.00     0.136 C 
ATOM      7  O   UNL     1       2.423 -15.151  18.723  1.00  0.00    -0.299 OA
ATOM      8  C   UNL     1       1.318 -17.081  19.510  1.00  0.00     0.079 C 
ENDROOT
BRANCH   5   9
ATOM      9  C   UNL     1       2.238 -15.592  15.957  1.00  0.00    -0.007 C 
ATOM     10  C   UNL     1       1.174 -14.878  15.105  1.00  0.00     0.008 C 
ATOM     11  C   UNL     1       3.220 -16.309  15.011  1.00  0.00     0.008 C 
ENDBRANCH   5   9
TORSDOF 1
ENDMDL
MODEL 5
REMARK VINA RESULT:    -4.194     18.143     19.795
REMARK INTER + INTRA:          -4.607
REMARK INTER:                  -4.432
REMARK INTRA:                  -0.175
REMARK UNBOUND:                -0.167
REMARK SMILES CC(C)[C@@H]1CC[C@@H](C)CC1=O
REMARK SMILES IDX 8 1 7 2 6 3 5 4 4 5 10 6 11 7 9 8 2 9 1 10 3 11
REMARK H PARENT
REMARK Flexibility Score: inf
ROOT
ATOM      1  C   UNL     1       5.123 -16.173  30.857  1.00  0.00     0.008 C 
ATOM      2  C   UNL     1       3.657 -16.335  30.444  1.00  0.00    -0.007 C 
ATOM      3  C   UNL     1       3.246 -15.227  29.453  1.00  0.00     0.004 C 
ATOM      4  C   UNL     1       1.769 -15.356  29.035  1.00  0.00     0.012 C 
ATOM      5  C   UNL     1       0.821 -15.326  30.258  1.00  0.00     0.058 C 
ATOM      6  C   UNL     1       1.310 -16.379  31.239  1.00  0.00     0.136 C 
ATOM      7  O   UNL     1       0.597 -17.302  31.606  1.00  0.00    -0.299 OA
ATOM      8  C   UNL     1       2.742 -16.322  31.682  1.00  0.00     0.079 C 
ENDROOT
BRANCH   5   9
ATOM      9  C   UNL     1      -0.687 -15.502  29.877  1.00  0.00    -0.007 C 
ATOM     10  C   UNL     1      -0.880 -16.171  28.504  1.00  0.00     0.008 C 
ATOM     11  C   UNL     1      -1.412 -14.144  29.864  1.00  0.00     0.008 C 
ENDBRANCH   5   9
TORSDOF 1
ENDMDL
MODEL 6
REMARK VINA RESULT:    -4.078     14.803     16.221
REMARK INTER + INTRA:          -4.483
REMARK INTER:                  -4.322
REMARK INTRA:                  -0.161
REMARK UNBOUND:                -0.167
REMARK SMILES CC(C)[C@@H]1CC[C@@H](C)CC1=O
REMARK SMILES IDX 8 1 7 2 6 3 5 4 4 5 10 6 11 7 9 8 2 9 1 10 3 11
REMARK H PARENT
REMARK Flexibility Score: inf
ROOT
ATOM      1  C   UNL     1       0.716 -17.467  20.224  1.00  0.00     0.008 C 
ATOM      2  C   UNL     1       1.015 -17.173  18.751  1.00  0.00    -0.007 C 
ATOM      3  C   UNL     1       2.074 -16.059  18.623  1.00  0.00     0.004 C 
ATOM      4  C   UNL     1       2.381 -15.732  17.149  1.00  0.00     0.012 C 
ATOM      5  C   UNL     1       1.106 -15.318  16.375  1.00  0.00     0.058 C 
ATOM      6  C   UNL     1       0.067 -16.406  16.593  1.00  0.00     0.136 C 
ATOM      7  O   UNL     1      -0.429 -17.023  15.662  1.00  0.00    -0.299 OA
ATOM      8  C   UNL     1      -0.274 -16.785  18.004  1.00  0.00     0.079 C 
ENDROOT
BRANCH   5   9
ATOM      9  C   UNL     1       1.369 -15.022  14.861  1.00  0.00    -0.007 C 
ATOM     10  C   UNL     1       2.862 -14.825  14.544  1.00  0.00     0.008 C 
ATOM     11  C   UNL     1       0.603 -13.766  14.405  1.00  0.00     0.008 C 
ENDBRANCH   5   9
TORSDOF 1
ENDMDL
MODEL 7
REMARK VINA RESULT:    -4.069     15.797     17.320
REMARK INTER + INTRA:          -4.474
REMARK INTER:                  -4.344
REMARK INTRA:                  -0.130
REMARK UNBOUND:                -0.167
REMARK SMILES CC(C)[C@@H]1CC[C@@H](C)CC1=O
REMARK SMILES IDX 8 1 7 2 6 3 5 4 4 5 10 6 11 7 9 8 2 9 1 10 3 11
REMARK H PARENT
REMARK Flexibility Score: inf
ROOT
ATOM      1  C   UNL     1       0.732 -13.922  13.946  1.00  0.00     0.008 C 
ATOM      2  C   UNL     1       0.396 -14.416  15.356  1.00  0.00    -0.007 C 
ATOM      3  C   UNL     1       1.563 -15.243  15.934  1.00  0.00     0.004 C 
ATOM      4  C   UNL     1       1.244 -15.767  17.347  1.00  0.00     0.012 C 
ATOM      5  C   UNL     1      -0.047 -16.621  17.365  1.00  0.00     0.058 C 
ATOM      6  C   UNL     1      -1.148 -15.797  16.718  1.00  0.00     0.136 C 
ATOM      7  O   UNL     1      -2.177 -15.511  17.312  1.00  0.00    -0.299 OA
ATOM      8  C   UNL     1      -0.902 -15.243  15.345  1.00  0.00     0.079 C 
ENDROOT
BRANCH   5   9
ATOM      9  C   UNL     1      -0.430 -17.134  18.794  1.00  0.00    -0.007 C 
ATOM     10  C   UNL     1       0.790 -17.284  19.720  1.00  0.00     0.008 C 
ATOM     11  C   UNL     1      -1.153 -18.491  18.715  1.00  0.00     0.008 C 
ENDBRANCH   5   9
TORSDOF 1
ENDMDL
MODEL 8
REMARK VINA RESULT:    -4.048     15.157     17.853
REMARK INTER + INTRA:          -4.452
REMARK INTER:                  -4.296
REMARK INTRA:                  -0.156
REMARK UNBOUND:                -0.167
REMARK SMILES CC(C)[C@@H]1CC[C@@H](C)CC1=O
REMARK SMILES IDX 8 1 7 2 6 3 5 4 4 5 10 6 11 7 9 8 2 9 1 10 3 11
REMARK H PARENT
REMARK Flexibility Score: inf
ROOT
ATOM      1  C   UNL     1      -2.976 -19.736  19.856  1.00  0.00     0.008 C 
ATOM      2  C   UNL     1      -1.653 -19.199  19.301  1.00  0.00    -0.007 C 
ATOM      3  C   UNL     1      -1.125 -18.044  20.177  1.00  0.00     0.004 C 
ATOM      4  C   UNL     1       0.197 -17.474  19.630  1.00  0.00     0.012 C 
ATOM      5  C   UNL     1       0.050 -16.982  18.170  1.00  0.00     0.058 C 
ATOM      6  C   UNL     1      -0.544 -18.125  17.362  1.00  0.00     0.136 C 
ATOM      7  O   UNL     1       0.032 -18.601  16.394  1.00  0.00    -0.299 OA
ATOM      8  C   UNL     1      -1.826 -18.738  17.842  1.00  0.00     0.079 C 
ENDROOT
BRANCH   5   9
ATOM      9  C   UNL     1       1.387 -16.438  17.563  1.00  0.00    -0.007 C 
ATOM     10  C   UNL     1       2.412 -16.042  18.640  1.00  0.00     0.008 C 
ATOM     11  C   UNL     1       1.124 -15.214  16.666  1.00  0.00     0.008 C 
ENDBRANCH   5   9
TORSDOF 1
ENDMDL
