MODEL 1
REMARK VINA RESULT:    -3.248      0.000      0.000
REMARK INTER + INTRA:          -7.028
REMARK INTER:                  -5.716
REMARK INTRA:                  -1.312
REMARK UNBOUND:                -1.312
REMARK SMILES CCCCCCCCCCCCCCC(=O)[O-]
REMARK SMILES IDX 9 1 10 2 11 3 12 4 13 5 14 6 15 7 16 8 17 9 8 10 7 11 6 12
REMARK SMILES IDX 5 13 4 14 3 15 2 16 1 17
REMARK H PARENT
REMARK Flexibility Score: inf
ROOT
ATOM      1  C   UNL     1      33.385  18.794  14.025  1.00  0.00     0.000 C 
ENDROOT
BRANCH   1   2
ATOM      2  C   UNL     1      32.877  20.215  13.741  1.00  0.00     0.000 C 
BRANCH   2   3
ATOM      3  C   UNL     1      33.094  20.591  12.270  1.00  0.00     0.000 C 
BRANCH   3   4
ATOM      4  C   UNL     1      34.590  20.746  11.957  1.00  0.00     0.000 C 
BRANCH   4   5
ATOM      5  C   UNL     1      34.965  22.181  11.551  1.00  0.00     0.006 C 
BRANCH   5   6
ATOM      6  C   UNL     1      36.306  22.255  10.810  1.00  0.00     0.053 C 
BRANCH   6   7
ATOM      7  C   UNL     1      36.206  21.575   9.481  1.00  0.00     0.041 C 
ATOM      8  O   UNL     1      36.875  20.534   9.250  1.00  0.00    -0.550 OA
ATOM      9  O   UNL     1      35.410  22.119   8.481  1.00  0.00    -0.550 OA
ENDBRANCH   6   7
ENDBRANCH   5   6
ENDBRANCH   4   5
ENDBRANCH   3   4
ENDBRANCH   2   3
ENDBRANCH   1   2
BRANCH   1  10
ATOM     10  C   UNL     1      33.988  18.650  15.431  1.00  0.00     0.000 C 
BRANCH  10  11
ATOM     11  C   UNL     1      33.534  19.763  16.388  1.00  0.00    -0.000 C 
BRANCH  11  12
ATOM     12  C   UNL     1      34.723  20.634  16.817  1.00  0.00    -0.000 C 
BRANCH  12  13
ATOM     13  C   UNL     1      35.815  20.733  15.737  1.00  0.00    -0.000 C 
BRANCH  13  14
ATOM     14  C   UNL     1      35.765  22.009  14.872  1.00  0.00    -0.000 C 
BRANCH  14  15
ATOM     15  C   UNL     1      36.925  22.995  15.096  1.00  0.00    -0.000 C 
BRANCH  15  16
ATOM     16  C   UNL     1      38.112  22.744  14.154  1.00  0.00    -0.003 C 
ATOM     17  C   UNL     1      39.235  22.000  14.872  1.00  0.00     0.004 C 
ENDBRANCH  15  16
ENDBRANCH  14  15
ENDBRANCH  13  14
ENDBRANCH  12  13
ENDBRANCH  11  12
ENDBRANCH  10  11
ENDBRANCH   1  10
TORSDOF 13
ENDMDL
MODEL 2
REMARK VINA RESULT:    -3.060     13.838     16.642
REMARK INTER + INTRA:          -6.698
REMARK INTER:                  -5.474
REMARK INTRA:                  -1.224
REMARK UNBOUND:                -1.312
REMARK SMILES CCCCCCCCCCCCCCC(=O)[O-]
REMARK SMILES IDX 9 1 10 2 11 3 12 4 13 5 14 6 15 7 16 8 17 9 8 10 7 11 6 12
REMARK SMILES IDX 5 13 4 14 3 15 2 16 1 17
REMARK H PARENT
REMARK Flexibility Score: inf
ROOT
ATOM      1  C   UNL     1      47.653  22.739  16.455  1.00  0.00     0.000 C 
ENDROOT
BRANCH   1   2
ATOM      2  C   UNL     1      47.662  23.085  17.951  1.00  0.00     0.000 C 
BRANCH   2   3
ATOM      3  C   UNL     1      49.095  23.117  18.498  1.00  0.00     0.000 C 
BRANCH   3   4
ATOM      4  C   UNL     1      49.225  22.237  19.751  1.00  0.00     0.000 C 
BRANCH   4   5
ATOM      5  C   UNL     1      49.085  23.039  21.055  1.00  0.00     0.006 C 
BRANCH   5   6
ATOM      6  C   UNL     1      49.258  22.169  22.306  1.00  0.00     0.053 C 
BRANCH   6   7
ATOM      7  C   UNL     1      50.691  22.152  22.736  1.00  0.00     0.041 C 
ATOM      8  O   UNL     1      51.150  23.085  23.446  1.00  0.00    -0.550 OA
ATOM      9  O   UNL     1      51.531  21.130  22.312  1.00  0.00    -0.550 OA
ENDBRANCH   6   7
ENDBRANCH   5   6
ENDBRANCH   4   5
ENDBRANCH   3   4
ENDBRANCH   2   3
ENDBRANCH   1   2
BRANCH   1  10
ATOM     10  C   UNL     1      47.394  21.248  16.192  1.00  0.00     0.000 C 
BRANCH  10  11
ATOM     11  C   UNL     1      48.546  20.570  15.434  1.00  0.00    -0.000 C 
BRANCH  11  12
ATOM     12  C   UNL     1      49.780  21.482  15.384  1.00  0.00    -0.000 C 
BRANCH  12  13
ATOM     13  C   UNL     1      50.867  20.967  14.425  1.00  0.00    -0.000 C 
BRANCH  13  14
ATOM     14  C   UNL     1      52.318  21.240  14.873  1.00  0.00    -0.000 C 
BRANCH  14  15
ATOM     15  C   UNL     1      52.459  22.135  16.116  1.00  0.00    -0.000 C 
BRANCH  15  16
ATOM     16  C   UNL     1      53.039  21.388  17.326  1.00  0.00    -0.003 C 
ATOM     17  C   UNL     1      52.728  22.123  18.627  1.00  0.00     0.004 C 
ENDBRANCH  15  16
ENDBRANCH  14  15
ENDBRANCH  13  14
ENDBRANCH  12  13
ENDBRANCH  11  12
ENDBRANCH  10  11
ENDBRANCH   1  10
TORSDOF 13
ENDMDL
MODEL 3
REMARK VINA RESULT:    -2.968      2.170      4.618
REMARK INTER + INTRA:          -6.536
REMARK INTER:                  -5.285
REMARK INTRA:                  -1.251
REMARK UNBOUND:                -1.312
REMARK SMILES CCCCCCCCCCCCCCC(=O)[O-]
REMARK SMILES IDX 9 1 10 2 11 3 12 4 13 5 14 6 15 7 16 8 17 9 8 10 7 11 6 12
REMARK SMILES IDX 5 13 4 14 3 15 2 16 1 17
REMARK H PARENT
REMARK Flexibility Score: inf
ROOT
ATOM      1  C   UNL     1      34.154  19.375  13.885  1.00  0.00     0.000 C 
ENDROOT
BRANCH   1   2
ATOM      2  C   UNL     1      33.779  19.081  15.345  1.00  0.00     0.000 C 
BRANCH   2   3
ATOM      3  C   UNL     1      34.959  19.367  16.282  1.00  0.00     0.000 C 
BRANCH   3   4
ATOM      4  C   UNL     1      35.378  20.843  16.205  1.00  0.00     0.000 C 
BRANCH   4   5
ATOM      5  C   UNL     1      36.508  21.086  15.191  1.00  0.00     0.006 C 
BRANCH   5   6
ATOM      6  C   UNL     1      37.012  22.535  15.204  1.00  0.00     0.053 C 
BRANCH   6   7
ATOM      7  C   UNL     1      38.269  22.656  14.403  1.00  0.00     0.041 C 
ATOM      8  O   UNL     1      38.233  23.123  13.234  1.00  0.00    -0.550 OA
ATOM      9  O   UNL     1      39.474  22.209  14.929  1.00  0.00    -0.550 OA
ENDBRANCH   6   7
ENDBRANCH   5   6
ENDBRANCH   4   5
ENDBRANCH   3   4
ENDBRANCH   2   3
ENDBRANCH   1   2
BRANCH   1  10
ATOM     10  C   UNL     1      32.924  19.540  12.979  1.00  0.00     0.000 C 
BRANCH  10  11
ATOM     11  C   UNL     1      32.875  20.913  12.290  1.00  0.00    -0.000 C 
BRANCH  11  12
ATOM     12  C   UNL     1      33.284  22.029  13.262  1.00  0.00    -0.000 C 
BRANCH  12  13
ATOM     13  C   UNL     1      34.277  23.029  12.643  1.00  0.00    -0.000 C 
BRANCH  13  14
ATOM     14  C   UNL     1      34.715  22.706  11.199  1.00  0.00    -0.000 C 
BRANCH  14  15
ATOM     15  C   UNL     1      36.034  21.923  11.078  1.00  0.00    -0.000 C 
BRANCH  15  16
ATOM     16  C   UNL     1      36.278  21.380   9.662  1.00  0.00    -0.003 C 
ATOM     17  C   UNL     1      36.085  22.473   8.615  1.00  0.00     0.004 C 
ENDBRANCH  15  16
ENDBRANCH  14  15
ENDBRANCH  13  14
ENDBRANCH  12  13
ENDBRANCH  11  12
ENDBRANCH  10  11
ENDBRANCH   1  10
TORSDOF 13
ENDMDL
MODEL 4
REMARK VINA RESULT:    -2.898      1.448      2.504
REMARK INTER + INTRA:          -6.412
REMARK INTER:                  -5.144
REMARK INTRA:                  -1.268
REMARK UNBOUND:                -1.312
REMARK SMILES CCCCCCCCCCCCCCC(=O)[O-]
REMARK SMILES IDX 9 1 10 2 11 3 12 4 13 5 14 6 15 7 16 8 17 9 8 10 7 11 6 12
REMARK SMILES IDX 5 13 4 14 3 15 2 16 1 17
REMARK H PARENT
REMARK Flexibility Score: inf
ROOT
ATOM      1  C   UNL     1      33.917  20.416  11.903  1.00  0.00     0.000 C 
ENDROOT
BRANCH   1   2
ATOM      2  C   UNL     1      33.120  20.934  10.697  1.00  0.00     0.000 C 
BRANCH   2   3
ATOM      3  C   UNL     1      32.981  22.461  10.746  1.00  0.00     0.000 C 
BRANCH   3   4
ATOM      4  C   UNL     1      33.398  23.094   9.410  1.00  0.00     0.000 C 
BRANCH   4   5
ATOM      5  C   UNL     1      34.271  22.158   8.558  1.00  0.00     0.006 C 
BRANCH   5   6
ATOM      6  C   UNL     1      35.751  22.564   8.561  1.00  0.00     0.053 C 
BRANCH   6   7
ATOM      7  C   UNL     1      36.512  21.753   9.561  1.00  0.00     0.041 C 
ATOM      8  O   UNL     1      36.914  20.597   9.266  1.00  0.00    -0.550 OA
ATOM      9  O   UNL     1      36.734  22.254  10.837  1.00  0.00    -0.550 OA
ENDBRANCH   6   7
ENDBRANCH   5   6
ENDBRANCH   4   5
ENDBRANCH   3   4
ENDBRANCH   2   3
ENDBRANCH   1   2
BRANCH   1  10
ATOM     10  C   UNL     1      33.816  21.344  13.124  1.00  0.00     0.000 C 
BRANCH  10  11
ATOM     11  C   UNL     1      33.027  20.716  14.283  1.00  0.00    -0.000 C 
BRANCH  11  12
ATOM     12  C   UNL     1      33.589  19.333  14.643  1.00  0.00    -0.000 C 
BRANCH  12  13
ATOM     13  C   UNL     1      34.709  19.399  15.696  1.00  0.00    -0.000 C 
BRANCH  13  14
ATOM     14  C   UNL     1      35.450  20.749  15.781  1.00  0.00    -0.000 C 
BRANCH  14  15
ATOM     15  C   UNL     1      36.933  20.706  15.372  1.00  0.00    -0.000 C 
BRANCH  15  16
ATOM     16  C   UNL     1      37.447  22.057  14.852  1.00  0.00    -0.003 C 
ATOM     17  C   UNL     1      36.357  23.122  14.919  1.00  0.00     0.004 C 
ENDBRANCH  15  16
ENDBRANCH  14  15
ENDBRANCH  13  14
ENDBRANCH  12  13
ENDBRANCH  11  12
ENDBRANCH  10  11
ENDBRANCH   1  10
TORSDOF 13
ENDMDL
MODEL 5
REMARK VINA RESULT:    -2.437     13.533     16.781
REMARK INTER + INTRA:          -5.602
REMARK INTER:                  -4.644
REMARK INTRA:                  -0.958
REMARK UNBOUND:                -1.312
REMARK SMILES CCCCCCCCCCCCCCC(=O)[O-]
REMARK SMILES IDX 9 1 10 2 11 3 12 4 13 5 14 6 15 7 16 8 17 9 8 10 7 11 6 12
REMARK SMILES IDX 5 13 4 14 3 15 2 16 1 17
REMARK H PARENT
REMARK Flexibility Score: inf
ROOT
ATOM      1  C   UNL     1      52.709  21.362  16.768  1.00  0.00     0.000 C 
ENDROOT
BRANCH   1   2
ATOM      2  C   UNL     1      52.862  21.071  15.268  1.00  0.00     0.000 C 
BRANCH   2   3
ATOM      3  C   UNL     1      51.564  21.381  14.513  1.00  0.00     0.000 C 
BRANCH   3   4
ATOM      4  C   UNL     1      50.404  20.521  15.038  1.00  0.00     0.000 C 
BRANCH   4   5
ATOM      5  C   UNL     1      49.119  21.334  15.265  1.00  0.00     0.006 C 
BRANCH   5   6
ATOM      6  C   UNL     1      49.230  22.294  16.457  1.00  0.00     0.053 C 
BRANCH   6   7
ATOM      7  C   UNL     1      47.997  22.221  17.301  1.00  0.00     0.041 C 
ATOM      8  O   UNL     1      48.048  22.517  18.524  1.00  0.00    -0.550 OA
ATOM      9  O   UNL     1      46.802  21.778  16.749  1.00  0.00    -0.550 OA
ENDBRANCH   6   7
ENDBRANCH   5   6
ENDBRANCH   4   5
ENDBRANCH   3   4
ENDBRANCH   2   3
ENDBRANCH   1   2
BRANCH   1  10
ATOM     10  C   UNL     1      52.839  22.857  17.098  1.00  0.00     0.000 C 
BRANCH  10  11
ATOM     11  C   UNL     1      52.935  23.124  18.608  1.00  0.00    -0.000 C 
BRANCH  11  12
ATOM     12  C   UNL     1      51.651  22.682  19.325  1.00  0.00    -0.000 C 
BRANCH  12  13
ATOM     13  C   UNL     1      51.900  21.584  20.375  1.00  0.00    -0.000 C 
BRANCH  13  14
ATOM     14  C   UNL     1      50.641  21.099  21.124  1.00  0.00    -0.000 C 
BRANCH  14  15
ATOM     15  C   UNL     1      50.454  21.689  22.533  1.00  0.00    -0.000 C 
BRANCH  15  16
ATOM     16  C   UNL     1      51.569  22.671  22.921  1.00  0.00    -0.003 C 
ATOM     17  C   UNL     1      52.763  21.936  23.524  1.00  0.00     0.004 C 
ENDBRANCH  15  16
ENDBRANCH  14  15
ENDBRANCH  13  14
ENDBRANCH  12  13
ENDBRANCH  11  12
ENDBRANCH  10  11
ENDBRANCH   1  10
TORSDOF 13
ENDMDL
MODEL 6
REMARK VINA RESULT:    -2.362      3.252      6.566
REMARK INTER + INTRA:          -5.469
REMARK INTER:                  -4.648
REMARK INTRA:                  -0.821
REMARK UNBOUND:                -1.312
REMARK SMILES CCCCCCCCCCCCCCC(=O)[O-]
REMARK SMILES IDX 9 1 10 2 11 3 12 4 13 5 14 6 15 7 16 8 17 9 8 10 7 11 6 12
REMARK SMILES IDX 5 13 4 14 3 15 2 16 1 17
REMARK H PARENT
REMARK Flexibility Score: inf
ROOT
ATOM      1  C   UNL     1      35.498  20.796  13.306  1.00  0.00     0.000 C 
ENDROOT
BRANCH   1   2
ATOM      2  C   UNL     1      36.448  20.687  14.509  1.00  0.00     0.000 C 
BRANCH   2   3
ATOM      3  C   UNL     1      35.837  19.816  15.614  1.00  0.00     0.000 C 
BRANCH   3   4
ATOM      4  C   UNL     1      35.124  20.681  16.664  1.00  0.00     0.000 C 
BRANCH   4   5
ATOM      5  C   UNL     1      33.864  20.006  17.231  1.00  0.00     0.006 C 
BRANCH   5   6
ATOM      6  C   UNL     1      32.880  19.576  16.136  1.00  0.00     0.053 C 
BRANCH   6   7
ATOM      7  C   UNL     1      33.008  18.110  15.867  1.00  0.00     0.041 C 
ATOM      8  O   UNL     1      32.940  17.674  14.688  1.00  0.00    -0.550 OA
ATOM      9  O   UNL     1      33.153  17.219  16.923  1.00  0.00    -0.550 OA
ENDBRANCH   6   7
ENDBRANCH   5   6
ENDBRANCH   4   5
ENDBRANCH   3   4
ENDBRANCH   2   3
ENDBRANCH   1   2
BRANCH   1  10
ATOM     10  C   UNL     1      35.428  22.219  12.733  1.00  0.00     0.000 C 
BRANCH  10  11
ATOM     11  C   UNL     1      36.788  22.719  12.220  1.00  0.00    -0.000 C 
BRANCH  11  12
ATOM     12  C   UNL     1      36.963  22.394  10.729  1.00  0.00    -0.000 C 
BRANCH  12  13
ATOM     13  C   UNL     1      35.944  23.121   9.834  1.00  0.00    -0.000 C 
BRANCH  13  14
ATOM     14  C   UNL     1      35.387  22.284   8.664  1.00  0.00    -0.000 C 
BRANCH  14  15
ATOM     15  C   UNL     1      34.020  22.741   8.127  1.00  0.00    -0.000 C 
BRANCH  15  16
ATOM     16  C   UNL     1      32.892  21.747   8.442  1.00  0.00    -0.003 C 
ATOM     17  C   UNL     1      32.877  21.387   9.925  1.00  0.00     0.004 C 
ENDBRANCH  15  16
ENDBRANCH  14  15
ENDBRANCH  13  14
ENDBRANCH  12  13
ENDBRANCH  11  12
ENDBRANCH  10  11
ENDBRANCH   1  10
TORSDOF 13
ENDMDL
MODEL 7
REMARK VINA RESULT:    -2.334      2.969      5.842
REMARK INTER + INTRA:          -5.419
REMARK INTER:                  -4.198
REMARK INTRA:                  -1.221
REMARK UNBOUND:                -1.312
REMARK SMILES CCCCCCCCCCCCCCC(=O)[O-]
REMARK SMILES IDX 9 1 10 2 11 3 12 4 13 5 14 6 15 7 16 8 17 9 8 10 7 11 6 12
REMARK SMILES IDX 5 13 4 14 3 15 2 16 1 17
REMARK H PARENT
REMARK Flexibility Score: inf
ROOT
ATOM      1  C   UNL     1      35.698  20.283  13.804  1.00  0.00     0.000 C 
ENDROOT
BRANCH   1   2
ATOM      2  C   UNL     1      36.163  21.605  14.431  1.00  0.00     0.000 C 
BRANCH   2   3
ATOM      3  C   UNL     1      35.969  21.590  15.952  1.00  0.00     0.000 C 
BRANCH   3   4
ATOM      4  C   UNL     1      35.391  20.245  16.419  1.00  0.00     0.000 C 
BRANCH   4   5
ATOM      5  C   UNL     1      34.083  20.405  17.210  1.00  0.00     0.006 C 
BRANCH   5   6
ATOM      6  C   UNL     1      32.878  19.782  16.494  1.00  0.00     0.053 C 
BRANCH   6   7
ATOM      7  C   UNL     1      33.207  18.400  16.025  1.00  0.00     0.041 C 
ATOM      8  O   UNL     1      33.504  17.503  16.857  1.00  0.00    -0.550 OA
ATOM      9  O   UNL     1      33.234  18.115  14.666  1.00  0.00    -0.550 OA
ENDBRANCH   6   7
ENDBRANCH   5   6
ENDBRANCH   4   5
ENDBRANCH   3   4
ENDBRANCH   2   3
ENDBRANCH   1   2
BRANCH   1  10
ATOM     10  C   UNL     1      35.199  20.454  12.361  1.00  0.00     0.000 C 
BRANCH  10  11
ATOM     11  C   UNL     1      33.709  20.115  12.205  1.00  0.00    -0.000 C 
BRANCH  11  12
ATOM     12  C   UNL     1      33.094  20.879  11.023  1.00  0.00    -0.000 C 
BRANCH  12  13
ATOM     13  C   UNL     1      33.156  22.407  11.200  1.00  0.00    -0.000 C 
BRANCH  13  14
ATOM     14  C   UNL     1      34.209  23.124  10.330  1.00  0.00    -0.000 C 
BRANCH  14  15
ATOM     15  C   UNL     1      34.507  22.449   8.979  1.00  0.00    -0.000 C 
BRANCH  15  16
ATOM     16  C   UNL     1      35.877  21.756   8.949  1.00  0.00    -0.003 C 
ATOM     17  C   UNL     1      36.868  22.456   9.876  1.00  0.00     0.004 C 
ENDBRANCH  15  16
ENDBRANCH  14  15
ENDBRANCH  13  14
ENDBRANCH  12  13
ENDBRANCH  11  12
ENDBRANCH  10  11
ENDBRANCH   1  10
TORSDOF 13
ENDMDL
MODEL 8
REMARK VINA RESULT:    -2.262     14.187     16.356
REMARK INTER + INTRA:          -5.293
REMARK INTER:                  -4.411
REMARK INTRA:                  -0.882
REMARK UNBOUND:                -1.312
REMARK SMILES CCCCCCCCCCCCCCC(=O)[O-]
REMARK SMILES IDX 9 1 10 2 11 3 12 4 13 5 14 6 15 7 16 8 17 9 8 10 7 11 6 12
REMARK SMILES IDX 5 13 4 14 3 15 2 16 1 17
REMARK H PARENT
REMARK Flexibility Score: inf
ROOT
ATOM      1  C   UNL     1      49.090  20.678  15.277  1.00  0.00     0.000 C 
ENDROOT
BRANCH   1   2
ATOM      2  C   UNL     1      50.288  20.875  14.336  1.00  0.00     0.000 C 
BRANCH   2   3
ATOM      3  C   UNL     1      51.607  20.563  15.055  1.00  0.00     0.000 C 
BRANCH   3   4
ATOM      4  C   UNL     1      52.568  21.760  14.981  1.00  0.00     0.000 C 
BRANCH   4   5
ATOM      5  C   UNL     1      52.641  22.543  16.302  1.00  0.00     0.006 C 
BRANCH   5   6
ATOM      6  C   UNL     1      53.121  21.680  17.476  1.00  0.00     0.053 C 
BRANCH   6   7
ATOM      7  C   UNL     1      52.583  22.210  18.767  1.00  0.00     0.041 C 
ATOM      8  O   UNL     1      51.692  23.099  18.765  1.00  0.00    -0.550 OA
ATOM      9  O   UNL     1      53.101  21.757  19.974  1.00  0.00    -0.550 OA
ENDBRANCH   6   7
ENDBRANCH   5   6
ENDBRANCH   4   5
ENDBRANCH   3   4
ENDBRANCH   2   3
ENDBRANCH   1   2
BRANCH   1  10
ATOM     10  C   UNL     1      48.628  21.989  15.931  1.00  0.00     0.000 C 
BRANCH  10  11
ATOM     11  C   UNL     1      48.299  21.824  17.423  1.00  0.00    -0.000 C 
BRANCH  11  12
ATOM     12  C   UNL     1      47.640  23.092  17.982  1.00  0.00    -0.000 C 
BRANCH  12  13
ATOM     13  C   UNL     1      47.510  23.073  19.516  1.00  0.00    -0.000 C 
BRANCH  13  14
ATOM     14  C   UNL     1      48.847  23.058  20.285  1.00  0.00    -0.000 C 
BRANCH  14  15
ATOM     15  C   UNL     1      48.720  22.924  21.813  1.00  0.00    -0.000 C 
BRANCH  15  16
ATOM     16  C   UNL     1      49.009  21.501  22.313  1.00  0.00    -0.003 C 
ATOM     17  C   UNL     1      50.437  21.080  21.974  1.00  0.00     0.004 C 
ENDBRANCH  15  16
ENDBRANCH  14  15
ENDBRANCH  13  14
ENDBRANCH  12  13
ENDBRANCH  11  12
ENDBRANCH  10  11
ENDBRANCH   1  10
TORSDOF 13
ENDMDL
MODEL 9
REMARK VINA RESULT:    -2.148      1.797      4.579
REMARK INTER + INTRA:          -5.092
REMARK INTER:                  -4.009
REMARK INTRA:                  -1.083
REMARK UNBOUND:                -1.312
REMARK SMILES CCCCCCCCCCCCCCC(=O)[O-]
REMARK SMILES IDX 9 1 10 2 11 3 12 4 13 5 14 6 15 7 16 8 17 9 8 10 7 11 6 12
REMARK SMILES IDX 5 13 4 14 3 15 2 16 1 17
REMARK H PARENT
REMARK Flexibility Score: inf
ROOT
ATOM      1  C   UNL     1      36.521  20.023  15.914  1.00  0.00     0.000 C 
ENDROOT
BRANCH   1   2
ATOM      2  C   UNL     1      35.298  20.532  16.690  1.00  0.00     0.000 C 
BRANCH   2   3
ATOM      3  C   UNL     1      34.042  20.515  15.809  1.00  0.00     0.000 C 
BRANCH   3   4
ATOM      4  C   UNL     1      33.865  19.148  15.131  1.00  0.00     0.000 C 
BRANCH   4   5
ATOM      5  C   UNL     1      34.202  19.181  13.632  1.00  0.00     0.006 C 
BRANCH   5   6
ATOM      6  C   UNL     1      32.955  19.310  12.748  1.00  0.00     0.053 C 
BRANCH   6   7
ATOM      7  C   UNL     1      33.018  20.563  11.935  1.00  0.00     0.041 C 
ATOM      8  O   UNL     1      33.157  21.679  12.501  1.00  0.00    -0.550 OA
ATOM      9  O   UNL     1      32.876  20.504  10.554  1.00  0.00    -0.550 OA
ENDBRANCH   6   7
ENDBRANCH   5   6
ENDBRANCH   4   5
ENDBRANCH   3   4
ENDBRANCH   2   3
ENDBRANCH   1   2
BRANCH   1  10
ATOM     10  C   UNL     1      37.591  21.107  15.716  1.00  0.00     0.000 C 
BRANCH  10  11
ATOM     11  C   UNL     1      36.997  22.453  15.272  1.00  0.00    -0.000 C 
BRANCH  11  12
ATOM     12  C   UNL     1      37.435  22.800  13.842  1.00  0.00    -0.000 C 
BRANCH  12  13
ATOM     13  C   UNL     1      36.446  22.296  12.774  1.00  0.00    -0.000 C 
BRANCH  13  14
ATOM     14  C   UNL     1      36.770  22.726  11.329  1.00  0.00    -0.000 C 
BRANCH  14  15
ATOM     15  C   UNL     1      36.293  21.753  10.236  1.00  0.00    -0.000 C 
BRANCH  15  16
ATOM     16  C   UNL     1      36.204  22.410   8.851  1.00  0.00    -0.003 C 
ATOM     17  C   UNL     1      34.773  22.384   8.322  1.00  0.00     0.004 C 
ENDBRANCH  15  16
ENDBRANCH  14  15
ENDBRANCH  13  14
ENDBRANCH  12  13
ENDBRANCH  11  12
ENDBRANCH  10  11
ENDBRANCH   1  10
TORSDOF 13
ENDMDL
