MODEL 1
REMARK VINA RESULT:    -3.429      0.000      0.000
REMARK INTER + INTRA:         -13.854
REMARK INTER:                  -8.641
REMARK INTRA:                  -5.213
REMARK UNBOUND:                -5.213
REMARK SMILES CCCCCCCCCCCCCCCCCCCCCCCCCCCC(=O)[O-]
REMARK SMILES IDX 15 1 16 2 17 3 18 4 19 5 20 6 21 7 22 8 23 9 24 10 25 11
REMARK SMILES IDX 26 12 27 13 28 14 29 15 30 16 14 17 13 18 12 19 11 20 10 21
REMARK SMILES IDX 9 22 8 23 7 24 6 25 5 26 4 27 3 28 2 29 1 30
REMARK H PARENT
REMARK Flexibility Score: inf
ROOT
ATOM      1  C   UNL     1      -5.993   3.675  35.243  1.00  0.00     0.000 C 
ENDROOT
BRANCH   1   2
ATOM      2  C   UNL     1      -4.573   4.198  35.545  1.00  0.00     0.000 C 
BRANCH   2   3
ATOM      3  C   UNL     1      -3.429   3.247  35.149  1.00  0.00     0.000 C 
BRANCH   3   4
ATOM      4  C   UNL     1      -2.900   2.426  36.338  1.00  0.00     0.000 C 
BRANCH   4   5
ATOM      5  C   UNL     1      -3.347   2.990  37.696  1.00  0.00     0.000 C 
BRANCH   5   6
ATOM      6  C   UNL     1      -3.887   1.908  38.644  1.00  0.00     0.000 C 
BRANCH   6   7
ATOM      7  C   UNL     1      -3.689   0.507  38.047  1.00  0.00     0.000 C 
BRANCH   7   8
ATOM      8  C   UNL     1      -4.903  -0.408  38.274  1.00  0.00     0.000 C 
BRANCH   8   9
ATOM      9  C   UNL     1      -6.068  -0.091  37.320  1.00  0.00     0.000 C 
BRANCH   9  10
ATOM     10  C   UNL     1      -5.971  -0.883  35.997  1.00  0.00     0.000 C 
BRANCH  10  11
ATOM     11  C   UNL     1      -6.226  -0.030  34.742  1.00  0.00     0.000 C 
BRANCH  11  12
ATOM     12  C   UNL     1      -4.936   0.302  33.972  1.00  0.00     0.006 C 
BRANCH  12  13
ATOM     13  C   UNL     1      -3.804  -0.687  34.282  1.00  0.00     0.053 C 
BRANCH  13  14
ATOM     14  C   UNL     1      -3.533  -1.608  33.129  1.00  0.00     0.041 C 
ATOM     15  O   UNL     1      -3.597  -1.176  31.947  1.00  0.00    -0.550 OA
ATOM     16  O   UNL     1      -3.201  -2.938  33.360  1.00  0.00    -0.550 OA
ENDBRANCH  13  14
ENDBRANCH  12  13
ENDBRANCH  11  12
ENDBRANCH  10  11
ENDBRANCH   9  10
ENDBRANCH   8   9
ENDBRANCH   7   8
ENDBRANCH   6   7
ENDBRANCH   5   6
ENDBRANCH   4   5
ENDBRANCH   3   4
ENDBRANCH   2   3
ENDBRANCH   1   2
BRANCH   1  17
ATOM     17  C   UNL     1      -6.878   3.440  36.484  1.00  0.00     0.000 C 
BRANCH  17  18
ATOM     18  C   UNL     1      -6.890   4.595  37.505  1.00  0.00     0.000 C 
BRANCH  18  19
ATOM     19  C   UNL     1      -7.341   4.203  38.924  1.00  0.00     0.000 C 
BRANCH  19  20
ATOM     20  C   UNL     1      -7.558   2.688  39.082  1.00  0.00     0.000 C 
BRANCH  20  21
ATOM     21  C   UNL     1      -9.022   2.342  39.399  1.00  0.00     0.000 C 
BRANCH  21  22
ATOM     22  C   UNL     1      -9.830   2.023  38.128  1.00  0.00    -0.000 C 
BRANCH  22  23
ATOM     23  C   UNL     1     -11.274   2.550  38.190  1.00  0.00    -0.000 C 
BRANCH  23  24
ATOM     24  C   UNL     1     -11.613   3.655  37.167  1.00  0.00    -0.000 C 
BRANCH  24  25
ATOM     25  C   UNL     1     -10.428   4.544  36.746  1.00  0.00    -0.000 C 
BRANCH  25  26
ATOM     26  C   UNL     1     -10.296   4.769  35.228  1.00  0.00    -0.000 C 
BRANCH  26  27
ATOM     27  C   UNL     1     -10.159   3.462  34.417  1.00  0.00    -0.000 C 
BRANCH  27  28
ATOM     28  C   UNL     1     -11.198   3.355  33.291  1.00  0.00    -0.000 C 
BRANCH  28  29
ATOM     29  C   UNL     1     -12.170   4.539  33.330  1.00  0.00    -0.003 C 
ATOM     30  C   UNL     1     -12.172   5.296  32.005  1.00  0.00     0.004 C 
ENDBRANCH  28  29
ENDBRANCH  27  28
ENDBRANCH  26  27
ENDBRANCH  25  26
ENDBRANCH  24  25
ENDBRANCH  23  24
ENDBRANCH  22  23
ENDBRANCH  21  22
ENDBRANCH  20  21
ENDBRANCH  19  20
ENDBRANCH  18  19
ENDBRANCH  17  18
ENDBRANCH   1  17
TORSDOF 26
ENDMDL
MODEL 2
REMARK VINA RESULT:    -3.392      2.901      5.780
REMARK INTER + INTRA:         -13.761
REMARK INTER:                  -7.564
REMARK INTRA:                  -6.196
REMARK UNBOUND:                -5.213
REMARK SMILES CCCCCCCCCCCCCCCCCCCCCCCCCCCC(=O)[O-]
REMARK SMILES IDX 15 1 16 2 17 3 18 4 19 5 20 6 21 7 22 8 23 9 24 10 25 11
REMARK SMILES IDX 26 12 27 13 28 14 29 15 30 16 14 17 13 18 12 19 11 20 10 21
REMARK SMILES IDX 9 22 8 23 7 24 6 25 5 26 4 27 3 28 2 29 1 30
REMARK H PARENT
REMARK Flexibility Score: inf
ROOT
ATOM      1  C   UNL     1      -2.917   2.720  36.050  1.00  0.00     0.000 C 
ENDROOT
BRANCH   1   2
ATOM      2  C   UNL     1      -2.698   1.223  35.749  1.00  0.00     0.000 C 
BRANCH   2   3
ATOM      3  C   UNL     1      -3.381   0.253  36.731  1.00  0.00     0.000 C 
BRANCH   3   4
ATOM      4  C   UNL     1      -3.842   0.945  38.025  1.00  0.00     0.000 C 
BRANCH   4   5
ATOM      5  C   UNL     1      -5.241   0.496  38.474  1.00  0.00     0.000 C 
BRANCH   5   6
ATOM      6  C   UNL     1      -6.115   1.660  38.965  1.00  0.00     0.000 C 
BRANCH   6   7
ATOM      7  C   UNL     1      -5.251   2.874  39.341  1.00  0.00     0.000 C 
BRANCH   7   8
ATOM      8  C   UNL     1      -6.093   4.109  39.696  1.00  0.00     0.000 C 
BRANCH   8   9
ATOM      9  C   UNL     1      -7.476   4.095  39.021  1.00  0.00     0.000 C 
BRANCH   9  10
ATOM     10  C   UNL     1      -7.847   5.468  38.420  1.00  0.00     0.000 C 
BRANCH  10  11
ATOM     11  C   UNL     1      -8.779   5.381  37.198  1.00  0.00     0.000 C 
BRANCH  11  12
ATOM     12  C   UNL     1      -9.621   4.094  37.179  1.00  0.00     0.006 C 
BRANCH  12  13
ATOM     13  C   UNL     1     -10.866   4.227  36.292  1.00  0.00     0.053 C 
BRANCH  13  14
ATOM     14  C   UNL     1     -10.509   4.355  34.841  1.00  0.00     0.041 C 
ATOM     15  O   UNL     1      -9.757   3.503  34.297  1.00  0.00    -0.550 OA
ATOM     16  O   UNL     1     -11.015   5.409  34.087  1.00  0.00    -0.550 OA
ENDBRANCH  13  14
ENDBRANCH  12  13
ENDBRANCH  11  12
ENDBRANCH  10  11
ENDBRANCH   9  10
ENDBRANCH   8   9
ENDBRANCH   7   8
ENDBRANCH   6   7
ENDBRANCH   5   6
ENDBRANCH   4   5
ENDBRANCH   3   4
ENDBRANCH   2   3
ENDBRANCH   1   2
BRANCH   1  17
ATOM     17  C   UNL     1      -3.984   3.411  35.176  1.00  0.00     0.000 C 
BRANCH  17  18
ATOM     18  C   UNL     1      -5.298   3.759  35.904  1.00  0.00     0.000 C 
BRANCH  18  19
ATOM     19  C   UNL     1      -6.548   3.038  35.368  1.00  0.00     0.000 C 
BRANCH  19  20
ATOM     20  C   UNL     1      -6.219   1.689  34.706  1.00  0.00     0.000 C 
BRANCH  20  21
ATOM     21  C   UNL     1      -7.087   0.546  35.257  1.00  0.00     0.000 C 
BRANCH  21  22
ATOM     22  C   UNL     1      -8.208   1.061  36.177  1.00  0.00    -0.000 C 
BRANCH  22  23
ATOM     23  C   UNL     1      -9.510   0.252  36.045  1.00  0.00    -0.000 C 
BRANCH  23  24
ATOM     24  C   UNL     1      -9.621  -0.967  36.986  1.00  0.00    -0.000 C 
BRANCH  24  25
ATOM     25  C   UNL     1      -8.751  -0.898  38.255  1.00  0.00    -0.000 C 
BRANCH  25  26
ATOM     26  C   UNL     1      -9.502  -0.476  39.532  1.00  0.00    -0.000 C 
BRANCH  26  27
ATOM     27  C   UNL     1      -9.636   1.053  39.696  1.00  0.00    -0.000 C 
BRANCH  27  28
ATOM     28  C   UNL     1     -11.059   1.483  40.081  1.00  0.00    -0.000 C 
BRANCH  28  29
ATOM     29  C   UNL     1     -11.904   1.754  38.831  1.00  0.00    -0.003 C 
ATOM     30  C   UNL     1     -12.769   0.547  38.477  1.00  0.00     0.004 C 
ENDBRANCH  28  29
ENDBRANCH  27  28
ENDBRANCH  26  27
ENDBRANCH  25  26
ENDBRANCH  24  25
ENDBRANCH  23  24
ENDBRANCH  22  23
ENDBRANCH  21  22
ENDBRANCH  20  21
ENDBRANCH  19  20
ENDBRANCH  18  19
ENDBRANCH  17  18
ENDBRANCH   1  17
TORSDOF 26
ENDMDL
MODEL 3
REMARK VINA RESULT:    -3.354      2.790      7.240
REMARK INTER + INTRA:         -13.664
REMARK INTER:                  -7.706
REMARK INTRA:                  -5.958
REMARK UNBOUND:                -5.213
REMARK SMILES CCCCCCCCCCCCCCCCCCCCCCCCCCCC(=O)[O-]
REMARK SMILES IDX 15 1 16 2 17 3 18 4 19 5 20 6 21 7 22 8 23 9 24 10 25 11
REMARK SMILES IDX 26 12 27 13 28 14 29 15 30 16 14 17 13 18 12 19 11 20 10 21
REMARK SMILES IDX 9 22 8 23 7 24 6 25 5 26 4 27 3 28 2 29 1 30
REMARK H PARENT
REMARK Flexibility Score: inf
ROOT
ATOM      1  C   UNL     1      -8.997   1.170  34.479  1.00  0.00     0.000 C 
ENDROOT
BRANCH   1   2
ATOM      2  C   UNL     1      -9.990   0.524  35.467  1.00  0.00     0.000 C 
BRANCH   2   3
ATOM      3  C   UNL     1      -9.522   0.488  36.933  1.00  0.00     0.000 C 
BRANCH   3   4
ATOM      4  C   UNL     1     -10.521   1.158  37.893  1.00  0.00     0.000 C 
BRANCH   4   5
ATOM      5  C   UNL     1      -9.832   1.887  39.056  1.00  0.00     0.000 C 
BRANCH   5   6
ATOM      6  C   UNL     1      -8.445   1.313  39.385  1.00  0.00     0.000 C 
BRANCH   6   7
ATOM      7  C   UNL     1      -7.418   2.439  39.580  1.00  0.00     0.000 C 
BRANCH   7   8
ATOM      8  C   UNL     1      -7.322   3.367  38.359  1.00  0.00     0.000 C 
BRANCH   8   9
ATOM      9  C   UNL     1      -7.619   4.836  38.710  1.00  0.00     0.000 C 
BRANCH   9  10
ATOM     10  C   UNL     1      -8.398   5.558  37.588  1.00  0.00     0.000 C 
BRANCH  10  11
ATOM     11  C   UNL     1      -9.481   4.688  36.924  1.00  0.00     0.000 C 
BRANCH  11  12
ATOM     12  C   UNL     1     -10.036   5.308  35.631  1.00  0.00     0.006 C 
BRANCH  12  13
ATOM     13  C   UNL     1     -11.016   4.370  34.911  1.00  0.00     0.053 C 
BRANCH  13  14
ATOM     14  C   UNL     1     -11.037   4.613  33.431  1.00  0.00     0.041 C 
ATOM     15  O   UNL     1     -11.844   5.446  32.938  1.00  0.00    -0.550 OA
ATOM     16  O   UNL     1     -10.161   3.927  32.598  1.00  0.00    -0.550 OA
ENDBRANCH  13  14
ENDBRANCH  12  13
ENDBRANCH  11  12
ENDBRANCH  10  11
ENDBRANCH   9  10
ENDBRANCH   8   9
ENDBRANCH   7   8
ENDBRANCH   6   7
ENDBRANCH   5   6
ENDBRANCH   4   5
ENDBRANCH   3   4
ENDBRANCH   2   3
ENDBRANCH   1   2
BRANCH   1  17
ATOM     17  C   UNL     1      -7.999   2.160  35.113  1.00  0.00     0.000 C 
BRANCH  17  18
ATOM     18  C   UNL     1      -7.057   2.865  34.116  1.00  0.00     0.000 C 
BRANCH  18  19
ATOM     19  C   UNL     1      -5.557   2.732  34.438  1.00  0.00     0.000 C 
BRANCH  19  20
ATOM     20  C   UNL     1      -4.893   1.553  33.707  1.00  0.00     0.000 C 
BRANCH  20  21
ATOM     21  C   UNL     1      -4.541   0.402  34.663  1.00  0.00     0.000 C 
BRANCH  21  22
ATOM     22  C   UNL     1      -5.596  -0.719  34.634  1.00  0.00    -0.000 C 
BRANCH  22  23
ATOM     23  C   UNL     1      -6.166  -1.040  36.026  1.00  0.00    -0.000 C 
BRANCH  23  24
ATOM     24  C   UNL     1      -5.880   0.021  37.111  1.00  0.00    -0.000 C 
BRANCH  24  25
ATOM     25  C   UNL     1      -4.882  -0.409  38.202  1.00  0.00    -0.000 C 
BRANCH  25  26
ATOM     26  C   UNL     1      -3.605   0.448  38.285  1.00  0.00    -0.000 C 
BRANCH  26  27
ATOM     27  C   UNL     1      -3.877   1.968  38.271  1.00  0.00    -0.000 C 
BRANCH  27  28
ATOM     28  C   UNL     1      -3.104   2.695  37.161  1.00  0.00    -0.000 C 
BRANCH  28  29
ATOM     29  C   UNL     1      -2.717   4.111  37.602  1.00  0.00    -0.003 C 
ATOM     30  C   UNL     1      -3.772   4.709  38.529  1.00  0.00     0.004 C 
ENDBRANCH  28  29
ENDBRANCH  27  28
ENDBRANCH  26  27
ENDBRANCH  25  26
ENDBRANCH  24  25
ENDBRANCH  23  24
ENDBRANCH  22  23
ENDBRANCH  21  22
ENDBRANCH  20  21
ENDBRANCH  19  20
ENDBRANCH  18  19
ENDBRANCH  17  18
ENDBRANCH   1  17
TORSDOF 26
ENDMDL
MODEL 4
REMARK VINA RESULT:    -3.340      3.408      7.345
REMARK INTER + INTRA:         -13.629
REMARK INTER:                  -8.138
REMARK INTRA:                  -5.491
REMARK UNBOUND:                -5.213
REMARK SMILES CCCCCCCCCCCCCCCCCCCCCCCCCCCC(=O)[O-]
REMARK SMILES IDX 15 1 16 2 17 3 18 4 19 5 20 6 21 7 22 8 23 9 24 10 25 11
REMARK SMILES IDX 26 12 27 13 28 14 29 15 30 16 14 17 13 18 12 19 11 20 10 21
REMARK SMILES IDX 9 22 8 23 7 24 6 25 5 26 4 27 3 28 2 29 1 30
REMARK H PARENT
REMARK Flexibility Score: inf
ROOT
ATOM      1  C   UNL     1      -8.074  -2.150  39.037  1.00  0.00     0.000 C 
ENDROOT
BRANCH   1   2
ATOM      2  C   UNL     1      -8.017  -2.757  37.620  1.00  0.00     0.000 C 
BRANCH   2   3
ATOM      3  C   UNL     1      -9.246  -2.472  36.738  1.00  0.00     0.000 C 
BRANCH   3   4
ATOM      4  C   UNL     1      -9.599  -0.976  36.675  1.00  0.00     0.000 C 
BRANCH   4   5
ATOM      5  C   UNL     1     -11.034  -0.683  37.138  1.00  0.00     0.000 C 
BRANCH   5   6
ATOM      6  C   UNL     1     -11.118  -0.304  38.625  1.00  0.00     0.000 C 
BRANCH   6   7
ATOM      7  C   UNL     1     -11.586   1.150  38.794  1.00  0.00     0.000 C 
BRANCH   7   8
ATOM      8  C   UNL     1     -11.516   1.948  37.482  1.00  0.00     0.000 C 
BRANCH   8   9
ATOM      9  C   UNL     1     -10.852   3.324  37.663  1.00  0.00     0.000 C 
BRANCH   9  10
ATOM     10  C   UNL     1      -9.973   3.712  36.454  1.00  0.00     0.000 C 
BRANCH  10  11
ATOM     11  C   UNL     1     -10.109   5.186  36.033  1.00  0.00     0.000 C 
BRANCH  11  12
ATOM     12  C   UNL     1     -10.420   5.354  34.536  1.00  0.00     0.006 C 
BRANCH  12  13
ATOM     13  C   UNL     1     -11.265   4.198  33.984  1.00  0.00     0.053 C 
BRANCH  13  14
ATOM     14  C   UNL     1     -12.352   4.685  33.071  1.00  0.00     0.041 C 
ATOM     15  O   UNL     1     -12.113   5.595  32.233  1.00  0.00    -0.550 OA
ATOM     16  O   UNL     1     -13.624   4.127  33.138  1.00  0.00    -0.550 OA
ENDBRANCH  13  14
ENDBRANCH  12  13
ENDBRANCH  11  12
ENDBRANCH  10  11
ENDBRANCH   9  10
ENDBRANCH   8   9
ENDBRANCH   7   8
ENDBRANCH   6   7
ENDBRANCH   5   6
ENDBRANCH   4   5
ENDBRANCH   3   4
ENDBRANCH   2   3
ENDBRANCH   1   2
BRANCH   1  17
ATOM     17  C   UNL     1      -7.005  -1.077  39.329  1.00  0.00     0.000 C 
BRANCH  17  18
ATOM     18  C   UNL     1      -7.559   0.321  39.670  1.00  0.00     0.000 C 
BRANCH  18  19
ATOM     19  C   UNL     1      -7.694   1.275  38.469  1.00  0.00     0.000 C 
BRANCH  19  20
ATOM     20  C   UNL     1      -7.238   2.708  38.792  1.00  0.00     0.000 C 
BRANCH  20  21
ATOM     21  C   UNL     1      -5.792   2.753  39.310  1.00  0.00     0.000 C 
BRANCH  21  22
ATOM     22  C   UNL     1      -4.766   2.525  38.185  1.00  0.00    -0.000 C 
BRANCH  22  23
ATOM     23  C   UNL     1      -3.642   1.556  38.589  1.00  0.00    -0.000 C 
BRANCH  23  24
ATOM     24  C   UNL     1      -3.696   0.171  37.909  1.00  0.00    -0.000 C 
BRANCH  24  25
ATOM     25  C   UNL     1      -4.174   0.177  36.445  1.00  0.00    -0.000 C 
BRANCH  25  26
ATOM     26  C   UNL     1      -5.455  -0.637  36.180  1.00  0.00    -0.000 C 
BRANCH  26  27
ATOM     27  C   UNL     1      -6.215  -0.200  34.908  1.00  0.00    -0.000 C 
BRANCH  27  28
ATOM     28  C   UNL     1      -5.902   1.247  34.501  1.00  0.00    -0.000 C 
BRANCH  28  29
ATOM     29  C   UNL     1      -7.017   2.196  34.955  1.00  0.00    -0.003 C 
ATOM     30  C   UNL     1      -6.500   3.623  35.111  1.00  0.00     0.004 C 
ENDBRANCH  28  29
ENDBRANCH  27  28
ENDBRANCH  26  27
ENDBRANCH  25  26
ENDBRANCH  24  25
ENDBRANCH  23  24
ENDBRANCH  22  23
ENDBRANCH  21  22
ENDBRANCH  20  21
ENDBRANCH  19  20
ENDBRANCH  18  19
ENDBRANCH  17  18
ENDBRANCH   1  17
TORSDOF 26
ENDMDL
MODEL 5
REMARK VINA RESULT:    -3.334      3.159      7.169
REMARK INTER + INTRA:         -13.614
REMARK INTER:                  -7.837
REMARK INTRA:                  -5.776
REMARK UNBOUND:                -5.213
REMARK SMILES CCCCCCCCCCCCCCCCCCCCCCCCCCCC(=O)[O-]
REMARK SMILES IDX 15 1 16 2 17 3 18 4 19 5 20 6 21 7 22 8 23 9 24 10 25 11
REMARK SMILES IDX 26 12 27 13 28 14 29 15 30 16 14 17 13 18 12 19 11 20 10 21
REMARK SMILES IDX 9 22 8 23 7 24 6 25 5 26 4 27 3 28 2 29 1 30
REMARK H PARENT
REMARK Flexibility Score: inf
ROOT
ATOM      1  C   UNL     1      -2.798   2.112  35.643  1.00  0.00     0.000 C 
ENDROOT
BRANCH   1   2
ATOM      2  C   UNL     1      -3.128   2.384  37.125  1.00  0.00     0.000 C 
BRANCH   2   3
ATOM      3  C   UNL     1      -4.603   2.718  37.414  1.00  0.00     0.000 C 
BRANCH   3   4
ATOM      4  C   UNL     1      -5.268   1.705  38.361  1.00  0.00     0.000 C 
BRANCH   4   5
ATOM      5  C   UNL     1      -4.583   0.330  38.337  1.00  0.00     0.000 C 
BRANCH   5   6
ATOM      6  C   UNL     1      -5.567  -0.834  38.532  1.00  0.00     0.000 C 
BRANCH   6   7
ATOM      7  C   UNL     1      -6.912  -0.328  39.077  1.00  0.00     0.000 C 
BRANCH   7   8
ATOM      8  C   UNL     1      -8.110  -1.087  38.486  1.00  0.00     0.000 C 
BRANCH   8   9
ATOM      9  C   UNL     1      -9.357  -0.197  38.338  1.00  0.00     0.000 C 
BRANCH   9  10
ATOM     10  C   UNL     1      -9.069   1.277  38.700  1.00  0.00     0.000 C 
BRANCH  10  11
ATOM     11  C   UNL     1      -9.645   2.288  37.693  1.00  0.00     0.000 C 
BRANCH  11  12
ATOM     12  C   UNL     1      -8.581   3.247  37.133  1.00  0.00     0.006 C 
BRANCH  12  13
ATOM     13  C   UNL     1      -8.791   3.540  35.641  1.00  0.00     0.053 C 
BRANCH  13  14
ATOM     14  C   UNL     1      -9.670   4.736  35.423  1.00  0.00     0.041 C 
ATOM     15  O   UNL     1     -10.146   5.358  36.410  1.00  0.00    -0.550 OA
ATOM     16  O   UNL     1      -9.954   5.170  34.133  1.00  0.00    -0.550 OA
ENDBRANCH  13  14
ENDBRANCH  12  13
ENDBRANCH  11  12
ENDBRANCH  10  11
ENDBRANCH   9  10
ENDBRANCH   8   9
ENDBRANCH   7   8
ENDBRANCH   6   7
ENDBRANCH   5   6
ENDBRANCH   4   5
ENDBRANCH   3   4
ENDBRANCH   2   3
ENDBRANCH   1   2
BRANCH   1  17
ATOM     17  C   UNL     1      -2.688   0.622  35.263  1.00  0.00     0.000 C 
BRANCH  17  18
ATOM     18  C   UNL     1      -3.983  -0.009  34.712  1.00  0.00     0.000 C 
BRANCH  18  19
ATOM     19  C   UNL     1      -4.691   0.813  33.619  1.00  0.00     0.000 C 
BRANCH  19  20
ATOM     20  C   UNL     1      -6.082   1.307  34.052  1.00  0.00     0.000 C 
BRANCH  20  21
ATOM     21  C   UNL     1      -6.640   0.502  35.236  1.00  0.00     0.000 C 
BRANCH  21  22
ATOM     22  C   UNL     1      -8.033  -0.081  34.936  1.00  0.00    -0.000 C 
BRANCH  22  23
ATOM     23  C   UNL     1      -7.990  -1.577  34.581  1.00  0.00    -0.000 C 
BRANCH  23  24
ATOM     24  C   UNL     1      -6.755  -2.340  35.107  1.00  0.00    -0.000 C 
BRANCH  24  25
ATOM     25  C   UNL     1      -6.033  -3.215  34.066  1.00  0.00    -0.000 C 
BRANCH  25  26
ATOM     26  C   UNL     1      -5.868  -2.567  32.678  1.00  0.00    -0.000 C 
BRANCH  26  27
ATOM     27  C   UNL     1      -4.430  -2.653  32.121  1.00  0.00    -0.000 C 
BRANCH  27  28
ATOM     28  C   UNL     1      -3.445  -3.274  33.122  1.00  0.00    -0.000 C 
BRANCH  28  29
ATOM     29  C   UNL     1      -2.420  -4.157  32.403  1.00  0.00    -0.003 C 
ATOM     30  C   UNL     1      -1.922  -5.278  33.311  1.00  0.00     0.004 C 
ENDBRANCH  28  29
ENDBRANCH  27  28
ENDBRANCH  26  27
ENDBRANCH  25  26
ENDBRANCH  24  25
ENDBRANCH  23  24
ENDBRANCH  22  23
ENDBRANCH  21  22
ENDBRANCH  20  21
ENDBRANCH  19  20
ENDBRANCH  18  19
ENDBRANCH  17  18
ENDBRANCH   1  17
TORSDOF 26
ENDMDL
MODEL 6
REMARK VINA RESULT:    -3.328      2.969      6.363
REMARK INTER + INTRA:         -13.600
REMARK INTER:                  -8.007
REMARK INTRA:                  -5.593
REMARK UNBOUND:                -5.213
REMARK SMILES CCCCCCCCCCCCCCCCCCCCCCCCCCCC(=O)[O-]
REMARK SMILES IDX 15 1 16 2 17 3 18 4 19 5 20 6 21 7 22 8 23 9 24 10 25 11
REMARK SMILES IDX 26 12 27 13 28 14 29 15 30 16 14 17 13 18 12 19 11 20 10 21
REMARK SMILES IDX 9 22 8 23 7 24 6 25 5 26 4 27 3 28 2 29 1 30
REMARK H PARENT
REMARK Flexibility Score: inf
ROOT
ATOM      1  C   UNL     1      -3.154   0.410  36.957  1.00  0.00     0.000 C 
ENDROOT
BRANCH   1   2
ATOM      2  C   UNL     1      -4.439  -0.112  37.633  1.00  0.00     0.000 C 
BRANCH   2   3
ATOM      3  C   UNL     1      -5.077   0.850  38.652  1.00  0.00     0.000 C 
BRANCH   3   4
ATOM      4  C   UNL     1      -4.305   2.174  38.783  1.00  0.00     0.000 C 
BRANCH   4   5
ATOM      5  C   UNL     1      -5.214   3.360  39.144  1.00  0.00     0.000 C 
BRANCH   5   6
ATOM      6  C   UNL     1      -6.555   2.923  39.753  1.00  0.00     0.000 C 
BRANCH   6   7
ATOM      7  C   UNL     1      -7.464   4.136  40.004  1.00  0.00     0.000 C 
BRANCH   7   8
ATOM      8  C   UNL     1      -7.575   5.053  38.775  1.00  0.00     0.000 C 
BRANCH   8   9
ATOM      9  C   UNL     1      -8.777   4.698  37.882  1.00  0.00     0.000 C 
BRANCH   9  10
ATOM     10  C   UNL     1      -9.048   5.779  36.812  1.00  0.00     0.000 C 
BRANCH  10  11
ATOM     11  C   UNL     1     -10.124   5.381  35.786  1.00  0.00     0.000 C 
BRANCH  11  12
ATOM     12  C   UNL     1     -10.945   4.156  36.223  1.00  0.00     0.006 C 
BRANCH  12  13
ATOM     13  C   UNL     1     -11.066   3.109  35.108  1.00  0.00     0.053 C 
BRANCH  13  14
ATOM     14  C   UNL     1     -11.854   3.623  33.939  1.00  0.00     0.041 C 
ATOM     15  O   UNL     1     -11.262   3.976  32.885  1.00  0.00    -0.550 OA
ATOM     16  O   UNL     1     -13.240   3.703  34.012  1.00  0.00    -0.550 OA
ENDBRANCH  13  14
ENDBRANCH  12  13
ENDBRANCH  11  12
ENDBRANCH  10  11
ENDBRANCH   9  10
ENDBRANCH   8   9
ENDBRANCH   7   8
ENDBRANCH   6   7
ENDBRANCH   5   6
ENDBRANCH   4   5
ENDBRANCH   3   4
ENDBRANCH   2   3
ENDBRANCH   1   2
BRANCH   1  17
ATOM     17  C   UNL     1      -3.069   0.160  35.438  1.00  0.00     0.000 C 
BRANCH  17  18
ATOM     18  C   UNL     1      -3.111   1.429  34.564  1.00  0.00     0.000 C 
BRANCH  18  19
ATOM     19  C   UNL     1      -2.942   2.752  35.333  1.00  0.00     0.000 C 
BRANCH  19  20
ATOM     20  C   UNL     1      -3.784   3.897  34.743  1.00  0.00     0.000 C 
BRANCH  20  21
ATOM     21  C   UNL     1      -5.020   4.208  35.601  1.00  0.00     0.000 C 
BRANCH  21  22
ATOM     22  C   UNL     1      -6.303   3.589  35.016  1.00  0.00    -0.000 C 
BRANCH  22  23
ATOM     23  C   UNL     1      -6.578   2.171  35.546  1.00  0.00    -0.000 C 
BRANCH  23  24
ATOM     24  C   UNL     1      -7.833   2.037  36.435  1.00  0.00    -0.000 C 
BRANCH  24  25
ATOM     25  C   UNL     1      -8.254   0.592  36.762  1.00  0.00    -0.000 C 
BRANCH  25  26
ATOM     26  C   UNL     1      -9.556   0.466  37.574  1.00  0.00    -0.000 C 
BRANCH  26  27
ATOM     27  C   UNL     1      -9.352   0.600  39.098  1.00  0.00    -0.000 C 
BRANCH  27  28
ATOM     28  C   UNL     1     -10.166   1.753  39.704  1.00  0.00    -0.000 C 
BRANCH  28  29
ATOM     29  C   UNL     1     -11.555   1.836  39.062  1.00  0.00    -0.003 C 
ATOM     30  C   UNL     1     -12.585   1.051  39.869  1.00  0.00     0.004 C 
ENDBRANCH  28  29
ENDBRANCH  27  28
ENDBRANCH  26  27
ENDBRANCH  25  26
ENDBRANCH  24  25
ENDBRANCH  23  24
ENDBRANCH  22  23
ENDBRANCH  21  22
ENDBRANCH  20  21
ENDBRANCH  19  20
ENDBRANCH  18  19
ENDBRANCH  17  18
ENDBRANCH   1  17
TORSDOF 26
ENDMDL
MODEL 7
REMARK VINA RESULT:    -3.288      1.917      4.134
REMARK INTER + INTRA:         -13.498
REMARK INTER:                  -7.964
REMARK INTRA:                  -5.534
REMARK UNBOUND:                -5.213
REMARK SMILES CCCCCCCCCCCCCCCCCCCCCCCCCCCC(=O)[O-]
REMARK SMILES IDX 15 1 16 2 17 3 18 4 19 5 20 6 21 7 22 8 23 9 24 10 25 11
REMARK SMILES IDX 26 12 27 13 28 14 29 15 30 16 14 17 13 18 12 19 11 20 10 21
REMARK SMILES IDX 9 22 8 23 7 24 6 25 5 26 4 27 3 28 2 29 1 30
REMARK H PARENT
REMARK Flexibility Score: inf
ROOT
ATOM      1  C   UNL     1      -3.651   0.148  37.703  1.00  0.00     0.000 C 
ENDROOT
BRANCH   1   2
ATOM      2  C   UNL     1      -5.021   0.193  38.411  1.00  0.00     0.000 C 
BRANCH   2   3
ATOM      3  C   UNL     1      -5.697  -1.175  38.611  1.00  0.00     0.000 C 
BRANCH   3   4
ATOM      4  C   UNL     1      -6.878  -1.116  39.595  1.00  0.00     0.000 C 
BRANCH   4   5
ATOM      5  C   UNL     1      -8.030  -2.053  39.200  1.00  0.00     0.000 C 
BRANCH   5   6
ATOM      6  C   UNL     1      -7.919  -2.562  37.755  1.00  0.00     0.000 C 
BRANCH   6   7
ATOM      7  C   UNL     1      -8.857  -1.777  36.825  1.00  0.00     0.000 C 
BRANCH   7   8
ATOM      8  C   UNL     1      -8.304  -1.655  35.397  1.00  0.00     0.000 C 
BRANCH   8   9
ATOM      9  C   UNL     1      -7.036  -0.784  35.328  1.00  0.00     0.000 C 
BRANCH   9  10
ATOM     10  C   UNL     1      -5.782  -1.606  34.961  1.00  0.00     0.000 C 
BRANCH  10  11
ATOM     11  C   UNL     1      -4.984  -1.028  33.778  1.00  0.00     0.000 C 
BRANCH  11  12
ATOM     12  C   UNL     1      -3.544  -1.565  33.709  1.00  0.00     0.006 C 
BRANCH  12  13
ATOM     13  C   UNL     1      -3.343  -2.540  32.541  1.00  0.00     0.053 C 
BRANCH  13  14
ATOM     14  C   UNL     1      -3.507  -3.969  32.970  1.00  0.00     0.041 C 
ATOM     15  O   UNL     1      -4.651  -4.496  32.985  1.00  0.00    -0.550 OA
ATOM     16  O   UNL     1      -2.397  -4.719  33.342  1.00  0.00    -0.550 OA
ENDBRANCH  13  14
ENDBRANCH  12  13
ENDBRANCH  11  12
ENDBRANCH  10  11
ENDBRANCH   9  10
ENDBRANCH   8   9
ENDBRANCH   7   8
ENDBRANCH   6   7
ENDBRANCH   5   6
ENDBRANCH   4   5
ENDBRANCH   3   4
ENDBRANCH   2   3
ENDBRANCH   1   2
BRANCH   1  17
ATOM     17  C   UNL     1      -3.504   1.110  36.506  1.00  0.00     0.000 C 
BRANCH  17  18
ATOM     18  C   UNL     1      -4.751   1.965  36.200  1.00  0.00     0.000 C 
BRANCH  18  19
ATOM     19  C   UNL     1      -4.557   3.482  36.378  1.00  0.00     0.000 C 
BRANCH  19  20
ATOM     20  C   UNL     1      -5.577   4.103  37.347  1.00  0.00     0.000 C 
BRANCH  20  21
ATOM     21  C   UNL     1      -5.069   4.109  38.798  1.00  0.00     0.000 C 
BRANCH  21  22
ATOM     22  C   UNL     1      -6.047   3.407  39.757  1.00  0.00    -0.000 C 
BRANCH  22  23
ATOM     23  C   UNL     1      -7.521   3.624  39.373  1.00  0.00    -0.000 C 
BRANCH  23  24
ATOM     24  C   UNL     1      -8.376   2.340  39.308  1.00  0.00    -0.000 C 
BRANCH  24  25
ATOM     25  C   UNL     1      -8.320   1.582  37.968  1.00  0.00    -0.000 C 
BRANCH  25  26
ATOM     26  C   UNL     1      -9.380   2.013  36.937  1.00  0.00    -0.000 C 
BRANCH  26  27
ATOM     27  C   UNL     1      -8.788   2.402  35.565  1.00  0.00    -0.000 C 
BRANCH  27  28
ATOM     28  C   UNL     1      -8.627   3.921  35.401  1.00  0.00    -0.000 C 
BRANCH  28  29
ATOM     29  C   UNL     1      -9.493   4.675  36.416  1.00  0.00    -0.003 C 
ATOM     30  C   UNL     1     -10.234   5.835  35.757  1.00  0.00     0.004 C 
ENDBRANCH  28  29
ENDBRANCH  27  28
ENDBRANCH  26  27
ENDBRANCH  25  26
ENDBRANCH  24  25
ENDBRANCH  23  24
ENDBRANCH  22  23
ENDBRANCH  21  22
ENDBRANCH  20  21
ENDBRANCH  19  20
ENDBRANCH  18  19
ENDBRANCH  17  18
ENDBRANCH   1  17
TORSDOF 26
ENDMDL
MODEL 8
REMARK VINA RESULT:    -3.288      2.283      6.458
REMARK INTER + INTRA:         -13.498
REMARK INTER:                  -7.458
REMARK INTRA:                  -6.040
REMARK UNBOUND:                -5.213
REMARK SMILES CCCCCCCCCCCCCCCCCCCCCCCCCCCC(=O)[O-]
REMARK SMILES IDX 15 1 16 2 17 3 18 4 19 5 20 6 21 7 22 8 23 9 24 10 25 11
REMARK SMILES IDX 26 12 27 13 28 14 29 15 30 16 14 17 13 18 12 19 11 20 10 21
REMARK SMILES IDX 9 22 8 23 7 24 6 25 5 26 4 27 3 28 2 29 1 30
REMARK H PARENT
REMARK Flexibility Score: inf
ROOT
ATOM      1  C   UNL     1      -7.015   1.450  34.442  1.00  0.00     0.000 C 
ENDROOT
BRANCH   1   2
ATOM      2  C   UNL     1      -8.156   2.090  35.259  1.00  0.00     0.000 C 
BRANCH   2   3
ATOM      3  C   UNL     1      -9.368   2.558  34.433  1.00  0.00     0.000 C 
BRANCH   3   4
ATOM      4  C   UNL     1      -9.666   4.057  34.612  1.00  0.00     0.000 C 
BRANCH   4   5
ATOM      5  C   UNL     1     -10.965   4.317  35.389  1.00  0.00     0.000 C 
BRANCH   5   6
ATOM      6  C   UNL     1     -11.672   3.025  35.825  1.00  0.00     0.000 C 
BRANCH   6   7
ATOM      7  C   UNL     1     -12.868   3.335  36.737  1.00  0.00     0.000 C 
BRANCH   7   8
ATOM      8  C   UNL     1     -12.554   3.094  38.222  1.00  0.00     0.000 C 
BRANCH   8   9
ATOM      9  C   UNL     1     -11.150   2.503  38.440  1.00  0.00     0.000 C 
BRANCH   9  10
ATOM     10  C   UNL     1     -11.171   1.284  39.388  1.00  0.00     0.000 C 
BRANCH  10  11
ATOM     11  C   UNL     1     -11.175  -0.071  38.657  1.00  0.00     0.000 C 
BRANCH  11  12
ATOM     12  C   UNL     1     -10.319  -0.064  37.379  1.00  0.00     0.006 C 
BRANCH  12  13
ATOM     13  C   UNL     1     -10.262  -1.445  36.711  1.00  0.00     0.053 C 
BRANCH  13  14
ATOM     14  C   UNL     1      -8.857  -1.960  36.609  1.00  0.00     0.041 C 
ATOM     15  O   UNL     1      -8.138  -1.646  35.623  1.00  0.00    -0.550 OA
ATOM     16  O   UNL     1      -8.338  -2.777  37.607  1.00  0.00    -0.550 OA
ENDBRANCH  13  14
ENDBRANCH  12  13
ENDBRANCH  11  12
ENDBRANCH  10  11
ENDBRANCH   9  10
ENDBRANCH   8   9
ENDBRANCH   7   8
ENDBRANCH   6   7
ENDBRANCH   5   6
ENDBRANCH   4   5
ENDBRANCH   3   4
ENDBRANCH   2   3
ENDBRANCH   1   2
BRANCH   1  17
ATOM     17  C   UNL     1      -5.654   2.165  34.553  1.00  0.00     0.000 C 
BRANCH  17  18
ATOM     18  C   UNL     1      -5.715   3.604  35.103  1.00  0.00     0.000 C 
BRANCH  18  19
ATOM     19  C   UNL     1      -4.956   3.825  36.425  1.00  0.00     0.000 C 
BRANCH  19  20
ATOM     20  C   UNL     1      -3.819   2.811  36.636  1.00  0.00     0.000 C 
BRANCH  20  21
ATOM     21  C   UNL     1      -3.514   2.585  38.126  1.00  0.00     0.000 C 
BRANCH  21  22
ATOM     22  C   UNL     1      -3.514   1.091  38.497  1.00  0.00    -0.000 C 
BRANCH  22  23
ATOM     23  C   UNL     1      -4.160   0.207  37.417  1.00  0.00    -0.000 C 
BRANCH  23  24
ATOM     24  C   UNL     1      -5.489  -0.463  37.828  1.00  0.00    -0.000 C 
BRANCH  24  25
ATOM     25  C   UNL     1      -6.664   0.503  38.067  1.00  0.00    -0.000 C 
BRANCH  25  26
ATOM     26  C   UNL     1      -7.273   0.443  39.481  1.00  0.00    -0.000 C 
BRANCH  26  27
ATOM     27  C   UNL     1      -7.664   1.825  40.047  1.00  0.00    -0.000 C 
BRANCH  27  28
ATOM     28  C   UNL     1      -6.909   2.977  39.366  1.00  0.00    -0.000 C 
BRANCH  28  29
ATOM     29  C   UNL     1      -7.732   4.270  39.409  1.00  0.00    -0.003 C 
ATOM     30  C   UNL     1      -8.192   4.678  38.012  1.00  0.00     0.004 C 
ENDBRANCH  28  29
ENDBRANCH  27  28
ENDBRANCH  26  27
ENDBRANCH  25  26
ENDBRANCH  24  25
ENDBRANCH  23  24
ENDBRANCH  22  23
ENDBRANCH  21  22
ENDBRANCH  20  21
ENDBRANCH  19  20
ENDBRANCH  18  19
ENDBRANCH  17  18
ENDBRANCH   1  17
TORSDOF 26
ENDMDL
MODEL 9
REMARK VINA RESULT:    -3.280      1.766      5.465
REMARK INTER + INTRA:         -13.478
REMARK INTER:                  -7.501
REMARK INTRA:                  -5.978
REMARK UNBOUND:                -5.213
REMARK SMILES CCCCCCCCCCCCCCCCCCCCCCCCCCCC(=O)[O-]
REMARK SMILES IDX 15 1 16 2 17 3 18 4 19 5 20 6 21 7 22 8 23 9 24 10 25 11
REMARK SMILES IDX 26 12 27 13 28 14 29 15 30 16 14 17 13 18 12 19 11 20 10 21
REMARK SMILES IDX 9 22 8 23 7 24 6 25 5 26 4 27 3 28 2 29 1 30
REMARK H PARENT
REMARK Flexibility Score: inf
ROOT
ATOM      1  C   UNL     1     -10.154   0.454  39.242  1.00  0.00     0.000 C 
ENDROOT
BRANCH   1   2
ATOM      2  C   UNL     1      -9.828  -0.027  37.813  1.00  0.00     0.000 C 
BRANCH   2   3
ATOM      3  C   UNL     1      -9.024   0.968  36.957  1.00  0.00     0.000 C 
BRANCH   3   4
ATOM      4  C   UNL     1      -7.530   0.611  36.875  1.00  0.00     0.000 C 
BRANCH   4   5
ATOM      5  C   UNL     1      -6.670   1.766  36.342  1.00  0.00     0.000 C 
BRANCH   5   6
ATOM      6  C   UNL     1      -7.111   2.250  34.953  1.00  0.00     0.000 C 
BRANCH   6   7
ATOM      7  C   UNL     1      -6.407   3.565  34.581  1.00  0.00     0.000 C 
BRANCH   7   8
ATOM      8  C   UNL     1      -5.278   3.925  35.559  1.00  0.00     0.000 C 
BRANCH   8   9
ATOM      9  C   UNL     1      -3.907   4.026  34.866  1.00  0.00     0.000 C 
BRANCH   9  10
ATOM     10  C   UNL     1      -3.339   2.639  34.494  1.00  0.00     0.000 C 
BRANCH  10  11
ATOM     11  C   UNL     1      -2.951   1.779  35.710  1.00  0.00     0.000 C 
BRANCH  11  12
ATOM     12  C   UNL     1      -3.297   0.291  35.526  1.00  0.00     0.006 C 
BRANCH  12  13
ATOM     13  C   UNL     1      -4.040   0.026  34.210  1.00  0.00     0.053 C 
BRANCH  13  14
ATOM     14  C   UNL     1      -4.631  -1.352  34.168  1.00  0.00     0.041 C 
ATOM     15  O   UNL     1      -5.694  -1.603  34.797  1.00  0.00    -0.550 OA
ATOM     16  O   UNL     1      -4.015  -2.355  33.428  1.00  0.00    -0.550 OA
ENDBRANCH  13  14
ENDBRANCH  12  13
ENDBRANCH  11  12
ENDBRANCH  10  11
ENDBRANCH   9  10
ENDBRANCH   8   9
ENDBRANCH   7   8
ENDBRANCH   6   7
ENDBRANCH   5   6
ENDBRANCH   4   5
ENDBRANCH   3   4
ENDBRANCH   2   3
ENDBRANCH   1   2
BRANCH   1  17
ATOM     17  C   UNL     1     -11.000   1.741  39.319  1.00  0.00     0.000 C 
BRANCH  17  18
ATOM     18  C   UNL     1     -12.480   1.574  38.917  1.00  0.00     0.000 C 
BRANCH  18  19
ATOM     19  C   UNL     1     -12.807   1.972  37.466  1.00  0.00     0.000 C 
BRANCH  19  20
ATOM     20  C   UNL     1     -12.308   3.382  37.108  1.00  0.00     0.000 C 
BRANCH  20  21
ATOM     21  C   UNL     1     -11.630   3.424  35.729  1.00  0.00     0.000 C 
BRANCH  21  22
ATOM     22  C   UNL     1     -10.323   4.237  35.750  1.00  0.00    -0.000 C 
BRANCH  22  23
ATOM     23  C   UNL     1      -9.761   4.429  37.170  1.00  0.00    -0.000 C 
BRANCH  23  24
ATOM     24  C   UNL     1      -8.423   5.195  37.246  1.00  0.00    -0.000 C 
BRANCH  24  25
ATOM     25  C   UNL     1      -7.638   5.016  38.559  1.00  0.00    -0.000 C 
BRANCH  25  26
ATOM     26  C   UNL     1      -7.998   3.750  39.359  1.00  0.00    -0.000 C 
BRANCH  26  27
ATOM     27  C   UNL     1      -6.776   2.880  39.726  1.00  0.00    -0.000 C 
BRANCH  27  28
ATOM     28  C   UNL     1      -5.468   3.684  39.756  1.00  0.00    -0.000 C 
BRANCH  28  29
ATOM     29  C   UNL     1      -4.354   2.942  39.009  1.00  0.00    -0.003 C 
ATOM     30  C   UNL     1      -3.211   3.885  38.641  1.00  0.00     0.004 C 
ENDBRANCH  28  29
ENDBRANCH  27  28
ENDBRANCH  26  27
ENDBRANCH  25  26
ENDBRANCH  24  25
ENDBRANCH  23  24
ENDBRANCH  22  23
ENDBRANCH  21  22
ENDBRANCH  20  21
ENDBRANCH  19  20
ENDBRANCH  18  19
ENDBRANCH  17  18
ENDBRANCH   1  17
TORSDOF 26
ENDMDL
