MODEL 1
REMARK VINA RESULT:    -4.634      0.000      0.000
REMARK INTER + INTRA:          -8.280
REMARK INTER:                  -6.801
REMARK INTRA:                  -1.479
REMARK UNBOUND:                -1.479
REMARK SMILES CC(C)COC(=O)c1ccccc1C(=O)OCC(C)C
REMARK SMILES IDX 8 1 9 2 10 3 11 4 12 5 13 6 6 7 7 8 5 9 4 10 2 11 1 12 3 13
REMARK SMILES IDX 14 14 15 15 16 16 17 17 18 18 19 19 20 20
REMARK H PARENT
REMARK Flexibility Score: inf
ROOT
ATOM      1  C   UNL     1     137.796 139.306 136.411  1.00  0.00     0.074 A 
ATOM      2  C   UNL     1     136.664 139.403 135.581  1.00  0.00     0.016 A 
ATOM      3  C   UNL     1     136.517 138.567 134.474  1.00  0.00     0.001 A 
ATOM      4  C   UNL     1     137.497 137.622 134.178  1.00  0.00     0.001 A 
ATOM      5  C   UNL     1     138.617 137.494 135.000  1.00  0.00     0.016 A 
ATOM      6  C   UNL     1     138.773 138.310 136.135  1.00  0.00     0.074 A 
ENDROOT
BRANCH   1   7
ATOM      7  C   UNL     1     137.946 140.300 137.498  1.00  0.00     0.339 C 
ATOM      8  O   UNL     1     138.241 141.497 137.232  1.00  0.00    -0.246 OA
BRANCH   7   9
ATOM      9  O   UNL     1     137.701 139.914 138.823  1.00  0.00    -0.462 OA
BRANCH   9  10
ATOM     10  C   UNL     1     138.616 140.145 139.892  1.00  0.00     0.236 C 
BRANCH  10  11
ATOM     11  C   UNL     1     138.075 139.578 141.219  1.00  0.00     0.021 C 
ATOM     12  C   UNL     1     136.588 139.911 141.394  1.00  0.00     0.011 C 
ATOM     13  C   UNL     1     138.293 138.063 141.278  1.00  0.00     0.011 C 
ENDBRANCH  10  11
ENDBRANCH   9  10
ENDBRANCH   7   9
ENDBRANCH   1   7
BRANCH   6  14
ATOM     14  C   UNL     1     139.927 138.050 137.022  1.00  0.00     0.339 C 
ATOM     15  O   UNL     1     139.786 137.341 138.056  1.00  0.00    -0.246 OA
BRANCH  14  16
ATOM     16  O   UNL     1     141.188 138.549 136.675  1.00  0.00    -0.462 OA
BRANCH  16  17
ATOM     17  C   UNL     1     141.433 139.922 136.369  1.00  0.00     0.236 C 
BRANCH  17  18
ATOM     18  C   UNL     1     141.734 140.112 134.869  1.00  0.00     0.021 C 
ATOM     19  C   UNL     1     140.529 140.715 134.135  1.00  0.00     0.011 C 
ATOM     20  C   UNL     1     142.132 138.776 134.234  1.00  0.00     0.011 C 
ENDBRANCH  17  18
ENDBRANCH  16  17
ENDBRANCH  14  16
ENDBRANCH   6  14
TORSDOF 8
ENDMDL
MODEL 2
REMARK VINA RESULT:    -4.632      1.790      5.083
REMARK INTER + INTRA:          -8.277
REMARK INTER:                  -6.856
REMARK INTRA:                  -1.422
REMARK UNBOUND:                -1.479
REMARK SMILES CC(C)COC(=O)c1ccccc1C(=O)OCC(C)C
REMARK SMILES IDX 8 1 9 2 10 3 11 4 12 5 13 6 6 7 7 8 5 9 4 10 2 11 1 12 3 13
REMARK SMILES IDX 14 14 15 15 16 16 17 17 18 18 19 19 20 20
REMARK H PARENT
REMARK Flexibility Score: inf
ROOT
ATOM      1  C   UNL     1     140.255 138.819 135.915  1.00  0.00     0.074 A 
ATOM      2  C   UNL     1     141.025 138.684 134.746  1.00  0.00     0.016 A 
ATOM      3  C   UNL     1     140.880 137.569 133.920  1.00  0.00     0.001 A 
ATOM      4  C   UNL     1     139.964 136.571 134.249  1.00  0.00     0.001 A 
ATOM      5  C   UNL     1     139.173 136.697 135.392  1.00  0.00     0.016 A 
ATOM      6  C   UNL     1     139.287 137.824 136.225  1.00  0.00     0.074 A 
ENDROOT
BRANCH   1   7
ATOM      7  C   UNL     1     140.542 139.967 136.806  1.00  0.00     0.339 C 
ATOM      8  O   UNL     1     141.257 139.813 137.833  1.00  0.00    -0.246 OA
BRANCH   7   9
ATOM      9  O   UNL     1     140.059 141.238 136.468  1.00  0.00    -0.462 OA
BRANCH   9  10
ATOM     10  C   UNL     1     138.682 141.517 136.220  1.00  0.00     0.236 C 
BRANCH  10  11
ATOM     11  C   UNL     1     138.438 141.834 134.733  1.00  0.00     0.021 C 
ATOM     12  C   UNL     1     139.743 142.236 134.034  1.00  0.00     0.011 C 
ATOM     13  C   UNL     1     137.806 140.628 134.028  1.00  0.00     0.011 C 
ENDBRANCH  10  11
ENDBRANCH   9  10
ENDBRANCH   7   9
ENDBRANCH   1   7
BRANCH   6  14
ATOM     14  C   UNL     1     138.346 137.945 137.359  1.00  0.00     0.339 C 
ATOM     15  O   UNL     1     137.158 138.320 137.161  1.00  0.00    -0.246 OA
BRANCH  14  16
ATOM     16  O   UNL     1     138.768 137.586 138.645  1.00  0.00    -0.462 OA
BRANCH  16  17
ATOM     17  C   UNL     1     138.632 138.437 139.783  1.00  0.00     0.236 C 
BRANCH  17  18
ATOM     18  C   UNL     1     139.351 137.843 141.010  1.00  0.00     0.021 C 
ATOM     19  C   UNL     1     138.627 136.591 141.523  1.00  0.00     0.011 C 
ATOM     20  C   UNL     1     139.456 138.891 142.123  1.00  0.00     0.011 C 
ENDBRANCH  17  18
ENDBRANCH  16  17
ENDBRANCH  14  16
ENDBRANCH   6  14
TORSDOF 8
ENDMDL
MODEL 3
REMARK VINA RESULT:    -4.626      1.751      2.947
REMARK INTER + INTRA:          -8.268
REMARK INTER:                  -6.801
REMARK INTRA:                  -1.467
REMARK UNBOUND:                -1.479
REMARK SMILES CC(C)COC(=O)c1ccccc1C(=O)OCC(C)C
REMARK SMILES IDX 8 1 9 2 10 3 11 4 12 5 13 6 6 7 7 8 5 9 4 10 2 11 1 12 3 13
REMARK SMILES IDX 14 14 15 15 16 16 17 17 18 18 19 19 20 20
REMARK H PARENT
REMARK Flexibility Score: inf
ROOT
ATOM      1  C   UNL     1     139.257 140.803 136.356  1.00  0.00     0.074 A 
ATOM      2  C   UNL     1     139.385 141.933 135.529  1.00  0.00     0.016 A 
ATOM      3  C   UNL     1     138.571 142.092 134.407  1.00  0.00     0.001 A 
ATOM      4  C   UNL     1     137.618 141.126 134.093  1.00  0.00     0.001 A 
ATOM      5  C   UNL     1     137.459 140.008 134.912  1.00  0.00     0.016 A 
ATOM      6  C   UNL     1     138.253 139.840 136.061  1.00  0.00     0.074 A 
ENDROOT
BRANCH   1   7
ATOM      7  C   UNL     1     140.229 140.639 137.461  1.00  0.00     0.339 C 
ATOM      8  O   UNL     1     141.436 140.368 137.214  1.00  0.00    -0.246 OA
BRANCH   7   9
ATOM      9  O   UNL     1     139.809 140.841 138.782  1.00  0.00    -0.462 OA
BRANCH   9  10
ATOM     10  C   UNL     1     140.150 139.970 139.859  1.00  0.00     0.236 C 
BRANCH  10  11
ATOM     11  C   UNL     1     139.538 140.459 141.185  1.00  0.00     0.021 C 
ATOM     12  C   UNL     1     139.849 141.944 141.421  1.00  0.00     0.011 C 
ATOM     13  C   UNL     1     138.023 140.225 141.190  1.00  0.00     0.011 C 
ENDBRANCH  10  11
ENDBRANCH   9  10
ENDBRANCH   7   9
ENDBRANCH   1   7
BRANCH   6  14
ATOM     14  C   UNL     1     137.960 138.689 136.943  1.00  0.00     0.339 C 
ATOM     15  O   UNL     1     137.256 138.845 137.978  1.00  0.00    -0.246 OA
BRANCH  14  16
ATOM     16  O   UNL     1     138.423 137.416 136.589  1.00  0.00    -0.462 OA
BRANCH  16  17
ATOM     17  C   UNL     1     139.798 137.121 136.343  1.00  0.00     0.236 C 
BRANCH  17  18
ATOM     18  C   UNL     1     140.053 136.868 134.845  1.00  0.00     0.021 C 
ATOM     19  C   UNL     1     140.735 138.076 134.189  1.00  0.00     0.011 C 
ATOM     20  C   UNL     1     138.738 136.544 134.129  1.00  0.00     0.011 C 
ENDBRANCH  17  18
ENDBRANCH  16  17
ENDBRANCH  14  16
ENDBRANCH   6  14
TORSDOF 8
ENDMDL
MODEL 4
REMARK VINA RESULT:    -4.607      1.406      4.347
REMARK INTER + INTRA:          -8.240
REMARK INTER:                  -6.995
REMARK INTRA:                  -1.245
REMARK UNBOUND:                -1.479
REMARK SMILES CC(C)COC(=O)c1ccccc1C(=O)OCC(C)C
REMARK SMILES IDX 8 1 9 2 10 3 11 4 12 5 13 6 6 7 7 8 5 9 4 10 2 11 1 12 3 13
REMARK SMILES IDX 14 14 15 15 16 16 17 17 18 18 19 19 20 20
REMARK H PARENT
REMARK Flexibility Score: inf
ROOT
ATOM      1  C   UNL     1     139.186 140.018 139.336  1.00  0.00     0.074 A 
ATOM      2  C   UNL     1     138.856 140.411 140.645  1.00  0.00     0.016 A 
ATOM      3  C   UNL     1     139.650 140.030 141.727  1.00  0.00     0.001 A 
ATOM      4  C   UNL     1     140.785 139.249 141.520  1.00  0.00     0.001 A 
ATOM      5  C   UNL     1     141.144 138.867 140.227  1.00  0.00     0.016 A 
ATOM      6  C   UNL     1     140.370 139.260 139.120  1.00  0.00     0.074 A 
ENDROOT
BRANCH   1   7
ATOM      7  C   UNL     1     138.239 140.357 138.250  1.00  0.00     0.339 C 
ATOM      8  O   UNL     1     138.400 141.406 137.569  1.00  0.00    -0.246 OA
BRANCH   7   9
ATOM      9  O   UNL     1     137.193 139.476 137.949  1.00  0.00    -0.462 OA
BRANCH   9  10
ATOM     10  C   UNL     1     137.340 138.341 137.096  1.00  0.00     0.236 C 
BRANCH  10  11
ATOM     11  C   UNL     1     137.643 138.770 135.648  1.00  0.00     0.021 C 
ATOM     12  C   UNL     1     138.265 137.615 134.851  1.00  0.00     0.011 C 
ATOM     13  C   UNL     1     136.366 139.264 134.961  1.00  0.00     0.011 C 
ENDBRANCH  10  11
ENDBRANCH   9  10
ENDBRANCH   7   9
ENDBRANCH   1   7
BRANCH   6  14
ATOM     14  C   UNL     1     140.865 138.912 137.770  1.00  0.00     0.339 C 
ATOM     15  O   UNL     1     140.740 137.736 137.332  1.00  0.00    -0.246 OA
BRANCH  14  16
ATOM     16  O   UNL     1     141.423 139.911 136.963  1.00  0.00    -0.462 OA
BRANCH  16  17
ATOM     17  C   UNL     1     141.139 140.047 135.571  1.00  0.00     0.236 C 
BRANCH  17  18
ATOM     18  C   UNL     1     142.308 139.530 134.711  1.00  0.00     0.021 C 
ATOM     19  C   UNL     1     142.826 140.624 133.767  1.00  0.00     0.011 C 
ATOM     20  C   UNL     1     141.875 138.297 133.911  1.00  0.00     0.011 C 
ENDBRANCH  17  18
ENDBRANCH  16  17
ENDBRANCH  14  16
ENDBRANCH   6  14
TORSDOF 8
ENDMDL
MODEL 5
REMARK VINA RESULT:    -4.580      1.750      4.972
REMARK INTER + INTRA:          -8.201
REMARK INTER:                  -6.706
REMARK INTRA:                  -1.495
REMARK UNBOUND:                -1.479
REMARK SMILES CC(C)COC(=O)c1ccccc1C(=O)OCC(C)C
REMARK SMILES IDX 8 1 9 2 10 3 11 4 12 5 13 6 6 7 7 8 5 9 4 10 2 11 1 12 3 13
REMARK SMILES IDX 14 14 15 15 16 16 17 17 18 18 19 19 20 20
REMARK H PARENT
REMARK Flexibility Score: inf
ROOT
ATOM      1  C   UNL     1     138.219 139.882 135.966  1.00  0.00     0.074 A 
ATOM      2  C   UNL     1     137.406 140.100 134.839  1.00  0.00     0.016 A 
ATOM      3  C   UNL     1     137.568 141.241 134.052  1.00  0.00     0.001 A 
ATOM      4  C   UNL     1     138.542 142.182 134.379  1.00  0.00     0.001 A 
ATOM      5  C   UNL     1     139.374 141.975 135.480  1.00  0.00     0.016 A 
ATOM      6  C   UNL     1     139.243 140.820 136.272  1.00  0.00     0.074 A 
ENDROOT
BRANCH   1   7
ATOM      7  C   UNL     1     137.917 138.712 136.822  1.00  0.00     0.339 C 
ATOM      8  O   UNL     1     137.204 138.844 137.854  1.00  0.00    -0.246 OA
BRANCH   7   9
ATOM      9  O   UNL     1     138.384 137.446 136.446  1.00  0.00    -0.462 OA
BRANCH   9  10
ATOM     10  C   UNL     1     139.763 137.142 136.245  1.00  0.00     0.236 C 
BRANCH  10  11
ATOM     11  C   UNL     1     140.070 136.907 134.754  1.00  0.00     0.021 C 
ATOM     12  C   UNL     1     138.783 136.637 133.963  1.00  0.00     0.011 C 
ATOM     13  C   UNL     1     140.813 138.112 134.167  1.00  0.00     0.011 C 
ENDBRANCH  10  11
ENDBRANCH   9  10
ENDBRANCH   7   9
ENDBRANCH   1   7
BRANCH   6  14
ATOM     14  C   UNL     1     140.226 140.610 137.357  1.00  0.00     0.339 C 
ATOM     15  O   UNL     1     141.419 140.306 137.084  1.00  0.00    -0.246 OA
BRANCH  14  16
ATOM     16  O   UNL     1     139.834 140.806 138.687  1.00  0.00    -0.462 OA
BRANCH  16  17
ATOM     17  C   UNL     1     140.120 139.881 139.736  1.00  0.00     0.236 C 
BRANCH  17  18
ATOM     18  C   UNL     1     139.493 140.338 141.067  1.00  0.00     0.021 C 
ATOM     19  C   UNL     1     137.970 140.148 141.055  1.00  0.00     0.011 C 
ATOM     20  C   UNL     1     139.845 141.803 141.344  1.00  0.00     0.011 C 
ENDBRANCH  17  18
ENDBRANCH  16  17
ENDBRANCH  14  16
ENDBRANCH   6  14
TORSDOF 8
ENDMDL
MODEL 6
REMARK VINA RESULT:    -4.572      1.587      4.080
REMARK INTER + INTRA:          -8.189
REMARK INTER:                  -6.773
REMARK INTRA:                  -1.416
REMARK UNBOUND:                -1.479
REMARK SMILES CC(C)COC(=O)c1ccccc1C(=O)OCC(C)C
REMARK SMILES IDX 8 1 9 2 10 3 11 4 12 5 13 6 6 7 7 8 5 9 4 10 2 11 1 12 3 13
REMARK SMILES IDX 14 14 15 15 16 16 17 17 18 18 19 19 20 20
REMARK H PARENT
REMARK Flexibility Score: inf
ROOT
ATOM      1  C   UNL     1     140.740 139.422 136.244  1.00  0.00     0.074 A 
ATOM      2  C   UNL     1     141.880 139.346 135.423  1.00  0.00     0.016 A 
ATOM      3  C   UNL     1     141.991 140.137 134.279  1.00  0.00     0.001 A 
ATOM      4  C   UNL     1     140.966 141.016 133.936  1.00  0.00     0.001 A 
ATOM      5  C   UNL     1     139.836 141.124 134.749  1.00  0.00     0.016 A 
ATOM      6  C   UNL     1     139.716 140.353 135.919  1.00  0.00     0.074 A 
ENDROOT
BRANCH   1   7
ATOM      7  C   UNL     1     140.636 138.472 137.375  1.00  0.00     0.339 C 
ATOM      8  O   UNL     1     140.252 137.287 137.179  1.00  0.00    -0.246 OA
BRANCH   7   9
ATOM      9  O   UNL     1     141.020 138.885 138.658  1.00  0.00    -0.462 OA
BRANCH   9  10
ATOM     10  C   UNL     1     140.240 138.647 139.828  1.00  0.00     0.236 C 
BRANCH  10  11
ATOM     11  C   UNL     1     140.790 139.434 141.032  1.00  0.00     0.021 C 
ATOM     12  C   UNL     1     139.723 139.586 142.125  1.00  0.00     0.011 C 
ATOM     13  C   UNL     1     142.036 138.741 141.596  1.00  0.00     0.011 C 
ENDBRANCH  10  11
ENDBRANCH   9  10
ENDBRANCH   7   9
ENDBRANCH   1   7
BRANCH   6  14
ATOM     14  C   UNL     1     138.545 140.595 136.789  1.00  0.00     0.339 C 
ATOM     15  O   UNL     1     138.661 141.298 137.830  1.00  0.00    -0.246 OA
BRANCH  14  16
ATOM     16  O   UNL     1     137.295 140.083 136.419  1.00  0.00    -0.462 OA
BRANCH  16  17
ATOM     17  C   UNL     1     137.057 138.699 136.161  1.00  0.00     0.236 C 
BRANCH  17  18
ATOM     18  C   UNL     1     136.799 138.448 134.663  1.00  0.00     0.021 C 
ATOM     19  C   UNL     1     138.039 137.856 133.980  1.00  0.00     0.011 C 
ATOM     20  C   UNL     1     136.381 139.750 133.971  1.00  0.00     0.011 C 
ENDBRANCH  17  18
ENDBRANCH  16  17
ENDBRANCH  14  16
ENDBRANCH   6  14
TORSDOF 8
ENDMDL
MODEL 7
REMARK VINA RESULT:    -4.515      0.558      5.373
REMARK INTER + INTRA:          -8.105
REMARK INTER:                  -6.692
REMARK INTRA:                  -1.414
REMARK UNBOUND:                -1.479
REMARK SMILES CC(C)COC(=O)c1ccccc1C(=O)OCC(C)C
REMARK SMILES IDX 8 1 9 2 10 3 11 4 12 5 13 6 6 7 7 8 5 9 4 10 2 11 1 12 3 13
REMARK SMILES IDX 14 14 15 15 16 16 17 17 18 18 19 19 20 20
REMARK H PARENT
REMARK Flexibility Score: inf
ROOT
ATOM      1  C   UNL     1     138.866 138.343 135.971  1.00  0.00     0.074 A 
ATOM      2  C   UNL     1     138.675 137.730 134.719  1.00  0.00     0.016 A 
ATOM      3  C   UNL     1     137.498 137.932 133.998  1.00  0.00     0.001 A 
ATOM      4  C   UNL     1     136.493 138.746 134.515  1.00  0.00     0.001 A 
ATOM      5  C   UNL     1     136.670 139.382 135.744  1.00  0.00     0.016 A 
ATOM      6  C   UNL     1     137.859 139.211 136.476  1.00  0.00     0.074 A 
ENDROOT
BRANCH   1   7
ATOM      7  C   UNL     1     140.085 137.994 136.735  1.00  0.00     0.339 C 
ATOM      8  O   UNL     1     140.036 137.136 137.658  1.00  0.00    -0.246 OA
BRANCH   7   9
ATOM      9  O   UNL     1     141.307 138.585 136.387  1.00  0.00    -0.462 OA
BRANCH   9  10
ATOM     10  C   UNL     1     141.446 139.962 136.042  1.00  0.00     0.236 C 
BRANCH  10  11
ATOM     11  C   UNL     1     141.896 140.126 134.578  1.00  0.00     0.021 C 
ATOM     12  C   UNL     1     142.420 138.800 134.011  1.00  0.00     0.011 C 
ATOM     13  C   UNL     1     140.740 140.652 133.722  1.00  0.00     0.011 C 
ENDBRANCH  10  11
ENDBRANCH   9  10
ENDBRANCH   7   9
ENDBRANCH   1   7
BRANCH   6  14
ATOM     14  C   UNL     1     138.026 139.997 137.718  1.00  0.00     0.339 C 
ATOM     15  O   UNL     1     138.580 141.130 137.683  1.00  0.00    -0.246 OA
BRANCH  14  16
ATOM     16  O   UNL     1     137.515 139.497 138.922  1.00  0.00    -0.462 OA
BRANCH  16  17
ATOM     17  C   UNL     1     138.330 138.929 139.947  1.00  0.00     0.236 C 
BRANCH  17  18
ATOM     18  C   UNL     1     138.051 139.591 141.311  1.00  0.00     0.021 C 
ATOM     19  C   UNL     1     136.572 139.979 141.444  1.00  0.00     0.011 C 
ATOM     20  C   UNL     1     138.944 140.822 141.497  1.00  0.00     0.011 C 
ENDBRANCH  17  18
ENDBRANCH  16  17
ENDBRANCH  14  16
ENDBRANCH   6  14
TORSDOF 8
ENDMDL
MODEL 8
REMARK VINA RESULT:    -4.495      1.779      3.129
REMARK INTER + INTRA:          -8.075
REMARK INTER:                  -6.453
REMARK INTRA:                  -1.622
REMARK UNBOUND:                -1.479
REMARK SMILES CC(C)COC(=O)c1ccccc1C(=O)OCC(C)C
REMARK SMILES IDX 8 1 9 2 10 3 11 4 12 5 13 6 6 7 7 8 5 9 4 10 2 11 1 12 3 13
REMARK SMILES IDX 14 14 15 15 16 16 17 17 18 18 19 19 20 20
REMARK H PARENT
REMARK Flexibility Score: inf
ROOT
ATOM      1  C   UNL     1     139.522 137.850 136.343  1.00  0.00     0.074 A 
ATOM      2  C   UNL     1     139.414 136.689 135.556  1.00  0.00     0.016 A 
ATOM      3  C   UNL     1     140.077 136.592 134.332  1.00  0.00     0.001 A 
ATOM      4  C   UNL     1     140.858 137.651 133.875  1.00  0.00     0.001 A 
ATOM      5  C   UNL     1     140.998 138.803 134.650  1.00  0.00     0.016 A 
ATOM      6  C   UNL     1     140.357 138.912 135.897  1.00  0.00     0.074 A 
ENDROOT
BRANCH   1   7
ATOM      7  C   UNL     1     138.700 137.934 137.571  1.00  0.00     0.339 C 
ATOM      8  O   UNL     1     137.479 138.243 137.502  1.00  0.00    -0.246 OA
BRANCH   7   9
ATOM      9  O   UNL     1     139.276 137.612 138.807  1.00  0.00    -0.462 OA
BRANCH   9  10
ATOM     10  C   UNL     1     138.670 137.919 140.062  1.00  0.00     0.236 C 
BRANCH  10  11
ATOM     11  C   UNL     1     139.470 138.998 140.816  1.00  0.00     0.021 C 
ATOM     12  C   UNL     1     140.979 138.741 140.710  1.00  0.00     0.011 C 
ATOM     13  C   UNL     1     139.127 140.390 140.273  1.00  0.00     0.011 C 
ENDBRANCH  10  11
ENDBRANCH   9  10
ENDBRANCH   7   9
ENDBRANCH   1   7
BRANCH   6  14
ATOM     14  C   UNL     1     140.633 140.113 136.715  1.00  0.00     0.339 C 
ATOM     15  O   UNL     1     141.485 140.067 137.643  1.00  0.00    -0.246 OA
BRANCH  14  16
ATOM     16  O   UNL     1     139.981 141.315 136.413  1.00  0.00    -0.462 OA
BRANCH  16  17
ATOM     17  C   UNL     1     138.585 141.402 136.127  1.00  0.00     0.236 C 
BRANCH  17  18
ATOM     18  C   UNL     1     138.342 141.844 134.671  1.00  0.00     0.021 C 
ATOM     19  C   UNL     1     137.859 140.669 133.810  1.00  0.00     0.011 C 
ATOM     20  C   UNL     1     139.619 142.449 134.079  1.00  0.00     0.011 C 
ENDBRANCH  17  18
ENDBRANCH  16  17
ENDBRANCH  14  16
ENDBRANCH   6  14
TORSDOF 8
ENDMDL
MODEL 9
REMARK VINA RESULT:    -4.408      1.493      4.811
REMARK INTER + INTRA:          -7.948
REMARK INTER:                  -6.496
REMARK INTRA:                  -1.452
REMARK UNBOUND:                -1.479
REMARK SMILES CC(C)COC(=O)c1ccccc1C(=O)OCC(C)C
REMARK SMILES IDX 8 1 9 2 10 3 11 4 12 5 13 6 6 7 7 8 5 9 4 10 2 11 1 12 3 13
REMARK SMILES IDX 14 14 15 15 16 16 17 17 18 18 19 19 20 20
REMARK H PARENT
REMARK Flexibility Score: inf
ROOT
ATOM      1  C   UNL     1     139.680 140.302 135.842  1.00  0.00     0.074 A 
ATOM      2  C   UNL     1     139.852 141.099 134.696  1.00  0.00     0.016 A 
ATOM      3  C   UNL     1     141.006 140.993 133.919  1.00  0.00     0.001 A 
ATOM      4  C   UNL     1     142.006 140.090 134.274  1.00  0.00     0.001 A 
ATOM      5  C   UNL     1     141.845 139.272 135.394  1.00  0.00     0.016 A 
ATOM      6  C   UNL     1     140.680 139.348 136.177  1.00  0.00     0.074 A 
ENDROOT
BRANCH   1   7
ATOM      7  C   UNL     1     138.488 140.548 136.685  1.00  0.00     0.339 C 
ATOM      8  O   UNL     1     138.577 141.259 137.723  1.00  0.00    -0.246 OA
BRANCH   7   9
ATOM      9  O   UNL     1     137.247 140.031 136.290  1.00  0.00    -0.462 OA
BRANCH   9  10
ATOM     10  C   UNL     1     137.031 138.656 135.977  1.00  0.00     0.236 C 
BRANCH  10  11
ATOM     11  C   UNL     1     136.728 138.469 134.478  1.00  0.00     0.021 C 
ATOM     12  C   UNL     1     136.270 139.787 133.840  1.00  0.00     0.011 C 
ATOM     13  C   UNL     1     137.962 137.924 133.750  1.00  0.00     0.011 C 
ENDBRANCH  10  11
ENDBRANCH   9  10
ENDBRANCH   7   9
ENDBRANCH   1   7
BRANCH   6  14
ATOM     14  C   UNL     1     140.527 138.380 137.285  1.00  0.00     0.339 C 
ATOM     15  O   UNL     1     140.124 137.207 137.054  1.00  0.00    -0.246 OA
BRANCH  14  16
ATOM     16  O   UNL     1     140.886 138.760 138.584  1.00  0.00    -0.462 OA
BRANCH  16  17
ATOM     17  C   UNL     1     139.967 138.789 139.677  1.00  0.00     0.236 C 
BRANCH  17  18
ATOM     18  C   UNL     1     140.525 139.619 140.850  1.00  0.00     0.021 C 
ATOM     19  C   UNL     1     140.630 138.772 142.125  1.00  0.00     0.011 C 
ATOM     20  C   UNL     1     139.643 140.848 141.097  1.00  0.00     0.011 C 
ENDBRANCH  17  18
ENDBRANCH  16  17
ENDBRANCH  14  16
ENDBRANCH   6  14
TORSDOF 8
ENDMDL
