MODEL 1
REMARK VINA RESULT:    -4.017      0.000      0.000
REMARK INTER + INTRA:          -4.753
REMARK INTER:                  -4.722
REMARK INTRA:                  -0.032
REMARK UNBOUND:                -0.032
REMARK SMILES CCCCC(=O)[O-]
REMARK SMILES IDX 4 1 5 2 6 3 7 4 3 5 2 6 1 7
REMARK H PARENT
REMARK Flexibility Score: inf
ROOT
ATOM      1  C   UNL     1      24.773   6.834  19.644  1.00  0.00     0.053 C 
ENDROOT
BRANCH   1   2
ATOM      2  C   UNL     1      25.093   5.757  18.653  1.00  0.00     0.041 C 
ATOM      3  O   UNL     1      24.173   5.222  17.981  1.00  0.00    -0.550 OA
ATOM      4  O   UNL     1      26.403   5.322  18.497  1.00  0.00    -0.550 OA
ENDBRANCH   1   2
BRANCH   1   5
ATOM      5  C   UNL     1      23.793   7.864  19.071  1.00  0.00     0.006 C 
BRANCH   5   6
ATOM      6  C   UNL     1      22.767   8.333  20.112  1.00  0.00    -0.003 C 
ATOM      7  C   UNL     1      22.370   9.788  19.878  1.00  0.00     0.004 C 
ENDBRANCH   5   6
ENDBRANCH   1   5
TORSDOF 3
ENDMDL
MODEL 2
REMARK VINA RESULT:    -3.980      1.225      1.515
REMARK INTER + INTRA:          -4.710
REMARK INTER:                  -4.662
REMARK INTRA:                  -0.048
REMARK UNBOUND:                -0.032
REMARK SMILES CCCCC(=O)[O-]
REMARK SMILES IDX 4 1 5 2 6 3 7 4 3 5 2 6 1 7
REMARK H PARENT
REMARK Flexibility Score: inf
ROOT
ATOM      1  C   UNL     1      24.059   6.745  18.883  1.00  0.00     0.053 C 
ENDROOT
BRANCH   1   2
ATOM      2  C   UNL     1      25.393   6.307  19.405  1.00  0.00     0.041 C 
ATOM      3  O   UNL     1      25.860   6.819  20.456  1.00  0.00    -0.550 OA
ATOM      4  O   UNL     1      26.135   5.358  18.714  1.00  0.00    -0.550 OA
ENDBRANCH   1   2
BRANCH   1   5
ATOM      5  C   UNL     1      23.281   7.565  19.919  1.00  0.00     0.006 C 
BRANCH   5   6
ATOM      6  C   UNL     1      23.101   9.027  19.487  1.00  0.00    -0.003 C 
ATOM      7  C   UNL     1      21.951   9.687  20.242  1.00  0.00     0.004 C 
ENDBRANCH   5   6
ENDBRANCH   1   5
TORSDOF 3
ENDMDL
MODEL 3
REMARK VINA RESULT:    -3.844      3.132      4.547
REMARK INTER + INTRA:          -4.550
REMARK INTER:                  -4.524
REMARK INTRA:                  -0.026
REMARK UNBOUND:                -0.032
REMARK SMILES CCCCC(=O)[O-]
REMARK SMILES IDX 4 1 5 2 6 3 7 4 3 5 2 6 1 7
REMARK H PARENT
REMARK Flexibility Score: inf
ROOT
ATOM      1  C   UNL     1      22.751   7.809  20.279  1.00  0.00     0.053 C 
ENDROOT
BRANCH   1   2
ATOM      2  C   UNL     1      22.112   9.164  20.274  1.00  0.00     0.041 C 
ATOM      3  O   UNL     1      22.671  10.125  19.684  1.00  0.00    -0.550 OA
ATOM      4  O   UNL     1      20.918   9.373  20.952  1.00  0.00    -0.550 OA
ENDBRANCH   1   2
BRANCH   1   5
ATOM      5  C   UNL     1      23.845   7.690  19.210  1.00  0.00     0.006 C 
BRANCH   5   6
ATOM      6  C   UNL     1      24.917   6.657  19.588  1.00  0.00    -0.003 C 
ATOM      7  C   UNL     1      25.058   5.590  18.506  1.00  0.00     0.004 C 
ENDBRANCH   5   6
ENDBRANCH   1   5
TORSDOF 3
ENDMDL
MODEL 4
REMARK VINA RESULT:    -3.505      2.347      4.380
REMARK INTER + INTRA:          -4.151
REMARK INTER:                  -4.113
REMARK INTRA:                  -0.038
REMARK UNBOUND:                -0.032
REMARK SMILES CCCCC(=O)[O-]
REMARK SMILES IDX 4 1 5 2 6 3 7 4 3 5 2 6 1 7
REMARK H PARENT
REMARK Flexibility Score: inf
ROOT
ATOM      1  C   UNL     1      24.513   5.971  18.751  1.00  0.00     0.053 C 
ENDROOT
BRANCH   1   2
ATOM      2  C   UNL     1      24.485   7.139  19.690  1.00  0.00     0.041 C 
ATOM      3  O   UNL     1      25.345   7.236  20.604  1.00  0.00    -0.550 OA
ATOM      4  O   UNL     1      23.490   8.100  19.576  1.00  0.00    -0.550 OA
ENDBRANCH   1   2
BRANCH   1   5
ATOM      5  C   UNL     1      25.947   5.555  18.401  1.00  0.00     0.006 C 
BRANCH   5   6
ATOM      6  C   UNL     1      26.137   4.032  18.444  1.00  0.00    -0.003 C 
ATOM      7  C   UNL     1      25.317   3.344  17.356  1.00  0.00     0.004 C 
ENDBRANCH   5   6
ENDBRANCH   1   5
TORSDOF 3
ENDMDL
MODEL 5
REMARK VINA RESULT:    -3.407     11.360     12.063
REMARK INTER + INTRA:          -4.036
REMARK INTER:                  -4.017
REMARK INTRA:                  -0.020
REMARK UNBOUND:                -0.032
REMARK SMILES CCCCC(=O)[O-]
REMARK SMILES IDX 4 1 5 2 6 3 7 4 3 5 2 6 1 7
REMARK H PARENT
REMARK Flexibility Score: inf
ROOT
ATOM      1  C   UNL     1      17.900   1.827   9.405  1.00  0.00     0.053 C 
ENDROOT
BRANCH   1   2
ATOM      2  C   UNL     1      19.317   2.017   8.957  1.00  0.00     0.041 C 
ATOM      3  O   UNL     1      19.639   3.036   8.291  1.00  0.00    -0.550 OA
ATOM      4  O   UNL     1      20.274   1.052   9.244  1.00  0.00    -0.550 OA
ENDBRANCH   1   2
BRANCH   1   5
ATOM      5  C   UNL     1      17.818   1.046  10.722  1.00  0.00     0.006 C 
BRANCH   5   6
ATOM      6  C   UNL     1      16.731   1.596  11.657  1.00  0.00    -0.003 C 
ATOM      7  C   UNL     1      17.306   1.932  13.031  1.00  0.00     0.004 C 
ENDBRANCH   5   6
ENDBRANCH   1   5
TORSDOF 3
ENDMDL
MODEL 6
REMARK VINA RESULT:    -3.187     11.736     12.329
REMARK INTER + INTRA:          -3.778
REMARK INTER:                  -3.682
REMARK INTRA:                  -0.096
REMARK UNBOUND:                -0.032
REMARK SMILES CCCCC(=O)[O-]
REMARK SMILES IDX 4 1 5 2 6 3 7 4 3 5 2 6 1 7
REMARK H PARENT
REMARK Flexibility Score: inf
ROOT
ATOM      1  C   UNL     1      23.309  -4.723  19.831  1.00  0.00     0.053 C 
ENDROOT
BRANCH   1   2
ATOM      2  C   UNL     1      23.549  -6.201  19.853  1.00  0.00     0.041 C 
ATOM      3  O   UNL     1      22.576  -7.000  19.893  1.00  0.00    -0.550 OA
ATOM      4  O   UNL     1      24.846  -6.697  19.864  1.00  0.00    -0.550 OA
ENDBRANCH   1   2
BRANCH   1   5
ATOM      5  C   UNL     1      22.699  -4.224  21.146  1.00  0.00     0.006 C 
BRANCH   5   6
ATOM      6  C   UNL     1      21.228  -3.811  20.985  1.00  0.00    -0.003 C 
ATOM      7  C   UNL     1      20.938  -3.357  19.558  1.00  0.00     0.004 C 
ENDBRANCH   5   6
ENDBRANCH   1   5
TORSDOF 3
ENDMDL
MODEL 7
REMARK VINA RESULT:    -3.176     12.393     12.929
REMARK INTER + INTRA:          -3.764
REMARK INTER:                  -3.744
REMARK INTRA:                  -0.021
REMARK UNBOUND:                -0.032
REMARK SMILES CCCCC(=O)[O-]
REMARK SMILES IDX 4 1 5 2 6 3 7 4 3 5 2 6 1 7
REMARK H PARENT
REMARK Flexibility Score: inf
ROOT
ATOM      1  C   UNL     1      18.579   1.266   9.885  1.00  0.00     0.053 C 
ENDROOT
BRANCH   1   2
ATOM      2  C   UNL     1      17.264   1.914  10.191  1.00  0.00     0.041 C 
ATOM      3  O   UNL     1      16.587   1.536  11.183  1.00  0.00    -0.550 OA
ATOM      4  O   UNL     1      16.769   2.912   9.361  1.00  0.00    -0.550 OA
ENDBRANCH   1   2
BRANCH   1   5
ATOM      5  C   UNL     1      18.861   0.081  10.817  1.00  0.00     0.006 C 
BRANCH   5   6
ATOM      6  C   UNL     1      20.207  -0.592  10.510  1.00  0.00    -0.003 C 
ATOM      7  C   UNL     1      20.171  -2.077  10.859  1.00  0.00     0.004 C 
ENDBRANCH   5   6
ENDBRANCH   1   5
TORSDOF 3
ENDMDL
MODEL 8
REMARK VINA RESULT:    -3.099     11.041     11.595
REMARK INTER + INTRA:          -3.674
REMARK INTER:                  -3.657
REMARK INTRA:                  -0.016
REMARK UNBOUND:                -0.032
REMARK SMILES CCCCC(=O)[O-]
REMARK SMILES IDX 4 1 5 2 6 3 7 4 3 5 2 6 1 7
REMARK H PARENT
REMARK Flexibility Score: inf
ROOT
ATOM      1  C   UNL     1      22.671  -4.194  19.032  1.00  0.00     0.053 C 
ENDROOT
BRANCH   1   2
ATOM      2  C   UNL     1      21.573  -4.003  20.032  1.00  0.00     0.041 C 
ATOM      3  O   UNL     1      20.610  -3.234  19.776  1.00  0.00    -0.550 OA
ATOM      4  O   UNL     1      21.630  -4.648  21.261  1.00  0.00    -0.550 OA
ENDBRANCH   1   2
BRANCH   1   5
ATOM      5  C   UNL     1      24.052  -4.221  19.698  1.00  0.00     0.006 C 
BRANCH   5   6
ATOM      6  C   UNL     1      25.166  -3.760  18.747  1.00  0.00    -0.003 C 
ATOM      7  C   UNL     1      26.396  -3.296  19.522  1.00  0.00     0.004 C 
ENDBRANCH   5   6
ENDBRANCH   1   5
TORSDOF 3
ENDMDL
MODEL 9
REMARK VINA RESULT:    -3.057     12.013     12.523
REMARK INTER + INTRA:          -3.625
REMARK INTER:                  -3.605
REMARK INTRA:                  -0.020
REMARK UNBOUND:                -0.032
REMARK SMILES CCCCC(=O)[O-]
REMARK SMILES IDX 4 1 5 2 6 3 7 4 3 5 2 6 1 7
REMARK H PARENT
REMARK Flexibility Score: inf
ROOT
ATOM      1  C   UNL     1      19.646   2.213   8.610  1.00  0.00     0.053 C 
ENDROOT
BRANCH   1   2
ATOM      2  C   UNL     1      18.399   2.002   9.414  1.00  0.00     0.041 C 
ATOM      3  O   UNL     1      18.334   1.057  10.244  1.00  0.00    -0.550 OA
ATOM      4  O   UNL     1      17.298   2.826   9.222  1.00  0.00    -0.550 OA
ENDBRANCH   1   2
BRANCH   1   5
ATOM      5  C   UNL     1      19.793   3.671   8.158  1.00  0.00     0.006 C 
BRANCH   5   6
ATOM      6  C   UNL     1      21.252   4.147   8.195  1.00  0.00    -0.003 C 
ATOM      7  C   UNL     1      21.500   5.244   7.163  1.00  0.00     0.004 C 
ENDBRANCH   5   6
ENDBRANCH   1   5
TORSDOF 3
ENDMDL
