MODEL 1
REMARK VINA RESULT:    -3.560      0.000      0.000
REMARK INTER + INTRA:          -5.808
REMARK INTER:                  -5.433
REMARK INTRA:                  -0.375
REMARK UNBOUND:                -0.375
REMARK SMILES CC1=CCC[C@@H](C)C(=O)C[C@@H](C(C)C)C(=O)C1
REMARK SMILES IDX 8 1 9 2 6 3 7 4 5 5 4 6 3 7 2 8 1 9 10 11 11 12 15 13 16 14
REMARK SMILES IDX 17 15 12 17 13 18 14 19
REMARK H PARENT
REMARK Flexibility Score: 70.00
ROOT
ATOM      1  C   UNL     1       3.884  -3.897  -3.042  1.00  0.00     0.136 C 
ATOM      2  O   UNL     1       3.166  -4.869  -2.848  1.00  0.00    -0.299 OA
ENDROOT
BRANCH   1   3
ATOM      3  C   UNL     1       4.406  -3.678  -4.452  1.00  0.00     0.053 C 
ATOM      4  C   UNL     1       3.412  -3.043  -5.439  1.00  0.00     0.016 C 
BRANCH   3   5
ATOM      5  C   UNL     1       5.153  -4.924  -4.988  1.00  0.00     0.015 C 
BRANCH   5   6
ATOM      6  C   UNL     1       6.444  -5.417  -4.286  1.00  0.00     0.028 C 
BRANCH   6   7
ATOM      7  C   UNL     1       6.339  -6.438  -3.177  1.00  0.00    -0.028 C 
ATOM      8  C   UNL     1       6.878  -6.340  -1.942  1.00  0.00    -0.070 CG0
ATOM      9  C   UNL     1       6.984  -7.604  -1.126  1.00  0.00     0.039 C 
ATOM     10  G   UNL     1       7.472  -5.060  -1.397  1.00  0.00     0.000 G0
ENDBRANCH   6   7
ENDBRANCH   5   6
ENDBRANCH   3   5
ENDBRANCH   1   3
BRANCH   1  11
ATOM     11  C   UNL     1       4.268  -3.034  -1.861  1.00  0.00     0.087 C 
BRANCH  11  12
ATOM     12  C   UNL     1       5.807  -2.937  -1.635  1.00  0.00     0.066 C 
BRANCH  12  13
ATOM     13  C   UNL     1       6.419  -4.107  -0.844  1.00  0.00     0.140 C 
ATOM     14  O   UNL     1       6.110  -4.240   0.330  1.00  0.00    -0.299 OA
BRANCH  13  15
ATOM     15  C   UNL     1       7.476  -5.054  -1.385  1.00  0.00     0.106 CG0
ATOM     16  G   UNL     1       6.888  -6.341  -1.920  1.00  0.00     0.000 G0
ENDBRANCH  13  15
ENDBRANCH  12  13
BRANCH  12  17
ATOM     17  C   UNL     1       6.176  -1.527  -1.056  1.00  0.00    -0.006 C 
ATOM     18  C   UNL     1       5.198  -0.423  -1.495  1.00  0.00     0.008 C 
ATOM     19  C   UNL     1       7.622  -1.104  -1.347  1.00  0.00     0.008 C 
ENDBRANCH  12  17
ENDBRANCH  11  12
ENDBRANCH   1  11
TORSDOF 1
ENDMDL
MODEL 2
REMARK VINA RESULT:    -3.465      1.301      1.586
REMARK INTER + INTRA:          -5.663
REMARK INTER:                  -5.598
REMARK INTRA:                  -0.065
REMARK UNBOUND:                -0.375
REMARK SMILES CC1=CCC[C@@H](C)C(=O)C[C@@H](C(C)C)C(=O)C1
REMARK SMILES IDX 8 1 9 2 6 3 7 4 5 5 4 6 3 7 2 8 1 9 10 11 11 12 15 13 16 14
REMARK SMILES IDX 17 15 12 17 13 18 14 19
REMARK H PARENT
REMARK Flexibility Score: 70.00
ROOT
ATOM      1  C   UNL     1       4.001  -4.054  -2.555  1.00  0.00     0.136 C 
ATOM      2  O   UNL     1       3.083  -4.860  -2.613  1.00  0.00    -0.299 OA
ENDROOT
BRANCH   1   3
ATOM      3  C   UNL     1       4.699  -3.686  -3.853  1.00  0.00     0.053 C 
ATOM      4  C   UNL     1       3.777  -3.253  -5.006  1.00  0.00     0.016 C 
BRANCH   3   5
ATOM      5  C   UNL     1       5.780  -4.725  -4.238  1.00  0.00     0.015 C 
BRANCH   5   6
ATOM      6  C   UNL     1       7.254  -4.509  -3.806  1.00  0.00     0.028 C 
BRANCH   6   7
ATOM      7  C   UNL     1       7.855  -5.411  -2.754  1.00  0.00    -0.028 C 
ATOM      8  C   UNL     1       8.416  -5.021  -1.588  1.00  0.00    -0.070 CG0
ATOM      9  C   UNL     1       9.285  -6.019  -0.864  1.00  0.00     0.039 C 
ATOM     10  G   UNL     1       8.302  -3.613  -1.044  1.00  0.00     0.000 G0
ENDBRANCH   6   7
ENDBRANCH   5   6
ENDBRANCH   3   5
ENDBRANCH   1   3
BRANCH   1  11
ATOM     11  C   UNL     1       4.431  -3.543  -1.197  1.00  0.00     0.087 C 
BRANCH  11  12
ATOM     12  C   UNL     1       5.753  -2.718  -1.233  1.00  0.00     0.066 C 
BRANCH  12  13
ATOM     13  C   UNL     1       6.923  -3.337  -0.448  1.00  0.00     0.140 C 
ATOM     14  O   UNL     1       6.779  -3.538   0.748  1.00  0.00    -0.299 OA
BRANCH  13  15
ATOM     15  C   UNL     1       8.297  -3.618  -1.029  1.00  0.00     0.106 CG0
ATOM     16  G   UNL     1       8.424  -5.022  -1.578  1.00  0.00     0.000 G0
ENDBRANCH  13  15
ENDBRANCH  12  13
BRANCH  12  17
ATOM     17  C   UNL     1       5.462  -1.225  -0.851  1.00  0.00    -0.006 C 
ATOM     18  C   UNL     1       4.869  -1.069   0.560  1.00  0.00     0.008 C 
ATOM     19  C   UNL     1       4.592  -0.487  -1.878  1.00  0.00     0.008 C 
ENDBRANCH  12  17
ENDBRANCH  11  12
ENDBRANCH   1  11
TORSDOF 1
ENDMDL
MODEL 3
REMARK VINA RESULT:    -3.380      2.335      4.341
REMARK INTER + INTRA:          -5.534
REMARK INTER:                  -5.302
REMARK INTRA:                  -0.232
REMARK UNBOUND:                -0.375
REMARK SMILES CC1=CCC[C@@H](C)C(=O)C[C@@H](C(C)C)C(=O)C1
REMARK SMILES IDX 8 1 9 2 6 3 7 4 5 5 4 6 3 7 2 8 1 9 10 11 11 12 15 13 16 14
REMARK SMILES IDX 17 15 12 17 13 18 14 19
REMARK H PARENT
REMARK Flexibility Score: 70.00
ROOT
ATOM      1  C   UNL     1       5.839  -3.457  -0.219  1.00  0.00     0.136 C 
ATOM      2  O   UNL     1       4.956  -4.248   0.081  1.00  0.00    -0.299 OA
ENDROOT
BRANCH   1   3
ATOM      3  C   UNL     1       5.542  -1.976  -0.060  1.00  0.00     0.053 C 
ATOM      4  C   UNL     1       5.287  -1.499   1.381  1.00  0.00     0.016 C 
BRANCH   3   5
ATOM      5  C   UNL     1       4.512  -1.481  -1.103  1.00  0.00     0.015 C 
BRANCH   5   6
ATOM      6  C   UNL     1       4.898  -1.412  -2.603  1.00  0.00     0.028 C 
BRANCH   6   7
ATOM      7  C   UNL     1       4.498  -2.542  -3.523  1.00  0.00    -0.028 C 
ATOM      8  C   UNL     1       5.290  -3.161  -4.425  1.00  0.00    -0.070 CG0
ATOM      9  C   UNL     1       4.616  -3.988  -5.492  1.00  0.00     0.039 C 
ATOM     10  G   UNL     1       6.790  -2.973  -4.478  1.00  0.00     0.000 G0
ENDBRANCH   6   7
ENDBRANCH   5   6
ENDBRANCH   3   5
ENDBRANCH   1   3
BRANCH   1  11
ATOM     11  C   UNL     1       7.127  -3.997  -0.801  1.00  0.00     0.087 C 
BRANCH  11  12
ATOM     12  C   UNL     1       7.712  -3.114  -1.944  1.00  0.00     0.066 C 
BRANCH  12  13
ATOM     13  C   UNL     1       7.531  -3.688  -3.361  1.00  0.00     0.140 C 
ATOM     14  O   UNL     1       8.085  -4.741  -3.636  1.00  0.00    -0.299 OA
BRANCH  13  15
ATOM     15  C   UNL     1       6.801  -2.982  -4.490  1.00  0.00     0.106 CG0
ATOM     16  G   UNL     1       5.299  -3.151  -4.411  1.00  0.00     0.000 G0
ENDBRANCH  13  15
ENDBRANCH  12  13
BRANCH  12  17
ATOM     17  C   UNL     1       9.192  -2.719  -1.612  1.00  0.00    -0.006 C 
ATOM     18  C   UNL     1       9.732  -3.417  -0.351  1.00  0.00     0.008 C 
ATOM     19  C   UNL     1       9.416  -1.203  -1.516  1.00  0.00     0.008 C 
ENDBRANCH  12  17
ENDBRANCH  11  12
ENDBRANCH   1  11
TORSDOF 1
ENDMDL
MODEL 4
REMARK VINA RESULT:    -3.313      2.799      4.762
REMARK INTER + INTRA:          -5.431
REMARK INTER:                  -5.173
REMARK INTRA:                  -0.258
REMARK UNBOUND:                -0.375
REMARK SMILES CC1=CCC[C@@H](C)C(=O)C[C@@H](C(C)C)C(=O)C1
REMARK SMILES IDX 8 1 9 2 6 3 7 4 5 5 4 6 3 7 2 8 1 9 10 11 11 12 15 13 16 14
REMARK SMILES IDX 17 15 12 17 13 18 14 19
REMARK H PARENT
REMARK Flexibility Score: 70.00
ROOT
ATOM      1  C   UNL     1       4.989  -0.919  -1.599  1.00  0.00     0.136 C 
ATOM      2  O   UNL     1       4.577   0.207  -1.360  1.00  0.00    -0.299 OA
ENDROOT
BRANCH   1   3
ATOM      3  C   UNL     1       5.817  -1.609  -0.529  1.00  0.00     0.053 C 
ATOM      4  C   UNL     1       5.231  -1.571   0.893  1.00  0.00     0.016 C 
BRANCH   3   5
ATOM      5  C   UNL     1       7.315  -1.231  -0.628  1.00  0.00     0.015 C 
BRANCH   5   6
ATOM      6  C   UNL     1       8.340  -2.256  -1.177  1.00  0.00     0.028 C 
BRANCH   6   7
ATOM      7  C   UNL     1       9.116  -1.927  -2.431  1.00  0.00    -0.028 C 
ATOM      8  C   UNL     1       9.015  -2.551  -3.625  1.00  0.00    -0.070 CG0
ATOM      9  C   UNL     1      10.125  -2.332  -4.622  1.00  0.00     0.039 C 
ATOM     10  G   UNL     1       7.912  -3.533  -3.955  1.00  0.00     0.000 G0
ENDBRANCH   6   7
ENDBRANCH   5   6
ENDBRANCH   3   5
ENDBRANCH   1   3
BRANCH   1  11
ATOM     11  C   UNL     1       4.720  -1.513  -2.965  1.00  0.00     0.087 C 
BRANCH  11  12
ATOM     12  C   UNL     1       5.406  -2.894  -3.189  1.00  0.00     0.066 C 
BRANCH  12  13
ATOM     13  C   UNL     1       6.561  -2.885  -4.205  1.00  0.00     0.140 C 
ATOM     14  O   UNL     1       6.362  -2.399  -5.308  1.00  0.00    -0.299 OA
BRANCH  13  15
ATOM     15  C   UNL     1       7.911  -3.543  -3.982  1.00  0.00     0.106 CG0
ATOM     16  G   UNL     1       8.995  -2.547  -3.631  1.00  0.00     0.000 G0
ENDBRANCH  13  15
ENDBRANCH  12  13
BRANCH  12  17
ATOM     17  C   UNL     1       4.322  -3.989  -3.481  1.00  0.00    -0.006 C 
ATOM     18  C   UNL     1       3.279  -3.541  -4.521  1.00  0.00     0.008 C 
ATOM     19  C   UNL     1       3.622  -4.512  -2.218  1.00  0.00     0.008 C 
ENDBRANCH  12  17
ENDBRANCH  11  12
ENDBRANCH   1  11
TORSDOF 1
ENDMDL
MODEL 5
REMARK VINA RESULT:    -3.308      1.745      2.421
REMARK INTER + INTRA:          -5.424
REMARK INTER:                  -5.429
REMARK INTRA:                   0.004
REMARK UNBOUND:                -0.375
REMARK SMILES CC1=CCC[C@@H](C)C(=O)C[C@@H](C(C)C)C(=O)C1
REMARK SMILES IDX 8 1 9 2 6 3 7 4 5 5 4 6 3 7 2 8 1 9 10 11 11 12 15 13 16 14
REMARK SMILES IDX 17 15 12 17 13 18 14 19
REMARK H PARENT
REMARK Flexibility Score: 70.00
ROOT
ATOM      1  C   UNL     1       6.229  -2.670  -4.156  1.00  0.00     0.136 C 
ATOM      2  O   UNL     1       7.326  -2.163  -4.343  1.00  0.00    -0.299 OA
ENDROOT
BRANCH   1   3
ATOM      3  C   UNL     1       5.913  -3.959  -4.895  1.00  0.00     0.053 C 
ATOM      4  C   UNL     1       4.444  -4.414  -4.843  1.00  0.00     0.016 C 
BRANCH   3   5
ATOM      5  C   UNL     1       6.950  -5.066  -4.588  1.00  0.00     0.015 C 
BRANCH   5   6
ATOM      6  C   UNL     1       6.910  -5.813  -3.230  1.00  0.00     0.028 C 
BRANCH   6   7
ATOM      7  C   UNL     1       7.731  -5.291  -2.074  1.00  0.00    -0.028 C 
ATOM      8  C   UNL     1       7.257  -4.700  -0.955  1.00  0.00    -0.070 CG0
ATOM      9  C   UNL     1       8.234  -3.919  -0.112  1.00  0.00     0.039 C 
ATOM     10  G   UNL     1       5.792  -4.694  -0.578  1.00  0.00     0.000 G0
ENDBRANCH   6   7
ENDBRANCH   5   6
ENDBRANCH   3   5
ENDBRANCH   1   3
BRANCH   1  11
ATOM     11  C   UNL     1       5.237  -1.944  -3.274  1.00  0.00     0.087 C 
BRANCH  11  12
ATOM     12  C   UNL     1       5.370  -2.300  -1.763  1.00  0.00     0.066 C 
BRANCH  12  13
ATOM     13  C   UNL     1       4.948  -3.734  -1.397  1.00  0.00     0.140 C 
ATOM     14  O   UNL     1       3.828  -4.107  -1.710  1.00  0.00    -0.299 OA
BRANCH  13  15
ATOM     15  C   UNL     1       5.783  -4.694  -0.569  1.00  0.00     0.106 CG0
ATOM     16  G   UNL     1       7.240  -4.702  -0.976  1.00  0.00     0.000 G0
ENDBRANCH  13  15
ENDBRANCH  12  13
BRANCH  12  17
ATOM     17  C   UNL     1       4.675  -1.198  -0.890  1.00  0.00    -0.006 C 
ATOM     18  C   UNL     1       4.894   0.225  -1.431  1.00  0.00     0.008 C 
ATOM     19  C   UNL     1       5.050  -1.266   0.597  1.00  0.00     0.008 C 
ENDBRANCH  12  17
ENDBRANCH  11  12
ENDBRANCH   1  11
TORSDOF 1
ENDMDL
MODEL 6
REMARK VINA RESULT:    -3.290      2.241      4.589
REMARK INTER + INTRA:          -5.396
REMARK INTER:                  -5.279
REMARK INTRA:                  -0.118
REMARK UNBOUND:                -0.375
REMARK SMILES CC1=CCC[C@@H](C)C(=O)C[C@@H](C(C)C)C(=O)C1
REMARK SMILES IDX 8 1 9 2 6 3 7 4 5 5 4 6 3 7 2 8 1 9 10 11 11 12 15 13 16 14
REMARK SMILES IDX 17 15 12 17 13 18 14 19
REMARK H PARENT
REMARK Flexibility Score: 70.00
ROOT
ATOM      1  C   UNL     1       4.472  -2.855  -2.244  1.00  0.00     0.136 C 
ATOM      2  O   UNL     1       4.293  -3.954  -1.737  1.00  0.00    -0.299 OA
ENDROOT
BRANCH   1   3
ATOM      3  C   UNL     1       4.494  -1.649  -1.321  1.00  0.00     0.053 C 
ATOM      4  C   UNL     1       4.490  -0.277  -2.018  1.00  0.00     0.016 C 
BRANCH   3   5
ATOM      5  C   UNL     1       5.544  -1.805  -0.195  1.00  0.00     0.015 C 
BRANCH   5   6
ATOM      6  C   UNL     1       6.914  -2.465  -0.498  1.00  0.00     0.028 C 
BRANCH   6   7
ATOM      7  C   UNL     1       7.919  -1.725  -1.350  1.00  0.00    -0.028 C 
ATOM      8  C   UNL     1       8.524  -2.190  -2.465  1.00  0.00    -0.070 CG0
ATOM      9  C   UNL     1       9.755  -1.463  -2.946  1.00  0.00     0.039 C 
ATOM     10  G   UNL     1       8.093  -3.456  -3.174  1.00  0.00     0.000 G0
ENDBRANCH   6   7
ENDBRANCH   5   6
ENDBRANCH   3   5
ENDBRANCH   1   3
BRANCH   1  11
ATOM     11  C   UNL     1       4.577  -2.762  -3.750  1.00  0.00     0.087 C 
BRANCH  11  12
ATOM     12  C   UNL     1       5.648  -3.716  -4.360  1.00  0.00     0.066 C 
BRANCH  12  13
ATOM     13  C   UNL     1       7.089  -3.176  -4.325  1.00  0.00     0.140 C 
ATOM     14  O   UNL     1       7.504  -2.562  -5.295  1.00  0.00    -0.299 OA
BRANCH  13  15
ATOM     15  C   UNL     1       8.084  -3.448  -3.211  1.00  0.00     0.106 CG0
ATOM     16  G   UNL     1       8.506  -2.190  -2.484  1.00  0.00     0.000 G0
ENDBRANCH  13  15
ENDBRANCH  12  13
BRANCH  12  17
ATOM     17  C   UNL     1       5.192  -4.194  -5.782  1.00  0.00    -0.006 C 
ATOM     18  C   UNL     1       3.781  -3.705  -6.157  1.00  0.00     0.008 C 
ATOM     19  C   UNL     1       5.299  -5.711  -5.983  1.00  0.00     0.008 C 
ENDBRANCH  12  17
ENDBRANCH  11  12
ENDBRANCH   1  11
TORSDOF 1
ENDMDL
MODEL 7
REMARK VINA RESULT:    -3.275      2.055      3.442
REMARK INTER + INTRA:          -5.373
REMARK INTER:                  -5.002
REMARK INTRA:                  -0.372
REMARK UNBOUND:                -0.375
REMARK SMILES CC1=CCC[C@@H](C)C(=O)C[C@@H](C(C)C)C(=O)C1
REMARK SMILES IDX 8 1 9 2 6 3 7 4 5 5 4 6 3 7 2 8 1 9 10 11 11 12 15 13 16 14
REMARK SMILES IDX 17 15 12 17 13 18 14 19
REMARK H PARENT
REMARK Flexibility Score: 70.00
ROOT
ATOM      1  C   UNL     1       7.829  -2.250  -3.201  1.00  0.00     0.136 C 
ATOM      2  O   UNL     1       8.135  -2.550  -4.347  1.00  0.00    -0.299 OA
ENDROOT
BRANCH   1   3
ATOM      3  C   UNL     1       8.940  -2.196  -2.167  1.00  0.00     0.053 C 
ATOM      4  C   UNL     1       9.882  -0.983  -2.263  1.00  0.00     0.016 C 
BRANCH   3   5
ATOM      5  C   UNL     1       9.651  -3.563  -2.015  1.00  0.00     0.015 C 
BRANCH   5   6
ATOM      6  C   UNL     1       9.070  -4.639  -1.062  1.00  0.00     0.028 C 
BRANCH   6   7
ATOM      7  C   UNL     1       8.269  -5.783  -1.639  1.00  0.00    -0.028 C 
ATOM      8  C   UNL     1       6.978  -6.076  -1.369  1.00  0.00    -0.070 CG0
ATOM      9  C   UNL     1       6.484  -7.452  -1.741  1.00  0.00     0.039 C 
ATOM     10  G   UNL     1       6.055  -5.139  -0.622  1.00  0.00     0.000 G0
ENDBRANCH   6   7
ENDBRANCH   5   6
ENDBRANCH   3   5
ENDBRANCH   1   3
BRANCH   1  11
ATOM     11  C   UNL     1       6.368  -2.035  -2.875  1.00  0.00     0.087 C 
BRANCH  11  12
ATOM     12  C   UNL     1       5.956  -2.578  -1.473  1.00  0.00     0.066 C 
BRANCH  12  13
ATOM     13  C   UNL     1       5.461  -4.035  -1.464  1.00  0.00     0.140 C 
ATOM     14  O   UNL     1       4.471  -4.316  -2.121  1.00  0.00    -0.299 OA
BRANCH  13  15
ATOM     15  C   UNL     1       6.048  -5.140  -0.604  1.00  0.00     0.106 CG0
ATOM     16  G   UNL     1       6.972  -6.055  -1.378  1.00  0.00     0.000 G0
ENDBRANCH  13  15
ENDBRANCH  12  13
BRANCH  12  17
ATOM     17  C   UNL     1       4.970  -1.576  -0.779  1.00  0.00    -0.006 C 
ATOM     18  C   UNL     1       4.887  -0.218  -1.499  1.00  0.00     0.008 C 
ATOM     19  C   UNL     1       5.256  -1.369   0.715  1.00  0.00     0.008 C 
ENDBRANCH  12  17
ENDBRANCH  11  12
ENDBRANCH   1  11
TORSDOF 1
ENDMDL
MODEL 8
REMARK VINA RESULT:    -3.207      2.007      4.056
REMARK INTER + INTRA:          -5.270
REMARK INTER:                  -5.086
REMARK INTRA:                  -0.183
REMARK UNBOUND:                -0.375
REMARK SMILES CC1=CCC[C@@H](C)C(=O)C[C@@H](C(C)C)C(=O)C1
REMARK SMILES IDX 8 1 9 2 6 3 7 4 5 5 4 6 3 7 2 8 1 9 10 11 11 12 15 13 16 14
REMARK SMILES IDX 17 15 12 17 13 18 14 19
REMARK H PARENT
REMARK Flexibility Score: 70.00
ROOT
ATOM      1  C   UNL     1       8.558  -2.393  -1.455  1.00  0.00     0.136 C 
ATOM      2  O   UNL     1       9.640  -1.872  -1.689  1.00  0.00    -0.299 OA
ENDROOT
BRANCH   1   3
ATOM      3  C   UNL     1       8.558  -3.843  -1.002  1.00  0.00     0.053 C 
ATOM      4  C   UNL     1       9.272  -4.125   0.331  1.00  0.00     0.016 C 
BRANCH   3   5
ATOM      5  C   UNL     1       8.929  -4.806  -2.157  1.00  0.00     0.015 C 
BRANCH   5   6
ATOM      6  C   UNL     1       7.881  -5.815  -2.693  1.00  0.00     0.028 C 
BRANCH   6   7
ATOM      7  C   UNL     1       7.097  -5.474  -3.939  1.00  0.00    -0.028 C 
ATOM      8  C   UNL     1       5.836  -4.991  -3.988  1.00  0.00    -0.070 CG0
ATOM      9  C   UNL     1       5.108  -5.075  -5.306  1.00  0.00     0.039 C 
ATOM     10  G   UNL     1       5.098  -4.482  -2.769  1.00  0.00     0.000 G0
ENDBRANCH   6   7
ENDBRANCH   5   6
ENDBRANCH   3   5
ENDBRANCH   1   3
BRANCH   1  11
ATOM     11  C   UNL     1       7.300  -1.593  -1.709  1.00  0.00     0.087 C 
BRANCH  11  12
ATOM     12  C   UNL     1       5.992  -2.357  -1.341  1.00  0.00     0.066 C 
BRANCH  12  13
ATOM     13  C   UNL     1       5.252  -2.985  -2.535  1.00  0.00     0.140 C 
ATOM     14  O   UNL     1       4.670  -2.244  -3.312  1.00  0.00    -0.299 OA
BRANCH  13  15
ATOM     15  C   UNL     1       5.091  -4.477  -2.761  1.00  0.00     0.106 CG0
ATOM     16  G   UNL     1       5.842  -4.968  -3.979  1.00  0.00     0.000 G0
ENDBRANCH  13  15
ENDBRANCH  12  13
BRANCH  12  17
ATOM     17  C   UNL     1       5.080  -1.452  -0.441  1.00  0.00    -0.006 C 
ATOM     18  C   UNL     1       4.980  -0.003  -0.951  1.00  0.00     0.008 C 
ATOM     19  C   UNL     1       5.471  -1.468   1.042  1.00  0.00     0.008 C 
ENDBRANCH  12  17
ENDBRANCH  11  12
ENDBRANCH   1  11
TORSDOF 1
ENDMDL
MODEL 9
REMARK VINA RESULT:    -3.128      1.898      4.835
REMARK INTER + INTRA:          -5.148
REMARK INTER:                  -4.635
REMARK INTRA:                  -0.513
REMARK UNBOUND:                -0.375
REMARK SMILES CC1=CCC[C@@H](C)C(=O)C[C@@H](C(C)C)C(=O)C1
REMARK SMILES IDX 8 1 9 2 6 3 7 4 5 5 4 6 3 7 2 8 1 9 10 11 11 12 15 13 16 14
REMARK SMILES IDX 17 15 12 17 13 18 14 19
REMARK H PARENT
REMARK Flexibility Score: 70.00
ROOT
ATOM      1  C   UNL     1       6.503  -3.177  -0.401  1.00  0.00     0.136 C 
ATOM      2  O   UNL     1       6.515  -2.901   0.791  1.00  0.00    -0.299 OA
ENDROOT
BRANCH   1   3
ATOM      3  C   UNL     1       6.913  -2.090  -1.380  1.00  0.00     0.053 C 
ATOM      4  C   UNL     1       8.339  -1.540  -1.206  1.00  0.00     0.016 C 
BRANCH   3   5
ATOM      5  C   UNL     1       5.813  -1.012  -1.536  1.00  0.00     0.015 C 
BRANCH   5   6
ATOM      6  C   UNL     1       4.475  -1.365  -2.235  1.00  0.00     0.028 C 
BRANCH   6   7
ATOM      7  C   UNL     1       4.480  -1.731  -3.701  1.00  0.00    -0.028 C 
ATOM      8  C   UNL     1       4.385  -2.976  -4.218  1.00  0.00    -0.070 CG0
ATOM      9  C   UNL     1       4.786  -3.164  -5.660  1.00  0.00     0.039 C 
ATOM     10  G   UNL     1       4.008  -4.188  -3.395  1.00  0.00     0.000 G0
ENDBRANCH   6   7
ENDBRANCH   5   6
ENDBRANCH   3   5
ENDBRANCH   1   3
BRANCH   1  11
ATOM     11  C   UNL     1       6.006  -4.542  -0.822  1.00  0.00     0.087 C 
BRANCH  11  12
ATOM     12  C   UNL     1       6.381  -4.916  -2.288  1.00  0.00     0.066 C 
BRANCH  12  13
ATOM     13  C   UNL     1       5.182  -5.166  -3.219  1.00  0.00     0.140 C 
ATOM     14  O   UNL     1       5.197  -6.156  -3.934  1.00  0.00    -0.299 OA
BRANCH  13  15
ATOM     15  C   UNL     1       4.019  -4.207  -3.402  1.00  0.00     0.106 CG0
ATOM     16  G   UNL     1       4.389  -2.988  -4.218  1.00  0.00     0.000 G0
ENDBRANCH  13  15
ENDBRANCH  12  13
BRANCH  12  17
ATOM     17  C   UNL     1       7.432  -6.080  -2.292  1.00  0.00    -0.006 C 
ATOM     18  C   UNL     1       7.415  -6.909  -0.995  1.00  0.00     0.008 C 
ATOM     19  C   UNL     1       8.861  -5.617  -2.608  1.00  0.00     0.008 C 
ENDBRANCH  12  17
ENDBRANCH  11  12
ENDBRANCH   1  11
TORSDOF 1
ENDMDL
