MODEL 1
REMARK VINA RESULT:    -3.876      0.000      0.000
REMARK INTER + INTRA:          -4.266
REMARK INTER:                  -4.782
REMARK INTRA:                   0.516
REMARK UNBOUND:                 0.516
REMARK SMILES C=C1CC[C@H]2[C@@H]1[C@H]1[C@H](CC[C@H]2C)C1(C)C
REMARK SMILES IDX 6 1 5 2 4 3 3 4 2 5 1 6 11 7 12 8 10 9 7 11 8 12 13 13 14 14
REMARK SMILES IDX 15 15 9 16
REMARK H PARENT
REMARK Flexibility Score: 80.00
ROOT
ATOM      1  C   UNL     1     137.517 139.767 135.168  1.00  0.00     0.022 C 
ATOM      2  C   UNL     1     138.914 139.097 135.292  1.00  0.00    -0.000 C 
ATOM      3  C   UNL     1     139.070 138.230 134.030  1.00  0.00     0.009 C 
ATOM      4  C   UNL     1     138.260 138.931 132.942  1.00  0.00     0.031 C 
ATOM      5  C   UNL     1     137.304 139.798 133.690  1.00  0.00    -0.074 C 
ATOM      6  C   UNL     1     136.368 140.540 133.088  1.00  0.00     0.008 C 
ENDROOT
BRANCH   2   7
ATOM      7  C   UNL     1     139.298 138.388 136.650  1.00  0.00    -0.011 C 
ATOM      8  C   UNL     1     140.745 137.874 136.583  1.00  0.00     0.008 C 
BRANCH   7   9
ATOM      9  C   UNL     1     138.354 137.231 137.123  1.00  0.00     0.004 CG0
ATOM     10  G   UNL     1     137.075 137.694 137.872  1.00  0.00     0.000 G0
ENDBRANCH   7   9
ENDBRANCH   2   7
BRANCH   1  11
ATOM     11  C   UNL     1     136.420 138.901 135.801  1.00  0.00     0.006 C 
ATOM     12  C   UNL     1     136.560 139.036 137.331  1.00  0.00    -0.001 C 
ATOM     13  C   UNL     1     135.230 139.346 136.647  1.00  0.00    -0.029 C 
ATOM     14  C   UNL     1     134.826 140.824 136.596  1.00  0.00     0.012 C 
ATOM     15  C   UNL     1     134.102 138.325 136.844  1.00  0.00     0.012 C 
BRANCH  12  16
ATOM     16  C   UNL     1     137.066 137.692 137.859  1.00  0.00     0.005 CG0
ATOM     17  G   UNL     1     138.348 137.226 137.117  1.00  0.00     0.000 G0
ENDBRANCH  12  16
ENDBRANCH   1  11
TORSDOF 0
ENDMDL
MODEL 2
REMARK VINA RESULT:    -3.862      3.053      4.662
REMARK INTER + INTRA:          -4.249
REMARK INTER:                  -4.765
REMARK INTRA:                   0.516
REMARK UNBOUND:                 0.516
REMARK SMILES C=C1CC[C@H]2[C@@H]1[C@H]1[C@H](CC[C@H]2C)C1(C)C
REMARK SMILES IDX 6 1 5 2 4 3 3 4 2 5 1 6 11 7 12 8 10 9 7 11 8 12 13 13 14 14
REMARK SMILES IDX 15 15 9 16
REMARK H PARENT
REMARK Flexibility Score: 80.00
ROOT
ATOM      1  C   UNL     1     139.768 135.150 135.150  1.00  0.00     0.022 C 
ATOM      2  C   UNL     1     139.105 133.748 135.245  1.00  0.00    -0.000 C 
ATOM      3  C   UNL     1     138.248 133.608 133.975  1.00  0.00     0.009 C 
ATOM      4  C   UNL     1     138.950 134.442 132.906  1.00  0.00     0.031 C 
ATOM      5  C   UNL     1     139.806 135.390 133.676  1.00  0.00    -0.074 C 
ATOM      6  C   UNL     1     140.547 136.340 133.096  1.00  0.00     0.008 C 
ENDROOT
BRANCH   2   7
ATOM      7  C   UNL     1     138.390 133.335 136.592  1.00  0.00    -0.011 C 
ATOM      8  C   UNL     1     137.865 131.894 136.487  1.00  0.00     0.008 C 
BRANCH   7   9
ATOM      9  C   UNL     1     137.240 134.276 137.086  1.00  0.00     0.004 CG0
ATOM     10  G   UNL     1     137.712 135.546 137.844  1.00  0.00     0.000 G0
ENDBRANCH   7   9
ENDBRANCH   2   7
BRANCH   1  11
ATOM     11  C   UNL     1     138.891 136.230 135.797  1.00  0.00     0.006 C 
ATOM     12  C   UNL     1     139.034 136.078 137.325  1.00  0.00    -0.001 C 
ATOM     13  C   UNL     1     139.325 137.418 136.652  1.00  0.00    -0.029 C 
ATOM     14  C   UNL     1     140.797 137.841 136.599  1.00  0.00     0.012 C 
ATOM     15  C   UNL     1     138.291 138.532 136.864  1.00  0.00     0.012 C 
BRANCH  12  16
ATOM     16  C   UNL     1     137.699 135.550 137.854  1.00  0.00     0.005 CG0
ATOM     17  G   UNL     1     137.237 134.279 137.091  1.00  0.00     0.000 G0
ENDBRANCH  12  16
ENDBRANCH   1  11
TORSDOF 0
ENDMDL
MODEL 3
REMARK VINA RESULT:    -3.855      4.791      6.685
REMARK INTER + INTRA:          -4.241
REMARK INTER:                  -4.757
REMARK INTRA:                   0.516
REMARK UNBOUND:                 0.516
REMARK SMILES C=C1CC[C@H]2[C@@H]1[C@H]1[C@H](CC[C@H]2C)C1(C)C
REMARK SMILES IDX 6 1 5 2 4 3 3 4 2 5 1 6 11 7 12 8 10 9 7 11 8 12 13 13 14 14
REMARK SMILES IDX 15 15 9 16
REMARK H PARENT
REMARK Flexibility Score: 80.00
ROOT
ATOM      1  C   UNL     1     135.145 132.741 135.075  1.00  0.00     0.022 C 
ATOM      2  C   UNL     1     133.812 133.499 135.327  1.00  0.00    -0.000 C 
ATOM      3  C   UNL     1     133.581 134.359 134.072  1.00  0.00     0.009 C 
ATOM      4  C   UNL     1     134.232 133.597 132.921  1.00  0.00     0.031 C 
ATOM      5  C   UNL     1     135.205 132.681 133.583  1.00  0.00    -0.074 C 
ATOM      6  C   UNL     1     136.027 131.874 132.903  1.00  0.00     0.008 C 
ENDROOT
BRANCH   2   7
ATOM      7  C   UNL     1     133.612 134.246 136.705  1.00  0.00    -0.011 C 
ATOM      8  C   UNL     1     132.195 134.836 136.781  1.00  0.00     0.008 C 
BRANCH   7   9
ATOM      9  C   UNL     1     134.660 135.357 137.053  1.00  0.00     0.004 CG0
ATOM     10  G   UNL     1     135.991 134.835 137.659  1.00  0.00     0.000 G0
ENDBRANCH   7   9
ENDBRANCH   2   7
BRANCH   1  11
ATOM     11  C   UNL     1     136.351 133.544 135.579  1.00  0.00     0.006 C 
ATOM     12  C   UNL     1     136.349 133.450 137.118  1.00  0.00    -0.001 C 
ATOM     13  C   UNL     1     137.585 133.037 136.322  1.00  0.00    -0.029 C 
ATOM     14  C   UNL     1     137.885 131.535 136.273  1.00  0.00     0.012 C 
ATOM     15  C   UNL     1     138.792 133.983 136.385  1.00  0.00     0.012 C 
BRANCH  12  16
ATOM     16  C   UNL     1     135.985 134.837 137.655  1.00  0.00     0.005 CG0
ATOM     17  G   UNL     1     134.654 135.359 137.048  1.00  0.00     0.000 G0
ENDBRANCH  12  16
ENDBRANCH   1  11
TORSDOF 0
ENDMDL
MODEL 4
REMARK VINA RESULT:    -3.851      3.009      4.642
REMARK INTER + INTRA:          -4.235
REMARK INTER:                  -4.751
REMARK INTRA:                   0.516
REMARK UNBOUND:                 0.516
REMARK SMILES C=C1CC[C@H]2[C@@H]1[C@H]1[C@H](CC[C@H]2C)C1(C)C
REMARK SMILES IDX 6 1 5 2 4 3 3 4 2 5 1 6 11 7 12 8 10 9 7 11 8 12 13 13 14 14
REMARK SMILES IDX 15 15 9 16
REMARK H PARENT
REMARK Flexibility Score: 80.00
ROOT
ATOM      1  C   UNL     1     132.898 137.602 135.066  1.00  0.00     0.022 C 
ATOM      2  C   UNL     1     133.585 138.981 135.265  1.00  0.00    -0.000 C 
ATOM      3  C   UNL     1     134.427 139.211 133.998  1.00  0.00     0.009 C 
ATOM      4  C   UNL     1     133.695 138.480 132.875  1.00  0.00     0.031 C 
ATOM      5  C   UNL     1     132.834 137.485 133.578  1.00  0.00    -0.074 C 
ATOM      6  C   UNL     1     132.069 136.597 132.933  1.00  0.00     0.008 C 
ENDROOT
BRANCH   2   7
ATOM      7  C   UNL     1     134.327 139.270 136.630  1.00  0.00    -0.011 C 
ATOM      8  C   UNL     1     134.874 140.706 136.636  1.00  0.00     0.008 C 
BRANCH   7   9
ATOM      9  C   UNL     1     135.468 138.274 137.026  1.00  0.00     0.004 CG0
ATOM     10  G   UNL     1     134.987 136.959 137.699  1.00  0.00     0.000 G0
ENDBRANCH   7   9
ENDBRANCH   2   7
BRANCH   1  11
ATOM     11  C   UNL     1     133.765 136.458 135.608  1.00  0.00     0.006 C 
ATOM     12  C   UNL     1     133.644 136.485 137.145  1.00  0.00    -0.001 C 
ATOM     13  C   UNL     1     133.323 135.210 136.368  1.00  0.00    -0.029 C 
ATOM     14  C   UNL     1     131.844 134.815 136.300  1.00  0.00     0.012 C 
ATOM     15  C   UNL     1     134.342 134.067 136.471  1.00  0.00     0.012 C 
BRANCH  12  16
ATOM     16  C   UNL     1     134.995 136.946 137.697  1.00  0.00     0.005 CG0
ATOM     17  G   UNL     1     135.466 138.271 137.038  1.00  0.00     0.000 G0
ENDBRANCH  12  16
ENDBRANCH   1  11
TORSDOF 0
ENDMDL
MODEL 5
REMARK VINA RESULT:    -3.755      4.936      6.693
REMARK INTER + INTRA:          -4.117
REMARK INTER:                  -4.625
REMARK INTRA:                   0.508
REMARK UNBOUND:                 0.516
REMARK SMILES C=C1CC[C@H]2[C@@H]1[C@H]1[C@H](CC[C@H]2C)C1(C)C
REMARK SMILES IDX 6 1 5 2 4 3 3 4 2 5 1 6 11 7 12 8 10 9 7 11 8 12 13 13 14 14
REMARK SMILES IDX 15 15 9 16
REMARK H PARENT
REMARK Flexibility Score: 80.00
ROOT
ATOM      1  C   UNL     1     133.940 133.355 136.628  1.00  0.00     0.022 C 
ATOM      2  C   UNL     1     133.819 133.816 138.108  1.00  0.00    -0.000 C 
ATOM      3  C   UNL     1     133.098 135.174 138.061  1.00  0.00     0.009 C 
ATOM      4  C   UNL     1     132.198 135.124 136.829  1.00  0.00     0.031 C 
ATOM      5  C   UNL     1     132.789 134.051 135.979  1.00  0.00    -0.074 C 
ATOM      6  C   UNL     1     132.316 133.736 134.768  1.00  0.00     0.008 C 
ENDROOT
BRANCH   2   7
ATOM      7  C   UNL     1     135.103 133.763 139.027  1.00  0.00    -0.011 C 
ATOM      8  C   UNL     1     134.734 134.158 140.467  1.00  0.00     0.008 C 
BRANCH   7   9
ATOM      9  C   UNL     1     136.334 134.607 138.553  1.00  0.00     0.004 CG0
ATOM     10  G   UNL     1     137.224 133.922 137.481  1.00  0.00     0.000 G0
ENDBRANCH   7   9
ENDBRANCH   2   7
BRANCH   1  11
ATOM     11  C   UNL     1     135.239 133.860 135.988  1.00  0.00     0.006 C 
ATOM     12  C   UNL     1     136.390 133.006 136.559  1.00  0.00    -0.001 C 
ATOM     13  C   UNL     1     136.186 133.116 135.050  1.00  0.00    -0.029 C 
ATOM     14  C   UNL     1     135.659 131.860 134.347  1.00  0.00     0.012 C 
ATOM     15  C   UNL     1     137.205 133.966 134.278  1.00  0.00     0.012 C 
BRANCH  12  16
ATOM     16  C   UNL     1     137.215 133.914 137.475  1.00  0.00     0.005 CG0
ATOM     17  G   UNL     1     136.334 134.597 138.556  1.00  0.00     0.000 G0
ENDBRANCH  12  16
ENDBRANCH   1  11
TORSDOF 0
ENDMDL
MODEL 6
REMARK VINA RESULT:    -3.724      5.230      5.875
REMARK INTER + INTRA:          -4.079
REMARK INTER:                  -4.595
REMARK INTRA:                   0.516
REMARK UNBOUND:                 0.516
REMARK SMILES C=C1CC[C@H]2[C@@H]1[C@H]1[C@H](CC[C@H]2C)C1(C)C
REMARK SMILES IDX 6 1 5 2 4 3 3 4 2 5 1 6 11 7 12 8 10 9 7 11 8 12 13 13 14 14
REMARK SMILES IDX 15 15 9 16
REMARK H PARENT
REMARK Flexibility Score: 80.00
ROOT
ATOM      1  C   UNL     1     135.090 133.999 136.199  1.00  0.00     0.022 C 
ATOM      2  C   UNL     1     136.495 133.596 135.671  1.00  0.00    -0.000 C 
ATOM      3  C   UNL     1     136.309 132.219 135.011  1.00  0.00     0.009 C 
ATOM      4  C   UNL     1     134.873 132.196 134.494  1.00  0.00     0.031 C 
ATOM      5  C   UNL     1     134.175 133.248 135.287  1.00  0.00    -0.074 C 
ATOM      6  C   UNL     1     132.867 133.502 135.171  1.00  0.00     0.008 C 
ENDROOT
BRANCH   2   7
ATOM      7  C   UNL     1     137.735 133.719 136.642  1.00  0.00    -0.011 C 
ATOM      8  C   UNL     1     139.026 133.354 135.893  1.00  0.00     0.008 C 
BRANCH   7   9
ATOM      9  C   UNL     1     137.657 132.903 137.977  1.00  0.00     0.004 CG0
ATOM     10  G   UNL     1     136.845 133.582 139.114  1.00  0.00     0.000 G0
ENDBRANCH   7   9
ENDBRANCH   2   7
BRANCH   1  11
ATOM     11  C   UNL     1     134.865 133.502 137.632  1.00  0.00     0.006 C 
ATOM     12  C   UNL     1     135.685 134.418 138.565  1.00  0.00    -0.001 C 
ATOM     13  C   UNL     1     134.186 134.228 138.792  1.00  0.00    -0.029 C 
ATOM     14  C   UNL     1     133.296 135.431 138.464  1.00  0.00     0.012 C 
ATOM     15  C   UNL     1     133.777 133.371 139.998  1.00  0.00     0.012 C 
BRANCH  12  16
ATOM     16  C   UNL     1     136.843 133.582 139.115  1.00  0.00     0.005 CG0
ATOM     17  G   UNL     1     137.658 132.907 137.979  1.00  0.00     0.000 G0
ENDBRANCH  12  16
ENDBRANCH   1  11
TORSDOF 0
ENDMDL
MODEL 7
REMARK VINA RESULT:    -3.703      3.248      5.596
REMARK INTER + INTRA:          -4.053
REMARK INTER:                  -4.570
REMARK INTRA:                   0.517
REMARK UNBOUND:                 0.516
REMARK SMILES C=C1CC[C@H]2[C@@H]1[C@H]1[C@H](CC[C@H]2C)C1(C)C
REMARK SMILES IDX 6 1 5 2 4 3 3 4 2 5 1 6 11 7 12 8 10 9 7 11 8 12 13 13 14 14
REMARK SMILES IDX 15 15 9 16
REMARK H PARENT
REMARK Flexibility Score: 80.00
ROOT
ATOM      1  C   UNL     1     139.271 133.938 136.605  1.00  0.00     0.022 C 
ATOM      2  C   UNL     1     138.848 133.750 138.089  1.00  0.00    -0.000 C 
ATOM      3  C   UNL     1     137.473 133.062 138.043  1.00  0.00     0.009 C 
ATOM      4  C   UNL     1     137.470 132.225 136.766  1.00  0.00     0.031 C 
ATOM      5  C   UNL     1     138.533 132.838 135.917  1.00  0.00    -0.074 C 
ATOM      6  C   UNL     1     138.805 132.422 134.675  1.00  0.00     0.008 C 
ENDROOT
BRANCH   2   7
ATOM      7  C   UNL     1     138.953 134.983 139.071  1.00  0.00    -0.011 C 
ATOM      8  C   UNL     1     138.571 134.553 140.497  1.00  0.00     0.008 C 
BRANCH   7   9
ATOM      9  C   UNL     1     138.139 136.261 138.675  1.00  0.00     0.004 CG0
ATOM     10  G   UNL     1     138.829 137.180 137.631  1.00  0.00     0.000 G0
ENDBRANCH   7   9
ENDBRANCH   2   7
BRANCH   1  11
ATOM     11  C   UNL     1     138.778 135.280 136.047  1.00  0.00     0.006 C 
ATOM     12  C   UNL     1     139.684 136.379 136.639  1.00  0.00    -0.001 C 
ATOM     13  C   UNL     1     139.513 136.251 135.126  1.00  0.00    -0.029 C 
ATOM     14  C   UNL     1     140.727 135.727 134.352  1.00  0.00     0.012 C 
ATOM     15  C   UNL     1     138.663 137.327 134.437  1.00  0.00     0.012 C 
BRANCH  12  16
ATOM     16  C   UNL     1     138.834 137.182 137.626  1.00  0.00     0.005 CG0
ATOM     17  G   UNL     1     138.143 136.265 138.671  1.00  0.00     0.000 G0
ENDBRANCH  12  16
ENDBRANCH   1  11
TORSDOF 0
ENDMDL
MODEL 8
REMARK VINA RESULT:    -3.695      5.071      6.516
REMARK INTER + INTRA:          -4.043
REMARK INTER:                  -4.559
REMARK INTRA:                   0.516
REMARK UNBOUND:                 0.516
REMARK SMILES C=C1CC[C@H]2[C@@H]1[C@H]1[C@H](CC[C@H]2C)C1(C)C
REMARK SMILES IDX 6 1 5 2 4 3 3 4 2 5 1 6 11 7 12 8 10 9 7 11 8 12 13 13 14 14
REMARK SMILES IDX 15 15 9 16
REMARK H PARENT
REMARK Flexibility Score: 80.00
ROOT
ATOM      1  C   UNL     1     136.724 132.870 136.505  1.00  0.00     0.022 C 
ATOM      2  C   UNL     1     136.753 132.287 135.064  1.00  0.00    -0.000 C 
ATOM      3  C   UNL     1     137.874 133.047 134.333  1.00  0.00     0.009 C 
ATOM      4  C   UNL     1     138.891 133.420 135.408  1.00  0.00     0.031 C 
ATOM      5  C   UNL     1     138.126 133.353 136.686  1.00  0.00    -0.074 C 
ATOM      6  C   UNL     1     138.655 133.672 137.872  1.00  0.00     0.008 C 
ENDROOT
BRANCH   2   7
ATOM      7  C   UNL     1     135.394 132.158 134.270  1.00  0.00    -0.011 C 
ATOM      8  C   UNL     1     135.642 131.480 132.912  1.00  0.00     0.008 C 
BRANCH   7   9
ATOM      9  C   UNL     1     134.586 133.482 134.053  1.00  0.00     0.004 CG0
ATOM     10  G   UNL     1     133.719 133.927 135.262  1.00  0.00     0.000 G0
ENDBRANCH   7   9
ENDBRANCH   2   7
BRANCH   1  11
ATOM     11  C   UNL     1     135.777 134.073 136.605  1.00  0.00     0.006 C 
ATOM     12  C   UNL     1     134.337 133.520 136.593  1.00  0.00    -0.001 C 
ATOM     13  C   UNL     1     134.807 134.425 137.730  1.00  0.00    -0.029 C 
ATOM     14  C   UNL     1     135.010 133.750 139.091  1.00  0.00     0.012 C 
ATOM     15  C   UNL     1     134.254 135.857 137.742  1.00  0.00     0.012 C 
BRANCH  12  16
ATOM     16  C   UNL     1     133.710 133.922 135.256  1.00  0.00     0.005 CG0
ATOM     17  G   UNL     1     134.580 133.471 134.051  1.00  0.00     0.000 G0
ENDBRANCH  12  16
ENDBRANCH   1  11
TORSDOF 0
ENDMDL
MODEL 9
REMARK VINA RESULT:    -3.664      1.376      2.097
REMARK INTER + INTRA:          -4.005
REMARK INTER:                  -4.521
REMARK INTRA:                   0.516
REMARK UNBOUND:                 0.516
REMARK SMILES C=C1CC[C@H]2[C@@H]1[C@H]1[C@H](CC[C@H]2C)C1(C)C
REMARK SMILES IDX 6 1 5 2 4 3 3 4 2 5 1 6 11 7 12 8 10 9 7 11 8 12 13 13 14 14
REMARK SMILES IDX 15 15 9 16
REMARK H PARENT
REMARK Flexibility Score: 80.00
ROOT
ATOM      1  C   UNL     1     137.973 139.375 136.915  1.00  0.00     0.022 C 
ATOM      2  C   UNL     1     139.041 138.686 137.810  1.00  0.00    -0.000 C 
ATOM      3  C   UNL     1     139.860 137.792 136.862  1.00  0.00     0.009 C 
ATOM      4  C   UNL     1     139.819 138.483 135.501  1.00  0.00     0.031 C 
ATOM      5  C   UNL     1     138.629 139.379 135.573  1.00  0.00    -0.074 C 
ATOM      6  C   UNL     1     138.212 140.123 134.543  1.00  0.00     0.008 C 
ENDROOT
BRANCH   2   7
ATOM      7  C   UNL     1     138.578 137.999 139.154  1.00  0.00    -0.011 C 
ATOM      8  C   UNL     1     139.799 137.458 139.915  1.00  0.00     0.008 C 
BRANCH   7   9
ATOM      9  C   UNL     1     137.500 136.870 139.024  1.00  0.00     0.004 CG0
ATOM     10  G   UNL     1     136.035 137.372 138.909  1.00  0.00     0.000 G0
ENDBRANCH   7   9
ENDBRANCH   2   7
BRANCH   1  11
ATOM     11  C   UNL     1     136.690 138.539 136.828  1.00  0.00     0.006 C 
ATOM     12  C   UNL     1     135.945 138.708 138.168  1.00  0.00    -0.001 C 
ATOM     13  C   UNL     1     135.241 139.019 136.849  1.00  0.00    -0.029 C 
ATOM     14  C   UNL     1     134.972 140.501 136.561  1.00  0.00     0.012 C 
ATOM     15  C   UNL     1     134.174 138.019 136.386  1.00  0.00     0.012 C 
BRANCH  12  16
ATOM     16  C   UNL     1     136.031 137.370 138.906  1.00  0.00     0.005 CG0
ATOM     17  G   UNL     1     137.497 136.872 139.027  1.00  0.00     0.000 G0
ENDBRANCH  12  16
ENDBRANCH   1  11
TORSDOF 0
ENDMDL
