MODEL 1
REMARK VINA RESULT:    -7.528      0.000      0.000
REMARK INTER + INTRA:          -8.317
REMARK INTER:                  -7.968
REMARK INTRA:                  -0.349
REMARK UNBOUND:                -0.349
REMARK SMILES CC1=C[C@H]2C(=C(C)CC[C@@H]2C(C)C)CC1
REMARK SMILES IDX 1 1 2 2 3 3 4 4 10 5 9 6 8 7 6 8 5 9 14 10 15 11 7 12 11 13
REMARK SMILES IDX 12 14 13 15
REMARK H PARENT
REMARK Flexibility Score: inf
ROOT
ATOM      1  C   UNL     1      -1.232 -18.015  13.572  1.00  0.00     0.039 C 
ATOM      2  C   UNL     1      -1.915 -16.957  12.751  1.00  0.00    -0.076 C 
ATOM      3  C   UNL     1      -2.386 -17.283  11.523  1.00  0.00    -0.020 C 
ATOM      4  C   UNL     1      -3.147 -16.296  10.657  1.00  0.00     0.041 C 
ATOM      5  C   UNL     1      -3.040 -16.638   9.141  1.00  0.00     0.003 C 
ATOM      6  C   UNL     1      -1.673 -16.134   8.633  1.00  0.00     0.009 C 
ATOM      7  C   UNL     1      -1.555 -14.615   8.787  1.00  0.00     0.031 C 
ATOM      8  C   UNL     1      -1.893 -14.150  10.188  1.00  0.00    -0.073 C 
ATOM      9  C   UNL     1      -2.691 -14.891  11.009  1.00  0.00    -0.064 C 
ATOM     10  C   UNL     1      -2.855 -14.587  12.479  1.00  0.00     0.036 C 
ATOM     11  C   UNL     1      -1.936 -15.526  13.276  1.00  0.00     0.035 C 
ATOM     12  C   UNL     1      -1.362 -12.801  10.613  1.00  0.00     0.039 C 
ENDROOT
BRANCH   5  13
ATOM     13  C   UNL     1      -4.262 -16.098   8.313  1.00  0.00    -0.013 C 
ATOM     14  C   UNL     1      -5.596 -16.686   8.816  1.00  0.00     0.007 C 
ATOM     15  C   UNL     1      -4.137 -16.412   6.809  1.00  0.00     0.007 C 
ENDBRANCH   5  13
TORSDOF 1
ENDMDL
MODEL 2
REMARK VINA RESULT:    -7.225      0.956      4.529
REMARK INTER + INTRA:          -7.997
REMARK INTER:                  -7.737
REMARK INTRA:                  -0.260
REMARK UNBOUND:                -0.349
REMARK SMILES CC1=C[C@H]2C(=C(C)CC[C@@H]2C(C)C)CC1
REMARK SMILES IDX 1 1 2 2 3 3 4 4 10 5 9 6 8 7 6 8 5 9 14 10 15 11 7 12 11 13
REMARK SMILES IDX 12 14 13 15
REMARK H PARENT
REMARK Flexibility Score: inf
ROOT
ATOM      1  C   UNL     1      -5.374 -16.877   8.222  1.00  0.00     0.039 C 
ATOM      2  C   UNL     1      -4.093 -16.499   8.913  1.00  0.00    -0.076 C 
ATOM      3  C   UNL     1      -3.896 -16.897  10.193  1.00  0.00    -0.020 C 
ATOM      4  C   UNL     1      -2.606 -16.618  10.941  1.00  0.00     0.041 C 
ATOM      5  C   UNL     1      -2.815 -16.588  12.484  1.00  0.00     0.003 C 
ATOM      6  C   UNL     1      -3.409 -15.215  12.860  1.00  0.00     0.009 C 
ATOM      7  C   UNL     1      -2.451 -14.080  12.488  1.00  0.00     0.031 C 
ATOM      8  C   UNL     1      -1.983 -14.169  11.050  1.00  0.00    -0.073 C 
ATOM      9  C   UNL     1      -1.982 -15.354  10.375  1.00  0.00    -0.064 C 
ATOM     10  C   UNL     1      -1.756 -15.444   8.885  1.00  0.00     0.036 C 
ATOM     11  C   UNL     1      -3.121 -15.570   8.192  1.00  0.00     0.035 C 
ATOM     12  C   UNL     1      -1.457 -12.902  10.417  1.00  0.00     0.039 C 
ENDROOT
BRANCH   5  13
ATOM     13  C   UNL     1      -1.506 -16.950  13.277  1.00  0.00    -0.013 C 
ATOM     14  C   UNL     1      -1.155 -18.447  13.146  1.00  0.00     0.007 C 
ATOM     15  C   UNL     1      -1.616 -16.614  14.778  1.00  0.00     0.007 C 
ENDBRANCH   5  13
TORSDOF 1
ENDMDL
MODEL 3
REMARK VINA RESULT:    -6.803      1.506      2.057
REMARK INTER + INTRA:          -7.550
REMARK INTER:                  -7.261
REMARK INTRA:                  -0.289
REMARK UNBOUND:                -0.349
REMARK SMILES CC1=C[C@H]2C(=C(C)CC[C@@H]2C(C)C)CC1
REMARK SMILES IDX 1 1 2 2 3 3 4 4 10 5 9 6 8 7 6 8 5 9 14 10 15 11 7 12 11 13
REMARK SMILES IDX 12 14 13 15
REMARK H PARENT
REMARK Flexibility Score: inf
ROOT
ATOM      1  C   UNL     1      -3.656 -15.928  13.478  1.00  0.00     0.039 C 
ATOM      2  C   UNL     1      -3.265 -15.322  12.159  1.00  0.00    -0.076 C 
ATOM      3  C   UNL     1      -3.854 -15.780  11.028  1.00  0.00    -0.020 C 
ATOM      4  C   UNL     1      -3.569 -15.180   9.663  1.00  0.00     0.041 C 
ATOM      5  C   UNL     1      -3.828 -16.193   8.509  1.00  0.00     0.003 C 
ATOM      6  C   UNL     1      -2.611 -17.139   8.421  1.00  0.00     0.009 C 
ATOM      7  C   UNL     1      -1.333 -16.362   8.096  1.00  0.00     0.031 C 
ATOM      8  C   UNL     1      -1.122 -15.183   9.022  1.00  0.00    -0.073 C 
ATOM      9  C   UNL     1      -2.166 -14.597   9.675  1.00  0.00    -0.064 C 
ATOM     10  C   UNL     1      -1.974 -13.588  10.781  1.00  0.00     0.036 C 
ATOM     11  C   UNL     1      -2.127 -14.308  12.129  1.00  0.00     0.035 C 
ATOM     12  C   UNL     1       0.284 -14.645   9.143  1.00  0.00     0.039 C 
ENDROOT
BRANCH   5  13
ATOM     13  C   UNL     1      -4.176 -15.483   7.150  1.00  0.00    -0.013 C 
ATOM     14  C   UNL     1      -4.579 -14.009   7.364  1.00  0.00     0.007 C 
ATOM     15  C   UNL     1      -5.322 -16.187   6.396  1.00  0.00     0.007 C 
ENDBRANCH   5  13
TORSDOF 1
ENDMDL
MODEL 4
REMARK VINA RESULT:    -6.436      1.631      5.183
REMARK INTER + INTRA:          -7.161
REMARK INTER:                  -7.070
REMARK INTRA:                  -0.090
REMARK UNBOUND:                -0.349
REMARK SMILES CC1=C[C@H]2C(=C(C)CC[C@@H]2C(C)C)CC1
REMARK SMILES IDX 1 1 2 2 3 3 4 4 10 5 9 6 8 7 6 8 5 9 14 10 15 11 7 12 11 13
REMARK SMILES IDX 12 14 13 15
REMARK H PARENT
REMARK Flexibility Score: inf
ROOT
ATOM      1  C   UNL     1      -5.376 -13.619   5.878  1.00  0.00     0.039 C 
ATOM      2  C   UNL     1      -5.024 -14.576   6.982  1.00  0.00    -0.076 C 
ATOM      3  C   UNL     1      -4.159 -14.176   7.946  1.00  0.00    -0.020 C 
ATOM      4  C   UNL     1      -3.801 -15.052   9.132  1.00  0.00     0.041 C 
ATOM      5  C   UNL     1      -2.407 -14.696   9.728  1.00  0.00     0.003 C 
ATOM      6  C   UNL     1      -1.326 -15.344   8.837  1.00  0.00     0.009 C 
ATOM      7  C   UNL     1      -1.464 -16.869   8.826  1.00  0.00     0.031 C 
ATOM      8  C   UNL     1      -2.873 -17.319   8.500  1.00  0.00    -0.073 C 
ATOM      9  C   UNL     1      -3.946 -16.507   8.719  1.00  0.00    -0.064 C 
ATOM     10  C   UNL     1      -5.326 -16.818   8.190  1.00  0.00     0.036 C 
ATOM     11  C   UNL     1      -5.549 -16.005   6.906  1.00  0.00     0.035 C 
ATOM     12  C   UNL     1      -3.043 -18.727   7.982  1.00  0.00     0.039 C 
ENDROOT
BRANCH   5  13
ATOM     13  C   UNL     1      -2.286 -15.077  11.248  1.00  0.00    -0.013 C 
ATOM     14  C   UNL     1      -3.567 -15.762  11.768  1.00  0.00     0.007 C 
ATOM     15  C   UNL     1      -2.003 -13.851  12.140  1.00  0.00     0.007 C 
ENDBRANCH   5  13
TORSDOF 1
ENDMDL
MODEL 5
REMARK VINA RESULT:    -6.060      1.081      4.574
REMARK INTER + INTRA:          -6.764
REMARK INTER:                  -6.475
REMARK INTRA:                  -0.289
REMARK UNBOUND:                -0.349
REMARK SMILES CC1=C[C@H]2C(=C(C)CC[C@@H]2C(C)C)CC1
REMARK SMILES IDX 1 1 2 2 3 3 4 4 10 5 9 6 8 7 6 8 5 9 14 10 15 11 7 12 11 13
REMARK SMILES IDX 12 14 13 15
REMARK H PARENT
REMARK Flexibility Score: inf
ROOT
ATOM      1  C   UNL     1      -5.746 -16.254   7.334  1.00  0.00     0.039 C 
ATOM      2  C   UNL     1      -4.461 -16.382   8.103  1.00  0.00    -0.076 C 
ATOM      3  C   UNL     1      -4.334 -15.724   9.281  1.00  0.00    -0.020 C 
ATOM      4  C   UNL     1      -3.100 -15.851  10.154  1.00  0.00     0.041 C 
ATOM      5  C   UNL     1      -2.895 -14.608  11.070  1.00  0.00     0.003 C 
ATOM      6  C   UNL     1      -2.261 -13.487  10.220  1.00  0.00     0.009 C 
ATOM      7  C   UNL     1      -0.892 -13.912   9.682  1.00  0.00     0.031 C 
ATOM      8  C   UNL     1      -0.938 -15.255   8.982  1.00  0.00    -0.073 C 
ATOM      9  C   UNL     1      -1.910 -16.169   9.265  1.00  0.00    -0.064 C 
ATOM     10  C   UNL     1      -2.133 -17.406   8.429  1.00  0.00     0.036 C 
ATOM     11  C   UNL     1      -3.301 -17.139   7.468  1.00  0.00     0.035 C 
ATOM     12  C   UNL     1       0.172 -15.561   8.006  1.00  0.00     0.039 C 
ENDROOT
BRANCH   5  13
ATOM     13  C   UNL     1      -2.087 -14.947  12.375  1.00  0.00    -0.013 C 
ATOM     14  C   UNL     1      -2.044 -16.466  12.641  1.00  0.00     0.007 C 
ATOM     15  C   UNL     1      -2.673 -14.259  13.624  1.00  0.00     0.007 C 
ENDBRANCH   5  13
TORSDOF 1
ENDMDL
MODEL 6
REMARK VINA RESULT:    -5.984      1.579      4.421
REMARK INTER + INTRA:          -6.682
REMARK INTER:                  -6.384
REMARK INTRA:                  -0.298
REMARK UNBOUND:                -0.349
REMARK SMILES CC1=C[C@H]2C(=C(C)CC[C@@H]2C(C)C)CC1
REMARK SMILES IDX 1 1 2 2 3 3 4 4 10 5 9 6 8 7 6 8 5 9 14 10 15 11 7 12 11 13
REMARK SMILES IDX 12 14 13 15
REMARK H PARENT
REMARK Flexibility Score: inf
ROOT
ATOM      1  C   UNL     1      -2.083 -19.124   7.452  1.00  0.00     0.039 C 
ATOM      2  C   UNL     1      -2.794 -17.934   8.035  1.00  0.00    -0.076 C 
ATOM      3  C   UNL     1      -2.059 -16.925   8.561  1.00  0.00    -0.020 C 
ATOM      4  C   UNL     1      -2.692 -15.658   9.108  1.00  0.00     0.041 C 
ATOM      5  C   UNL     1      -1.793 -14.963  10.174  1.00  0.00     0.003 C 
ATOM      6  C   UNL     1      -1.974 -15.711  11.512  1.00  0.00     0.009 C 
ATOM      7  C   UNL     1      -3.425 -15.638  11.992  1.00  0.00     0.031 C 
ATOM      8  C   UNL     1      -4.410 -16.060  10.921  1.00  0.00    -0.073 C 
ATOM      9  C   UNL     1      -4.091 -15.989   9.597  1.00  0.00    -0.064 C 
ATOM     10  C   UNL     1      -4.941 -16.619   8.519  1.00  0.00     0.036 C 
ATOM     11  C   UNL     1      -4.315 -17.967   8.131  1.00  0.00     0.035 C 
ATOM     12  C   UNL     1      -5.779 -16.502  11.380  1.00  0.00     0.039 C 
ENDROOT
BRANCH   5  13
ATOM     13  C   UNL     1      -2.060 -13.417  10.272  1.00  0.00    -0.013 C 
ATOM     14  C   UNL     1      -2.794 -12.885   9.024  1.00  0.00     0.007 C 
ATOM     15  C   UNL     1      -0.760 -12.607  10.445  1.00  0.00     0.007 C 
ENDBRANCH   5  13
TORSDOF 1
ENDMDL
MODEL 7
REMARK VINA RESULT:    -5.322      1.593      3.470
REMARK INTER + INTRA:          -5.982
REMARK INTER:                  -6.566
REMARK INTRA:                   0.584
REMARK UNBOUND:                -0.349
REMARK SMILES CC1=C[C@H]2C(=C(C)CC[C@@H]2C(C)C)CC1
REMARK SMILES IDX 1 1 2 2 3 3 4 4 10 5 9 6 8 7 6 8 5 9 14 10 15 11 7 12 11 13
REMARK SMILES IDX 12 14 13 15
REMARK H PARENT
REMARK Flexibility Score: inf
ROOT
ATOM      1  C   UNL     1      -1.255 -12.795  10.085  1.00  0.00     0.039 C 
ATOM      2  C   UNL     1      -1.908 -14.117  10.380  1.00  0.00    -0.076 C 
ATOM      3  C   UNL     1      -2.161 -14.965   9.354  1.00  0.00    -0.020 C 
ATOM      4  C   UNL     1      -2.754 -16.345   9.570  1.00  0.00     0.041 C 
ATOM      5  C   UNL     1      -3.512 -16.864   8.311  1.00  0.00     0.003 C 
ATOM      6  C   UNL     1      -4.903 -16.196   8.282  1.00  0.00     0.009 C 
ATOM      7  C   UNL     1      -5.721 -16.575   9.519  1.00  0.00     0.031 C 
ATOM      8  C   UNL     1      -4.961 -16.341  10.808  1.00  0.00    -0.073 C 
ATOM      9  C   UNL     1      -3.597 -16.318  10.833  1.00  0.00    -0.064 C 
ATOM     10  C   UNL     1      -2.812 -15.853  12.036  1.00  0.00     0.036 C 
ATOM     11  C   UNL     1      -2.380 -14.397  11.802  1.00  0.00     0.035 C 
ATOM     12  C   UNL     1      -5.775 -16.198  12.072  1.00  0.00     0.039 C 
ENDROOT
BRANCH   5  13
ATOM     13  C   UNL     1      -3.561 -18.433   8.241  1.00  0.00    -0.013 C 
ATOM     14  C   UNL     1      -3.589 -19.067   9.647  1.00  0.00     0.007 C 
ATOM     15  C   UNL     1      -2.362 -19.025   7.473  1.00  0.00     0.007 C 
ENDBRANCH   5  13
TORSDOF 1
ENDMDL
MODEL 8
REMARK VINA RESULT:    -5.219      1.839      4.381
REMARK INTER + INTRA:          -5.873
REMARK INTER:                  -6.426
REMARK INTRA:                   0.553
REMARK UNBOUND:                -0.349
REMARK SMILES CC1=C[C@H]2C(=C(C)CC[C@@H]2C(C)C)CC1
REMARK SMILES IDX 1 1 2 2 3 3 4 4 10 5 9 6 8 7 6 8 5 9 14 10 15 11 7 12 11 13
REMARK SMILES IDX 12 14 13 15
REMARK H PARENT
REMARK Flexibility Score: inf
ROOT
ATOM      1  C   UNL     1      -5.384 -12.799   6.872  1.00  0.00     0.039 C 
ATOM      2  C   UNL     1      -4.458 -13.730   7.603  1.00  0.00    -0.076 C 
ATOM      3  C   UNL     1      -4.814 -15.030   7.748  1.00  0.00    -0.020 C 
ATOM      4  C   UNL     1      -3.908 -16.051   8.411  1.00  0.00     0.041 C 
ATOM      5  C   UNL     1      -4.708 -17.245   9.013  1.00  0.00     0.003 C 
ATOM      6  C   UNL     1      -5.299 -16.791  10.364  1.00  0.00     0.009 C 
ATOM      7  C   UNL     1      -4.191 -16.415  11.351  1.00  0.00     0.031 C 
ATOM      8  C   UNL     1      -3.200 -15.434  10.760  1.00  0.00    -0.073 C 
ATOM      9  C   UNL     1      -3.020 -15.333   9.412  1.00  0.00    -0.064 C 
ATOM     10  C   UNL     1      -2.230 -14.214   8.777  1.00  0.00     0.036 C 
ATOM     11  C   UNL     1      -3.215 -13.150   8.268  1.00  0.00     0.035 C 
ATOM     12  C   UNL     1      -2.375 -14.621  11.728  1.00  0.00     0.039 C 
ENDROOT
BRANCH   5  13
ATOM     13  C   UNL     1      -3.852 -18.559   9.106  1.00  0.00    -0.013 C 
ATOM     14  C   UNL     1      -3.828 -19.124  10.541  1.00  0.00     0.007 C 
ATOM     15  C   UNL     1      -2.394 -18.344   8.652  1.00  0.00     0.007 C 
ENDBRANCH   5  13
TORSDOF 1
ENDMDL
MODEL 9
REMARK VINA RESULT:    -5.219      1.327      3.330
REMARK INTER + INTRA:          -5.873
REMARK INTER:                  -5.491
REMARK INTRA:                  -0.382
REMARK UNBOUND:                -0.349
REMARK SMILES CC1=C[C@H]2C(=C(C)CC[C@@H]2C(C)C)CC1
REMARK SMILES IDX 1 1 2 2 3 3 4 4 10 5 9 6 8 7 6 8 5 9 14 10 15 11 7 12 11 13
REMARK SMILES IDX 12 14 13 15
REMARK H PARENT
REMARK Flexibility Score: inf
ROOT
ATOM      1  C   UNL     1      -2.741 -13.945  13.860  1.00  0.00     0.039 C 
ATOM      2  C   UNL     1      -2.527 -14.948  12.762  1.00  0.00    -0.076 C 
ATOM      3  C   UNL     1      -2.781 -14.584  11.481  1.00  0.00    -0.020 C 
ATOM      4  C   UNL     1      -2.527 -15.511  10.307  1.00  0.00     0.041 C 
ATOM      5  C   UNL     1      -3.425 -15.167   9.081  1.00  0.00     0.003 C 
ATOM      6  C   UNL     1      -4.827 -15.761   9.334  1.00  0.00     0.009 C 
ATOM      7  C   UNL     1      -4.763 -17.285   9.465  1.00  0.00     0.031 C 
ATOM      8  C   UNL     1      -3.722 -17.735  10.468  1.00  0.00    -0.073 C 
ATOM      9  C   UNL     1      -2.656 -16.946  10.787  1.00  0.00    -0.064 C 
ATOM     10  C   UNL     1      -1.736 -17.247  11.946  1.00  0.00     0.036 C 
ATOM     11  C   UNL     1      -2.158 -16.378  13.141  1.00  0.00     0.035 C 
ATOM     12  C   UNL     1      -3.880 -19.119  11.051  1.00  0.00     0.039 C 
ENDROOT
BRANCH   5  13
ATOM     13  C   UNL     1      -2.783 -15.618   7.719  1.00  0.00    -0.013 C 
ATOM     14  C   UNL     1      -1.293 -15.227   7.633  1.00  0.00     0.007 C 
ATOM     15  C   UNL     1      -3.507 -15.012   6.500  1.00  0.00     0.007 C 
ENDBRANCH   5  13
TORSDOF 1
ENDMDL
