MODEL 1
REMARK VINA RESULT:    -7.831      0.000      0.000
REMARK INTER + INTRA:          -8.518
REMARK INTER:                  -8.518
REMARK INTRA:                   0.000
REMARK UNBOUND:                 0.000
REMARK SMILES Cc1cc(O)c2c(c1)C(=O)c1cc(O)cc(O)c1C2=O
REMARK SMILES IDX 1 1 2 2 8 3 7 4 6 5 4 6 3 7 19 8 20 9 18 10 11 11 9 12 10 13
REMARK SMILES IDX 12 14 13 15 15 16 16 17 5 18 17 20 14 22
REMARK H PARENT 5 19 17 21 14 23
REMARK Flexibility Score: inf
ROOT
ATOM      1  C   UNL     1      -0.855  -3.192  -4.119  1.00  0.00     0.044 C 
ATOM      2  C   UNL     1      -1.945  -2.770  -3.180  1.00  0.00    -0.047 A 
ATOM      3  C   UNL     1      -2.487  -3.686  -2.273  1.00  0.00     0.016 A 
ATOM      4  C   UNL     1      -3.493  -3.294  -1.371  1.00  0.00     0.038 A 
ATOM      5  C   UNL     1      -3.965  -1.961  -1.378  1.00  0.00     0.076 A 
ATOM      6  C   UNL     1      -3.339  -1.014  -2.234  1.00  0.00     0.127 A 
ATOM      7  C   UNL     1      -2.361  -1.436  -3.139  1.00  0.00     0.050 A 
ATOM      8  C   UNL     1      -5.137  -1.621  -0.524  1.00  0.00     0.201 C 
ATOM      9  O   UNL     1      -5.840  -0.610  -0.788  1.00  0.00    -0.288 OA
ATOM     10  C   UNL     1      -5.551  -2.533   0.575  1.00  0.00     0.076 A 
ATOM     11  C   UNL     1      -5.024  -3.842   0.615  1.00  0.00     0.041 A 
ATOM     12  C   UNL     1      -4.046  -4.276  -0.408  1.00  0.00     0.194 C 
ATOM     13  O   UNL     1      -3.670  -5.480  -0.447  1.00  0.00    -0.289 OA
ATOM     14  C   UNL     1      -5.434  -4.729   1.626  1.00  0.00     0.059 A 
ATOM     15  C   UNL     1      -6.355  -4.322   2.597  1.00  0.00     0.120 A 
ATOM     16  C   UNL     1      -6.871  -3.027   2.565  1.00  0.00     0.093 A 
ATOM     17  C   UNL     1      -6.476  -2.128   1.565  1.00  0.00     0.131 A 
ENDROOT
BRANCH   6  18
ATOM     18  O   UNL     1      -3.626   0.351  -2.195  1.00  0.00    -0.507 OA
ATOM     19  H   UNL     1      -2.984   1.051  -1.851  1.00  0.00     0.293 HD
ENDBRANCH   6  18
BRANCH  17  20
ATOM     20  O   UNL     1      -6.999  -0.834   1.564  1.00  0.00    -0.507 OA
ATOM     21  H   UNL     1      -6.420  -0.026   1.760  1.00  0.00     0.293 HD
ENDBRANCH  17  20
BRANCH  15  22
ATOM     22  O   UNL     1      -6.762  -5.198   3.601  1.00  0.00    -0.508 OA
ATOM     23  H   UNL     1      -6.585  -6.194   3.540  1.00  0.00     0.293 HD
ENDBRANCH  15  22
TORSDOF 3
ENDMDL
MODEL 2
REMARK VINA RESULT:    -7.278      4.906      8.680
REMARK INTER + INTRA:          -7.916
REMARK INTER:                  -7.916
REMARK INTRA:                   0.000
REMARK UNBOUND:                 0.000
REMARK SMILES Cc1cc(O)c2c(c1)C(=O)c1cc(O)cc(O)c1C2=O
REMARK SMILES IDX 1 1 2 2 8 3 7 4 6 5 4 6 3 7 19 8 20 9 18 10 11 11 9 12 10 13
REMARK SMILES IDX 12 14 13 15 15 16 16 17 5 18 17 20 14 22
REMARK H PARENT 5 19 17 21 14 23
REMARK Flexibility Score: inf
ROOT
ATOM      1  C   UNL     1      -5.971  -0.334  -5.089  1.00  0.00     0.044 C 
ATOM      2  C   UNL     1      -4.722   0.206  -4.459  1.00  0.00    -0.047 A 
ATOM      3  C   UNL     1      -4.220   1.453  -4.846  1.00  0.00     0.016 A 
ATOM      4  C   UNL     1      -3.064   1.980  -4.244  1.00  0.00     0.038 A 
ATOM      5  C   UNL     1      -2.396   1.246  -3.237  1.00  0.00     0.076 A 
ATOM      6  C   UNL     1      -2.969   0.027  -2.781  1.00  0.00     0.127 A 
ATOM      7  C   UNL     1      -4.105  -0.487  -3.414  1.00  0.00     0.050 A 
ATOM      8  C   UNL     1      -1.090   1.756  -2.735  1.00  0.00     0.201 C 
ATOM      9  O   UNL     1      -0.277   0.974  -2.176  1.00  0.00    -0.288 OA
ATOM     10  C   UNL     1      -0.689   3.165  -2.994  1.00  0.00     0.076 A 
ATOM     11  C   UNL     1      -1.403   3.915  -3.953  1.00  0.00     0.041 A 
ATOM     12  C   UNL     1      -2.554   3.308  -4.659  1.00  0.00     0.194 C 
ATOM     13  O   UNL     1      -3.113   3.933  -5.603  1.00  0.00    -0.289 OA
ATOM     14  C   UNL     1      -1.013   5.237  -4.237  1.00  0.00     0.059 A 
ATOM     15  C   UNL     1       0.071   5.815  -3.570  1.00  0.00     0.120 A 
ATOM     16  C   UNL     1       0.773   5.079  -2.615  1.00  0.00     0.093 A 
ATOM     17  C   UNL     1       0.401   3.760  -2.319  1.00  0.00     0.131 A 
ENDROOT
BRANCH   6  18
ATOM     18  O   UNL     1      -2.473  -0.683  -1.686  1.00  0.00    -0.507 OA
ATOM     19  H   UNL     1      -1.559  -0.528  -1.282  1.00  0.00     0.293 HD
ENDBRANCH   6  18
BRANCH  17  20
ATOM     20  O   UNL     1       1.112   3.051  -1.351  1.00  0.00    -0.507 OA
ATOM     21  H   UNL     1       0.886   3.121  -0.366  1.00  0.00     0.293 HD
ENDBRANCH  17  20
BRANCH  15  22
ATOM     22  O   UNL     1       0.459   7.125  -3.846  1.00  0.00    -0.508 OA
ATOM     23  H   UNL     1       1.351   7.491  -3.533  1.00  0.00     0.293 HD
ENDBRANCH  15  22
TORSDOF 3
ENDMDL
MODEL 3
REMARK VINA RESULT:    -7.080      6.885      9.215
REMARK INTER + INTRA:          -7.701
REMARK INTER:                  -7.701
REMARK INTRA:                   0.000
REMARK UNBOUND:                 0.000
REMARK SMILES Cc1cc(O)c2c(c1)C(=O)c1cc(O)cc(O)c1C2=O
REMARK SMILES IDX 1 1 2 2 8 3 7 4 6 5 4 6 3 7 19 8 20 9 18 10 11 11 9 12 10 13
REMARK SMILES IDX 12 14 13 15 15 16 16 17 5 18 17 20 14 22
REMARK H PARENT 5 19 17 21 14 23
REMARK Flexibility Score: inf
ROOT
ATOM      1  C   UNL     1       5.752   3.843  -1.815  1.00  0.00     0.044 C 
ATOM      2  C   UNL     1       4.516   3.102  -2.230  1.00  0.00    -0.047 A 
ATOM      3  C   UNL     1       4.597   2.063  -3.163  1.00  0.00     0.016 A 
ATOM      4  C   UNL     1       3.449   1.345  -3.540  1.00  0.00     0.038 A 
ATOM      5  C   UNL     1       2.195   1.672  -2.974  1.00  0.00     0.076 A 
ATOM      6  C   UNL     1       2.139   2.661  -1.954  1.00  0.00     0.127 A 
ATOM      7  C   UNL     1       3.291   3.378  -1.616  1.00  0.00     0.050 A 
ATOM      8  C   UNL     1       0.978   1.003  -3.511  1.00  0.00     0.201 C 
ATOM      9  O   UNL     1      -0.155   1.530  -3.356  1.00  0.00    -0.288 OA
ATOM     10  C   UNL     1       1.105  -0.231  -4.332  1.00  0.00     0.076 A 
ATOM     11  C   UNL     1       2.372  -0.590  -4.839  1.00  0.00     0.041 A 
ATOM     12  C   UNL     1       3.556   0.240  -4.522  1.00  0.00     0.194 C 
ATOM     13  O   UNL     1       4.663  -0.008  -5.075  1.00  0.00    -0.289 OA
ATOM     14  C   UNL     1       2.502  -1.732  -5.648  1.00  0.00     0.059 A 
ATOM     15  C   UNL     1       1.387  -2.521  -5.948  1.00  0.00     0.120 A 
ATOM     16  C   UNL     1       0.134  -2.174  -5.440  1.00  0.00     0.093 A 
ATOM     17  C   UNL     1      -0.016  -1.038  -4.633  1.00  0.00     0.131 A 
ENDROOT
BRANCH   6  18
ATOM     18  O   UNL     1       0.980   2.937  -1.226  1.00  0.00    -0.507 OA
ATOM     19  H   UNL     1       0.089   2.492  -1.397  1.00  0.00     0.293 HD
ENDBRANCH   6  18
BRANCH  17  20
ATOM     20  O   UNL     1      -1.278  -0.721  -4.129  1.00  0.00    -0.507 OA
ATOM     21  H   UNL     1      -1.668  -1.203  -3.327  1.00  0.00     0.293 HD
ENDBRANCH  17  20
BRANCH  15  22
ATOM     22  O   UNL     1       1.512  -3.655  -6.747  1.00  0.00    -0.508 OA
ATOM     23  H   UNL     1       2.098  -4.435  -6.473  1.00  0.00     0.293 HD
ENDBRANCH  15  22
TORSDOF 3
ENDMDL
MODEL 4
REMARK VINA RESULT:    -7.056      2.224      3.685
REMARK INTER + INTRA:          -7.675
REMARK INTER:                  -7.675
REMARK INTRA:                   0.000
REMARK UNBOUND:                 0.000
REMARK SMILES Cc1cc(O)c2c(c1)C(=O)c1cc(O)cc(O)c1C2=O
REMARK SMILES IDX 1 1 2 2 8 3 7 4 6 5 4 6 3 7 19 8 20 9 18 10 11 11 9 12 10 13
REMARK SMILES IDX 12 14 13 15 15 16 16 17 5 18 17 20 14 22
REMARK H PARENT 5 19 17 21 14 23
REMARK Flexibility Score: inf
ROOT
ATOM      1  C   UNL     1       0.692   0.324  -6.156  1.00  0.00     0.044 C 
ATOM      2  C   UNL     1      -0.277  -0.058  -5.077  1.00  0.00    -0.047 A 
ATOM      3  C   UNL     1      -0.545  -1.405  -4.816  1.00  0.00     0.016 A 
ATOM      4  C   UNL     1      -1.432  -1.775  -3.789  1.00  0.00     0.038 A 
ATOM      5  C   UNL     1      -2.064  -0.778  -3.011  1.00  0.00     0.076 A 
ATOM      6  C   UNL     1      -1.709   0.583  -3.218  1.00  0.00     0.127 A 
ATOM      7  C   UNL     1      -0.845   0.925  -4.262  1.00  0.00     0.050 A 
ATOM      8  C   UNL     1      -3.116  -1.195  -2.042  1.00  0.00     0.201 C 
ATOM      9  O   UNL     1      -3.975  -0.365  -1.644  1.00  0.00    -0.288 OA
ATOM     10  C   UNL     1      -3.229  -2.620  -1.630  1.00  0.00     0.076 A 
ATOM     11  C   UNL     1      -2.541  -3.604  -2.371  1.00  0.00     0.041 A 
ATOM     12  C   UNL     1      -1.695  -3.208  -3.519  1.00  0.00     0.194 C 
ATOM     13  O   UNL     1      -1.181  -4.095  -4.257  1.00  0.00    -0.289 OA
ATOM     14  C   UNL     1      -2.668  -4.960  -2.017  1.00  0.00     0.059 A 
ATOM     15  C   UNL     1      -3.463  -5.338  -0.931  1.00  0.00     0.120 A 
ATOM     16  C   UNL     1      -4.137  -4.366  -0.191  1.00  0.00     0.093 A 
ATOM     17  C   UNL     1      -4.025  -3.011  -0.529  1.00  0.00     0.131 A 
ENDROOT
BRANCH   6  18
ATOM     18  O   UNL     1      -2.156   1.619  -2.394  1.00  0.00    -0.507 OA
ATOM     19  H   UNL     1      -2.163   1.571  -1.385  1.00  0.00     0.293 HD
ENDBRANCH   6  18
BRANCH  17  20
ATOM     20  O   UNL     1      -4.700  -2.058   0.236  1.00  0.00    -0.507 OA
ATOM     21  H   UNL     1      -5.609  -1.703  -0.037  1.00  0.00     0.293 HD
ENDBRANCH  17  20
BRANCH  15  22
ATOM     22  O   UNL     1      -3.589  -6.680  -0.576  1.00  0.00    -0.508 OA
ATOM     23  H   UNL     1      -2.819  -7.193  -0.164  1.00  0.00     0.293 HD
ENDBRANCH  15  22
TORSDOF 3
ENDMDL
MODEL 5
REMARK VINA RESULT:    -7.052      6.332      9.632
REMARK INTER + INTRA:          -7.670
REMARK INTER:                  -7.670
REMARK INTRA:                   0.000
REMARK UNBOUND:                 0.000
REMARK SMILES Cc1cc(O)c2c(c1)C(=O)c1cc(O)cc(O)c1C2=O
REMARK SMILES IDX 1 1 2 2 8 3 7 4 6 5 4 6 3 7 19 8 20 9 18 10 11 11 9 12 10 13
REMARK SMILES IDX 12 14 13 15 15 16 16 17 5 18 17 20 14 22
REMARK H PARENT 5 19 17 21 14 23
REMARK Flexibility Score: inf
ROOT
ATOM      1  C   UNL     1      -4.377   1.658  -5.150  1.00  0.00     0.044 C 
ATOM      2  C   UNL     1      -3.029   1.796  -4.506  1.00  0.00    -0.047 A 
ATOM      3  C   UNL     1      -2.489   3.064  -4.271  1.00  0.00     0.016 A 
ATOM      4  C   UNL     1      -1.237   3.206  -3.646  1.00  0.00     0.038 A 
ATOM      5  C   UNL     1      -0.513   2.058  -3.249  1.00  0.00     0.076 A 
ATOM      6  C   UNL     1      -1.114   0.779  -3.402  1.00  0.00     0.127 A 
ATOM      7  C   UNL     1      -2.348   0.664  -4.051  1.00  0.00     0.050 A 
ATOM      8  C   UNL     1       0.874   2.237  -2.737  1.00  0.00     0.201 C 
ATOM      9  O   UNL     1       1.688   1.277  -2.765  1.00  0.00    -0.288 OA
ATOM     10  C   UNL     1       1.341   3.579  -2.297  1.00  0.00     0.076 A 
ATOM     11  C   UNL     1       0.578   4.716  -2.638  1.00  0.00     0.041 A 
ATOM     12  C   UNL     1      -0.685   4.559  -3.394  1.00  0.00     0.194 C 
ATOM     13  O   UNL     1      -1.302   5.579  -3.806  1.00  0.00    -0.289 OA
ATOM     14  C   UNL     1       1.025   5.995  -2.262  1.00  0.00     0.059 A 
ATOM     15  C   UNL     1       2.216   6.149  -1.545  1.00  0.00     0.120 A 
ATOM     16  C   UNL     1       2.968   5.026  -1.199  1.00  0.00     0.093 A 
ATOM     17  C   UNL     1       2.540   3.743  -1.566  1.00  0.00     0.131 A 
ENDROOT
BRANCH   6  18
ATOM     18  O   UNL     1      -0.548  -0.392  -2.895  1.00  0.00    -0.507 OA
ATOM     19  H   UNL     1       0.431  -0.491  -2.669  1.00  0.00     0.293 HD
ENDBRANCH   6  18
BRANCH  17  20
ATOM     20  O   UNL     1       3.305   2.636  -1.195  1.00  0.00    -0.507 OA
ATOM     21  H   UNL     1       2.902   1.853  -0.694  1.00  0.00     0.293 HD
ENDBRANCH  17  20
BRANCH  15  22
ATOM     22  O   UNL     1       2.661   7.414  -1.169  1.00  0.00    -0.508 OA
ATOM     23  H   UNL     1       3.167   8.011  -1.813  1.00  0.00     0.293 HD
ENDBRANCH  15  22
TORSDOF 3
ENDMDL
MODEL 6
REMARK VINA RESULT:    -7.009      4.405      7.007
REMARK INTER + INTRA:          -7.624
REMARK INTER:                  -7.624
REMARK INTRA:                   0.000
REMARK UNBOUND:                 0.000
REMARK SMILES Cc1cc(O)c2c(c1)C(=O)c1cc(O)cc(O)c1C2=O
REMARK SMILES IDX 1 1 2 2 8 3 7 4 6 5 4 6 3 7 19 8 20 9 18 10 11 11 9 12 10 13
REMARK SMILES IDX 12 14 13 15 15 16 16 17 5 18 17 20 14 22
REMARK H PARENT 5 19 17 21 14 23
REMARK Flexibility Score: inf
ROOT
ATOM      1  C   UNL     1       4.836   1.284  -4.237  1.00  0.00     0.044 C 
ATOM      2  C   UNL     1       3.567   0.485  -4.260  1.00  0.00    -0.047 A 
ATOM      3  C   UNL     1       2.418   0.970  -3.625  1.00  0.00     0.016 A 
ATOM      4  C   UNL     1       1.216   0.241  -3.662  1.00  0.00     0.038 A 
ATOM      5  C   UNL     1       1.162  -0.996  -4.344  1.00  0.00     0.076 A 
ATOM      6  C   UNL     1       2.305  -1.432  -5.069  1.00  0.00     0.127 A 
ATOM      7  C   UNL     1       3.495  -0.701  -4.994  1.00  0.00     0.050 A 
ATOM      8  C   UNL     1      -0.076  -1.816  -4.229  1.00  0.00     0.201 C 
ATOM      9  O   UNL     1      -0.037  -3.055  -4.447  1.00  0.00    -0.288 OA
ATOM     10  C   UNL     1      -1.338  -1.198  -3.743  1.00  0.00     0.076 A 
ATOM     11  C   UNL     1      -1.288   0.069  -3.123  1.00  0.00     0.041 A 
ATOM     12  C   UNL     1       0.006   0.777  -2.994  1.00  0.00     0.194 C 
ATOM     13  O   UNL     1       0.073   1.848  -2.331  1.00  0.00    -0.289 OA
ATOM     14  C   UNL     1      -2.467   0.650  -2.624  1.00  0.00     0.059 A 
ATOM     15  C   UNL     1      -3.692  -0.014  -2.747  1.00  0.00     0.120 A 
ATOM     16  C   UNL     1      -3.747  -1.262  -3.368  1.00  0.00     0.093 A 
ATOM     17  C   UNL     1      -2.582  -1.859  -3.869  1.00  0.00     0.131 A 
ENDROOT
BRANCH   6  18
ATOM     18  O   UNL     1       2.296  -2.553  -5.900  1.00  0.00    -0.507 OA
ATOM     19  H   UNL     1       2.471  -3.494  -5.577  1.00  0.00     0.293 HD
ENDBRANCH   6  18
BRANCH  17  20
ATOM     20  O   UNL     1      -2.668  -3.102  -4.497  1.00  0.00    -0.507 OA
ATOM     21  H   UNL     1      -3.455  -3.349  -5.084  1.00  0.00     0.293 HD
ENDBRANCH  17  20
BRANCH  15  22
ATOM     22  O   UNL     1      -4.863   0.560  -2.256  1.00  0.00    -0.508 OA
ATOM     23  H   UNL     1      -4.872   1.493  -1.863  1.00  0.00     0.293 HD
ENDBRANCH  15  22
TORSDOF 3
ENDMDL
MODEL 7
REMARK VINA RESULT:    -6.968      1.993      6.800
REMARK INTER + INTRA:          -7.579
REMARK INTER:                  -7.579
REMARK INTRA:                   0.000
REMARK UNBOUND:                 0.000
REMARK SMILES Cc1cc(O)c2c(c1)C(=O)c1cc(O)cc(O)c1C2=O
REMARK SMILES IDX 1 1 2 2 8 3 7 4 6 5 4 6 3 7 19 8 20 9 18 10 11 11 9 12 10 13
REMARK SMILES IDX 12 14 13 15 15 16 16 17 5 18 17 20 14 22
REMARK H PARENT 5 19 17 21 14 23
REMARK Flexibility Score: inf
ROOT
ATOM      1  C   UNL     1      -6.122  -3.445   1.724  1.00  0.00     0.044 C 
ATOM      2  C   UNL     1      -5.100  -3.624   0.642  1.00  0.00    -0.047 A 
ATOM      3  C   UNL     1      -4.703  -2.533  -0.138  1.00  0.00     0.016 A 
ATOM      4  C   UNL     1      -3.727  -2.684  -1.140  1.00  0.00     0.038 A 
ATOM      5  C   UNL     1      -3.139  -3.950  -1.366  1.00  0.00     0.076 A 
ATOM      6  C   UNL     1      -3.476  -5.028  -0.503  1.00  0.00     0.127 A 
ATOM      7  C   UNL     1      -4.468  -4.858   0.467  1.00  0.00     0.050 A 
ATOM      8  C   UNL     1      -2.230  -4.111  -2.535  1.00  0.00     0.201 C 
ATOM      9  O   UNL     1      -2.018  -5.254  -3.019  1.00  0.00    -0.288 OA
ATOM     10  C   UNL     1      -1.659  -2.914  -3.207  1.00  0.00     0.076 A 
ATOM     11  C   UNL     1      -2.206  -1.643  -2.926  1.00  0.00     0.041 A 
ATOM     12  C   UNL     1      -3.309  -1.514  -1.948  1.00  0.00     0.194 C 
ATOM     13  O   UNL     1      -3.881  -0.400  -1.790  1.00  0.00    -0.289 OA
ATOM     14  C   UNL     1      -1.703  -0.506  -3.583  1.00  0.00     0.059 A 
ATOM     15  C   UNL     1      -0.658  -0.623  -4.505  1.00  0.00     0.120 A 
ATOM     16  C   UNL     1      -0.109  -1.876  -4.778  1.00  0.00     0.093 A 
ATOM     17  C   UNL     1      -0.598  -3.022  -4.136  1.00  0.00     0.131 A 
ENDROOT
BRANCH   6  18
ATOM     18  O   UNL     1      -2.831  -6.266  -0.546  1.00  0.00    -0.507 OA
ATOM     19  H   UNL     1      -1.869  -6.389  -0.829  1.00  0.00     0.293 HD
ENDBRANCH   6  18
BRANCH  17  20
ATOM     20  O   UNL     1      -0.022  -4.261  -4.419  1.00  0.00    -0.507 OA
ATOM     21  H   UNL     1       0.799  -4.591  -3.926  1.00  0.00     0.293 HD
ENDBRANCH  17  20
BRANCH  15  22
ATOM     22  O   UNL     1      -0.155   0.502  -5.156  1.00  0.00    -0.508 OA
ATOM     23  H   UNL     1       0.597   0.432  -5.831  1.00  0.00     0.293 HD
ENDBRANCH  15  22
TORSDOF 3
ENDMDL
MODEL 8
REMARK VINA RESULT:    -6.861      6.544      9.401
REMARK INTER + INTRA:          -7.463
REMARK INTER:                  -7.463
REMARK INTRA:                   0.000
REMARK UNBOUND:                 0.000
REMARK SMILES Cc1cc(O)c2c(c1)C(=O)c1cc(O)cc(O)c1C2=O
REMARK SMILES IDX 1 1 2 2 8 3 7 4 6 5 4 6 3 7 19 8 20 9 18 10 11 11 9 12 10 13
REMARK SMILES IDX 12 14 13 15 15 16 16 17 5 18 17 20 14 22
REMARK H PARENT 5 19 17 21 14 23
REMARK Flexibility Score: inf
ROOT
ATOM      1  C   UNL     1       2.017   6.389  -1.036  1.00  0.00     0.044 C 
ATOM      2  C   UNL     1       2.307   5.029  -1.597  1.00  0.00    -0.047 A 
ATOM      3  C   UNL     1       1.262   4.139  -1.862  1.00  0.00     0.016 A 
ATOM      4  C   UNL     1       1.521   2.870  -2.412  1.00  0.00     0.038 A 
ATOM      5  C   UNL     1       2.850   2.486  -2.701  1.00  0.00     0.076 A 
ATOM      6  C   UNL     1       3.895   3.433  -2.522  1.00  0.00     0.127 A 
ATOM      7  C   UNL     1       3.613   4.678  -1.949  1.00  0.00     0.050 A 
ATOM      8  C   UNL     1       3.104   1.082  -3.131  1.00  0.00     0.201 C 
ATOM      9  O   UNL     1       4.251   0.578  -3.000  1.00  0.00    -0.288 OA
ATOM     10  C   UNL     1       1.981   0.232  -3.609  1.00  0.00     0.076 A 
ATOM     11  C   UNL     1       0.655   0.655  -3.377  1.00  0.00     0.041 A 
ATOM     12  C   UNL     1       0.399   1.945  -2.698  1.00  0.00     0.194 C 
ATOM     13  O   UNL     1      -0.780   2.264  -2.379  1.00  0.00    -0.289 OA
ATOM     14  C   UNL     1      -0.418  -0.155  -3.789  1.00  0.00     0.059 A 
ATOM     15  C   UNL     1      -0.181  -1.373  -4.434  1.00  0.00     0.120 A 
ATOM     16  C   UNL     1       1.129  -1.789  -4.673  1.00  0.00     0.093 A 
ATOM     17  C   UNL     1       2.212  -0.997  -4.268  1.00  0.00     0.131 A 
ENDROOT
BRANCH   6  18
ATOM     18  O   UNL     1       5.210   3.201  -2.929  1.00  0.00    -0.507 OA
ATOM     19  H   UNL     1       5.977   3.829  -2.735  1.00  0.00     0.293 HD
ENDBRANCH   6  18
BRANCH  17  20
ATOM     20  O   UNL     1       3.512  -1.431  -4.531  1.00  0.00    -0.507 OA
ATOM     21  H   UNL     1       3.931  -1.334  -5.448  1.00  0.00     0.293 HD
ENDBRANCH  17  20
BRANCH  15  22
ATOM     22  O   UNL     1      -1.241  -2.178  -4.846  1.00  0.00    -0.508 OA
ATOM     23  H   UNL     1      -2.131  -2.171  -4.361  1.00  0.00     0.293 HD
ENDBRANCH  15  22
TORSDOF 3
ENDMDL
MODEL 9
REMARK VINA RESULT:    -6.861      1.603      5.622
REMARK INTER + INTRA:          -7.463
REMARK INTER:                  -7.463
REMARK INTRA:                   0.000
REMARK UNBOUND:                 0.000
REMARK SMILES Cc1cc(O)c2c(c1)C(=O)c1cc(O)cc(O)c1C2=O
REMARK SMILES IDX 1 1 2 2 8 3 7 4 6 5 4 6 3 7 19 8 20 9 18 10 11 11 9 12 10 13
REMARK SMILES IDX 12 14 13 15 15 16 16 17 5 18 17 20 14 22
REMARK H PARENT 5 19 17 21 14 23
REMARK Flexibility Score: inf
ROOT
ATOM      1  C   UNL     1      -6.770  -4.742   2.576  1.00  0.00     0.044 C 
ATOM      2  C   UNL     1      -6.042  -3.972   1.515  1.00  0.00    -0.047 A 
ATOM      3  C   UNL     1      -4.967  -4.554   0.836  1.00  0.00     0.016 A 
ATOM      4  C   UNL     1      -4.293  -3.851  -0.178  1.00  0.00     0.038 A 
ATOM      5  C   UNL     1      -4.701  -2.541  -0.518  1.00  0.00     0.076 A 
ATOM      6  C   UNL     1      -5.855  -1.996   0.108  1.00  0.00     0.127 A 
ATOM      7  C   UNL     1      -6.491  -2.706   1.132  1.00  0.00     0.050 A 
ATOM      8  C   UNL     1      -3.868  -1.766  -1.480  1.00  0.00     0.201 C 
ATOM      9  O   UNL     1      -3.930  -0.509  -1.501  1.00  0.00    -0.288 OA
ATOM     10  C   UNL     1      -2.876  -2.464  -2.340  1.00  0.00     0.076 A 
ATOM     11  C   UNL     1      -2.523  -3.796  -2.036  1.00  0.00     0.041 A 
ATOM     12  C   UNL     1      -3.163  -4.489  -0.895  1.00  0.00     0.194 C 
ATOM     13  O   UNL     1      -2.759  -5.633  -0.547  1.00  0.00    -0.289 OA
ATOM     14  C   UNL     1      -1.558  -4.458  -2.817  1.00  0.00     0.059 A 
ATOM     15  C   UNL     1      -0.952  -3.809  -3.897  1.00  0.00     0.120 A 
ATOM     16  C   UNL     1      -1.307  -2.495  -4.205  1.00  0.00     0.093 A 
ATOM     17  C   UNL     1      -2.264  -1.818  -3.438  1.00  0.00     0.131 A 
ENDROOT
BRANCH   6  18
ATOM     18  O   UNL     1      -6.426  -0.781  -0.276  1.00  0.00    -0.507 OA
ATOM     19  H   UNL     1      -6.806  -0.108   0.375  1.00  0.00     0.293 HD
ENDBRANCH   6  18
BRANCH  17  20
ATOM     20  O   UNL     1      -2.608  -0.509  -3.777  1.00  0.00    -0.507 OA
ATOM     21  H   UNL     1      -2.405  -0.124  -4.692  1.00  0.00     0.293 HD
ENDBRANCH  17  20
BRANCH  15  22
ATOM     22  O   UNL     1       0.002  -4.462  -4.674  1.00  0.00    -0.508 OA
ATOM     23  H   UNL     1       0.621  -3.951  -5.293  1.00  0.00     0.293 HD
ENDBRANCH  15  22
TORSDOF 3
ENDMDL
