MODEL 1
REMARK VINA RESULT:    -3.842      0.000      0.000
REMARK INTER + INTRA:          -3.988
REMARK INTER:                  -4.516
REMARK INTRA:                   0.528
REMARK UNBOUND:                 0.528
REMARK SMILES C=C(C)[C@H]1CC[C@]2(CO)CC[C@]3(C)[C@@H](CC[C@H]4[C@@]5(C)CC[C@H](O)C(C)(C)[C@@H]5CC[C@@]43C)[C@@H]12
REMARK SMILES IDX 4 1 5 2 6 3 7 4 32 5 14 6 15 7 16 8 17 9 18 10 20 11 21 12
REMARK SMILES IDX 22 13 24 14 27 15 28 16 29 17 30 18 12 19 11 20 10 21 13 22
REMARK SMILES IDX 31 23 25 24 26 25 19 26 2 27 3 28 1 29 8 30 9 31 23 33
REMARK H PARENT 9 32 23 34
REMARK Flexibility Score: inf
ROOT
ATOM      1  C   UNL     1      12.359 -11.147  18.268  1.00  0.00     0.018 C 
ATOM      2  C   UNL     1      11.405 -11.329  19.496  1.00  0.00     0.009 C 
ATOM      3  C   UNL     1      10.079 -11.939  18.970  1.00  0.00     0.010 C 
ATOM      4  C   UNL     1      10.053 -11.558  17.461  1.00  0.00    -0.003 C 
ATOM      5  C   UNL     1      11.532 -11.776  17.139  1.00  0.00     0.008 C 
ATOM      6  C   UNL     1      11.929 -11.848  15.631  1.00  0.00    -0.000 C 
ATOM      7  C   UNL     1      11.361 -10.663  14.797  1.00  0.00     0.005 C 
ATOM      8  C   UNL     1      11.637 -10.791  13.308  1.00  0.00     0.005 C 
ATOM      9  C   UNL     1      10.956 -12.094  12.789  1.00  0.00     0.002 C 
ATOM     10  C   UNL     1      10.638 -12.156  11.210  1.00  0.00    -0.026 C 
ATOM     11  C   UNL     1      11.649 -11.367  10.334  1.00  0.00     0.010 C 
ATOM     12  C   UNL     1      12.027 -12.043   8.989  1.00  0.00     0.033 C 
ATOM     13  C   UNL     1      10.820 -12.765   8.313  1.00  0.00     0.120 C 
ATOM     14  C   UNL     1      10.235 -13.918   9.238  1.00  0.00    -0.006 C 
ATOM     15  C   UNL     1      10.621 -13.659  10.750  1.00  0.00     0.003 C 
ATOM     16  C   UNL     1       9.970 -14.568  11.820  1.00  0.00     0.005 C 
ATOM     17  C   UNL     1      10.944 -14.726  12.996  1.00  0.00     0.008 C 
ATOM     18  C   UNL     1      11.607 -13.367  13.487  1.00  0.00    -0.024 C 
ATOM     19  C   UNL     1      11.437 -13.266  15.097  1.00  0.00    -0.024 C 
ATOM     20  C   UNL     1       9.915 -13.492  15.576  1.00  0.00     0.008 C 
ATOM     21  C   UNL     1       9.178 -12.484  16.540  1.00  0.00     0.010 C 
ATOM     22  C   UNL     1      12.328 -14.404  15.750  1.00  0.00     0.012 C 
ATOM     23  C   UNL     1      13.125 -13.421  13.096  1.00  0.00     0.012 C 
ATOM     24  C   UNL     1      10.900 -15.251   8.793  1.00  0.00     0.014 C 
ATOM     25  C   UNL     1       8.711 -14.125   9.073  1.00  0.00     0.014 C 
ATOM     26  C   UNL     1       9.222 -11.480  11.046  1.00  0.00     0.012 C 
ENDROOT
BRANCH   1  27
ATOM     27  C   UNL     1      12.918  -9.740  17.973  1.00  0.00    -0.077 C 
ATOM     28  C   UNL     1      12.998  -9.123  16.578  1.00  0.00     0.039 C 
ATOM     29  C   UNL     1      13.121  -8.888  19.006  1.00  0.00     0.008 C 
ENDBRANCH   1  27
BRANCH   4  30
ATOM     30  C   UNL     1       9.558 -10.070  17.352  1.00  0.00     0.163 C 
BRANCH  30  31
ATOM     31  O   UNL     1       8.174 -10.001  17.123  1.00  0.00    -0.396 OA
ATOM     32  H   UNL     1       7.780 -10.844  17.485  1.00  0.00     0.210 HD
ENDBRANCH  30  31
ENDBRANCH   4  30
BRANCH  13  33
ATOM     33  O   UNL     1       9.813 -11.862   7.875  1.00  0.00    -0.393 OA
ATOM     34  H   UNL     1       8.931 -12.339   7.909  1.00  0.00     0.210 HD
ENDBRANCH  13  33
TORSDOF 4
ENDMDL
