MODEL 1
REMARK VINA RESULT:    -3.697      0.000      0.000
REMARK INTER + INTRA:         -12.192
REMARK INTER:                  -8.452
REMARK INTRA:                  -3.740
REMARK UNBOUND:                -3.740
REMARK SMILES CCCCCCCCCCCCCCCCCCCCCCCC(=O)[O-]
REMARK SMILES IDX 13 1 14 2 15 3 16 4 17 5 18 6 19 7 20 8 21 9 22 10 23 11
REMARK SMILES IDX 24 12 25 13 26 14 12 15 11 16 10 17 9 18 8 19 7 20 6 21 5 22
REMARK SMILES IDX 4 23 3 24 2 25 1 26
REMARK H PARENT
REMARK Flexibility Score: inf
ROOT
ATOM      1  C   UNL     1     -93.346 146.657 239.140  1.00  0.00     0.000 C 
ENDROOT
BRANCH   1   2
ATOM      2  C   UNL     1     -94.127 146.023 240.302  1.00  0.00     0.000 C 
BRANCH   2   3
ATOM      3  C   UNL     1     -94.627 147.096 241.282  1.00  0.00     0.000 C 
BRANCH   3   4
ATOM      4  C   UNL     1     -94.454 148.523 240.735  1.00  0.00     0.000 C 
BRANCH   4   5
ATOM      5  C   UNL     1     -95.622 149.449 241.114  1.00  0.00     0.000 C 
BRANCH   5   6
ATOM      6  C   UNL     1     -96.789 148.691 241.767  1.00  0.00     0.000 C 
BRANCH   6   7
ATOM      7  C   UNL     1     -97.960 149.609 242.151  1.00  0.00     0.000 C 
BRANCH   7   8
ATOM      8  C   UNL     1     -99.305 148.894 241.948  1.00  0.00     0.000 C 
BRANCH   8   9
ATOM      9  C   UNL     1    -100.035 149.348 240.674  1.00  0.00     0.000 C 
BRANCH   9  10
ATOM     10  C   UNL     1     -99.625 150.758 240.223  1.00  0.00     0.006 C 
BRANCH  10  11
ATOM     11  C   UNL     1     -99.265 150.777 238.734  1.00  0.00     0.053 C 
BRANCH  11  12
ATOM     12  C   UNL     1     -99.814 152.005 238.079  1.00  0.00     0.041 C 
ATOM     13  O   UNL     1    -100.845 152.563 238.541  1.00  0.00    -0.550 OA
ATOM     14  O   UNL     1     -99.214 152.510 236.931  1.00  0.00    -0.550 OA
ENDBRANCH  11  12
ENDBRANCH  10  11
ENDBRANCH   9  10
ENDBRANCH   8   9
ENDBRANCH   7   8
ENDBRANCH   6   7
ENDBRANCH   5   6
ENDBRANCH   4   5
ENDBRANCH   3   4
ENDBRANCH   2   3
ENDBRANCH   1   2
BRANCH   1  15
ATOM     15  C   UNL     1     -91.955 146.027 238.953  1.00  0.00     0.000 C 
BRANCH  15  16
ATOM     16  C   UNL     1     -91.676 145.642 237.490  1.00  0.00     0.000 C 
BRANCH  16  17
ATOM     17  C   UNL     1     -92.801 146.078 236.539  1.00  0.00     0.000 C 
BRANCH  17  18
ATOM     18  C   UNL     1     -92.343 146.163 235.072  1.00  0.00    -0.000 C 
BRANCH  18  19
ATOM     19  C   UNL     1     -93.184 147.150 234.247  1.00  0.00    -0.000 C 
BRANCH  19  20
ATOM     20  C   UNL     1     -94.478 147.572 234.968  1.00  0.00    -0.000 C 
BRANCH  20  21
ATOM     21  C   UNL     1     -94.889 149.024 234.644  1.00  0.00    -0.000 C 
BRANCH  21  22
ATOM     22  C   UNL     1     -95.410 149.812 235.862  1.00  0.00    -0.000 C 
BRANCH  22  23
ATOM     23  C   UNL     1     -95.369 149.050 237.202  1.00  0.00    -0.000 C 
BRANCH  23  24
ATOM     24  C   UNL     1     -96.739 148.575 237.721  1.00  0.00    -0.000 C 
BRANCH  24  25
ATOM     25  C   UNL     1     -96.793 147.060 237.960  1.00  0.00    -0.003 C 
ATOM     26  C   UNL     1     -97.879 146.701 238.971  1.00  0.00     0.004 C 
ENDBRANCH  24  25
ENDBRANCH  23  24
ENDBRANCH  22  23
ENDBRANCH  21  22
ENDBRANCH  20  21
ENDBRANCH  19  20
ENDBRANCH  18  19
ENDBRANCH  17  18
ENDBRANCH  16  17
ENDBRANCH  15  16
ENDBRANCH   1  15
TORSDOF 22
ENDMDL
MODEL 2
REMARK VINA RESULT:    -3.667      2.835      5.570
REMARK INTER + INTRA:         -12.124
REMARK INTER:                  -8.853
REMARK INTRA:                  -3.271
REMARK UNBOUND:                -3.740
REMARK SMILES CCCCCCCCCCCCCCCCCCCCCCCC(=O)[O-]
REMARK SMILES IDX 13 1 14 2 15 3 16 4 17 5 18 6 19 7 20 8 21 9 22 10 23 11
REMARK SMILES IDX 24 12 25 13 26 14 12 15 11 16 10 17 9 18 8 19 7 20 6 21 5 22
REMARK SMILES IDX 4 23 3 24 2 25 1 26
REMARK H PARENT
REMARK Flexibility Score: inf
ROOT
ATOM      1  C   UNL     1     -92.154 146.914 234.040  1.00  0.00     0.000 C 
ENDROOT
BRANCH   1   2
ATOM      2  C   UNL     1     -92.326 145.387 234.064  1.00  0.00     0.000 C 
BRANCH   2   3
ATOM      3  C   UNL     1     -92.521 144.876 235.500  1.00  0.00     0.000 C 
BRANCH   3   4
ATOM      4  C   UNL     1     -92.452 146.003 236.543  1.00  0.00     0.000 C 
BRANCH   4   5
ATOM      5  C   UNL     1     -91.604 145.626 237.770  1.00  0.00     0.000 C 
BRANCH   5   6
ATOM      6  C   UNL     1     -92.227 146.111 239.089  1.00  0.00     0.000 C 
BRANCH   6   7
ATOM      7  C   UNL     1     -93.648 146.667 238.912  1.00  0.00     0.000 C 
BRANCH   7   8
ATOM      8  C   UNL     1     -93.741 148.108 239.435  1.00  0.00     0.000 C 
BRANCH   8   9
ATOM      9  C   UNL     1     -95.190 148.600 239.575  1.00  0.00     0.000 C 
BRANCH   9  10
ATOM     10  C   UNL     1     -95.456 149.296 240.919  1.00  0.00     0.006 C 
BRANCH  10  11
ATOM     11  C   UNL     1     -96.788 148.841 241.521  1.00  0.00     0.053 C 
BRANCH  11  12
ATOM     12  C   UNL     1     -96.819 147.351 241.656  1.00  0.00     0.041 C 
ATOM     13  O   UNL     1     -97.852 146.707 241.332  1.00  0.00    -0.550 OA
ATOM     14  O   UNL     1     -95.723 146.676 242.181  1.00  0.00    -0.550 OA
ENDBRANCH  11  12
ENDBRANCH  10  11
ENDBRANCH   9  10
ENDBRANCH   8   9
ENDBRANCH   7   8
ENDBRANCH   6   7
ENDBRANCH   5   6
ENDBRANCH   4   5
ENDBRANCH   3   4
ENDBRANCH   2   3
ENDBRANCH   1   2
BRANCH   1  15
ATOM     15  C   UNL     1     -93.020 147.587 232.962  1.00  0.00     0.000 C 
BRANCH  15  16
ATOM     16  C   UNL     1     -94.299 146.790 232.652  1.00  0.00     0.000 C 
BRANCH  16  17
ATOM     17  C   UNL     1     -95.549 147.404 233.302  1.00  0.00     0.000 C 
BRANCH  17  18
ATOM     18  C   UNL     1     -96.052 146.594 234.511  1.00  0.00    -0.000 C 
BRANCH  18  19
ATOM     19  C   UNL     1     -96.111 147.429 235.799  1.00  0.00    -0.000 C 
BRANCH  19  20
ATOM     20  C   UNL     1     -94.968 148.457 235.891  1.00  0.00    -0.000 C 
BRANCH  20  21
ATOM     21  C   UNL     1     -95.485 149.905 236.034  1.00  0.00    -0.000 C 
BRANCH  21  22
ATOM     22  C   UNL     1     -95.195 150.796 234.810  1.00  0.00    -0.000 C 
BRANCH  22  23
ATOM     23  C   UNL     1     -96.427 151.166 233.962  1.00  0.00    -0.000 C 
BRANCH  23  24
ATOM     24  C   UNL     1     -96.832 152.651 234.020  1.00  0.00    -0.000 C 
BRANCH  24  25
ATOM     25  C   UNL     1     -97.610 153.007 235.294  1.00  0.00    -0.003 C 
ATOM     26  C   UNL     1     -97.225 154.393 235.806  1.00  0.00     0.004 C 
ENDBRANCH  24  25
ENDBRANCH  23  24
ENDBRANCH  22  23
ENDBRANCH  21  22
ENDBRANCH  20  21
ENDBRANCH  19  20
ENDBRANCH  18  19
ENDBRANCH  17  18
ENDBRANCH  16  17
ENDBRANCH  15  16
ENDBRANCH   1  15
TORSDOF 22
ENDMDL
MODEL 3
REMARK VINA RESULT:    -3.627      1.716      5.793
REMARK INTER + INTRA:         -12.031
REMARK INTER:                  -8.612
REMARK INTRA:                  -3.419
REMARK UNBOUND:                -3.740
REMARK SMILES CCCCCCCCCCCCCCCCCCCCCCCC(=O)[O-]
REMARK SMILES IDX 13 1 14 2 15 3 16 4 17 5 18 6 19 7 20 8 21 9 22 10 23 11
REMARK SMILES IDX 24 12 25 13 26 14 12 15 11 16 10 17 9 18 8 19 7 20 6 21 5 22
REMARK SMILES IDX 4 23 3 24 2 25 1 26
REMARK H PARENT
REMARK Flexibility Score: inf
ROOT
ATOM      1  C   UNL     1     -93.193 146.344 237.876  1.00  0.00     0.000 C 
ENDROOT
BRANCH   1   2
ATOM      2  C   UNL     1     -92.315 145.905 236.694  1.00  0.00     0.000 C 
BRANCH   2   3
ATOM      3  C   UNL     1     -93.106 145.942 235.377  1.00  0.00     0.000 C 
BRANCH   3   4
ATOM      4  C   UNL     1     -92.392 146.749 234.280  1.00  0.00     0.000 C 
BRANCH   4   5
ATOM      5  C   UNL     1     -93.273 147.866 233.695  1.00  0.00     0.000 C 
BRANCH   5   6
ATOM      6  C   UNL     1     -94.760 147.481 233.650  1.00  0.00     0.000 C 
BRANCH   6   7
ATOM      7  C   UNL     1     -95.676 148.562 234.245  1.00  0.00     0.000 C 
BRANCH   7   8
ATOM      8  C   UNL     1     -94.878 149.830 234.585  1.00  0.00     0.000 C 
BRANCH   8   9
ATOM      9  C   UNL     1     -95.637 150.779 235.526  1.00  0.00     0.000 C 
BRANCH   9  10
ATOM     10  C   UNL     1     -96.153 152.038 234.812  1.00  0.00     0.006 C 
BRANCH  10  11
ATOM     11  C   UNL     1     -97.651 152.238 235.063  1.00  0.00     0.053 C 
BRANCH  11  12
ATOM     12  C   UNL     1     -97.887 153.495 235.840  1.00  0.00     0.041 C 
ATOM     13  O   UNL     1     -99.010 153.713 236.367  1.00  0.00    -0.550 OA
ATOM     14  O   UNL     1     -96.881 154.449 235.944  1.00  0.00    -0.550 OA
ENDBRANCH  11  12
ENDBRANCH  10  11
ENDBRANCH   9  10
ENDBRANCH   8   9
ENDBRANCH   7   8
ENDBRANCH   6   7
ENDBRANCH   5   6
ENDBRANCH   4   5
ENDBRANCH   3   4
ENDBRANCH   2   3
ENDBRANCH   1   2
BRANCH   1  15
ATOM     15  C   UNL     1     -94.465 147.080 237.424  1.00  0.00     0.000 C 
BRANCH  15  16
ATOM     16  C   UNL     1     -94.692 148.392 238.194  1.00  0.00     0.000 C 
BRANCH  16  17
ATOM     17  C   UNL     1     -93.782 148.518 239.425  1.00  0.00     0.000 C 
BRANCH  17  18
ATOM     18  C   UNL     1     -94.566 148.509 240.750  1.00  0.00    -0.000 C 
BRANCH  18  19
ATOM     19  C   UNL     1     -94.924 147.089 241.216  1.00  0.00    -0.000 C 
BRANCH  19  20
ATOM     20  C   UNL     1     -96.416 146.939 241.561  1.00  0.00    -0.000 C 
BRANCH  20  21
ATOM     21  C   UNL     1     -97.307 146.832 240.305  1.00  0.00    -0.000 C 
BRANCH  21  22
ATOM     22  C   UNL     1     -98.425 147.892 240.241  1.00  0.00    -0.000 C 
BRANCH  22  23
ATOM     23  C   UNL     1     -97.953 149.326 239.935  1.00  0.00    -0.000 C 
BRANCH  23  24
ATOM     24  C   UNL     1     -97.957 150.283 241.142  1.00  0.00    -0.000 C 
BRANCH  24  25
ATOM     25  C   UNL     1     -98.902 149.824 242.262  1.00  0.00    -0.003 C 
ATOM     26  C   UNL     1     -98.144 149.618 243.571  1.00  0.00     0.004 C 
ENDBRANCH  24  25
ENDBRANCH  23  24
ENDBRANCH  22  23
ENDBRANCH  21  22
ENDBRANCH  20  21
ENDBRANCH  19  20
ENDBRANCH  18  19
ENDBRANCH  17  18
ENDBRANCH  16  17
ENDBRANCH  15  16
ENDBRANCH   1  15
TORSDOF 22
ENDMDL
MODEL 4
REMARK VINA RESULT:    -3.603      1.690      3.290
REMARK INTER + INTRA:         -11.978
REMARK INTER:                  -7.928
REMARK INTRA:                  -4.050
REMARK UNBOUND:                -3.740
REMARK SMILES CCCCCCCCCCCCCCCCCCCCCCCC(=O)[O-]
REMARK SMILES IDX 13 1 14 2 15 3 16 4 17 5 18 6 19 7 20 8 21 9 22 10 23 11
REMARK SMILES IDX 24 12 25 13 26 14 12 15 11 16 10 17 9 18 8 19 7 20 6 21 5 22
REMARK SMILES IDX 4 23 3 24 2 25 1 26
REMARK H PARENT
REMARK Flexibility Score: inf
ROOT
ATOM      1  C   UNL     1     -93.494 146.570 239.013  1.00  0.00     0.000 C 
ENDROOT
BRANCH   1   2
ATOM      2  C   UNL     1     -93.557 148.061 239.382  1.00  0.00     0.000 C 
BRANCH   2   3
ATOM      3  C   UNL     1     -94.500 148.823 238.438  1.00  0.00     0.000 C 
BRANCH   3   4
ATOM      4  C   UNL     1     -95.542 147.907 237.776  1.00  0.00     0.000 C 
BRANCH   4   5
ATOM      5  C   UNL     1     -96.968 148.479 237.851  1.00  0.00     0.000 C 
BRANCH   5   6
ATOM      6  C   UNL     1     -97.949 147.527 238.553  1.00  0.00     0.000 C 
BRANCH   6   7
ATOM      7  C   UNL     1     -97.249 146.343 239.238  1.00  0.00     0.000 C 
BRANCH   7   8
ATOM      8  C   UNL     1     -97.395 146.429 240.765  1.00  0.00     0.000 C 
BRANCH   8   9
ATOM      9  C   UNL     1     -96.358 147.359 241.412  1.00  0.00     0.000 C 
BRANCH   9  10
ATOM     10  C   UNL     1     -97.001 148.504 242.211  1.00  0.00     0.006 C 
BRANCH  10  11
ATOM     11  C   UNL     1     -97.021 149.800 241.395  1.00  0.00     0.053 C 
BRANCH  11  12
ATOM     12  C   UNL     1     -98.430 150.242 241.149  1.00  0.00     0.041 C 
ATOM     13  O   UNL     1     -99.294 150.137 242.060  1.00  0.00    -0.550 OA
ATOM     14  O   UNL     1     -98.800 150.728 239.900  1.00  0.00    -0.550 OA
ENDBRANCH  11  12
ENDBRANCH  10  11
ENDBRANCH   9  10
ENDBRANCH   8   9
ENDBRANCH   7   8
ENDBRANCH   6   7
ENDBRANCH   5   6
ENDBRANCH   4   5
ENDBRANCH   3   4
ENDBRANCH   2   3
ENDBRANCH   1   2
BRANCH   1  15
ATOM     15  C   UNL     1     -92.051 146.044 238.933  1.00  0.00     0.000 C 
BRANCH  15  16
ATOM     16  C   UNL     1     -91.664 145.603 237.511  1.00  0.00     0.000 C 
BRANCH  16  17
ATOM     17  C   UNL     1     -92.785 145.851 236.490  1.00  0.00     0.000 C 
BRANCH  17  18
ATOM     18  C   UNL     1     -92.250 146.143 235.076  1.00  0.00    -0.000 C 
BRANCH  18  19
ATOM     19  C   UNL     1     -93.234 146.965 234.230  1.00  0.00    -0.000 C 
BRANCH  19  20
ATOM     20  C   UNL     1     -94.678 146.440 234.325  1.00  0.00    -0.000 C 
BRANCH  20  21
ATOM     21  C   UNL     1     -95.725 147.575 234.283  1.00  0.00    -0.000 C 
BRANCH  21  22
ATOM     22  C   UNL     1     -95.652 148.443 233.011  1.00  0.00    -0.000 C 
BRANCH  22  23
ATOM     23  C   UNL     1     -95.615 149.964 233.257  1.00  0.00    -0.000 C 
BRANCH  23  24
ATOM     24  C   UNL     1     -95.154 150.383 234.666  1.00  0.00    -0.000 C 
BRANCH  24  25
ATOM     25  C   UNL     1     -96.191 151.244 235.400  1.00  0.00    -0.003 C 
ATOM     26  C   UNL     1     -97.613 150.814 235.049  1.00  0.00     0.004 C 
ENDBRANCH  24  25
ENDBRANCH  23  24
ENDBRANCH  22  23
ENDBRANCH  21  22
ENDBRANCH  20  21
ENDBRANCH  19  20
ENDBRANCH  18  19
ENDBRANCH  17  18
ENDBRANCH  16  17
ENDBRANCH  15  16
ENDBRANCH   1  15
TORSDOF 22
ENDMDL
MODEL 5
REMARK VINA RESULT:    -3.585      2.875      3.793
REMARK INTER + INTRA:         -11.936
REMARK INTER:                  -9.128
REMARK INTRA:                  -2.808
REMARK UNBOUND:                -3.740
REMARK SMILES CCCCCCCCCCCCCCCCCCCCCCCC(=O)[O-]
REMARK SMILES IDX 13 1 14 2 15 3 16 4 17 5 18 6 19 7 20 8 21 9 22 10 23 11
REMARK SMILES IDX 24 12 25 13 26 14 12 15 11 16 10 17 9 18 8 19 7 20 6 21 5 22
REMARK SMILES IDX 4 23 3 24 2 25 1 26
REMARK H PARENT
REMARK Flexibility Score: inf
ROOT
ATOM      1  C   UNL     1     -92.010 145.983 239.039  1.00  0.00     0.000 C 
ENDROOT
BRANCH   1   2
ATOM      2  C   UNL     1     -93.183 146.974 239.117  1.00  0.00     0.000 C 
BRANCH   2   3
ATOM      3  C   UNL     1     -94.290 146.446 240.042  1.00  0.00     0.000 C 
BRANCH   3   4
ATOM      4  C   UNL     1     -94.617 147.418 241.188  1.00  0.00     0.000 C 
BRANCH   4   5
ATOM      5  C   UNL     1     -94.982 148.825 240.686  1.00  0.00     0.000 C 
BRANCH   5   6
ATOM      6  C   UNL     1     -96.404 149.246 241.092  1.00  0.00     0.000 C 
BRANCH   6   7
ATOM      7  C   UNL     1     -97.242 148.078 241.634  1.00  0.00     0.000 C 
BRANCH   7   8
ATOM      8  C   UNL     1     -97.787 148.400 243.035  1.00  0.00     0.000 C 
BRANCH   8   9
ATOM      9  C   UNL     1     -98.192 149.873 243.193  1.00  0.00     0.000 C 
BRANCH   9  10
ATOM     10  C   UNL     1     -99.281 150.081 244.258  1.00  0.00     0.006 C 
BRANCH  10  11
ATOM     11  C   UNL     1     -98.723 149.855 245.666  1.00  0.00     0.053 C 
BRANCH  11  12
ATOM     12  C   UNL     1     -98.929 151.072 246.511  1.00  0.00     0.041 C 
ATOM     13  O   UNL     1     -98.710 152.218 246.036  1.00  0.00    -0.550 OA
ATOM     14  O   UNL     1     -99.321 150.941 247.839  1.00  0.00    -0.550 OA
ENDBRANCH  11  12
ENDBRANCH  10  11
ENDBRANCH   9  10
ENDBRANCH   8   9
ENDBRANCH   7   8
ENDBRANCH   6   7
ENDBRANCH   5   6
ENDBRANCH   4   5
ENDBRANCH   3   4
ENDBRANCH   2   3
ENDBRANCH   1   2
BRANCH   1  15
ATOM     15  C   UNL     1     -91.615 145.651 237.590  1.00  0.00     0.000 C 
BRANCH  15  16
ATOM     16  C   UNL     1     -92.714 146.025 236.580  1.00  0.00     0.000 C 
BRANCH  16  17
ATOM     17  C   UNL     1     -92.831 145.009 235.433  1.00  0.00     0.000 C 
BRANCH  17  18
ATOM     18  C   UNL     1     -92.539 145.630 234.055  1.00  0.00    -0.000 C 
BRANCH  18  19
ATOM     19  C   UNL     1     -92.385 147.158 234.116  1.00  0.00    -0.000 C 
BRANCH  19  20
ATOM     20  C   UNL     1     -93.500 147.896 233.352  1.00  0.00    -0.000 C 
BRANCH  20  21
ATOM     21  C   UNL     1     -94.732 148.186 234.237  1.00  0.00    -0.000 C 
BRANCH  21  22
ATOM     22  C   UNL     1     -94.960 149.684 234.518  1.00  0.00    -0.000 C 
BRANCH  22  23
ATOM     23  C   UNL     1     -95.448 150.018 235.941  1.00  0.00    -0.000 C 
BRANCH  23  24
ATOM     24  C   UNL     1     -95.392 148.846 236.938  1.00  0.00    -0.000 C 
BRANCH  24  25
ATOM     25  C   UNL     1     -96.775 148.454 237.477  1.00  0.00    -0.003 C 
ATOM     26  C   UNL     1     -96.894 146.941 237.641  1.00  0.00     0.004 C 
ENDBRANCH  24  25
ENDBRANCH  23  24
ENDBRANCH  22  23
ENDBRANCH  21  22
ENDBRANCH  20  21
ENDBRANCH  19  20
ENDBRANCH  18  19
ENDBRANCH  17  18
ENDBRANCH  16  17
ENDBRANCH  15  16
ENDBRANCH   1  15
TORSDOF 22
ENDMDL
MODEL 6
REMARK VINA RESULT:    -3.531      1.504      5.577
REMARK INTER + INTRA:         -11.813
REMARK INTER:                  -8.118
REMARK INTRA:                  -3.695
REMARK UNBOUND:                -3.740
REMARK SMILES CCCCCCCCCCCCCCCCCCCCCCCC(=O)[O-]
REMARK SMILES IDX 13 1 14 2 15 3 16 4 17 5 18 6 19 7 20 8 21 9 22 10 23 11
REMARK SMILES IDX 24 12 25 13 26 14 12 15 11 16 10 17 9 18 8 19 7 20 6 21 5 22
REMARK SMILES IDX 4 23 3 24 2 25 1 26
REMARK H PARENT
REMARK Flexibility Score: inf
ROOT
ATOM      1  C   UNL     1     -93.472 146.540 239.162  1.00  0.00     0.000 C 
ENDROOT
BRANCH   1   2
ATOM      2  C   UNL     1     -92.079 146.040 238.748  1.00  0.00     0.000 C 
BRANCH   2   3
ATOM      3  C   UNL     1     -91.996 145.835 237.227  1.00  0.00     0.000 C 
BRANCH   3   4
ATOM      4  C   UNL     1     -93.354 146.020 236.530  1.00  0.00     0.000 C 
BRANCH   4   5
ATOM      5  C   UNL     1     -93.213 146.430 235.054  1.00  0.00     0.000 C 
BRANCH   5   6
ATOM      6  C   UNL     1     -94.118 147.614 234.682  1.00  0.00     0.000 C 
BRANCH   6   7
ATOM      7  C   UNL     1     -95.031 148.057 235.836  1.00  0.00     0.000 C 
BRANCH   7   8
ATOM      8  C   UNL     1     -95.350 149.556 235.737  1.00  0.00     0.000 C 
BRANCH   8   9
ATOM      9  C   UNL     1     -95.181 150.110 234.314  1.00  0.00     0.000 C 
BRANCH   9  10
ATOM     10  C   UNL     1     -95.818 151.497 234.135  1.00  0.00     0.006 C 
BRANCH  10  11
ATOM     11  C   UNL     1     -96.207 152.103 235.487  1.00  0.00     0.053 C 
BRANCH  11  12
ATOM     12  C   UNL     1     -97.424 152.961 235.345  1.00  0.00     0.041 C 
ATOM     13  O   UNL     1     -98.297 152.978 236.253  1.00  0.00    -0.550 OA
ATOM     14  O   UNL     1     -97.618 153.710 234.190  1.00  0.00    -0.550 OA
ENDBRANCH  11  12
ENDBRANCH  10  11
ENDBRANCH   9  10
ENDBRANCH   8   9
ENDBRANCH   7   8
ENDBRANCH   6   7
ENDBRANCH   5   6
ENDBRANCH   4   5
ENDBRANCH   3   4
ENDBRANCH   2   3
ENDBRANCH   1   2
BRANCH   1  15
ATOM     15  C   UNL     1     -93.502 148.057 239.415  1.00  0.00     0.000 C 
BRANCH  15  16
ATOM     16  C   UNL     1     -94.932 148.625 239.424  1.00  0.00     0.000 C 
BRANCH  16  17
ATOM     17  C   UNL     1     -95.352 149.145 240.807  1.00  0.00     0.000 C 
BRANCH  17  18
ATOM     18  C   UNL     1     -96.316 148.192 241.536  1.00  0.00    -0.000 C 
BRANCH  18  19
ATOM     19  C   UNL     1     -97.676 148.842 241.835  1.00  0.00    -0.000 C 
BRANCH  19  20
ATOM     20  C   UNL     1     -97.884 150.159 241.066  1.00  0.00    -0.000 C 
BRANCH  20  21
ATOM     21  C   UNL     1     -99.314 150.295 240.500  1.00  0.00    -0.000 C 
BRANCH  21  22
ATOM     22  C   UNL     1     -99.371 150.385 238.962  1.00  0.00    -0.000 C 
BRANCH  22  23
ATOM     23  C   UNL     1     -98.177 149.752 238.224  1.00  0.00    -0.000 C 
BRANCH  23  24
ATOM     24  C   UNL     1     -98.502 148.459 237.452  1.00  0.00    -0.000 C 
BRANCH  24  25
ATOM     25  C   UNL     1     -98.833 147.280 238.378  1.00  0.00    -0.003 C 
ATOM     26  C   UNL     1     -97.616 146.381 238.581  1.00  0.00     0.004 C 
ENDBRANCH  24  25
ENDBRANCH  23  24
ENDBRANCH  22  23
ENDBRANCH  21  22
ENDBRANCH  20  21
ENDBRANCH  19  20
ENDBRANCH  18  19
ENDBRANCH  17  18
ENDBRANCH  16  17
ENDBRANCH  15  16
ENDBRANCH   1  15
TORSDOF 22
ENDMDL
MODEL 7
REMARK VINA RESULT:    -3.497      1.615      2.950
REMARK INTER + INTRA:         -11.734
REMARK INTER:                  -8.203
REMARK INTRA:                  -3.532
REMARK UNBOUND:                -3.740
REMARK SMILES CCCCCCCCCCCCCCCCCCCCCCCC(=O)[O-]
REMARK SMILES IDX 13 1 14 2 15 3 16 4 17 5 18 6 19 7 20 8 21 9 22 10 23 11
REMARK SMILES IDX 24 12 25 13 26 14 12 15 11 16 10 17 9 18 8 19 7 20 6 21 5 22
REMARK SMILES IDX 4 23 3 24 2 25 1 26
REMARK H PARENT
REMARK Flexibility Score: inf
ROOT
ATOM      1  C   UNL     1     -94.231 148.268 240.752  1.00  0.00     0.000 C 
ENDROOT
BRANCH   1   2
ATOM      2  C   UNL     1     -95.749 148.176 240.972  1.00  0.00     0.000 C 
BRANCH   2   3
ATOM      3  C   UNL     1     -96.350 149.562 241.257  1.00  0.00     0.000 C 
BRANCH   3   4
ATOM      4  C   UNL     1     -97.568 149.498 242.191  1.00  0.00     0.000 C 
BRANCH   4   5
ATOM      5  C   UNL     1     -98.799 150.216 241.612  1.00  0.00     0.000 C 
BRANCH   5   6
ATOM      6  C   UNL     1     -99.126 149.765 240.180  1.00  0.00     0.000 C 
BRANCH   6   7
ATOM      7  C   UNL     1     -99.189 150.933 239.184  1.00  0.00     0.000 C 
BRANCH   7   8
ATOM      8  C   UNL     1    -100.191 150.637 238.056  1.00  0.00     0.000 C 
BRANCH   8   9
ATOM      9  C   UNL     1    -100.365 151.817 237.088  1.00  0.00     0.000 C 
BRANCH   9  10
ATOM     10  C   UNL     1     -99.088 152.660 236.941  1.00  0.00     0.006 C 
BRANCH  10  11
ATOM     11  C   UNL     1     -98.447 152.453 235.566  1.00  0.00     0.053 C 
BRANCH  11  12
ATOM     12  C   UNL     1     -97.200 153.271 235.441  1.00  0.00     0.041 C 
ATOM     13  O   UNL     1     -96.141 152.750 235.002  1.00  0.00    -0.550 OA
ATOM     14  O   UNL     1     -97.195 154.600 235.852  1.00  0.00    -0.550 OA
ENDBRANCH  11  12
ENDBRANCH  10  11
ENDBRANCH   9  10
ENDBRANCH   8   9
ENDBRANCH   7   8
ENDBRANCH   6   7
ENDBRANCH   5   6
ENDBRANCH   4   5
ENDBRANCH   3   4
ENDBRANCH   2   3
ENDBRANCH   1   2
BRANCH   1  15
ATOM     15  C   UNL     1     -93.849 148.237 239.262  1.00  0.00     0.000 C 
BRANCH  15  16
ATOM     16  C   UNL     1     -93.270 146.879 238.831  1.00  0.00     0.000 C 
BRANCH  16  17
ATOM     17  C   UNL     1     -93.784 146.429 237.455  1.00  0.00     0.000 C 
BRANCH  17  18
ATOM     18  C   UNL     1     -92.653 145.965 236.518  1.00  0.00    -0.000 C 
BRANCH  18  19
ATOM     19  C   UNL     1     -92.916 146.329 235.048  1.00  0.00    -0.000 C 
BRANCH  19  20
ATOM     20  C   UNL     1     -94.282 147.010 234.843  1.00  0.00    -0.000 C 
BRANCH  20  21
ATOM     21  C   UNL     1     -94.161 148.371 234.123  1.00  0.00    -0.000 C 
BRANCH  21  22
ATOM     22  C   UNL     1     -95.163 149.431 234.622  1.00  0.00    -0.000 C 
BRANCH  22  23
ATOM     23  C   UNL     1     -95.356 149.483 236.150  1.00  0.00    -0.000 C 
BRANCH  23  24
ATOM     24  C   UNL     1     -96.819 149.378 236.623  1.00  0.00    -0.000 C 
BRANCH  24  25
ATOM     25  C   UNL     1     -97.051 148.206 237.586  1.00  0.00    -0.003 C 
ATOM     26  C   UNL     1     -97.515 146.960 236.836  1.00  0.00     0.004 C 
ENDBRANCH  24  25
ENDBRANCH  23  24
ENDBRANCH  22  23
ENDBRANCH  21  22
ENDBRANCH  20  21
ENDBRANCH  19  20
ENDBRANCH  18  19
ENDBRANCH  17  18
ENDBRANCH  16  17
ENDBRANCH  15  16
ENDBRANCH   1  15
TORSDOF 22
ENDMDL
MODEL 8
REMARK VINA RESULT:    -3.494      2.153      4.258
REMARK INTER + INTRA:         -11.727
REMARK INTER:                  -7.821
REMARK INTRA:                  -3.906
REMARK UNBOUND:                -3.740
REMARK SMILES CCCCCCCCCCCCCCCCCCCCCCCC(=O)[O-]
REMARK SMILES IDX 13 1 14 2 15 3 16 4 17 5 18 6 19 7 20 8 21 9 22 10 23 11
REMARK SMILES IDX 24 12 25 13 26 14 12 15 11 16 10 17 9 18 8 19 7 20 6 21 5 22
REMARK SMILES IDX 4 23 3 24 2 25 1 26
REMARK H PARENT
REMARK Flexibility Score: inf
ROOT
ATOM      1  C   UNL     1     -94.523 148.619 238.538  1.00  0.00     0.000 C 
ENDROOT
BRANCH   1   2
ATOM      2  C   UNL     1     -93.529 148.053 239.565  1.00  0.00     0.000 C 
BRANCH   2   3
ATOM      3  C   UNL     1     -93.167 146.596 239.237  1.00  0.00     0.000 C 
BRANCH   3   4
ATOM      4  C   UNL     1     -93.618 145.614 240.330  1.00  0.00     0.000 C 
BRANCH   4   5
ATOM      5  C   UNL     1     -95.097 145.213 240.193  1.00  0.00     0.000 C 
BRANCH   5   6
ATOM      6  C   UNL     1     -95.952 145.701 241.373  1.00  0.00     0.000 C 
BRANCH   6   7
ATOM      7  C   UNL     1     -96.829 146.912 241.017  1.00  0.00     0.000 C 
BRANCH   7   8
ATOM      8  C   UNL     1     -96.614 148.057 242.019  1.00  0.00     0.000 C 
BRANCH   8   9
ATOM      9  C   UNL     1     -96.679 149.444 241.362  1.00  0.00     0.000 C 
BRANCH   9  10
ATOM     10  C   UNL     1     -98.001 150.175 241.644  1.00  0.00     0.006 C 
BRANCH  10  11
ATOM     11  C   UNL     1     -98.756 150.469 240.344  1.00  0.00     0.053 C 
BRANCH  11  12
ATOM     12  C   UNL     1     -99.866 149.485 240.151  1.00  0.00     0.041 C 
ATOM     13  O   UNL     1    -100.638 149.586 239.160  1.00  0.00    -0.550 OA
ATOM     14  O   UNL     1    -100.078 148.480 241.089  1.00  0.00    -0.550 OA
ENDBRANCH  11  12
ENDBRANCH  10  11
ENDBRANCH   9  10
ENDBRANCH   8   9
ENDBRANCH   7   8
ENDBRANCH   6   7
ENDBRANCH   5   6
ENDBRANCH   4   5
ENDBRANCH   3   4
ENDBRANCH   2   3
ENDBRANCH   1   2
BRANCH   1  15
ATOM     15  C   UNL     1     -94.749 147.667 237.351  1.00  0.00     0.000 C 
BRANCH  15  16
ATOM     16  C   UNL     1     -96.235 147.326 237.145  1.00  0.00     0.000 C 
BRANCH  16  17
ATOM     17  C   UNL     1     -97.172 148.345 237.811  1.00  0.00     0.000 C 
BRANCH  17  18
ATOM     18  C   UNL     1     -97.739 149.373 236.814  1.00  0.00    -0.000 C 
BRANCH  18  19
ATOM     19  C   UNL     1     -97.775 148.841 235.373  1.00  0.00    -0.000 C 
BRANCH  19  20
ATOM     20  C   UNL     1     -96.913 149.680 234.411  1.00  0.00    -0.000 C 
BRANCH  20  21
ATOM     21  C   UNL     1     -95.887 150.562 235.154  1.00  0.00    -0.000 C 
BRANCH  21  22
ATOM     22  C   UNL     1     -95.689 151.955 234.523  1.00  0.00    -0.000 C 
BRANCH  22  23
ATOM     23  C   UNL     1     -96.952 152.835 234.468  1.00  0.00    -0.000 C 
BRANCH  23  24
ATOM     24  C   UNL     1     -97.219 153.668 235.737  1.00  0.00    -0.000 C 
BRANCH  24  25
ATOM     25  C   UNL     1     -98.598 153.393 236.351  1.00  0.00    -0.003 C 
ATOM     26  C   UNL     1     -99.530 154.589 236.169  1.00  0.00     0.004 C 
ENDBRANCH  24  25
ENDBRANCH  23  24
ENDBRANCH  22  23
ENDBRANCH  21  22
ENDBRANCH  20  21
ENDBRANCH  19  20
ENDBRANCH  18  19
ENDBRANCH  17  18
ENDBRANCH  16  17
ENDBRANCH  15  16
ENDBRANCH   1  15
TORSDOF 22
ENDMDL
MODEL 9
REMARK VINA RESULT:    -3.457      2.673      4.105
REMARK INTER + INTRA:         -11.643
REMARK INTER:                  -7.753
REMARK INTRA:                  -3.890
REMARK UNBOUND:                -3.740
REMARK SMILES CCCCCCCCCCCCCCCCCCCCCCCC(=O)[O-]
REMARK SMILES IDX 13 1 14 2 15 3 16 4 17 5 18 6 19 7 20 8 21 9 22 10 23 11
REMARK SMILES IDX 24 12 25 13 26 14 12 15 11 16 10 17 9 18 8 19 7 20 6 21 5 22
REMARK SMILES IDX 4 23 3 24 2 25 1 26
REMARK H PARENT
REMARK Flexibility Score: inf
ROOT
ATOM      1  C   UNL     1     -94.602 148.272 240.353  1.00  0.00     0.000 C 
ENDROOT
BRANCH   1   2
ATOM      2  C   UNL     1     -94.533 146.918 241.077  1.00  0.00     0.000 C 
BRANCH   2   3
ATOM      3  C   UNL     1     -95.937 146.327 241.278  1.00  0.00     0.000 C 
BRANCH   3   4
ATOM      4  C   UNL     1     -96.511 145.714 239.990  1.00  0.00     0.000 C 
BRANCH   4   5
ATOM      5  C   UNL     1     -97.879 146.304 239.609  1.00  0.00     0.000 C 
BRANCH   5   6
ATOM      6  C   UNL     1     -97.786 147.310 238.451  1.00  0.00     0.000 C 
BRANCH   6   7
ATOM      7  C   UNL     1     -97.930 148.769 238.910  1.00  0.00     0.000 C 
BRANCH   7   8
ATOM      8  C   UNL     1     -98.650 148.847 240.265  1.00  0.00     0.000 C 
BRANCH   8   9
ATOM      9  C   UNL     1     -98.309 150.124 241.049  1.00  0.00     0.000 C 
BRANCH   9  10
ATOM     10  C   UNL     1     -97.339 149.867 242.213  1.00  0.00     0.006 C 
BRANCH  10  11
ATOM     11  C   UNL     1     -97.800 148.677 243.060  1.00  0.00     0.053 C 
BRANCH  11  12
ATOM     12  C   UNL     1     -98.452 149.154 244.320  1.00  0.00     0.041 C 
ATOM     13  O   UNL     1     -98.958 148.326 245.124  1.00  0.00    -0.550 OA
ATOM     14  O   UNL     1     -98.541 150.516 244.586  1.00  0.00    -0.550 OA
ENDBRANCH  11  12
ENDBRANCH  10  11
ENDBRANCH   9  10
ENDBRANCH   8   9
ENDBRANCH   7   8
ENDBRANCH   6   7
ENDBRANCH   5   6
ENDBRANCH   4   5
ENDBRANCH   3   4
ENDBRANCH   2   3
ENDBRANCH   1   2
BRANCH   1  15
ATOM     15  C   UNL     1     -93.948 148.230 238.962  1.00  0.00     0.000 C 
BRANCH  15  16
ATOM     16  C   UNL     1     -93.149 146.937 238.725  1.00  0.00     0.000 C 
BRANCH  16  17
ATOM     17  C   UNL     1     -93.320 146.391 237.299  1.00  0.00     0.000 C 
BRANCH  17  18
ATOM     18  C   UNL     1     -94.716 146.675 236.715  1.00  0.00    -0.000 C 
BRANCH  18  19
ATOM     19  C   UNL     1     -94.654 147.293 235.309  1.00  0.00    -0.000 C 
BRANCH  19  20
ATOM     20  C   UNL     1     -95.860 148.202 235.009  1.00  0.00    -0.000 C 
BRANCH  20  21
ATOM     21  C   UNL     1     -95.941 149.412 235.964  1.00  0.00    -0.000 C 
BRANCH  21  22
ATOM     22  C   UNL     1     -95.117 150.630 235.501  1.00  0.00    -0.000 C 
BRANCH  22  23
ATOM     23  C   UNL     1     -95.833 151.568 234.510  1.00  0.00    -0.000 C 
BRANCH  23  24
ATOM     24  C   UNL     1     -96.554 152.766 235.156  1.00  0.00    -0.000 C 
BRANCH  24  25
ATOM     25  C   UNL     1     -98.054 152.515 235.367  1.00  0.00    -0.003 C 
ATOM     26  C   UNL     1     -98.597 151.523 234.342  1.00  0.00     0.004 C 
ENDBRANCH  24  25
ENDBRANCH  23  24
ENDBRANCH  22  23
ENDBRANCH  21  22
ENDBRANCH  20  21
ENDBRANCH  19  20
ENDBRANCH  18  19
ENDBRANCH  17  18
ENDBRANCH  16  17
ENDBRANCH  15  16
ENDBRANCH   1  15
TORSDOF 22
ENDMDL
