MODEL 1
REMARK VINA RESULT:    -6.285      0.000      0.000
REMARK INTER + INTRA:          -8.866
REMARK INTER:                  -8.490
REMARK INTRA:                  -0.376
REMARK UNBOUND:                -0.376
REMARK SMILES CC(=O)CCC=C(C)CCC=C(C)C
REMARK SMILES IDX 7 1 6 2 8 3 9 4 10 5 11 6 13 7 12 8 14 9 5 10 4 11 2 12 3 13
REMARK SMILES IDX 1 14
REMARK H PARENT
REMARK Flexibility Score: inf
ROOT
ATOM      1  C   UNL     1     -11.775 -16.953  27.675  1.00  0.00    -0.077 C 
ATOM      2  C   UNL     1     -10.936 -17.458  28.608  1.00  0.00    -0.028 C 
ATOM      3  C   UNL     1     -11.353 -17.005  26.230  1.00  0.00     0.039 C 
ENDROOT
BRANCH   1   4
ATOM      4  C   UNL     1     -13.085 -16.275  28.024  1.00  0.00     0.034 C 
BRANCH   4   5
ATOM      5  C   UNL     1     -12.835 -15.018  28.865  1.00  0.00     0.032 C 
BRANCH   5   6
ATOM      6  C   UNL     1     -13.873 -13.964  28.571  1.00  0.00    -0.028 C 
ATOM      7  C   UNL     1     -14.765 -13.958  30.911  1.00  0.00     0.039 C 
ATOM      8  C   UNL     1     -14.730 -13.459  29.485  1.00  0.00    -0.080 C 
ATOM      9  C   UNL     1     -15.686 -12.377  29.054  1.00  0.00     0.039 C 
ENDBRANCH   5   6
ENDBRANCH   4   5
ENDBRANCH   1   4
BRANCH   2  10
ATOM     10  C   UNL     1     -11.214 -17.488  30.090  1.00  0.00     0.035 C 
BRANCH  10  11
ATOM     11  C   UNL     1     -11.022 -18.899  30.653  1.00  0.00     0.079 C 
BRANCH  11  12
ATOM     12  C   UNL     1     -12.353 -19.537  30.950  1.00  0.00     0.130 C 
ATOM     13  O   UNL     1     -12.563 -20.003  32.060  1.00  0.00    -0.300 OA
ATOM     14  C   UNL     1     -13.431 -19.617  29.910  1.00  0.00     0.087 C 
ENDBRANCH  11  12
ENDBRANCH  10  11
ENDBRANCH   2  10
TORSDOF 6
ENDMDL
MODEL 2
REMARK VINA RESULT:    -6.205      1.195      2.351
REMARK INTER + INTRA:          -8.758
REMARK INTER:                  -7.294
REMARK INTRA:                  -1.464
REMARK UNBOUND:                -0.376
REMARK SMILES CC(=O)CCC=C(C)CCC=C(C)C
REMARK SMILES IDX 7 1 6 2 8 3 9 4 10 5 11 6 13 7 12 8 14 9 5 10 4 11 2 12 3 13
REMARK SMILES IDX 1 14
REMARK H PARENT
REMARK Flexibility Score: inf
ROOT
ATOM      1  C   UNL     1     -13.166 -16.860  27.711  1.00  0.00    -0.077 C 
ATOM      2  C   UNL     1     -13.708 -18.075  27.957  1.00  0.00    -0.028 C 
ATOM      3  C   UNL     1     -13.944 -15.889  26.861  1.00  0.00     0.039 C 
ENDROOT
BRANCH   1   4
ATOM      4  C   UNL     1     -11.785 -16.459  28.190  1.00  0.00     0.034 C 
BRANCH   4   5
ATOM      5  C   UNL     1     -11.866 -15.232  29.105  1.00  0.00     0.032 C 
BRANCH   5   6
ATOM      6  C   UNL     1     -12.591 -15.568  30.384  1.00  0.00    -0.028 C 
ATOM      7  C   UNL     1     -14.429 -13.918  29.964  1.00  0.00     0.039 C 
ATOM      8  C   UNL     1     -13.757 -15.005  30.772  1.00  0.00    -0.080 C 
ATOM      9  C   UNL     1     -14.386 -15.470  32.059  1.00  0.00     0.039 C 
ENDBRANCH   5   6
ENDBRANCH   4   5
ENDBRANCH   1   4
BRANCH   2  10
ATOM     10  C   UNL     1     -13.061 -19.152  28.792  1.00  0.00     0.035 C 
BRANCH  10  11
ATOM     11  C   UNL     1     -13.442 -19.001  30.267  1.00  0.00     0.079 C 
BRANCH  11  12
ATOM     12  C   UNL     1     -12.279 -19.355  31.155  1.00  0.00     0.130 C 
ATOM     13  O   UNL     1     -12.452 -20.103  32.105  1.00  0.00    -0.300 OA
ATOM     14  C   UNL     1     -10.907 -18.804  30.900  1.00  0.00     0.087 C 
ENDBRANCH  11  12
ENDBRANCH  10  11
ENDBRANCH   2  10
TORSDOF 6
ENDMDL
MODEL 3
REMARK VINA RESULT:    -5.849      2.274      4.904
REMARK INTER + INTRA:          -8.276
REMARK INTER:                  -7.080
REMARK INTRA:                  -1.196
REMARK UNBOUND:                -0.376
REMARK SMILES CC(=O)CCC=C(C)CCC=C(C)C
REMARK SMILES IDX 7 1 6 2 8 3 9 4 10 5 11 6 13 7 12 8 14 9 5 10 4 11 2 12 3 13
REMARK SMILES IDX 1 14
REMARK H PARENT
REMARK Flexibility Score: inf
ROOT
ATOM      1  C   UNL     1     -11.640 -16.290  27.963  1.00  0.00    -0.077 C 
ATOM      2  C   UNL     1     -12.748 -15.532  28.128  1.00  0.00    -0.028 C 
ATOM      3  C   UNL     1     -11.519 -17.116  26.709  1.00  0.00     0.039 C 
ENDROOT
BRANCH   1   4
ATOM      4  C   UNL     1     -10.551 -16.400  29.011  1.00  0.00     0.034 C 
BRANCH   4   5
ATOM      5  C   UNL     1     -10.353 -17.860  29.432  1.00  0.00     0.032 C 
BRANCH   5   6
ATOM      6  C   UNL     1     -11.270 -18.215  30.576  1.00  0.00    -0.028 C 
ATOM      7  C   UNL     1     -12.843 -19.514  29.124  1.00  0.00     0.039 C 
ATOM      8  C   UNL     1     -12.379 -18.978  30.458  1.00  0.00    -0.080 C 
ATOM      9  C   UNL     1     -13.177 -19.283  31.699  1.00  0.00     0.039 C 
ENDBRANCH   5   6
ENDBRANCH   4   5
ENDBRANCH   1   4
BRANCH   2  10
ATOM     10  C   UNL     1     -13.015 -14.647  29.320  1.00  0.00     0.035 C 
BRANCH  10  11
ATOM     11  C   UNL     1     -13.643 -15.449  30.464  1.00  0.00     0.079 C 
BRANCH  11  12
ATOM     12  C   UNL     1     -14.471 -14.554  31.347  1.00  0.00     0.130 C 
ATOM     13  O   UNL     1     -15.142 -13.665  30.844  1.00  0.00    -0.300 OA
ATOM     14  C   UNL     1     -14.487 -14.726  32.837  1.00  0.00     0.087 C 
ENDBRANCH  11  12
ENDBRANCH  10  11
ENDBRANCH   2  10
TORSDOF 6
ENDMDL
MODEL 4
REMARK VINA RESULT:    -5.614      2.403      5.396
REMARK INTER + INTRA:          -7.960
REMARK INTER:                  -6.747
REMARK INTRA:                  -1.212
REMARK UNBOUND:                -0.376
REMARK SMILES CC(=O)CCC=C(C)CCC=C(C)C
REMARK SMILES IDX 7 1 6 2 8 3 9 4 10 5 11 6 13 7 12 8 14 9 5 10 4 11 2 12 3 13
REMARK SMILES IDX 1 14
REMARK H PARENT
REMARK Flexibility Score: inf
ROOT
ATOM      1  C   UNL     1     -11.368 -15.632  30.493  1.00  0.00    -0.077 C 
ATOM      2  C   UNL     1     -12.542 -15.508  31.153  1.00  0.00    -0.028 C 
ATOM      3  C   UNL     1     -10.098 -15.705  31.300  1.00  0.00     0.039 C 
ENDROOT
BRANCH   1   4
ATOM      4  C   UNL     1     -11.267 -15.629  28.981  1.00  0.00     0.034 C 
BRANCH   4   5
ATOM      5  C   UNL     1     -10.970 -17.039  28.457  1.00  0.00     0.032 C 
BRANCH   5   6
ATOM      6  C   UNL     1     -12.250 -17.797  28.208  1.00  0.00    -0.028 C 
ATOM      7  C   UNL     1     -12.012 -19.196  30.272  1.00  0.00     0.039 C 
ATOM      8  C   UNL     1     -12.744 -18.751  29.028  1.00  0.00    -0.080 C 
ATOM      9  C   UNL     1     -14.058 -19.395  28.670  1.00  0.00     0.039 C 
ENDBRANCH   5   6
ENDBRANCH   4   5
ENDBRANCH   1   4
BRANCH   2  10
ATOM     10  C   UNL     1     -13.896 -15.429  30.494  1.00  0.00     0.035 C 
BRANCH  10  11
ATOM     11  C   UNL     1     -14.464 -14.009  30.583  1.00  0.00     0.079 C 
BRANCH  11  12
ATOM     12  C   UNL     1     -14.677 -13.435  29.208  1.00  0.00     0.130 C 
ATOM     13  O   UNL     1     -14.166 -13.981  28.242  1.00  0.00    -0.300 OA
ATOM     14  C   UNL     1     -15.502 -12.201  28.996  1.00  0.00     0.087 C 
ENDBRANCH  11  12
ENDBRANCH  10  11
ENDBRANCH   2  10
TORSDOF 6
ENDMDL
MODEL 5
REMARK VINA RESULT:    -5.595      2.466      5.104
REMARK INTER + INTRA:          -7.933
REMARK INTER:                  -6.724
REMARK INTRA:                  -1.209
REMARK UNBOUND:                -0.376
REMARK SMILES CC(=O)CCC=C(C)CCC=C(C)C
REMARK SMILES IDX 7 1 6 2 8 3 9 4 10 5 11 6 13 7 12 8 14 9 5 10 4 11 2 12 3 13
REMARK SMILES IDX 1 14
REMARK H PARENT
REMARK Flexibility Score: inf
ROOT
ATOM      1  C   UNL     1     -10.817 -16.021  30.876  1.00  0.00    -0.077 C 
ATOM      2  C   UNL     1     -12.047 -15.473  30.741  1.00  0.00    -0.028 C 
ATOM      3  C   UNL     1      -9.906 -15.481  31.947  1.00  0.00     0.039 C 
ENDROOT
BRANCH   1   4
ATOM      4  C   UNL     1     -10.290 -17.102  29.954  1.00  0.00     0.034 C 
BRANCH   4   5
ATOM      5  C   UNL     1     -10.696 -18.490  30.462  1.00  0.00     0.032 C 
BRANCH   5   6
ATOM      6  C   UNL     1     -11.780 -19.080  29.593  1.00  0.00    -0.028 C 
ATOM      7  C   UNL     1     -13.443 -19.188  31.463  1.00  0.00     0.039 C 
ATOM      8  C   UNL     1     -13.027 -19.375  30.022  1.00  0.00    -0.080 C 
ATOM      9  C   UNL     1     -14.018 -19.923  29.029  1.00  0.00     0.039 C 
ENDBRANCH   5   6
ENDBRANCH   4   5
ENDBRANCH   1   4
BRANCH   2  10
ATOM     10  C   UNL     1     -13.074 -15.905  29.725  1.00  0.00     0.035 C 
BRANCH  10  11
ATOM     11  C   UNL     1     -12.816 -15.238  28.371  1.00  0.00     0.079 C 
BRANCH  11  12
ATOM     12  C   UNL     1     -12.965 -16.233  27.252  1.00  0.00     0.130 C 
ATOM     13  O   UNL     1     -14.081 -16.511  26.838  1.00  0.00    -0.300 OA
ATOM     14  C   UNL     1     -11.771 -16.898  26.634  1.00  0.00     0.087 C 
ENDBRANCH  11  12
ENDBRANCH  10  11
ENDBRANCH   2  10
TORSDOF 6
ENDMDL
MODEL 6
REMARK VINA RESULT:    -5.581      2.184      4.769
REMARK INTER + INTRA:          -7.914
REMARK INTER:                  -6.661
REMARK INTRA:                  -1.253
REMARK UNBOUND:                -0.376
REMARK SMILES CC(=O)CCC=C(C)CCC=C(C)C
REMARK SMILES IDX 7 1 6 2 8 3 9 4 10 5 11 6 13 7 12 8 14 9 5 10 4 11 2 12 3 13
REMARK SMILES IDX 1 14
REMARK H PARENT
REMARK Flexibility Score: inf
ROOT
ATOM      1  C   UNL     1     -11.496 -17.453  30.501  1.00  0.00    -0.077 C 
ATOM      2  C   UNL     1     -11.681 -16.138  30.760  1.00  0.00    -0.028 C 
ATOM      3  C   UNL     1     -10.091 -17.946  30.271  1.00  0.00     0.039 C 
ENDROOT
BRANCH   1   4
ATOM      4  C   UNL     1     -12.641 -18.436  30.363  1.00  0.00     0.034 C 
BRANCH   4   5
ATOM      5  C   UNL     1     -12.823 -18.850  28.898  1.00  0.00     0.032 C 
BRANCH   5   6
ATOM      6  C   UNL     1     -13.586 -17.795  28.136  1.00  0.00    -0.028 C 
ATOM      7  C   UNL     1     -11.571 -17.030  26.860  1.00  0.00     0.039 C 
ATOM      8  C   UNL     1     -13.043 -16.987  27.199  1.00  0.00    -0.080 C 
ATOM      9  C   UNL     1     -13.939 -16.006  26.489  1.00  0.00     0.039 C 
ENDBRANCH   5   6
ENDBRANCH   4   5
ENDBRANCH   1   4
BRANCH   2  10
ATOM     10  C   UNL     1     -13.019 -15.492  31.019  1.00  0.00     0.035 C 
BRANCH  10  11
ATOM     11  C   UNL     1     -13.467 -14.665  29.810  1.00  0.00     0.079 C 
BRANCH  11  12
ATOM     12  C   UNL     1     -14.674 -13.833  30.155  1.00  0.00     0.130 C 
ATOM     13  O   UNL     1     -15.191 -13.949  31.255  1.00  0.00    -0.300 OA
ATOM     14  C   UNL     1     -15.261 -12.865  29.171  1.00  0.00     0.087 C 
ENDBRANCH  11  12
ENDBRANCH  10  11
ENDBRANCH   2  10
TORSDOF 6
ENDMDL
MODEL 7
REMARK VINA RESULT:    -5.572      1.931      3.430
REMARK INTER + INTRA:          -7.903
REMARK INTER:                  -7.150
REMARK INTRA:                  -0.753
REMARK UNBOUND:                -0.376
REMARK SMILES CC(=O)CCC=C(C)CCC=C(C)C
REMARK SMILES IDX 7 1 6 2 8 3 9 4 10 5 11 6 13 7 12 8 14 9 5 10 4 11 2 12 3 13
REMARK SMILES IDX 1 14
REMARK H PARENT
REMARK Flexibility Score: inf
ROOT
ATOM      1  C   UNL     1     -10.824 -16.263  30.766  1.00  0.00    -0.077 C 
ATOM      2  C   UNL     1     -10.322 -17.497  31.008  1.00  0.00    -0.028 C 
ATOM      3  C   UNL     1      -9.875 -15.093  30.762  1.00  0.00     0.039 C 
ENDROOT
BRANCH   1   4
ATOM      4  C   UNL     1     -12.303 -15.998  30.571  1.00  0.00     0.034 C 
BRANCH   4   5
ATOM      5  C   UNL     1     -12.549 -15.264  29.248  1.00  0.00     0.032 C 
BRANCH   5   6
ATOM      6  C   UNL     1     -11.756 -15.896  28.131  1.00  0.00    -0.028 C 
ATOM      7  C   UNL     1     -13.798 -16.579  26.851  1.00  0.00     0.039 C 
ATOM      8  C   UNL     1     -12.302 -16.467  27.035  1.00  0.00    -0.080 C 
ATOM      9  C   UNL     1     -11.381 -17.023  25.980  1.00  0.00     0.039 C 
ENDBRANCH   5   6
ENDBRANCH   4   5
ENDBRANCH   1   4
BRANCH   2  10
ATOM     10  C   UNL     1     -11.136 -18.766  31.040  1.00  0.00     0.035 C 
BRANCH  10  11
ATOM     11  C   UNL     1     -11.770 -19.041  29.674  1.00  0.00     0.079 C 
BRANCH  11  12
ATOM     12  C   UNL     1     -13.187 -19.525  29.834  1.00  0.00     0.130 C 
ATOM     13  O   UNL     1     -13.658 -19.646  30.954  1.00  0.00    -0.300 OA
ATOM     14  C   UNL     1     -14.034 -19.867  28.644  1.00  0.00     0.087 C 
ENDBRANCH  11  12
ENDBRANCH  10  11
ENDBRANCH   2  10
TORSDOF 6
ENDMDL
MODEL 8
REMARK VINA RESULT:    -5.257      2.445      4.291
REMARK INTER + INTRA:          -7.477
REMARK INTER:                  -5.989
REMARK INTRA:                  -1.489
REMARK UNBOUND:                -0.376
REMARK SMILES CC(=O)CCC=C(C)CCC=C(C)C
REMARK SMILES IDX 7 1 6 2 8 3 9 4 10 5 11 6 13 7 12 8 14 9 5 10 4 11 2 12 3 13
REMARK SMILES IDX 1 14
REMARK H PARENT
REMARK Flexibility Score: inf
ROOT
ATOM      1  C   UNL     1     -12.269 -19.283  30.584  1.00  0.00    -0.077 C 
ATOM      2  C   UNL     1     -13.208 -19.398  29.617  1.00  0.00    -0.028 C 
ATOM      3  C   UNL     1     -12.582 -19.826  31.954  1.00  0.00     0.039 C 
ENDROOT
BRANCH   1   4
ATOM      4  C   UNL     1     -10.947 -18.573  30.371  1.00  0.00     0.034 C 
BRANCH   4   5
ATOM      5  C   UNL     1     -10.952 -17.205  31.063  1.00  0.00     0.032 C 
BRANCH   5   6
ATOM      6  C   UNL     1     -11.410 -16.127  30.112  1.00  0.00    -0.028 C 
ATOM      7  C   UNL     1     -13.640 -15.871  31.223  1.00  0.00     0.039 C 
ATOM      8  C   UNL     1     -12.605 -15.500  30.187  1.00  0.00    -0.080 C 
ATOM      9  C   UNL     1     -12.909 -14.412  29.190  1.00  0.00     0.039 C 
ENDBRANCH   5   6
ENDBRANCH   4   5
ENDBRANCH   1   4
BRANCH   2  10
ATOM     10  C   UNL     1     -13.046 -18.913  28.198  1.00  0.00     0.035 C 
BRANCH  10  11
ATOM     11  C   UNL     1     -13.972 -17.725  27.919  1.00  0.00     0.079 C 
BRANCH  11  12
ATOM     12  C   UNL     1     -13.362 -16.807  26.894  1.00  0.00     0.130 C 
ATOM     13  O   UNL     1     -14.060 -15.964  26.350  1.00  0.00    -0.300 OA
ATOM     14  C   UNL     1     -11.913 -16.905  26.521  1.00  0.00     0.087 C 
ENDBRANCH  11  12
ENDBRANCH  10  11
ENDBRANCH   2  10
TORSDOF 6
ENDMDL
MODEL 9
REMARK VINA RESULT:    -5.211      1.941      2.909
REMARK INTER + INTRA:          -7.415
REMARK INTER:                  -7.096
REMARK INTRA:                  -0.319
REMARK UNBOUND:                -0.376
REMARK SMILES CC(=O)CCC=C(C)CCC=C(C)C
REMARK SMILES IDX 7 1 6 2 8 3 9 4 10 5 11 6 13 7 12 8 14 9 5 10 4 11 2 12 3 13
REMARK SMILES IDX 1 14
REMARK H PARENT
REMARK Flexibility Score: inf
ROOT
ATOM      1  C   UNL     1     -10.635 -16.330  30.489  1.00  0.00    -0.077 C 
ATOM      2  C   UNL     1     -10.828 -17.625  30.831  1.00  0.00    -0.028 C 
ATOM      3  C   UNL     1     -10.044 -15.399  31.515  1.00  0.00     0.039 C 
ENDROOT
BRANCH   1   4
ATOM      4  C   UNL     1     -11.052 -15.760  29.147  1.00  0.00     0.034 C 
BRANCH   4   5
ATOM      5  C   UNL     1     -12.487 -15.224  29.211  1.00  0.00     0.032 C 
BRANCH   5   6
ATOM      6  C   UNL     1     -13.074 -15.433  30.585  1.00  0.00    -0.028 C 
ATOM      7  C   UNL     1     -14.817 -13.660  30.285  1.00  0.00     0.039 C 
ATOM      8  C   UNL     1     -14.137 -14.756  31.072  1.00  0.00    -0.080 C 
ATOM      9  C   UNL     1     -14.639 -15.101  32.450  1.00  0.00     0.039 C 
ENDBRANCH   5   6
ENDBRANCH   4   5
ENDBRANCH   1   4
BRANCH   2  10
ATOM     10  C   UNL     1     -11.401 -18.680  29.918  1.00  0.00     0.035 C 
BRANCH  10  11
ATOM     11  C   UNL     1     -12.880 -18.927  30.232  1.00  0.00     0.079 C 
BRANCH  11  12
ATOM     12  C   UNL     1     -13.669 -19.109  28.963  1.00  0.00     0.130 C 
ATOM     13  O   UNL     1     -13.998 -18.128  28.314  1.00  0.00    -0.300 OA
ATOM     14  C   UNL     1     -14.066 -20.472  28.479  1.00  0.00     0.087 C 
ENDBRANCH  11  12
ENDBRANCH  10  11
ENDBRANCH   2  10
TORSDOF 6
ENDMDL
