MODEL 1
REMARK VINA RESULT:    -6.828      0.000      0.000
REMARK INTER + INTRA:          -7.817
REMARK INTER:                  -7.427
REMARK INTRA:                  -0.390
REMARK UNBOUND:                -0.390
REMARK SMILES C=C(C)[C@H]1CC[C@]2(C)CC[C@]3(C)[C@@H](CC[C@@H]4[C@]5(C)CC[C@H](O)C(C)(C)[C@H]5CC[C@@]43C)[C@H]12
REMARK SMILES IDX 4 1 5 2 6 3 7 4 31 5 13 6 14 7 15 8 16 9 17 10 19 11 20 12
REMARK SMILES IDX 21 13 23 14 26 15 27 16 28 17 29 18 11 19 10 20 9 21 12 22
REMARK SMILES IDX 30 23 24 24 25 25 18 26 8 27 2 28 3 29 1 30 22 31
REMARK H PARENT 22 32
REMARK Flexibility Score: inf
ROOT
ATOM      1  C   UNL     1     -17.443 -12.244 -24.709  1.00  0.00     0.018 C 
ATOM      2  C   UNL     1     -16.233 -11.382 -24.377  1.00  0.00     0.009 C 
ATOM      3  C   UNL     1     -16.552  -9.999 -24.945  1.00  0.00     0.008 C 
ATOM      4  C   UNL     1     -17.721 -10.166 -25.960  1.00  0.00    -0.029 C 
ATOM      5  C   UNL     1     -17.955 -11.691 -26.053  1.00  0.00     0.006 C 
ATOM      6  C   UNL     1     -19.390 -12.211 -26.470  1.00  0.00    -0.000 C 
ATOM      7  C   UNL     1     -19.345 -12.752 -27.890  1.00  0.00     0.005 C 
ATOM      8  C   UNL     1     -20.569 -13.602 -28.191  1.00  0.00     0.005 C 
ATOM      9  C   UNL     1     -21.967 -13.035 -27.741  1.00  0.00     0.002 C 
ATOM     10  C   UNL     1     -23.093 -13.373 -28.837  1.00  0.00    -0.026 C 
ATOM     11  C   UNL     1     -23.014 -14.879 -29.294  1.00  0.00     0.010 C 
ATOM     12  C   UNL     1     -23.857 -15.196 -30.544  1.00  0.00     0.033 C 
ATOM     13  C   UNL     1     -23.503 -14.288 -31.728  1.00  0.00     0.120 C 
ATOM     14  C   UNL     1     -23.670 -12.768 -31.391  1.00  0.00    -0.006 C 
ATOM     15  C   UNL     1     -22.847 -12.431 -30.083  1.00  0.00     0.003 C 
ATOM     16  C   UNL     1     -22.848 -10.939 -29.677  1.00  0.00     0.005 C 
ATOM     17  C   UNL     1     -21.807 -10.620 -28.580  1.00  0.00     0.008 C 
ATOM     18  C   UNL     1     -21.889 -11.506 -27.282  1.00  0.00    -0.024 C 
ATOM     19  C   UNL     1     -20.645 -11.264 -26.227  1.00  0.00    -0.024 C 
ATOM     20  C   UNL     1     -20.213  -9.759 -26.251  1.00  0.00     0.008 C 
ATOM     21  C   UNL     1     -18.975  -9.452 -25.414  1.00  0.00     0.007 C 
ATOM     22  C   UNL     1     -21.122 -11.590 -24.765  1.00  0.00     0.012 C 
ATOM     23  C   UNL     1     -23.204 -11.042 -26.559  1.00  0.00     0.012 C 
ATOM     24  C   UNL     1     -23.120 -11.952 -32.598  1.00  0.00     0.014 C 
ATOM     25  C   UNL     1     -25.176 -12.406 -31.283  1.00  0.00     0.014 C 
ATOM     26  C   UNL     1     -24.516 -13.223 -28.199  1.00  0.00     0.012 C 
ATOM     27  C   UNL     1     -17.303  -9.580 -27.334  1.00  0.00     0.011 C 
ENDROOT
BRANCH   1  28
ATOM     28  C   UNL     1     -17.133 -13.739 -24.711  1.00  0.00    -0.077 C 
ATOM     29  C   UNL     1     -16.664 -14.401 -25.981  1.00  0.00     0.039 C 
ATOM     30  C   UNL     1     -17.249 -14.491 -23.601  1.00  0.00     0.008 C 
ENDBRANCH   1  28
BRANCH  13  31
ATOM     31  O   UNL     1     -22.177 -14.569 -32.117  1.00  0.00    -0.393 OA
ATOM     32  H   UNL     1     -21.697 -14.913 -31.320  1.00  0.00     0.210 HD
ENDBRANCH  13  31
TORSDOF 2
ENDMDL
MODEL 2
REMARK VINA RESULT:    -6.459      1.754      3.187
REMARK INTER + INTRA:          -7.415
REMARK INTER:                  -6.947
REMARK INTRA:                  -0.468
REMARK UNBOUND:                -0.390
REMARK SMILES C=C(C)[C@H]1CC[C@]2(C)CC[C@]3(C)[C@@H](CC[C@@H]4[C@]5(C)CC[C@H](O)C(C)(C)[C@H]5CC[C@@]43C)[C@H]12
REMARK SMILES IDX 4 1 5 2 6 3 7 4 31 5 13 6 14 7 15 8 16 9 17 10 19 11 20 12
REMARK SMILES IDX 21 13 23 14 26 15 27 16 28 17 29 18 11 19 10 20 9 21 12 22
REMARK SMILES IDX 30 23 24 24 25 25 18 26 8 27 2 28 3 29 1 30 22 31
REMARK H PARENT 22 32
REMARK Flexibility Score: inf
ROOT
ATOM      1  C   UNL     1     -19.597 -11.020 -26.407  1.00  0.00     0.018 C 
ATOM      2  C   UNL     1     -18.733  -9.769 -26.482  1.00  0.00     0.009 C 
ATOM      3  C   UNL     1     -19.265  -8.978 -27.676  1.00  0.00     0.008 C 
ATOM      4  C   UNL     1     -20.127  -9.949 -28.536  1.00  0.00    -0.029 C 
ATOM      5  C   UNL     1     -19.950 -11.334 -27.873  1.00  0.00     0.006 C 
ATOM      6  C   UNL     1     -21.096 -12.409 -28.054  1.00  0.00    -0.000 C 
ATOM      7  C   UNL     1     -20.634 -13.493 -29.014  1.00  0.00     0.005 C 
ATOM      8  C   UNL     1     -21.521 -14.724 -28.920  1.00  0.00     0.005 C 
ATOM      9  C   UNL     1     -23.078 -14.488 -28.885  1.00  0.00     0.002 C 
ATOM     10  C   UNL     1     -23.840 -15.625 -29.728  1.00  0.00    -0.026 C 
ATOM     11  C   UNL     1     -23.298 -17.062 -29.373  1.00  0.00     0.010 C 
ATOM     12  C   UNL     1     -23.767 -18.162 -30.345  1.00  0.00     0.033 C 
ATOM     13  C   UNL     1     -23.420 -17.834 -31.803  1.00  0.00     0.120 C 
ATOM     14  C   UNL     1     -24.025 -16.469 -32.273  1.00  0.00    -0.006 C 
ATOM     15  C   UNL     1     -23.592 -15.332 -31.261  1.00  0.00     0.003 C 
ATOM     16  C   UNL     1     -24.046 -13.906 -31.649  1.00  0.00     0.005 C 
ATOM     17  C   UNL     1     -23.359 -12.811 -30.800  1.00  0.00     0.008 C 
ATOM     18  C   UNL     1     -23.476 -12.982 -29.241  1.00  0.00    -0.024 C 
ATOM     19  C   UNL     1     -22.570 -11.907 -28.379  1.00  0.00    -0.024 C 
ATOM     20  C   UNL     1     -22.531 -10.530 -29.123  1.00  0.00     0.008 C 
ATOM     21  C   UNL     1     -21.602  -9.501 -28.483  1.00  0.00     0.007 C 
ATOM     22  C   UNL     1     -23.234 -11.662 -26.976  1.00  0.00     0.012 C 
ATOM     23  C   UNL     1     -24.983 -12.681 -28.913  1.00  0.00     0.012 C 
ATOM     24  C   UNL     1     -23.465 -16.166 -33.694  1.00  0.00     0.014 C 
ATOM     25  C   UNL     1     -25.563 -16.593 -32.439  1.00  0.00     0.014 C 
ATOM     26  C   UNL     1     -25.353 -15.658 -29.325  1.00  0.00     0.012 C 
ATOM     27  C   UNL     1     -19.601  -9.956 -29.995  1.00  0.00     0.011 C 
ENDROOT
BRANCH   1  28
ATOM     28  C   UNL     1     -18.930 -12.167 -25.651  1.00  0.00    -0.077 C 
ATOM     29  C   UNL     1     -17.874 -12.995 -26.336  1.00  0.00     0.039 C 
ATOM     30  C   UNL     1     -19.245 -12.455 -24.375  1.00  0.00     0.008 C 
ENDBRANCH   1  28
BRANCH  13  31
ATOM     31  O   UNL     1     -22.015 -17.828 -31.930  1.00  0.00    -0.393 OA
ATOM     32  H   UNL     1     -21.774 -17.095 -32.553  1.00  0.00     0.210 HD
ENDBRANCH  13  31
TORSDOF 2
ENDMDL
MODEL 3
REMARK VINA RESULT:    -6.244      2.127      7.713
REMARK INTER + INTRA:          -7.181
REMARK INTER:                  -6.715
REMARK INTRA:                  -0.466
REMARK UNBOUND:                -0.390
REMARK SMILES C=C(C)[C@H]1CC[C@]2(C)CC[C@]3(C)[C@@H](CC[C@@H]4[C@]5(C)CC[C@H](O)C(C)(C)[C@H]5CC[C@@]43C)[C@H]12
REMARK SMILES IDX 4 1 5 2 6 3 7 4 31 5 13 6 14 7 15 8 16 9 17 10 19 11 20 12
REMARK SMILES IDX 21 13 23 14 26 15 27 16 28 17 29 18 11 19 10 20 9 21 12 22
REMARK SMILES IDX 30 23 24 24 25 25 18 26 8 27 2 28 3 29 1 30 22 31
REMARK H PARENT 22 32
REMARK Flexibility Score: inf
ROOT
ATOM      1  C   UNL     1     -25.000 -15.627 -31.459  1.00  0.00     0.018 C 
ATOM      2  C   UNL     1     -26.470 -16.007 -31.349  1.00  0.00     0.009 C 
ATOM      3  C   UNL     1     -27.057 -15.063 -30.300  1.00  0.00     0.008 C 
ATOM      4  C   UNL     1     -25.868 -14.445 -29.507  1.00  0.00    -0.029 C 
ATOM      5  C   UNL     1     -24.612 -15.171 -30.039  1.00  0.00     0.006 C 
ATOM      6  C   UNL     1     -23.216 -14.430 -29.950  1.00  0.00    -0.000 C 
ATOM      7  C   UNL     1     -22.368 -15.066 -28.860  1.00  0.00     0.005 C 
ATOM      8  C   UNL     1     -20.909 -14.662 -28.994  1.00  0.00     0.005 C 
ATOM      9  C   UNL     1     -20.607 -13.140 -29.267  1.00  0.00     0.002 C 
ATOM     10  C   UNL     1     -19.296 -12.673 -28.464  1.00  0.00    -0.026 C 
ATOM     11  C   UNL     1     -18.119 -13.707 -28.638  1.00  0.00     0.010 C 
ATOM     12  C   UNL     1     -16.942 -13.480 -27.668  1.00  0.00     0.033 C 
ATOM     13  C   UNL     1     -17.394 -13.466 -26.202  1.00  0.00     0.120 C 
ATOM     14  C   UNL     1     -18.484 -12.379 -25.919  1.00  0.00    -0.006 C 
ATOM     15  C   UNL     1     -19.682 -12.566 -26.935  1.00  0.00     0.003 C 
ATOM     16  C   UNL     1     -20.879 -11.612 -26.716  1.00  0.00     0.005 C 
ATOM     17  C   UNL     1     -22.125 -12.024 -27.533  1.00  0.00     0.008 C 
ATOM     18  C   UNL     1     -21.898 -12.217 -29.077  1.00  0.00    -0.024 C 
ATOM     19  C   UNL     1     -23.199 -12.841 -29.873  1.00  0.00    -0.024 C 
ATOM     20  C   UNL     1     -24.523 -12.307 -29.229  1.00  0.00     0.008 C 
ATOM     21  C   UNL     1     -25.792 -12.933 -29.800  1.00  0.00     0.007 C 
ATOM     22  C   UNL     1     -23.182 -12.363 -31.371  1.00  0.00     0.012 C 
ATOM     23  C   UNL     1     -21.668 -10.766 -29.636  1.00  0.00     0.012 C 
ATOM     24  C   UNL     1     -18.982 -12.577 -24.457  1.00  0.00     0.014 C 
ATOM     25  C   UNL     1     -17.852 -10.961 -25.966  1.00  0.00     0.014 C 
ATOM     26  C   UNL     1     -18.748 -11.338 -29.075  1.00  0.00     0.012 C 
ATOM     27  C   UNL     1     -26.063 -14.707 -27.991  1.00  0.00     0.011 C 
ENDROOT
BRANCH   1  28
ATOM     28  C   UNL     1     -24.131 -16.745 -32.030  1.00  0.00    -0.077 C 
ATOM     29  C   UNL     1     -23.711 -17.889 -31.144  1.00  0.00     0.039 C 
ATOM     30  C   UNL     1     -23.737 -16.752 -33.317  1.00  0.00     0.008 C 
ENDBRANCH   1  28
BRANCH  13  31
ATOM     31  O   UNL     1     -17.874 -14.751 -25.877  1.00  0.00    -0.393 OA
ATOM     32  H   UNL     1     -17.215 -15.412 -26.214  1.00  0.00     0.210 HD
ENDBRANCH  13  31
TORSDOF 2
ENDMDL
MODEL 4
REMARK VINA RESULT:    -6.181      1.962      7.415
REMARK INTER + INTRA:          -7.113
REMARK INTER:                  -6.654
REMARK INTRA:                  -0.460
REMARK UNBOUND:                -0.390
REMARK SMILES C=C(C)[C@H]1CC[C@]2(C)CC[C@]3(C)[C@@H](CC[C@@H]4[C@]5(C)CC[C@H](O)C(C)(C)[C@H]5CC[C@@]43C)[C@H]12
REMARK SMILES IDX 4 1 5 2 6 3 7 4 31 5 13 6 14 7 15 8 16 9 17 10 19 11 20 12
REMARK SMILES IDX 21 13 23 14 26 15 27 16 28 17 29 18 11 19 10 20 9 21 12 22
REMARK SMILES IDX 30 23 24 24 25 25 18 26 8 27 2 28 3 29 1 30 22 31
REMARK H PARENT 22 32
REMARK Flexibility Score: inf
ROOT
ATOM      1  C   UNL     1     -24.084 -13.048 -31.119  1.00  0.00     0.018 C 
ATOM      2  C   UNL     1     -25.606 -13.086 -31.135  1.00  0.00     0.009 C 
ATOM      3  C   UNL     1     -26.043 -12.432 -29.824  1.00  0.00     0.008 C 
ATOM      4  C   UNL     1     -24.807 -12.410 -28.876  1.00  0.00    -0.029 C 
ATOM      5  C   UNL     1     -23.709 -13.193 -29.632  1.00  0.00     0.006 C 
ATOM      6  C   UNL     1     -22.194 -12.874 -29.305  1.00  0.00    -0.000 C 
ATOM      7  C   UNL     1     -21.593 -14.015 -28.502  1.00  0.00     0.005 C 
ATOM      8  C   UNL     1     -20.074 -13.944 -28.500  1.00  0.00     0.005 C 
ATOM      9  C   UNL     1     -19.421 -12.535 -28.242  1.00  0.00     0.002 C 
ATOM     10  C   UNL     1     -18.100 -12.682 -27.337  1.00  0.00    -0.026 C 
ATOM     11  C   UNL     1     -17.175 -13.847 -27.859  1.00  0.00     0.010 C 
ATOM     12  C   UNL     1     -16.053 -14.238 -26.878  1.00  0.00     0.033 C 
ATOM     13  C   UNL     1     -16.596 -14.604 -25.491  1.00  0.00     0.120 C 
ATOM     14  C   UNL     1     -17.433 -13.447 -24.849  1.00  0.00    -0.006 C 
ATOM     15  C   UNL     1     -18.565 -13.000 -25.860  1.00  0.00     0.003 C 
ATOM     16  C   UNL     1     -19.531 -11.919 -25.323  1.00  0.00     0.005 C 
ATOM     17  C   UNL     1     -20.774 -11.732 -26.223  1.00  0.00     0.008 C 
ATOM     18  C   UNL     1     -20.482 -11.450 -27.742  1.00  0.00    -0.024 C 
ATOM     19  C   UNL     1     -21.828 -11.451 -28.694  1.00  0.00    -0.024 C 
ATOM     20  C   UNL     1     -23.042 -10.865 -27.899  1.00  0.00     0.008 C 
ATOM     21  C   UNL     1     -24.373 -10.949 -28.640  1.00  0.00     0.007 C 
ATOM     22  C   UNL     1     -21.593 -10.523 -29.941  1.00  0.00     0.012 C 
ATOM     23  C   UNL     1     -19.894  -9.994 -27.777  1.00  0.00     0.012 C 
ATOM     24  C   UNL     1     -18.070 -13.995 -23.537  1.00  0.00     0.014 C 
ATOM     25  C   UNL     1     -16.499 -12.285 -24.416  1.00  0.00     0.014 C 
ATOM     26  C   UNL     1     -17.225 -11.390 -27.463  1.00  0.00     0.012 C 
ATOM     27  C   UNL     1     -25.168 -13.106 -27.538  1.00  0.00     0.011 C 
ENDROOT
BRANCH   1  28
ATOM     28  C   UNL     1     -23.447 -14.085 -32.041  1.00  0.00    -0.077 C 
ATOM     29  C   UNL     1     -23.327 -15.515 -31.583  1.00  0.00     0.039 C 
ATOM     30  C   UNL     1     -23.000 -13.764 -33.270  1.00  0.00     0.008 C 
ENDBRANCH   1  28
BRANCH  13  31
ATOM     31  O   UNL     1     -17.375 -15.773 -25.618  1.00  0.00    -0.393 OA
ATOM     32  H   UNL     1     -17.114 -16.216 -26.466  1.00  0.00     0.210 HD
ENDBRANCH  13  31
TORSDOF 2
ENDMDL
MODEL 5
REMARK VINA RESULT:    -5.851     13.769     17.372
REMARK INTER + INTRA:          -6.754
REMARK INTER:                  -6.473
REMARK INTRA:                  -0.280
REMARK UNBOUND:                -0.390
REMARK SMILES C=C(C)[C@H]1CC[C@]2(C)CC[C@]3(C)[C@@H](CC[C@@H]4[C@]5(C)CC[C@H](O)C(C)(C)[C@H]5CC[C@@]43C)[C@H]12
REMARK SMILES IDX 4 1 5 2 6 3 7 4 31 5 13 6 14 7 15 8 16 9 17 10 19 11 20 12
REMARK SMILES IDX 21 13 23 14 26 15 27 16 28 17 29 18 11 19 10 20 9 21 12 22
REMARK SMILES IDX 30 23 24 24 25 25 18 26 8 27 2 28 3 29 1 30 22 31
REMARK H PARENT 22 32
REMARK Flexibility Score: inf
ROOT
ATOM      1  C   UNL     1     -28.020 -24.366 -37.231  1.00  0.00     0.018 C 
ATOM      2  C   UNL     1     -28.855 -24.929 -38.373  1.00  0.00     0.009 C 
ATOM      3  C   UNL     1     -29.653 -26.081 -37.763  1.00  0.00     0.008 C 
ATOM      4  C   UNL     1     -28.977 -26.457 -36.412  1.00  0.00    -0.029 C 
ATOM      5  C   UNL     1     -27.701 -25.587 -36.347  1.00  0.00     0.006 C 
ATOM      6  C   UNL     1     -27.104 -25.227 -34.927  1.00  0.00    -0.000 C 
ATOM      7  C   UNL     1     -25.831 -26.023 -34.691  1.00  0.00     0.005 C 
ATOM      8  C   UNL     1     -25.024 -25.441 -33.542  1.00  0.00     0.005 C 
ATOM      9  C   UNL     1     -25.813 -25.049 -32.236  1.00  0.00     0.002 C 
ATOM     10  C   UNL     1     -24.948 -25.401 -30.928  1.00  0.00    -0.026 C 
ATOM     11  C   UNL     1     -23.459 -24.905 -31.074  1.00  0.00     0.010 C 
ATOM     12  C   UNL     1     -22.508 -25.463 -29.998  1.00  0.00     0.033 C 
ATOM     13  C   UNL     1     -22.529 -26.996 -29.944  1.00  0.00     0.120 C 
ATOM     14  C   UNL     1     -23.963 -27.568 -29.682  1.00  0.00    -0.006 C 
ATOM     15  C   UNL     1     -24.965 -26.971 -30.751  1.00  0.00     0.003 C 
ATOM     16  C   UNL     1     -26.409 -27.519 -30.669  1.00  0.00     0.005 C 
ATOM     17  C   UNL     1     -27.262 -27.132 -31.899  1.00  0.00     0.008 C 
ATOM     18  C   UNL     1     -27.313 -25.598 -32.240  1.00  0.00    -0.024 C 
ATOM     19  C   UNL     1     -28.070 -25.253 -33.663  1.00  0.00    -0.024 C 
ATOM     20  C   UNL     1     -29.251 -26.255 -33.893  1.00  0.00     0.008 C 
ATOM     21  C   UNL     1     -29.933 -26.115 -35.251  1.00  0.00     0.007 C 
ATOM     22  C   UNL     1     -28.688 -23.809 -33.597  1.00  0.00     0.012 C 
ATOM     23  C   UNL     1     -28.175 -24.957 -31.093  1.00  0.00     0.012 C 
ATOM     24  C   UNL     1     -23.887 -29.118 -29.823  1.00  0.00     0.014 C 
ATOM     25  C   UNL     1     -24.390 -27.294 -28.215  1.00  0.00     0.014 C 
ATOM     26  C   UNL     1     -25.511 -24.617 -29.694  1.00  0.00     0.012 C 
ATOM     27  C   UNL     1     -28.623 -27.967 -36.412  1.00  0.00     0.011 C 
ENDROOT
BRANCH   1  28
ATOM     28  C   UNL     1     -26.797 -23.587 -37.708  1.00  0.00    -0.077 C 
ATOM     29  C   UNL     1     -26.034 -22.727 -36.734  1.00  0.00     0.039 C 
ATOM     30  C   UNL     1     -26.363 -23.656 -38.980  1.00  0.00     0.008 C 
ENDBRANCH   1  28
BRANCH  13  31
ATOM     31  O   UNL     1     -22.011 -27.486 -31.161  1.00  0.00    -0.393 OA
ATOM     32  H   UNL     1     -21.399 -28.237 -30.945  1.00  0.00     0.210 HD
ENDBRANCH  13  31
TORSDOF 2
ENDMDL
MODEL 6
REMARK VINA RESULT:    -5.686     10.067     13.232
REMARK INTER + INTRA:          -6.575
REMARK INTER:                  -6.742
REMARK INTRA:                   0.167
REMARK UNBOUND:                -0.390
REMARK SMILES C=C(C)[C@H]1CC[C@]2(C)CC[C@]3(C)[C@@H](CC[C@@H]4[C@]5(C)CC[C@H](O)C(C)(C)[C@H]5CC[C@@]43C)[C@H]12
REMARK SMILES IDX 4 1 5 2 6 3 7 4 31 5 13 6 14 7 15 8 16 9 17 10 19 11 20 12
REMARK SMILES IDX 21 13 23 14 26 15 27 16 28 17 29 18 11 19 10 20 9 21 12 22
REMARK SMILES IDX 30 23 24 24 25 25 18 26 8 27 2 28 3 29 1 30 22 31
REMARK H PARENT 22 32
REMARK Flexibility Score: inf
ROOT
ATOM      1  C   UNL     1     -19.524 -25.869 -28.915  1.00  0.00     0.018 C 
ATOM      2  C   UNL     1     -18.841 -27.184 -28.561  1.00  0.00     0.009 C 
ATOM      3  C   UNL     1     -19.961 -28.222 -28.511  1.00  0.00     0.008 C 
ATOM      4  C   UNL     1     -21.312 -27.453 -28.407  1.00  0.00    -0.029 C 
ATOM      5  C   UNL     1     -20.914 -25.967 -28.258  1.00  0.00     0.006 C 
ATOM      6  C   UNL     1     -21.940 -24.859 -28.732  1.00  0.00    -0.000 C 
ATOM      7  C   UNL     1     -22.555 -24.180 -27.519  1.00  0.00     0.005 C 
ATOM      8  C   UNL     1     -23.234 -22.876 -27.907  1.00  0.00     0.005 C 
ATOM      9  C   UNL     1     -24.144 -22.893 -29.192  1.00  0.00     0.002 C 
ATOM     10  C   UNL     1     -25.445 -21.975 -28.974  1.00  0.00    -0.026 C 
ATOM     11  C   UNL     1     -25.062 -20.577 -28.353  1.00  0.00     0.010 C 
ATOM     12  C   UNL     1     -26.272 -19.769 -27.845  1.00  0.00     0.033 C 
ATOM     13  C   UNL     1     -27.116 -20.559 -26.837  1.00  0.00     0.120 C 
ATOM     14  C   UNL     1     -27.637 -21.914 -27.420  1.00  0.00    -0.006 C 
ATOM     15  C   UNL     1     -26.414 -22.742 -27.988  1.00  0.00     0.003 C 
ATOM     16  C   UNL     1     -26.768 -24.150 -28.519  1.00  0.00     0.005 C 
ATOM     17  C   UNL     1     -25.517 -25.017 -28.787  1.00  0.00     0.008 C 
ATOM     18  C   UNL     1     -24.427 -24.374 -29.721  1.00  0.00    -0.024 C 
ATOM     19  C   UNL     1     -23.032 -25.247 -29.822  1.00  0.00    -0.024 C 
ATOM     20  C   UNL     1     -23.357 -26.777 -29.756  1.00  0.00     0.008 C 
ATOM     21  C   UNL     1     -22.124 -27.675 -29.699  1.00  0.00     0.007 C 
ATOM     22  C   UNL     1     -22.337 -24.975 -31.206  1.00  0.00     0.012 C 
ATOM     23  C   UNL     1     -25.073 -24.371 -31.153  1.00  0.00     0.012 C 
ATOM     24  C   UNL     1     -28.323 -22.696 -26.261  1.00  0.00     0.014 C 
ATOM     25  C   UNL     1     -28.747 -21.653 -28.474  1.00  0.00     0.014 C 
ATOM     26  C   UNL     1     -26.091 -21.632 -30.359  1.00  0.00     0.012 C 
ATOM     27  C   UNL     1     -22.097 -27.948 -27.165  1.00  0.00     0.011 C 
ENDROOT
BRANCH   1  28
ATOM     28  C   UNL     1     -18.711 -24.642 -28.509  1.00  0.00    -0.077 C 
ATOM     29  C   UNL     1     -17.236 -24.591 -28.814  1.00  0.00     0.039 C 
ATOM     30  C   UNL     1     -19.276 -23.586 -27.896  1.00  0.00     0.008 C 
ENDBRANCH   1  28
BRANCH  13  31
ATOM     31  O   UNL     1     -26.332 -20.779 -25.685  1.00  0.00    -0.393 OA
ATOM     32  H   UNL     1     -25.473 -20.299 -25.811  1.00  0.00     0.210 HD
ENDBRANCH  13  31
TORSDOF 2
ENDMDL
MODEL 7
REMARK VINA RESULT:    -5.610      2.270      7.207
REMARK INTER + INTRA:          -6.492
REMARK INTER:                  -6.090
REMARK INTRA:                  -0.401
REMARK UNBOUND:                -0.390
REMARK SMILES C=C(C)[C@H]1CC[C@]2(C)CC[C@]3(C)[C@@H](CC[C@@H]4[C@]5(C)CC[C@H](O)C(C)(C)[C@H]5CC[C@@]43C)[C@H]12
REMARK SMILES IDX 4 1 5 2 6 3 7 4 31 5 13 6 14 7 15 8 16 9 17 10 19 11 20 12
REMARK SMILES IDX 21 13 23 14 26 15 27 16 28 17 29 18 11 19 10 20 9 21 12 22
REMARK SMILES IDX 30 23 24 24 25 25 18 26 8 27 2 28 3 29 1 30 22 31
REMARK H PARENT 22 32
REMARK Flexibility Score: inf
ROOT
ATOM      1  C   UNL     1     -23.020 -11.860 -30.445  1.00  0.00     0.018 C 
ATOM      2  C   UNL     1     -24.255 -10.991 -30.245  1.00  0.00     0.009 C 
ATOM      3  C   UNL     1     -23.973 -10.168 -28.989  1.00  0.00     0.008 C 
ATOM      4  C   UNL     1     -22.796 -10.853 -28.232  1.00  0.00    -0.029 C 
ATOM      5  C   UNL     1     -22.520 -12.155 -29.018  1.00  0.00     0.006 C 
ATOM      6  C   UNL     1     -21.070 -12.784 -28.951  1.00  0.00    -0.000 C 
ATOM      7  C   UNL     1     -21.096 -14.036 -28.089  1.00  0.00     0.005 C 
ATOM      8  C   UNL     1     -19.848 -14.877 -28.307  1.00  0.00     0.005 C 
ATOM      9  C   UNL     1     -18.467 -14.121 -28.337  1.00  0.00     0.002 C 
ATOM     10  C   UNL     1     -17.329 -14.994 -27.612  1.00  0.00    -0.026 C 
ATOM     11  C   UNL     1     -17.365 -16.495 -28.092  1.00  0.00     0.010 C 
ATOM     12  C   UNL     1     -16.510 -17.445 -27.231  1.00  0.00     0.033 C 
ATOM     13  C   UNL     1     -16.886 -17.377 -25.745  1.00  0.00     0.120 C 
ATOM     14  C   UNL     1     -16.761 -15.932 -25.158  1.00  0.00    -0.006 C 
ATOM     15  C   UNL     1     -17.597 -14.931 -26.055  1.00  0.00     0.003 C 
ATOM     16  C   UNL     1     -17.639 -13.474 -25.543  1.00  0.00     0.005 C 
ATOM     17  C   UNL     1     -18.692 -12.614 -26.279  1.00  0.00     0.008 C 
ATOM     18  C   UNL     1     -18.589 -12.604 -27.849  1.00  0.00    -0.024 C 
ATOM     19  C   UNL     1     -19.842 -11.837 -28.597  1.00  0.00    -0.024 C 
ATOM     20  C   UNL     1     -20.316 -10.623 -27.729  1.00  0.00     0.008 C 
ATOM     21  C   UNL     1     -21.565  -9.925 -28.261  1.00  0.00     0.007 C 
ATOM     22  C   UNL     1     -19.361 -11.264 -29.979  1.00  0.00     0.012 C 
ATOM     23  C   UNL     1     -17.290 -11.780 -28.164  1.00  0.00     0.012 C 
ATOM     24  C   UNL     1     -17.330 -15.958 -23.709  1.00  0.00     0.014 C 
ATOM     25  C   UNL     1     -15.267 -15.535 -25.022  1.00  0.00     0.014 C 
ATOM     26  C   UNL     1     -15.913 -14.474 -28.033  1.00  0.00     0.012 C 
ATOM     27  C   UNL     1     -23.226 -11.161 -26.774  1.00  0.00     0.011 C 
ENDROOT
BRANCH   1  28
ATOM     28  C   UNL     1     -23.290 -13.099 -31.295  1.00  0.00    -0.077 C 
ATOM     29  C   UNL     1     -23.765 -14.368 -30.635  1.00  0.00     0.039 C 
ATOM     30  C   UNL     1     -23.131 -13.093 -32.632  1.00  0.00     0.008 C 
ENDBRANCH   1  28
BRANCH  13  31
ATOM     31  O   UNL     1     -18.202 -17.863 -25.602  1.00  0.00    -0.393 OA
ATOM     32  H   UNL     1     -18.195 -18.825 -25.843  1.00  0.00     0.210 HD
ENDBRANCH  13  31
TORSDOF 2
ENDMDL
MODEL 8
REMARK VINA RESULT:    -5.607      2.332      7.877
REMARK INTER + INTRA:          -6.488
REMARK INTER:                  -6.055
REMARK INTRA:                  -0.433
REMARK UNBOUND:                -0.390
REMARK SMILES C=C(C)[C@H]1CC[C@]2(C)CC[C@]3(C)[C@@H](CC[C@@H]4[C@]5(C)CC[C@H](O)C(C)(C)[C@H]5CC[C@@]43C)[C@H]12
REMARK SMILES IDX 4 1 5 2 6 3 7 4 31 5 13 6 14 7 15 8 16 9 17 10 19 11 20 12
REMARK SMILES IDX 21 13 23 14 26 15 27 16 28 17 29 18 11 19 10 20 9 21 12 22
REMARK SMILES IDX 30 23 24 24 25 25 18 26 8 27 2 28 3 29 1 30 22 31
REMARK H PARENT 22 32
REMARK Flexibility Score: inf
ROOT
ATOM      1  C   UNL     1     -24.891 -16.774 -31.837  1.00  0.00     0.018 C 
ATOM      2  C   UNL     1     -25.954 -17.854 -31.688  1.00  0.00     0.009 C 
ATOM      3  C   UNL     1     -26.829 -17.404 -30.519  1.00  0.00     0.008 C 
ATOM      4  C   UNL     1     -26.039 -16.317 -29.731  1.00  0.00    -0.029 C 
ATOM      5  C   UNL     1     -24.647 -16.271 -30.401  1.00  0.00     0.006 C 
ATOM      6  C   UNL     1     -23.810 -14.931 -30.312  1.00  0.00    -0.000 C 
ATOM      7  C   UNL     1     -22.656 -15.114 -29.340  1.00  0.00     0.005 C 
ATOM      8  C   UNL     1     -21.617 -14.017 -29.510  1.00  0.00     0.005 C 
ATOM      9  C   UNL     1     -22.146 -12.540 -29.642  1.00  0.00     0.002 C 
ATOM     10  C   UNL     1     -21.174 -11.520 -28.867  1.00  0.00    -0.026 C 
ATOM     11  C   UNL     1     -19.661 -11.801 -29.207  1.00  0.00     0.010 C 
ATOM     12  C   UNL     1     -18.669 -11.068 -28.285  1.00  0.00     0.033 C 
ATOM     13  C   UNL     1     -18.921 -11.373 -26.802  1.00  0.00     0.120 C 
ATOM     14  C   UNL     1     -20.375 -11.009 -26.353  1.00  0.00    -0.006 C 
ATOM     15  C   UNL     1     -21.411 -11.717 -27.317  1.00  0.00     0.003 C 
ATOM     16  C   UNL     1     -22.897 -11.519 -26.938  1.00  0.00     0.005 C 
ATOM     17  C   UNL     1     -23.842 -12.456 -27.725  1.00  0.00     0.008 C 
ATOM     18  C   UNL     1     -23.700 -12.412 -29.290  1.00  0.00    -0.024 C 
ATOM     19  C   UNL     1     -24.584 -13.562 -30.075  1.00  0.00    -0.024 C 
ATOM     20  C   UNL     1     -25.927 -13.814 -29.310  1.00  0.00     0.008 C 
ATOM     21  C   UNL     1     -26.760 -14.961 -29.873  1.00  0.00     0.007 C 
ATOM     22  C   UNL     1     -24.954 -13.051 -31.515  1.00  0.00     0.012 C 
ATOM     23  C   UNL     1     -24.284 -11.016 -29.710  1.00  0.00     0.012 C 
ATOM     24  C   UNL     1     -20.562 -11.521 -24.894  1.00  0.00     0.014 C 
ATOM     25  C   UNL     1     -20.547  -9.468 -26.289  1.00  0.00     0.014 C 
ATOM     26  C   UNL     1     -21.432 -10.058 -29.368  1.00  0.00     0.012 C 
ATOM     27  C   UNL     1     -25.928 -16.734 -28.242  1.00  0.00     0.011 C 
ENDROOT
BRANCH   1  28
ATOM     28  C   UNL     1     -23.639 -17.259 -32.565  1.00  0.00    -0.077 C 
ATOM     29  C   UNL     1     -23.454 -16.935 -34.025  1.00  0.00     0.039 C 
ATOM     30  C   UNL     1     -22.678 -17.960 -31.936  1.00  0.00     0.008 C 
ENDBRANCH   1  28
BRANCH  13  31
ATOM     31  O   UNL     1     -18.658 -12.742 -26.585  1.00  0.00    -0.393 OA
ATOM     32  H   UNL     1     -19.068 -12.991 -25.716  1.00  0.00     0.210 HD
ENDBRANCH  13  31
TORSDOF 2
ENDMDL
MODEL 9
REMARK VINA RESULT:    -5.323     11.595     15.317
REMARK INTER + INTRA:          -6.180
REMARK INTER:                  -5.715
REMARK INTRA:                  -0.465
REMARK UNBOUND:                -0.390
REMARK SMILES C=C(C)[C@H]1CC[C@]2(C)CC[C@]3(C)[C@@H](CC[C@@H]4[C@]5(C)CC[C@H](O)C(C)(C)[C@H]5CC[C@@]43C)[C@H]12
REMARK SMILES IDX 4 1 5 2 6 3 7 4 31 5 13 6 14 7 15 8 16 9 17 10 19 11 20 12
REMARK SMILES IDX 21 13 23 14 26 15 27 16 28 17 29 18 11 19 10 20 9 21 12 22
REMARK SMILES IDX 30 23 24 24 25 25 18 26 8 27 2 28 3 29 1 30 22 31
REMARK H PARENT 22 32
REMARK Flexibility Score: inf
ROOT
ATOM      1  C   UNL     1     -23.338 -24.592 -27.239  1.00  0.00     0.018 C 
ATOM      2  C   UNL     1     -23.068 -25.139 -25.844  1.00  0.00     0.009 C 
ATOM      3  C   UNL     1     -23.129 -26.659 -25.985  1.00  0.00     0.008 C 
ATOM      4  C   UNL     1     -23.846 -26.978 -27.330  1.00  0.00    -0.029 C 
ATOM      5  C   UNL     1     -24.311 -25.607 -27.869  1.00  0.00     0.006 C 
ATOM      6  C   UNL     1     -24.510 -25.438 -29.430  1.00  0.00    -0.000 C 
ATOM      7  C   UNL     1     -25.994 -25.377 -29.753  1.00  0.00     0.005 C 
ATOM      8  C   UNL     1     -26.230 -24.834 -31.153  1.00  0.00     0.005 C 
ATOM      9  C   UNL     1     -25.322 -25.404 -32.307  1.00  0.00     0.002 C 
ATOM     10  C   UNL     1     -26.174 -25.582 -33.659  1.00  0.00    -0.026 C 
ATOM     11  C   UNL     1     -27.045 -24.303 -33.960  1.00  0.00     0.010 C 
ATOM     12  C   UNL     1     -28.100 -24.514 -35.063  1.00  0.00     0.033 C 
ATOM     13  C   UNL     1     -29.026 -25.699 -34.761  1.00  0.00     0.120 C 
ATOM     14  C   UNL     1     -28.242 -27.040 -34.564  1.00  0.00    -0.006 C 
ATOM     15  C   UNL     1     -27.122 -26.832 -33.466  1.00  0.00     0.003 C 
ATOM     16  C   UNL     1     -26.321 -28.103 -33.101  1.00  0.00     0.005 C 
ATOM     17  C   UNL     1     -25.454 -27.917 -31.835  1.00  0.00     0.008 C 
ATOM     18  C   UNL     1     -24.480 -26.682 -31.849  1.00  0.00    -0.024 C 
ATOM     19  C   UNL     1     -23.721 -26.411 -30.410  1.00  0.00    -0.024 C 
ATOM     20  C   UNL     1     -23.418 -27.775 -29.705  1.00  0.00     0.008 C 
ATOM     21  C   UNL     1     -22.842 -27.636 -28.299  1.00  0.00     0.007 C 
ATOM     22  C   UNL     1     -22.343 -25.700 -30.666  1.00  0.00     0.012 C 
ATOM     23  C   UNL     1     -23.368 -27.056 -32.893  1.00  0.00     0.012 C 
ATOM     24  C   UNL     1     -29.261 -28.120 -34.096  1.00  0.00     0.014 C 
ATOM     25  C   UNL     1     -27.686 -27.541 -35.924  1.00  0.00     0.014 C 
ATOM     26  C   UNL     1     -25.205 -25.703 -34.883  1.00  0.00     0.012 C 
ATOM     27  C   UNL     1     -25.055 -27.913 -27.064  1.00  0.00     0.011 C 
ENDROOT
BRANCH   1  28
ATOM     28  C   UNL     1     -23.838 -23.149 -27.232  1.00  0.00    -0.077 C 
ATOM     29  C   UNL     1     -24.959 -22.753 -26.306  1.00  0.00     0.039 C 
ATOM     30  C   UNL     1     -23.293 -22.205 -28.021  1.00  0.00     0.008 C 
ENDBRANCH   1  28
BRANCH  13  31
ATOM     31  O   UNL     1     -29.778 -25.388 -33.609  1.00  0.00    -0.393 OA
ATOM     32  H   UNL     1     -30.505 -26.058 -33.535  1.00  0.00     0.210 HD
ENDBRANCH  13  31
TORSDOF 2
ENDMDL
