MODEL 1
REMARK VINA RESULT:    -2.777      0.000      0.000
REMARK INTER + INTRA:          -3.511
REMARK INTER:                  -3.427
REMARK INTRA:                  -0.084
REMARK UNBOUND:                -0.084
REMARK SMILES CCCCCC(=O)[O-]
REMARK SMILES IDX 4 1 5 2 6 3 7 4 8 5 3 6 2 7 1 8
REMARK H PARENT
REMARK Flexibility Score: inf
ROOT
ATOM      1  C   UNL     1      64.748  34.054  60.720  1.00  0.00     0.006 C 
ENDROOT
BRANCH   1   2
ATOM      2  C   UNL     1      64.540  32.900  59.726  1.00  0.00     0.053 C 
BRANCH   2   3
ATOM      3  C   UNL     1      65.298  31.671  60.124  1.00  0.00     0.041 C 
ATOM      4  O   UNL     1      65.058  31.109  61.225  1.00  0.00    -0.550 OA
ATOM      5  O   UNL     1      66.245  31.129  59.265  1.00  0.00    -0.550 OA
ENDBRANCH   2   3
ENDBRANCH   1   2
BRANCH   1   6
ATOM      6  C   UNL     1      63.622  35.105  60.713  1.00  0.00     0.000 C 
BRANCH   6   7
ATOM      7  C   UNL     1      63.752  36.121  61.857  1.00  0.00    -0.003 C 
ATOM      8  C   UNL     1      64.961  35.810  62.734  1.00  0.00     0.004 C 
ENDBRANCH   6   7
ENDBRANCH   1   6
TORSDOF 4
ENDMDL
MODEL 2
REMARK VINA RESULT:    -2.711      2.873      4.393
REMARK INTER + INTRA:          -3.429
REMARK INTER:                  -3.311
REMARK INTRA:                  -0.118
REMARK UNBOUND:                -0.084
REMARK SMILES CCCCCC(=O)[O-]
REMARK SMILES IDX 4 1 5 2 6 3 7 4 8 5 3 6 2 7 1 8
REMARK H PARENT
REMARK Flexibility Score: inf
ROOT
ATOM      1  C   UNL     1      64.148  33.696  59.978  1.00  0.00     0.006 C 
ENDROOT
BRANCH   1   2
ATOM      2  C   UNL     1      65.074  34.216  61.090  1.00  0.00     0.053 C 
BRANCH   2   3
ATOM      3  C   UNL     1      64.454  35.343  61.857  1.00  0.00     0.041 C 
ATOM      4  O   UNL     1      63.332  35.800  61.514  1.00  0.00    -0.550 OA
ATOM      5  O   UNL     1      65.100  35.866  62.969  1.00  0.00    -0.550 OA
ENDBRANCH   2   3
ENDBRANCH   1   2
BRANCH   1   6
ATOM      6  C   UNL     1      64.272  32.186  59.707  1.00  0.00     0.000 C 
BRANCH   6   7
ATOM      7  C   UNL     1      65.212  31.479  60.693  1.00  0.00    -0.003 C 
ATOM      8  C   UNL     1      64.630  30.144  61.147  1.00  0.00     0.004 C 
ENDBRANCH   6   7
ENDBRANCH   1   6
TORSDOF 4
ENDMDL
MODEL 3
REMARK VINA RESULT:    -2.674      7.490      8.562
REMARK INTER + INTRA:          -3.384
REMARK INTER:                  -3.155
REMARK INTRA:                  -0.228
REMARK UNBOUND:                -0.084
REMARK SMILES CCCCCC(=O)[O-]
REMARK SMILES IDX 4 1 5 2 6 3 7 4 8 5 3 6 2 7 1 8
REMARK H PARENT
REMARK Flexibility Score: inf
ROOT
ATOM      1  C   UNL     1      73.322  31.084  60.584  1.00  0.00     0.006 C 
ENDROOT
BRANCH   1   2
ATOM      2  C   UNL     1      72.480  32.358  60.406  1.00  0.00     0.053 C 
BRANCH   2   3
ATOM      3  C   UNL     1      71.873  32.444  59.039  1.00  0.00     0.041 C 
ATOM      4  O   UNL     1      71.084  31.547  58.640  1.00  0.00    -0.550 OA
ATOM      5  O   UNL     1      72.152  33.530  58.220  1.00  0.00    -0.550 OA
ENDBRANCH   2   3
ENDBRANCH   1   2
BRANCH   1   6
ATOM      6  C   UNL     1      72.771  30.104  61.636  1.00  0.00     0.000 C 
BRANCH   6   7
ATOM      7  C   UNL     1      72.048  28.904  61.009  1.00  0.00    -0.003 C 
ATOM      8  C   UNL     1      70.534  29.081  61.071  1.00  0.00     0.004 C 
ENDBRANCH   6   7
ENDBRANCH   1   6
TORSDOF 4
ENDMDL
MODEL 4
REMARK VINA RESULT:    -2.657      7.812      8.773
REMARK INTER + INTRA:          -3.362
REMARK INTER:                  -3.141
REMARK INTRA:                  -0.221
REMARK UNBOUND:                -0.084
REMARK SMILES CCCCCC(=O)[O-]
REMARK SMILES IDX 4 1 5 2 6 3 7 4 8 5 3 6 2 7 1 8
REMARK H PARENT
REMARK Flexibility Score: inf
ROOT
ATOM      1  C   UNL     1      71.222  30.233  60.129  1.00  0.00     0.006 C 
ENDROOT
BRANCH   1   2
ATOM      2  C   UNL     1      72.301  30.953  59.305  1.00  0.00     0.053 C 
BRANCH   2   3
ATOM      3  C   UNL     1      72.210  32.442  59.438  1.00  0.00     0.041 C 
ATOM      4  O   UNL     1      71.985  33.156  58.426  1.00  0.00    -0.550 OA
ATOM      5  O   UNL     1      72.341  33.038  60.686  1.00  0.00    -0.550 OA
ENDBRANCH   2   3
ENDBRANCH   1   2
BRANCH   1   6
ATOM      6  C   UNL     1      71.724  29.663  61.468  1.00  0.00     0.000 C 
BRANCH   6   7
ATOM      7  C   UNL     1      73.236  29.398  61.472  1.00  0.00    -0.003 C 
ATOM      8  C   UNL     1      73.934  30.213  62.556  1.00  0.00     0.004 C 
ENDBRANCH   6   7
ENDBRANCH   1   6
TORSDOF 4
ENDMDL
MODEL 5
REMARK VINA RESULT:    -2.653      7.526      8.489
REMARK INTER + INTRA:          -3.358
REMARK INTER:                  -3.224
REMARK INTRA:                  -0.134
REMARK UNBOUND:                -0.084
REMARK SMILES CCCCCC(=O)[O-]
REMARK SMILES IDX 4 1 5 2 6 3 7 4 8 5 3 6 2 7 1 8
REMARK H PARENT
REMARK Flexibility Score: inf
ROOT
ATOM      1  C   UNL     1      72.618  31.501  59.720  1.00  0.00     0.006 C 
ENDROOT
BRANCH   1   2
ATOM      2  C   UNL     1      73.741  30.670  60.361  1.00  0.00     0.053 C 
BRANCH   2   3
ATOM      3  C   UNL     1      73.253  29.873  61.531  1.00  0.00     0.041 C 
ATOM      4  O   UNL     1      73.772  30.032  62.666  1.00  0.00    -0.550 OA
ATOM      5  O   UNL     1      72.202  28.978  61.373  1.00  0.00    -0.550 OA
ENDBRANCH   2   3
ENDBRANCH   1   2
BRANCH   1   6
ATOM      6  C   UNL     1      72.270  32.792  60.484  1.00  0.00     0.000 C 
BRANCH   6   7
ATOM      7  C   UNL     1      71.549  33.826  59.608  1.00  0.00    -0.003 C 
ATOM      8  C   UNL     1      71.846  33.595  58.129  1.00  0.00     0.004 C 
ENDBRANCH   6   7
ENDBRANCH   1   6
TORSDOF 4
ENDMDL
MODEL 6
REMARK VINA RESULT:    -2.625     14.738     15.403
REMARK INTER + INTRA:          -3.324
REMARK INTER:                  -3.260
REMARK INTRA:                  -0.064
REMARK UNBOUND:                -0.084
REMARK SMILES CCCCCC(=O)[O-]
REMARK SMILES IDX 4 1 5 2 6 3 7 4 8 5 3 6 2 7 1 8
REMARK H PARENT
REMARK Flexibility Score: inf
ROOT
ATOM      1  C   UNL     1      57.247  25.703  50.795  1.00  0.00     0.006 C 
ENDROOT
BRANCH   1   2
ATOM      2  C   UNL     1      58.477  25.292  49.972  1.00  0.00     0.053 C 
BRANCH   2   3
ATOM      3  C   UNL     1      59.261  24.202  50.637  1.00  0.00     0.041 C 
ATOM      4  O   UNL     1      60.267  23.707  50.066  1.00  0.00    -0.550 OA
ATOM      5  O   UNL     1      58.898  23.758  51.902  1.00  0.00    -0.550 OA
ENDBRANCH   2   3
ENDBRANCH   1   2
BRANCH   1   6
ATOM      6  C   UNL     1      55.921  25.668  50.013  1.00  0.00     0.000 C 
BRANCH   6   7
ATOM      7  C   UNL     1      55.010  26.862  50.332  1.00  0.00    -0.003 C 
ATOM      8  C   UNL     1      54.003  27.099  49.210  1.00  0.00     0.004 C 
ENDBRANCH   6   7
ENDBRANCH   1   6
TORSDOF 4
ENDMDL
MODEL 7
REMARK VINA RESULT:    -2.610     14.402     15.247
REMARK INTER + INTRA:          -3.304
REMARK INTER:                  -3.207
REMARK INTRA:                  -0.097
REMARK UNBOUND:                -0.084
REMARK SMILES CCCCCC(=O)[O-]
REMARK SMILES IDX 4 1 5 2 6 3 7 4 8 5 3 6 2 7 1 8
REMARK H PARENT
REMARK Flexibility Score: inf
ROOT
ATOM      1  C   UNL     1      57.305  26.102  51.201  1.00  0.00     0.006 C 
ENDROOT
BRANCH   1   2
ATOM      2  C   UNL     1      57.778  25.306  49.975  1.00  0.00     0.053 C 
BRANCH   2   3
ATOM      3  C   UNL     1      59.258  25.075  49.991  1.00  0.00     0.041 C 
ATOM      4  O   UNL     1      59.729  24.030  50.510  1.00  0.00    -0.550 OA
ATOM      5  O   UNL     1      60.113  25.998  49.403  1.00  0.00    -0.550 OA
ENDBRANCH   2   3
ENDBRANCH   1   2
BRANCH   1   6
ATOM      6  C   UNL     1      55.893  26.699  51.062  1.00  0.00     0.000 C 
BRANCH   6   7
ATOM      7  C   UNL     1      55.118  26.122  49.869  1.00  0.00    -0.003 C 
ATOM      8  C   UNL     1      54.066  27.107  49.369  1.00  0.00     0.004 C 
ENDBRANCH   6   7
ENDBRANCH   1   6
TORSDOF 4
ENDMDL
MODEL 8
REMARK VINA RESULT:    -2.607      2.729      3.895
REMARK INTER + INTRA:          -3.301
REMARK INTER:                  -3.246
REMARK INTRA:                  -0.055
REMARK UNBOUND:                -0.084
REMARK SMILES CCCCCC(=O)[O-]
REMARK SMILES IDX 4 1 5 2 6 3 7 4 8 5 3 6 2 7 1 8
REMARK H PARENT
REMARK Flexibility Score: inf
ROOT
ATOM      1  C   UNL     1      64.270  30.526  60.329  1.00  0.00     0.006 C 
ENDROOT
BRANCH   1   2
ATOM      2  C   UNL     1      64.203  29.425  61.400  1.00  0.00     0.053 C 
BRANCH   2   3
ATOM      3  C   UNL     1      62.891  28.702  61.381  1.00  0.00     0.041 C 
ATOM      4  O   UNL     1      62.820  27.511  61.782  1.00  0.00    -0.550 OA
ATOM      5  O   UNL     1      61.743  29.354  60.951  1.00  0.00    -0.550 OA
ENDBRANCH   2   3
ENDBRANCH   1   2
BRANCH   1   6
ATOM      6  C   UNL     1      65.188  31.707  60.693  1.00  0.00     0.000 C 
BRANCH   6   7
ATOM      7  C   UNL     1      64.702  33.040  60.105  1.00  0.00    -0.003 C 
ATOM      8  C   UNL     1      64.956  34.192  61.073  1.00  0.00     0.004 C 
ENDBRANCH   6   7
ENDBRANCH   1   6
TORSDOF 4
ENDMDL
MODEL 9
REMARK VINA RESULT:    -2.572      7.266      8.012
REMARK INTER + INTRA:          -3.257
REMARK INTER:                  -3.024
REMARK INTRA:                  -0.233
REMARK UNBOUND:                -0.084
REMARK SMILES CCCCCC(=O)[O-]
REMARK SMILES IDX 4 1 5 2 6 3 7 4 8 5 3 6 2 7 1 8
REMARK H PARENT
REMARK Flexibility Score: inf
ROOT
ATOM      1  C   UNL     1      72.688  30.102  61.633  1.00  0.00     0.006 C 
ENDROOT
BRANCH   1   2
ATOM      2  C   UNL     1      71.975  28.893  61.005  1.00  0.00     0.053 C 
BRANCH   2   3
ATOM      3  C   UNL     1      70.533  29.179  60.718  1.00  0.00     0.041 C 
ATOM      4  O   UNL     1      70.178  29.549  59.568  1.00  0.00    -0.550 OA
ATOM      5  O   UNL     1      69.578  29.003  61.710  1.00  0.00    -0.550 OA
ENDBRANCH   2   3
ENDBRANCH   1   2
BRANCH   1   6
ATOM      6  C   UNL     1      73.287  31.085  60.610  1.00  0.00     0.000 C 
BRANCH   6   7
ATOM      7  C   UNL     1      72.492  32.394  60.508  1.00  0.00    -0.003 C 
ATOM      8  C   UNL     1      71.949  32.599  59.097  1.00  0.00     0.004 C 
ENDBRANCH   6   7
ENDBRANCH   1   6
TORSDOF 4
ENDMDL
