MODEL 1
REMARK VINA RESULT:    -3.884      0.000      0.000
REMARK INTER + INTRA:          -4.225
REMARK INTER:                  -4.225
REMARK INTRA:                   0.000
REMARK UNBOUND:                 0.000
REMARK SMILES [NH3+]CC(=O)[O-]
REMARK SMILES IDX 2 1 1 2 3 6 4 7 5 8
REMARK H PARENT 1 3 1 4 1 5
REMARK Flexibility Score: inf
ROOT
ATOM      1  C   UNL     1      -0.373   4.605  -4.675  1.00  0.00     0.312 C 
ENDROOT
BRANCH   1   2
ATOM      2  N   UNL     1      -0.139   3.223  -5.090  1.00  0.00    -0.353 N 
ATOM      3  H   UNL     1       0.148   2.644  -4.267  1.00  0.00     0.344 HD
ATOM      4  H   UNL     1      -1.023   2.831  -5.488  1.00  0.00     0.344 HD
ATOM      5  H   UNL     1       0.606   3.189  -5.823  1.00  0.00     0.344 HD
ENDBRANCH   1   2
BRANCH   1   6
ATOM      6  C   UNL     1       0.526   5.541  -5.423  1.00  0.00     0.096 C 
ATOM      7  O   UNL     1       0.938   5.240  -6.574  1.00  0.00    -0.544 OA
ATOM      8  O   UNL     1       0.866   6.769  -4.868  1.00  0.00    -0.544 OA
ENDBRANCH   1   6
TORSDOF 2
ENDMDL
MODEL 2
REMARK VINA RESULT:    -3.883      0.146      1.455
REMARK INTER + INTRA:          -4.224
REMARK INTER:                  -4.224
REMARK INTRA:                   0.000
REMARK UNBOUND:                 0.000
REMARK SMILES [NH3+]CC(=O)[O-]
REMARK SMILES IDX 2 1 1 2 3 6 4 7 5 8
REMARK H PARENT 1 3 1 4 1 5
REMARK Flexibility Score: inf
ROOT
ATOM      1  C   UNL     1      -0.427   4.550  -4.580  1.00  0.00     0.312 C 
ENDROOT
BRANCH   1   2
ATOM      2  N   UNL     1      -0.086   3.182  -4.964  1.00  0.00    -0.353 N 
ATOM      3  H   UNL     1       0.949   3.092  -5.092  1.00  0.00     0.344 HD
ATOM      4  H   UNL     1      -0.391   2.528  -4.206  1.00  0.00     0.344 HD
ATOM      5  H   UNL     1      -0.576   2.924  -5.851  1.00  0.00     0.344 HD
ENDBRANCH   1   2
BRANCH   1   6
ATOM      6  C   UNL     1       0.400   5.536  -5.345  1.00  0.00     0.096 C 
ATOM      7  O   UNL     1       0.700   6.645  -4.830  1.00  0.00    -0.544 OA
ATOM      8  O   UNL     1       0.885   5.207  -6.605  1.00  0.00    -0.544 OA
ENDBRANCH   1   6
TORSDOF 2
ENDMDL
MODEL 3
REMARK VINA RESULT:    -3.784      1.577      1.599
REMARK INTER + INTRA:          -4.116
REMARK INTER:                  -4.116
REMARK INTRA:                   0.000
REMARK UNBOUND:                 0.000
REMARK SMILES [NH3+]CC(=O)[O-]
REMARK SMILES IDX 2 1 1 2 3 6 4 7 5 8
REMARK H PARENT 1 3 1 4 1 5
REMARK Flexibility Score: inf
ROOT
ATOM      1  C   UNL     1       0.367   3.824  -5.034  1.00  0.00     0.312 C 
ENDROOT
BRANCH   1   2
ATOM      2  N   UNL     1       1.213   3.561  -6.196  1.00  0.00    -0.353 N 
ATOM      3  H   UNL     1       1.760   4.418  -6.443  1.00  0.00     0.344 HD
ATOM      4  H   UNL     1       1.879   2.788  -5.967  1.00  0.00     0.344 HD
ATOM      5  H   UNL     1       0.624   3.270  -7.010  1.00  0.00     0.344 HD
ENDBRANCH   1   2
BRANCH   1   6
ATOM      6  C   UNL     1      -0.294   5.162  -5.152  1.00  0.00     0.096 C 
ATOM      7  O   UNL     1      -1.493   5.246  -5.525  1.00  0.00    -0.544 OA
ATOM      8  O   UNL     1       0.400   6.313  -4.799  1.00  0.00    -0.544 OA
ENDBRANCH   1   6
TORSDOF 2
ENDMDL
MODEL 4
REMARK VINA RESULT:    -3.670      1.576      1.879
REMARK INTER + INTRA:          -3.992
REMARK INTER:                  -3.992
REMARK INTRA:                   0.000
REMARK UNBOUND:                 0.000
REMARK SMILES [NH3+]CC(=O)[O-]
REMARK SMILES IDX 2 1 1 2 3 6 4 7 5 8
REMARK H PARENT 1 3 1 4 1 5
REMARK Flexibility Score: inf
ROOT
ATOM      1  C   UNL     1      -0.397   3.949  -4.993  1.00  0.00     0.312 C 
ENDROOT
BRANCH   1   2
ATOM      2  N   UNL     1      -0.506   4.767  -3.787  1.00  0.00    -0.353 N 
ATOM      3  H   UNL     1      -0.687   5.765  -4.045  1.00  0.00     0.344 HD
ATOM      4  H   UNL     1      -1.303   4.418  -3.207  1.00  0.00     0.344 HD
ATOM      5  H   UNL     1       0.375   4.700  -3.227  1.00  0.00     0.344 HD
ENDBRANCH   1   2
BRANCH   1   6
ATOM      6  C   UNL     1       0.899   4.211  -5.695  1.00  0.00     0.096 C 
ATOM      7  O   UNL     1       1.909   3.501  -5.446  1.00  0.00    -0.544 OA
ATOM      8  O   UNL     1       0.976   5.204  -6.663  1.00  0.00    -0.544 OA
ENDBRANCH   1   6
TORSDOF 2
ENDMDL
MODEL 5
REMARK VINA RESULT:    -3.546      2.236      2.424
REMARK INTER + INTRA:          -3.857
REMARK INTER:                  -3.857
REMARK INTRA:                   0.000
REMARK UNBOUND:                 0.000
REMARK SMILES [NH3+]CC(=O)[O-]
REMARK SMILES IDX 2 1 1 2 3 6 4 7 5 8
REMARK H PARENT 1 3 1 4 1 5
REMARK Flexibility Score: inf
ROOT
ATOM      1  C   UNL     1       0.683   5.865  -5.402  1.00  0.00     0.312 C 
ENDROOT
BRANCH   1   2
ATOM      2  N   UNL     1       1.859   4.998  -5.383  1.00  0.00    -0.353 N 
ATOM      3  H   UNL     1       1.614   4.052  -5.758  1.00  0.00     0.344 HD
ATOM      4  H   UNL     1       2.604   5.419  -5.985  1.00  0.00     0.344 HD
ATOM      5  H   UNL     1       2.223   4.909  -4.407  1.00  0.00     0.344 HD
ENDBRANCH   1   2
BRANCH   1   6
ATOM      6  C   UNL     1      -0.544   5.100  -5.012  1.00  0.00     0.096 C 
ATOM      7  O   UNL     1      -1.651   5.359  -5.554  1.00  0.00    -0.544 OA
ATOM      8  O   UNL     1      -0.454   4.065  -4.090  1.00  0.00    -0.544 OA
ENDBRANCH   1   6
TORSDOF 2
ENDMDL
MODEL 6
REMARK VINA RESULT:    -2.878      9.644     10.026
REMARK INTER + INTRA:          -3.130
REMARK INTER:                  -3.130
REMARK INTRA:                   0.000
REMARK UNBOUND:                 0.000
REMARK SMILES [NH3+]CC(=O)[O-]
REMARK SMILES IDX 2 1 1 2 3 6 4 7 5 8
REMARK H PARENT 1 3 1 4 1 5
REMARK Flexibility Score: inf
ROOT
ATOM      1  C   UNL     1       5.933  -2.567  -7.649  1.00  0.00     0.312 C 
ENDROOT
BRANCH   1   2
ATOM      2  N   UNL     1       6.582  -3.198  -6.502  1.00  0.00    -0.353 N 
ATOM      3  H   UNL     1       7.609  -2.997  -6.515  1.00  0.00     0.344 HD
ATOM      4  H   UNL     1       6.172  -2.810  -5.621  1.00  0.00     0.344 HD
ATOM      5  H   UNL     1       6.423  -4.231  -6.523  1.00  0.00     0.344 HD
ENDBRANCH   1   2
BRANCH   1   6
ATOM      6  C   UNL     1       4.638  -3.248  -7.965  1.00  0.00     0.096 C 
ATOM      7  O   UNL     1       4.591  -4.502  -8.074  1.00  0.00    -0.544 OA
ATOM      8  O   UNL     1       3.472  -2.502  -8.085  1.00  0.00    -0.544 OA
ENDBRANCH   1   6
TORSDOF 2
ENDMDL
MODEL 7
REMARK VINA RESULT:    -2.866      9.679     10.128
REMARK INTER + INTRA:          -3.117
REMARK INTER:                  -3.117
REMARK INTRA:                   0.000
REMARK UNBOUND:                 0.000
REMARK SMILES [NH3+]CC(=O)[O-]
REMARK SMILES IDX 2 1 1 2 3 6 4 7 5 8
REMARK H PARENT 1 3 1 4 1 5
REMARK Flexibility Score: inf
ROOT
ATOM      1  C   UNL     1       5.913  -2.534  -7.649  1.00  0.00     0.312 C 
ENDROOT
BRANCH   1   2
ATOM      2  N   UNL     1       6.626  -3.205  -6.564  1.00  0.00    -0.353 N 
ATOM      3  H   UNL     1       6.624  -2.604  -5.708  1.00  0.00     0.344 HD
ATOM      4  H   UNL     1       6.144  -4.108  -6.346  1.00  0.00     0.344 HD
ATOM      5  H   UNL     1       7.610  -3.408  -6.853  1.00  0.00     0.344 HD
ENDBRANCH   1   2
BRANCH   1   6
ATOM      6  C   UNL     1       4.621  -3.232  -7.945  1.00  0.00     0.096 C 
ATOM      7  O   UNL     1       3.559  -2.570  -8.077  1.00  0.00    -0.544 OA
ATOM      8  O   UNL     1       4.602  -4.610  -8.127  1.00  0.00    -0.544 OA
ENDBRANCH   1   6
TORSDOF 2
ENDMDL
MODEL 8
REMARK VINA RESULT:    -2.757      9.634     10.005
REMARK INTER + INTRA:          -2.999
REMARK INTER:                  -2.999
REMARK INTRA:                   0.000
REMARK UNBOUND:                 0.000
REMARK SMILES [NH3+]CC(=O)[O-]
REMARK SMILES IDX 2 1 1 2 3 6 4 7 5 8
REMARK H PARENT 1 3 1 4 1 5
REMARK Flexibility Score: inf
ROOT
ATOM      1  C   UNL     1       4.870  -4.329  -7.611  1.00  0.00     0.312 C 
ENDROOT
BRANCH   1   2
ATOM      2  N   UNL     1       6.291  -4.662  -7.692  1.00  0.00    -0.353 N 
ATOM      3  H   UNL     1       6.761  -4.059  -8.406  1.00  0.00     0.344 HD
ATOM      4  H   UNL     1       6.735  -4.493  -6.760  1.00  0.00     0.344 HD
ATOM      5  H   UNL     1       6.409  -5.670  -7.945  1.00  0.00     0.344 HD
ENDBRANCH   1   2
BRANCH   1   6
ATOM      6  C   UNL     1       4.642  -2.894  -7.973  1.00  0.00     0.096 C 
ATOM      7  O   UNL     1       5.619  -2.144  -8.236  1.00  0.00    -0.544 OA
ATOM      8  O   UNL     1       3.347  -2.400  -8.073  1.00  0.00    -0.544 OA
ENDBRANCH   1   6
TORSDOF 2
ENDMDL
MODEL 9
REMARK VINA RESULT:    -2.725      7.792      8.212
REMARK INTER + INTRA:          -2.964
REMARK INTER:                  -2.964
REMARK INTRA:                   0.000
REMARK UNBOUND:                 0.000
REMARK SMILES [NH3+]CC(=O)[O-]
REMARK SMILES IDX 2 1 1 2 3 6 4 7 5 8
REMARK H PARENT 1 3 1 4 1 5
REMARK Flexibility Score: inf
ROOT
ATOM      1  C   UNL     1       6.814   9.519  -8.233  1.00  0.00     0.312 C 
ENDROOT
BRANCH   1   2
ATOM      2  N   UNL     1       6.280   9.220  -9.560  1.00  0.00    -0.353 N 
ATOM      3  H   UNL     1       5.331   9.646  -9.670  1.00  0.00     0.344 HD
ATOM      4  H   UNL     1       6.918   9.624 -10.285  1.00  0.00     0.344 HD
ATOM      5  H   UNL     1       6.222   8.185  -9.699  1.00  0.00     0.344 HD
ENDBRANCH   1   2
BRANCH   1   6
ATOM      6  C   UNL     1       5.854  10.364  -7.454  1.00  0.00     0.096 C 
ATOM      7  O   UNL     1       5.167   9.854  -6.531  1.00  0.00    -0.544 OA
ATOM      8  O   UNL     1       5.758  11.725  -7.714  1.00  0.00    -0.544 OA
ENDBRANCH   1   6
TORSDOF 2
ENDMDL
