MODEL 1
REMARK VINA RESULT:    -5.369      0.000      0.000
REMARK INTER + INTRA:          -6.924
REMARK INTER:                  -6.624
REMARK INTRA:                  -0.299
REMARK UNBOUND:                -0.299
REMARK SMILES O=c1c(O)c(-c2cc(O)c(O)c(O)c2)oc2cc(O)cc(O)c12
REMARK SMILES IDX 5 1 3 2 2 3 1 4 23 5 21 6 20 7 18 8 17 9 16 10 15 11 6 12
REMARK SMILES IDX 7 13 8 14 14 15 10 16 12 17 9 18 11 20 13 22 4 24 22 26
REMARK SMILES IDX 19 28
REMARK H PARENT 9 19 11 21 13 23 4 25 22 27 19 29
REMARK Flexibility Score: inf
ROOT
ATOM      1  C   UNL     1     -18.113   6.047 -35.034  1.00  0.00     0.180 A 
ATOM      2  C   UNL     1     -18.494   5.239 -33.948  1.00  0.00     0.208 A 
ATOM      3  C   UNL     1     -19.481   5.706 -33.065  1.00  0.00     0.238 A 
ATOM      4  O   UNL     1     -19.778   5.003 -32.064  1.00  0.00    -0.285 OA
ATOM      5  C   UNL     1     -20.087   6.966 -33.288  1.00  0.00     0.111 A 
ATOM      6  C   UNL     1     -21.126   7.520 -32.481  1.00  0.00     0.134 A 
ATOM      7  C   UNL     1     -21.559   8.830 -32.717  1.00  0.00     0.093 A 
ATOM      8  C   UNL     1     -21.040   9.582 -33.770  1.00  0.00     0.123 A 
ATOM      9  C   UNL     1     -20.067   9.029 -34.603  1.00  0.00     0.094 A 
ATOM     10  C   UNL     1     -19.587   7.737 -34.370  1.00  0.00     0.146 A 
ATOM     11  O   UNL     1     -18.653   7.252 -35.178  1.00  0.00    -0.452 OA
ENDROOT
BRANCH   1  12
ATOM     12  C   UNL     1     -17.098   5.613 -36.021  1.00  0.00     0.029 A 
ATOM     13  C   UNL     1     -17.387   4.627 -36.980  1.00  0.00     0.062 A 
ATOM     14  C   UNL     1     -16.419   4.245 -37.921  1.00  0.00     0.162 A 
ATOM     15  C   UNL     1     -15.841   6.237 -36.039  1.00  0.00     0.062 A 
ATOM     16  C   UNL     1     -15.156   4.860 -37.915  1.00  0.00     0.200 A 
ATOM     17  C   UNL     1     -14.870   5.858 -36.976  1.00  0.00     0.162 A 
BRANCH  14  18
ATOM     18  O   UNL     1     -16.713   3.262 -38.865  1.00  0.00    -0.504 OA
ATOM     19  H   UNL     1     -17.387   3.419 -39.605  1.00  0.00     0.293 HD
ENDBRANCH  14  18
BRANCH  16  20
ATOM     20  O   UNL     1     -14.176   4.494 -38.840  1.00  0.00    -0.502 OA
ATOM     21  H   UNL     1     -13.360   3.957 -38.575  1.00  0.00     0.293 HD
ENDBRANCH  16  20
BRANCH  17  22
ATOM     22  O   UNL     1     -13.618   6.470 -36.979  1.00  0.00    -0.504 OA
ATOM     23  H   UNL     1     -12.862   6.127 -37.558  1.00  0.00     0.293 HD
ENDBRANCH  17  22
ENDBRANCH   1  12
BRANCH   2  24
ATOM     24  O   UNL     1     -17.868   4.008 -33.734  1.00  0.00    -0.502 OA
ATOM     25  H   UNL     1     -16.957   3.930 -33.298  1.00  0.00     0.293 HD
ENDBRANCH   2  24
BRANCH   6  26
ATOM     26  O   UNL     1     -21.778   6.821 -31.461  1.00  0.00    -0.507 OA
ATOM     27  H   UNL     1     -21.499   5.915 -31.115  1.00  0.00     0.293 HD
ENDBRANCH   6  26
BRANCH   8  28
ATOM     28  O   UNL     1     -21.507  10.877 -33.986  1.00  0.00    -0.508 OA
ATOM     29  H   UNL     1     -22.141  11.328 -33.338  1.00  0.00     0.293 HD
ENDBRANCH   8  28
TORSDOF 7
ENDMDL
MODEL 2
REMARK VINA RESULT:    -5.360      3.597      8.134
REMARK INTER + INTRA:          -6.912
REMARK INTER:                  -6.578
REMARK INTRA:                  -0.335
REMARK UNBOUND:                -0.299
REMARK SMILES O=c1c(O)c(-c2cc(O)c(O)c(O)c2)oc2cc(O)cc(O)c12
REMARK SMILES IDX 5 1 3 2 2 3 1 4 23 5 21 6 20 7 18 8 17 9 16 10 15 11 6 12
REMARK SMILES IDX 7 13 8 14 14 15 10 16 12 17 9 18 11 20 13 22 4 24 22 26
REMARK SMILES IDX 19 28
REMARK H PARENT 9 19 11 21 13 23 4 25 22 27 19 29
REMARK Flexibility Score: inf
ROOT
ATOM      1  C   UNL     1     -13.752   6.362 -37.631  1.00  0.00     0.180 A 
ATOM      2  C   UNL     1     -12.590   5.942 -36.961  1.00  0.00     0.208 A 
ATOM      3  C   UNL     1     -11.379   6.606 -37.214  1.00  0.00     0.238 A 
ATOM      4  O   UNL     1     -10.333   6.190 -36.653  1.00  0.00    -0.285 OA
ATOM      5  C   UNL     1     -11.349   7.694 -38.120  1.00  0.00     0.111 A 
ATOM      6  C   UNL     1     -10.186   8.465 -38.422  1.00  0.00     0.134 A 
ATOM      7  C   UNL     1     -10.243   9.433 -39.431  1.00  0.00     0.093 A 
ATOM      8  C   UNL     1     -11.433   9.704 -40.104  1.00  0.00     0.123 A 
ATOM      9  C   UNL     1     -12.591   8.997 -39.776  1.00  0.00     0.094 A 
ATOM     10  C   UNL     1     -12.557   7.999 -38.799  1.00  0.00     0.146 A 
ATOM     11  O   UNL     1     -13.678   7.342 -38.524  1.00  0.00    -0.452 OA
ENDROOT
BRANCH   1  12
ATOM     12  C   UNL     1     -15.070   5.727 -37.398  1.00  0.00     0.029 A 
ATOM     13  C   UNL     1     -15.839   6.035 -36.263  1.00  0.00     0.062 A 
ATOM     14  C   UNL     1     -17.094   5.441 -36.072  1.00  0.00     0.162 A 
ATOM     15  C   UNL     1     -15.589   4.843 -38.356  1.00  0.00     0.062 A 
ATOM     16  C   UNL     1     -17.595   4.539 -37.025  1.00  0.00     0.200 A 
ATOM     17  C   UNL     1     -16.842   4.245 -38.169  1.00  0.00     0.162 A 
BRANCH  14  18
ATOM     18  O   UNL     1     -17.848   5.748 -34.939  1.00  0.00    -0.504 OA
ATOM     19  H   UNL     1     -18.858   5.675 -34.937  1.00  0.00     0.293 HD
ENDBRANCH  14  18
BRANCH  16  20
ATOM     20  O   UNL     1     -18.840   3.932 -36.854  1.00  0.00    -0.502 OA
ATOM     21  H   UNL     1     -19.355   3.995 -35.984  1.00  0.00     0.293 HD
ENDBRANCH  16  20
BRANCH  17  22
ATOM     22  O   UNL     1     -17.347   3.355 -39.116  1.00  0.00    -0.504 OA
ATOM     23  H   UNL     1     -17.142   2.364 -39.075  1.00  0.00     0.293 HD
ENDBRANCH  17  22
ENDBRANCH   1  12
BRANCH   2  24
ATOM     24  O   UNL     1     -12.639   4.852 -36.087  1.00  0.00    -0.502 OA
ATOM     25  H   UNL     1     -13.191   4.860 -35.239  1.00  0.00     0.293 HD
ENDBRANCH   2  24
BRANCH   6  26
ATOM     26  O   UNL     1      -8.969   8.339 -37.745  1.00  0.00    -0.507 OA
ATOM     27  H   UNL     1      -8.136   8.866 -37.959  1.00  0.00     0.293 HD
ENDBRANCH   6  26
BRANCH   8  28
ATOM     28  O   UNL     1     -11.457  10.686 -41.092  1.00  0.00    -0.508 OA
ATOM     29  H   UNL     1     -11.997  11.537 -40.982  1.00  0.00     0.293 HD
ENDBRANCH   8  28
TORSDOF 7
ENDMDL
MODEL 3
REMARK VINA RESULT:    -5.290      9.835     13.200
REMARK INTER + INTRA:          -6.826
REMARK INTER:                  -6.469
REMARK INTRA:                  -0.357
REMARK UNBOUND:                -0.299
REMARK SMILES O=c1c(O)c(-c2cc(O)c(O)c(O)c2)oc2cc(O)cc(O)c12
REMARK SMILES IDX 5 1 3 2 2 3 1 4 23 5 21 6 20 7 18 8 17 9 16 10 15 11 6 12
REMARK SMILES IDX 7 13 8 14 14 15 10 16 12 17 9 18 11 20 13 22 4 24 22 26
REMARK SMILES IDX 19 28
REMARK H PARENT 9 19 11 21 13 23 4 25 22 27 19 29
REMARK Flexibility Score: inf
ROOT
ATOM      1  C   UNL     1     -10.762  -3.407 -38.242  1.00  0.00     0.180 A 
ATOM      2  C   UNL     1     -11.821  -3.686 -39.124  1.00  0.00     0.208 A 
ATOM      3  C   UNL     1     -12.491  -2.619 -39.743  1.00  0.00     0.238 A 
ATOM      4  O   UNL     1     -13.473  -2.873 -40.488  1.00  0.00    -0.285 OA
ATOM      5  C   UNL     1     -12.082  -1.288 -39.488  1.00  0.00     0.111 A 
ATOM      6  C   UNL     1     -12.663  -0.132 -40.093  1.00  0.00     0.134 A 
ATOM      7  C   UNL     1     -12.266   1.141 -39.668  1.00  0.00     0.093 A 
ATOM      8  C   UNL     1     -11.267   1.303 -38.710  1.00  0.00     0.123 A 
ATOM      9  C   UNL     1     -10.650   0.180 -38.156  1.00  0.00     0.094 A 
ATOM     10  C   UNL     1     -11.049  -1.104 -38.533  1.00  0.00     0.146 A 
ATOM     11  O   UNL     1     -10.445  -2.146 -37.973  1.00  0.00    -0.452 OA
ENDROOT
BRANCH   1  12
ATOM     12  C   UNL     1      -9.992  -4.479 -37.571  1.00  0.00     0.029 A 
ATOM     13  C   UNL     1      -8.933  -5.136 -38.221  1.00  0.00     0.062 A 
ATOM     14  C   UNL     1      -8.201  -6.133 -37.560  1.00  0.00     0.162 A 
ATOM     15  C   UNL     1     -10.286  -4.809 -36.239  1.00  0.00     0.062 A 
ATOM     16  C   UNL     1      -8.519  -6.472 -36.235  1.00  0.00     0.200 A 
ATOM     17  C   UNL     1      -9.559  -5.807 -35.574  1.00  0.00     0.162 A 
BRANCH  14  18
ATOM     18  O   UNL     1      -7.156  -6.783 -38.216  1.00  0.00    -0.504 OA
ATOM     19  H   UNL     1      -7.283  -7.692 -38.646  1.00  0.00     0.293 HD
ENDBRANCH  14  18
BRANCH  16  20
ATOM     20  O   UNL     1      -7.807  -7.464 -35.558  1.00  0.00    -0.502 OA
ATOM     21  H   UNL     1      -7.647  -8.380 -35.959  1.00  0.00     0.293 HD
ENDBRANCH  16  20
BRANCH  17  22
ATOM     22  O   UNL     1      -9.865  -6.141 -34.256  1.00  0.00    -0.504 OA
ATOM     23  H   UNL     1     -10.371  -5.505 -33.652  1.00  0.00     0.293 HD
ENDBRANCH  17  22
ENDBRANCH   1  12
BRANCH   2  24
ATOM     24  O   UNL     1     -12.222  -5.007 -39.344  1.00  0.00    -0.502 OA
ATOM     25  H   UNL     1     -11.801  -5.591 -40.055  1.00  0.00     0.293 HD
ENDBRANCH   2  24
BRANCH   6  26
ATOM     26  O   UNL     1     -13.604  -0.181 -41.125  1.00  0.00    -0.507 OA
ATOM     27  H   UNL     1     -14.421  -0.773 -41.130  1.00  0.00     0.293 HD
ENDBRANCH   6  26
BRANCH   8  28
ATOM     28  O   UNL     1     -10.886   2.586 -38.322  1.00  0.00    -0.508 OA
ATOM     29  H   UNL     1     -10.872   3.357 -38.980  1.00  0.00     0.293 HD
ENDBRANCH   8  28
TORSDOF 7
ENDMDL
MODEL 4
REMARK VINA RESULT:    -5.282     13.166     15.499
REMARK INTER + INTRA:          -6.816
REMARK INTER:                  -6.617
REMARK INTRA:                  -0.199
REMARK UNBOUND:                -0.299
REMARK SMILES O=c1c(O)c(-c2cc(O)c(O)c(O)c2)oc2cc(O)cc(O)c12
REMARK SMILES IDX 5 1 3 2 2 3 1 4 23 5 21 6 20 7 18 8 17 9 16 10 15 11 6 12
REMARK SMILES IDX 7 13 8 14 14 15 10 16 12 17 9 18 11 20 13 22 4 24 22 26
REMARK SMILES IDX 19 28
REMARK H PARENT 9 19 11 21 13 23 4 25 22 27 19 29
REMARK Flexibility Score: inf
ROOT
ATOM      1  C   UNL     1      -7.219   5.741 -26.610  1.00  0.00     0.180 A 
ATOM      2  C   UNL     1      -6.886   4.959 -27.729  1.00  0.00     0.208 A 
ATOM      3  C   UNL     1      -5.889   5.415 -28.607  1.00  0.00     0.238 A 
ATOM      4  O   UNL     1      -5.634   4.737 -29.636  1.00  0.00    -0.285 OA
ATOM      5  C   UNL     1      -5.226   6.638 -28.344  1.00  0.00     0.111 A 
ATOM      6  C   UNL     1      -4.173   7.176 -29.144  1.00  0.00     0.134 A 
ATOM      7  C   UNL     1      -3.680   8.457 -28.864  1.00  0.00     0.093 A 
ATOM      8  C   UNL     1      -4.154   9.190 -27.779  1.00  0.00     0.123 A 
ATOM      9  C   UNL     1      -5.142   8.649 -26.954  1.00  0.00     0.094 A 
ATOM     10  C   UNL     1      -5.680   7.389 -27.229  1.00  0.00     0.146 A 
ATOM     11  O   UNL     1      -6.626   6.915 -26.427  1.00  0.00    -0.452 OA
ENDROOT
BRANCH   1  12
ATOM     12  C   UNL     1      -8.242   5.315 -25.627  1.00  0.00     0.029 A 
ATOM     13  C   UNL     1      -8.081   4.144 -24.867  1.00  0.00     0.062 A 
ATOM     14  C   UNL     1      -9.050   3.769 -23.924  1.00  0.00     0.162 A 
ATOM     15  C   UNL     1      -9.367   6.124 -25.406  1.00  0.00     0.062 A 
ATOM     16  C   UNL     1     -10.184   4.574 -23.728  1.00  0.00     0.200 A 
ATOM     17  C   UNL     1     -10.339   5.753 -24.467  1.00  0.00     0.162 A 
BRANCH  14  18
ATOM     18  O   UNL     1      -8.885   2.602 -23.179  1.00  0.00    -0.504 OA
ATOM     19  H   UNL     1      -8.333   1.824 -23.524  1.00  0.00     0.293 HD
ENDBRANCH  14  18
BRANCH  16  20
ATOM     20  O   UNL     1     -11.163   4.219 -22.798  1.00  0.00    -0.502 OA
ATOM     21  H   UNL     1     -10.930   3.917 -21.860  1.00  0.00     0.293 HD
ENDBRANCH  16  20
BRANCH  17  22
ATOM     22  O   UNL     1     -11.462   6.553 -24.263  1.00  0.00    -0.504 OA
ATOM     23  H   UNL     1     -12.166   6.312 -23.576  1.00  0.00     0.293 HD
ENDBRANCH  17  22
ENDBRANCH   1  12
BRANCH   2  24
ATOM     24  O   UNL     1      -7.568   3.765 -27.980  1.00  0.00    -0.502 OA
ATOM     25  H   UNL     1      -7.181   3.028 -28.557  1.00  0.00     0.293 HD
ENDBRANCH   2  24
BRANCH   6  26
ATOM     26  O   UNL     1      -3.563   6.489 -30.197  1.00  0.00    -0.507 OA
ATOM     27  H   UNL     1      -2.745   6.808 -30.695  1.00  0.00     0.293 HD
ENDBRANCH   6  26
BRANCH   8  28
ATOM     28  O   UNL     1      -3.629  10.455 -27.520  1.00  0.00    -0.508 OA
ATOM     29  H   UNL     1      -4.125  11.299 -27.781  1.00  0.00     0.293 HD
ENDBRANCH   8  28
TORSDOF 7
ENDMDL
MODEL 5
REMARK VINA RESULT:    -5.218     11.124     13.773
REMARK INTER + INTRA:          -6.737
REMARK INTER:                  -6.415
REMARK INTRA:                  -0.321
REMARK UNBOUND:                -0.299
REMARK SMILES O=c1c(O)c(-c2cc(O)c(O)c(O)c2)oc2cc(O)cc(O)c12
REMARK SMILES IDX 5 1 3 2 2 3 1 4 23 5 21 6 20 7 18 8 17 9 16 10 15 11 6 12
REMARK SMILES IDX 7 13 8 14 14 15 10 16 12 17 9 18 11 20 13 22 4 24 22 26
REMARK SMILES IDX 19 28
REMARK H PARENT 9 19 11 21 13 23 4 25 22 27 19 29
REMARK Flexibility Score: inf
ROOT
ATOM      1  C   UNL     1     -10.778  -3.829 -38.393  1.00  0.00     0.180 A 
ATOM      2  C   UNL     1     -10.219  -2.621 -38.845  1.00  0.00     0.208 A 
ATOM      3  C   UNL     1     -11.011  -1.746 -39.606  1.00  0.00     0.238 A 
ATOM      4  O   UNL     1     -10.488  -0.692 -40.054  1.00  0.00    -0.285 OA
ATOM      5  C   UNL     1     -12.357  -2.081 -39.889  1.00  0.00     0.111 A 
ATOM      6  C   UNL     1     -13.263  -1.251 -40.617  1.00  0.00     0.134 A 
ATOM      7  C   UNL     1     -14.531  -1.741 -40.950  1.00  0.00     0.093 A 
ATOM      8  C   UNL     1     -14.950  -3.001 -40.529  1.00  0.00     0.123 A 
ATOM      9  C   UNL     1     -14.095  -3.798 -39.766  1.00  0.00     0.094 A 
ATOM     10  C   UNL     1     -12.809  -3.351 -39.449  1.00  0.00     0.146 A 
ATOM     11  O   UNL     1     -12.022  -4.144 -38.731  1.00  0.00    -0.452 OA
ENDROOT
BRANCH   1  12
ATOM     12  C   UNL     1     -10.013  -4.790 -37.565  1.00  0.00     0.029 A 
ATOM     13  C   UNL     1      -9.070  -5.659 -38.139  1.00  0.00     0.062 A 
ATOM     14  C   UNL     1      -8.339  -6.546 -37.335  1.00  0.00     0.162 A 
ATOM     15  C   UNL     1     -10.191  -4.795 -36.173  1.00  0.00     0.062 A 
ATOM     16  C   UNL     1      -8.541  -6.560 -35.945  1.00  0.00     0.200 A 
ATOM     17  C   UNL     1      -9.464  -5.681 -35.365  1.00  0.00     0.162 A 
BRANCH  14  18
ATOM     18  O   UNL     1      -7.410  -7.410 -37.914  1.00  0.00    -0.504 OA
ATOM     19  H   UNL     1      -7.692  -8.140 -38.558  1.00  0.00     0.293 HD
ENDBRANCH  14  18
BRANCH  16  20
ATOM     20  O   UNL     1      -7.828  -7.437 -35.125  1.00  0.00    -0.502 OA
ATOM     21  H   UNL     1      -8.279  -7.984 -34.402  1.00  0.00     0.293 HD
ENDBRANCH  16  20
BRANCH  17  22
ATOM     22  O   UNL     1      -9.655  -5.693 -33.985  1.00  0.00    -0.504 OA
ATOM     23  H   UNL     1      -9.458  -4.879 -33.415  1.00  0.00     0.293 HD
ENDBRANCH  17  22
ENDBRANCH   1  12
BRANCH   2  24
ATOM     24  O   UNL     1      -8.881  -2.319 -38.572  1.00  0.00    -0.502 OA
ATOM     25  H   UNL     1      -8.333  -1.701 -39.156  1.00  0.00     0.293 HD
ENDBRANCH   2  24
BRANCH   6  26
ATOM     26  O   UNL     1     -12.977   0.061 -41.007  1.00  0.00    -0.507 OA
ATOM     27  H   UNL     1     -13.408   0.535 -41.787  1.00  0.00     0.293 HD
ENDBRANCH   6  26
BRANCH   8  28
ATOM     28  O   UNL     1     -16.226  -3.450 -40.865  1.00  0.00    -0.508 OA
ATOM     29  H   UNL     1     -16.765  -3.014 -41.605  1.00  0.00     0.293 HD
ENDBRANCH   8  28
TORSDOF 7
ENDMDL
MODEL 6
REMARK VINA RESULT:    -5.215     11.224     13.824
REMARK INTER + INTRA:          -6.733
REMARK INTER:                  -6.417
REMARK INTRA:                  -0.316
REMARK UNBOUND:                -0.299
REMARK SMILES O=c1c(O)c(-c2cc(O)c(O)c(O)c2)oc2cc(O)cc(O)c12
REMARK SMILES IDX 5 1 3 2 2 3 1 4 23 5 21 6 20 7 18 8 17 9 16 10 15 11 6 12
REMARK SMILES IDX 7 13 8 14 14 15 10 16 12 17 9 18 11 20 13 22 4 24 22 26
REMARK SMILES IDX 19 28
REMARK H PARENT 9 19 11 21 13 23 4 25 22 27 19 29
REMARK Flexibility Score: inf
ROOT
ATOM      1  C   UNL     1     -10.769  -3.793 -38.401  1.00  0.00     0.180 A 
ATOM      2  C   UNL     1     -10.231  -2.583 -38.875  1.00  0.00     0.208 A 
ATOM      3  C   UNL     1     -11.034  -1.742 -39.663  1.00  0.00     0.238 A 
ATOM      4  O   UNL     1     -10.529  -0.688 -40.129  1.00  0.00    -0.285 OA
ATOM      5  C   UNL     1     -12.369  -2.114 -39.954  1.00  0.00     0.111 A 
ATOM      6  C   UNL     1     -13.284  -1.320 -40.709  1.00  0.00     0.134 A 
ATOM      7  C   UNL     1     -14.538  -1.845 -41.045  1.00  0.00     0.093 A 
ATOM      8  C   UNL     1     -14.934  -3.105 -40.601  1.00  0.00     0.123 A 
ATOM      9  C   UNL     1     -14.070  -3.865 -39.811  1.00  0.00     0.094 A 
ATOM     10  C   UNL     1     -12.798  -3.384 -39.489  1.00  0.00     0.146 A 
ATOM     11  O   UNL     1     -12.002  -4.143 -38.746  1.00  0.00    -0.452 OA
ENDROOT
BRANCH   1  12
ATOM     12  C   UNL     1      -9.993  -4.718 -37.544  1.00  0.00     0.029 A 
ATOM     13  C   UNL     1     -10.216  -4.791 -36.159  1.00  0.00     0.062 A 
ATOM     14  C   UNL     1      -9.486  -5.691 -35.368  1.00  0.00     0.162 A 
ATOM     15  C   UNL     1      -9.055  -5.581 -38.133  1.00  0.00     0.062 A 
ATOM     16  C   UNL     1      -8.534  -6.534 -35.963  1.00  0.00     0.200 A 
ATOM     17  C   UNL     1      -8.323  -6.480 -37.346  1.00  0.00     0.162 A 
BRANCH  14  18
ATOM     18  O   UNL     1      -9.710  -5.752 -33.993  1.00  0.00    -0.504 OA
ATOM     19  H   UNL     1     -10.628  -5.950 -33.612  1.00  0.00     0.293 HD
ENDBRANCH  14  18
BRANCH  16  20
ATOM     20  O   UNL     1      -7.793  -7.435 -35.195  1.00  0.00    -0.502 OA
ATOM     21  H   UNL     1      -7.210  -8.147 -35.616  1.00  0.00     0.293 HD
ENDBRANCH  16  20
BRANCH  17  22
ATOM     22  O   UNL     1      -7.382  -7.325 -37.934  1.00  0.00    -0.504 OA
ATOM     23  H   UNL     1      -7.655  -8.188 -38.388  1.00  0.00     0.293 HD
ENDBRANCH  17  22
ENDBRANCH   1  12
BRANCH   2  24
ATOM     24  O   UNL     1      -8.904  -2.246 -38.594  1.00  0.00    -0.502 OA
ATOM     25  H   UNL     1      -8.441  -1.455 -39.023  1.00  0.00     0.293 HD
ENDBRANCH   2  24
BRANCH   6  26
ATOM     26  O   UNL     1     -13.023  -0.011 -41.125  1.00  0.00    -0.507 OA
ATOM     27  H   UNL     1     -13.138   0.809 -40.548  1.00  0.00     0.293 HD
ENDBRANCH   6  26
BRANCH   8  28
ATOM     28  O   UNL     1     -16.195  -3.589 -40.941  1.00  0.00    -0.508 OA
ATOM     29  H   UNL     1     -16.799  -4.028 -40.254  1.00  0.00     0.293 HD
ENDBRANCH   8  28
TORSDOF 7
ENDMDL
MODEL 7
REMARK VINA RESULT:    -5.128     14.953     16.892
REMARK INTER + INTRA:          -6.627
REMARK INTER:                  -6.272
REMARK INTRA:                  -0.355
REMARK UNBOUND:                -0.299
REMARK SMILES O=c1c(O)c(-c2cc(O)c(O)c(O)c2)oc2cc(O)cc(O)c12
REMARK SMILES IDX 5 1 3 2 2 3 1 4 23 5 21 6 20 7 18 8 17 9 16 10 15 11 6 12
REMARK SMILES IDX 7 13 8 14 14 15 10 16 12 17 9 18 11 20 13 22 4 24 22 26
REMARK SMILES IDX 19 28
REMARK H PARENT 9 19 11 21 13 23 4 25 22 27 19 29
REMARK Flexibility Score: inf
ROOT
ATOM      1  C   UNL     1     -14.484  -4.318 -23.837  1.00  0.00     0.180 A 
ATOM      2  C   UNL     1     -15.085  -3.126 -23.397  1.00  0.00     0.208 A 
ATOM      3  C   UNL     1     -14.366  -2.277 -22.540  1.00  0.00     0.238 A 
ATOM      4  O   UNL     1     -14.930  -1.238 -22.106  1.00  0.00    -0.285 OA
ATOM      5  C   UNL     1     -13.050  -2.622 -22.148  1.00  0.00     0.111 A 
ATOM      6  C   UNL     1     -12.215  -1.816 -21.316  1.00  0.00     0.134 A 
ATOM      7  C   UNL     1     -10.981  -2.317 -20.886  1.00  0.00     0.093 A 
ATOM      8  C   UNL     1     -10.522  -3.563 -21.309  1.00  0.00     0.123 A 
ATOM      9  C   UNL     1     -11.303  -4.334 -22.171  1.00  0.00     0.094 A 
ATOM     10  C   UNL     1     -12.557  -3.877 -22.588  1.00  0.00     0.146 A 
ATOM     11  O   UNL     1     -13.274  -4.646 -23.399  1.00  0.00    -0.452 OA
ENDROOT
BRANCH   1  12
ATOM     12  C   UNL     1     -15.169  -5.252 -24.761  1.00  0.00     0.029 A 
ATOM     13  C   UNL     1     -16.023  -6.259 -24.281  1.00  0.00     0.062 A 
ATOM     14  C   UNL     1     -16.681  -7.119 -25.173  1.00  0.00     0.162 A 
ATOM     15  C   UNL     1     -15.009  -5.093 -26.146  1.00  0.00     0.062 A 
ATOM     16  C   UNL     1     -16.495  -6.966 -26.558  1.00  0.00     0.200 A 
ATOM     17  C   UNL     1     -15.662  -5.950 -27.042  1.00  0.00     0.162 A 
BRANCH  14  18
ATOM     18  O   UNL     1     -17.521  -8.120 -24.688  1.00  0.00    -0.504 OA
ATOM     19  H   UNL     1     -17.296  -8.644 -23.851  1.00  0.00     0.293 HD
ENDBRANCH  14  18
BRANCH  16  20
ATOM     20  O   UNL     1     -17.136  -7.812 -27.465  1.00  0.00    -0.502 OA
ATOM     21  H   UNL     1     -18.107  -7.686 -27.724  1.00  0.00     0.293 HD
ENDBRANCH  16  20
BRANCH  17  22
ATOM     22  O   UNL     1     -15.487  -5.798 -28.416  1.00  0.00    -0.504 OA
ATOM     23  H   UNL     1     -15.960  -6.399 -29.081  1.00  0.00     0.293 HD
ENDBRANCH  17  22
ENDBRANCH   1  12
BRANCH   2  24
ATOM     24  O   UNL     1     -16.393  -2.816 -23.779  1.00  0.00    -0.502 OA
ATOM     25  H   UNL     1     -16.742  -1.866 -23.802  1.00  0.00     0.293 HD
ENDBRANCH   2  24
BRANCH   6  26
ATOM     26  O   UNL     1     -12.538  -0.518 -20.910  1.00  0.00    -0.507 OA
ATOM     27  H   UNL     1     -11.866   0.218 -20.751  1.00  0.00     0.293 HD
ENDBRANCH   6  26
BRANCH   8  28
ATOM     28  O   UNL     1      -9.281  -4.023 -20.875  1.00  0.00    -0.508 OA
ATOM     29  H   UNL     1      -8.715  -3.491 -20.225  1.00  0.00     0.293 HD
ENDBRANCH   8  28
TORSDOF 7
ENDMDL
MODEL 8
REMARK VINA RESULT:    -5.096     12.474     15.028
REMARK INTER + INTRA:          -6.587
REMARK INTER:                  -6.288
REMARK INTRA:                  -0.299
REMARK UNBOUND:                -0.299
REMARK SMILES O=c1c(O)c(-c2cc(O)c(O)c(O)c2)oc2cc(O)cc(O)c12
REMARK SMILES IDX 5 1 3 2 2 3 1 4 23 5 21 6 20 7 18 8 17 9 16 10 15 11 6 12
REMARK SMILES IDX 7 13 8 14 14 15 10 16 12 17 9 18 11 20 13 22 4 24 22 26
REMARK SMILES IDX 19 28
REMARK H PARENT 9 19 11 21 13 23 4 25 22 27 19 29
REMARK Flexibility Score: inf
ROOT
ATOM      1  C   UNL     1      -8.970   5.655 -25.743  1.00  0.00     0.180 A 
ATOM      2  C   UNL     1      -8.866   4.510 -26.553  1.00  0.00     0.208 A 
ATOM      3  C   UNL     1      -7.711   4.327 -27.329  1.00  0.00     0.238 A 
ATOM      4  O   UNL     1      -7.648   3.329 -28.093  1.00  0.00    -0.285 OA
ATOM      5  C   UNL     1      -6.666   5.281 -27.273  1.00  0.00     0.111 A 
ATOM      6  C   UNL     1      -5.434   5.176 -27.986  1.00  0.00     0.134 A 
ATOM      7  C   UNL     1      -4.527   6.243 -27.957  1.00  0.00     0.093 A 
ATOM      8  C   UNL     1      -4.777   7.381 -27.192  1.00  0.00     0.123 A 
ATOM      9  C   UNL     1      -5.952   7.469 -26.443  1.00  0.00     0.094 A 
ATOM     10  C   UNL     1      -6.893   6.436 -26.480  1.00  0.00     0.146 A 
ATOM     11  O   UNL     1      -8.003   6.564 -25.763  1.00  0.00    -0.452 OA
ENDROOT
BRANCH   1  12
ATOM     12  C   UNL     1     -10.146   5.905 -24.879  1.00  0.00     0.029 A 
ATOM     13  C   UNL     1     -10.081   5.725 -23.486  1.00  0.00     0.062 A 
ATOM     14  C   UNL     1     -11.199   5.989 -22.682  1.00  0.00     0.162 A 
ATOM     15  C   UNL     1     -11.334   6.384 -25.451  1.00  0.00     0.062 A 
ATOM     16  C   UNL     1     -12.391   6.447 -23.268  1.00  0.00     0.200 A 
ATOM     17  C   UNL     1     -12.455   6.647 -24.652  1.00  0.00     0.162 A 
BRANCH  14  18
ATOM     18  O   UNL     1     -11.126   5.802 -21.302  1.00  0.00    -0.504 OA
ATOM     19  H   UNL     1     -11.692   6.347 -20.661  1.00  0.00     0.293 HD
ENDBRANCH  14  18
BRANCH  16  20
ATOM     20  O   UNL     1     -13.518   6.712 -22.488  1.00  0.00    -0.502 OA
ATOM     21  H   UNL     1     -14.222   7.383 -22.770  1.00  0.00     0.293 HD
ENDBRANCH  16  20
BRANCH  17  22
ATOM     22  O   UNL     1     -13.638   7.109 -25.228  1.00  0.00    -0.504 OA
ATOM     23  H   UNL     1     -13.682   7.380 -26.203  1.00  0.00     0.293 HD
ENDBRANCH  17  22
ENDBRANCH   1  12
BRANCH   2  24
ATOM     24  O   UNL     1      -9.919   3.592 -26.610  1.00  0.00    -0.502 OA
ATOM     25  H   UNL     1     -10.133   3.061 -27.444  1.00  0.00     0.293 HD
ENDBRANCH   2  24
BRANCH   6  26
ATOM     26  O   UNL     1      -5.044   4.045 -28.707  1.00  0.00    -0.507 OA
ATOM     27  H   UNL     1      -5.348   3.103 -28.509  1.00  0.00     0.293 HD
ENDBRANCH   6  26
BRANCH   8  28
ATOM     28  O   UNL     1      -3.845   8.416 -27.174  1.00  0.00    -0.508 OA
ATOM     29  H   UNL     1      -3.291   8.618 -26.349  1.00  0.00     0.293 HD
ENDBRANCH   8  28
TORSDOF 7
ENDMDL
MODEL 9
REMARK VINA RESULT:    -5.042     12.077     15.123
REMARK INTER + INTRA:          -6.520
REMARK INTER:                  -6.230
REMARK INTRA:                  -0.290
REMARK UNBOUND:                -0.299
REMARK SMILES O=c1c(O)c(-c2cc(O)c(O)c(O)c2)oc2cc(O)cc(O)c12
REMARK SMILES IDX 5 1 3 2 2 3 1 4 23 5 21 6 20 7 18 8 17 9 16 10 15 11 6 12
REMARK SMILES IDX 7 13 8 14 14 15 10 16 12 17 9 18 11 20 13 22 4 24 22 26
REMARK SMILES IDX 19 28
REMARK H PARENT 9 19 11 21 13 23 4 25 22 27 19 29
REMARK Flexibility Score: inf
ROOT
ATOM      1  C   UNL     1      -9.348  -4.692 -37.543  1.00  0.00     0.180 A 
ATOM      2  C   UNL     1      -8.712  -3.443 -37.658  1.00  0.00     0.208 A 
ATOM      3  C   UNL     1      -9.315  -2.440 -38.434  1.00  0.00     0.238 A 
ATOM      4  O   UNL     1      -8.714  -1.343 -38.577  1.00  0.00    -0.285 OA
ATOM      5  C   UNL     1     -10.555  -2.692 -39.070  1.00  0.00     0.111 A 
ATOM      6  C   UNL     1     -11.275  -1.735 -39.847  1.00  0.00     0.134 A 
ATOM      7  C   UNL     1     -12.426  -2.134 -40.538  1.00  0.00     0.093 A 
ATOM      8  C   UNL     1     -12.918  -3.433 -40.430  1.00  0.00     0.123 A 
ATOM      9  C   UNL     1     -12.255  -4.361 -39.625  1.00  0.00     0.094 A 
ATOM     10  C   UNL     1     -11.083  -4.003 -38.952  1.00  0.00     0.146 A 
ATOM     11  O   UNL     1     -10.476  -4.918 -38.206  1.00  0.00    -0.452 OA
ENDROOT
BRANCH   1  12
ATOM     12  C   UNL     1      -8.786  -5.790 -36.723  1.00  0.00     0.029 A 
ATOM     13  C   UNL     1      -8.805  -5.736 -35.319  1.00  0.00     0.062 A 
ATOM     14  C   UNL     1      -8.289  -6.796 -34.560  1.00  0.00     0.162 A 
ATOM     15  C   UNL     1      -8.276  -6.933 -37.357  1.00  0.00     0.062 A 
ATOM     16  C   UNL     1      -7.759  -7.926 -35.205  1.00  0.00     0.200 A 
ATOM     17  C   UNL     1      -7.758  -7.994 -36.603  1.00  0.00     0.162 A 
BRANCH  14  18
ATOM     18  O   UNL     1      -8.306  -6.731 -33.167  1.00  0.00    -0.504 OA
ATOM     19  H   UNL     1      -8.437  -5.854 -32.677  1.00  0.00     0.293 HD
ENDBRANCH  14  18
BRANCH  16  20
ATOM     20  O   UNL     1      -7.237  -8.992 -34.470  1.00  0.00    -0.502 OA
ATOM     21  H   UNL     1      -7.796  -9.799 -34.221  1.00  0.00     0.293 HD
ENDBRANCH  16  20
BRANCH  17  22
ATOM     22  O   UNL     1      -7.238  -9.121 -37.239  1.00  0.00    -0.504 OA
ATOM     23  H   UNL     1      -7.156  -9.171 -38.247  1.00  0.00     0.293 HD
ENDBRANCH  17  22
ENDBRANCH   1  12
BRANCH   2  24
ATOM     24  O   UNL     1      -7.479  -3.223 -37.039  1.00  0.00    -0.502 OA
ATOM     25  H   UNL     1      -6.603  -3.250 -37.546  1.00  0.00     0.293 HD
ENDBRANCH   2  24
BRANCH   6  26
ATOM     26  O   UNL     1     -10.922  -0.387 -39.949  1.00  0.00    -0.507 OA
ATOM     27  H   UNL     1     -11.081   0.190 -40.762  1.00  0.00     0.293 HD
ENDBRANCH   6  26
BRANCH   8  28
ATOM     28  O   UNL     1     -14.075  -3.791 -41.118  1.00  0.00    -0.508 OA
ATOM     29  H   UNL     1     -14.432  -3.231 -41.884  1.00  0.00     0.293 HD
ENDBRANCH   8  28
TORSDOF 7
ENDMDL
