MODEL 1
REMARK VINA RESULT:    -3.216      0.000      0.000
REMARK INTER + INTRA:          -3.822
REMARK INTER:                  -3.780
REMARK INTRA:                  -0.042
REMARK UNBOUND:                -0.042
REMARK SMILES O=C([O-])CCC(=O)[O-]
REMARK SMILES IDX 4 1 2 2 1 3 3 4 5 5 6 6 7 7 8 8
REMARK H PARENT
REMARK Flexibility Score: inf
ROOT
ATOM      1  C   UNL     1      28.766  -6.066 -30.559  1.00  0.00     0.059 C 
ENDROOT
BRANCH   1   2
ATOM      2  C   UNL     1      30.149  -6.544 -30.236  1.00  0.00     0.042 C 
ATOM      3  O   UNL     1      31.124  -5.750 -30.292  1.00  0.00    -0.550 OA
ATOM      4  O   UNL     1      30.353  -7.859 -29.834  1.00  0.00    -0.550 OA
ENDBRANCH   1   2
BRANCH   1   5
ATOM      5  C   UNL     1      28.768  -5.097 -31.745  1.00  0.00     0.059 C 
BRANCH   5   6
ATOM      6  C   UNL     1      27.586  -4.178 -31.708  1.00  0.00     0.042 C 
ATOM      7  O   UNL     1      26.574  -4.472 -31.019  1.00  0.00    -0.550 OA
ATOM      8  O   UNL     1      27.619  -2.974 -32.402  1.00  0.00    -0.550 OA
ENDBRANCH   5   6
ENDBRANCH   1   5
TORSDOF 3
ENDMDL
MODEL 2
REMARK VINA RESULT:    -3.215      0.161      4.397
REMARK INTER + INTRA:          -3.821
REMARK INTER:                  -3.777
REMARK INTRA:                  -0.044
REMARK UNBOUND:                -0.042
REMARK SMILES O=C([O-])CCC(=O)[O-]
REMARK SMILES IDX 4 1 2 2 1 3 3 4 5 5 6 6 7 7 8 8
REMARK H PARENT
REMARK Flexibility Score: inf
ROOT
ATOM      1  C   UNL     1      28.701  -5.048 -31.725  1.00  0.00     0.059 C 
ENDROOT
BRANCH   1   2
ATOM      2  C   UNL     1      27.504  -4.156 -31.595  1.00  0.00     0.042 C 
ATOM      3  O   UNL     1      26.482  -4.553 -30.977  1.00  0.00    -0.550 OA
ATOM      4  O   UNL     1      27.535  -2.871 -32.123  1.00  0.00    -0.550 OA
ENDBRANCH   1   2
BRANCH   1   5
ATOM      5  C   UNL     1      28.752  -6.090 -30.604  1.00  0.00     0.059 C 
BRANCH   5   6
ATOM      6  C   UNL     1      30.159  -6.489 -30.283  1.00  0.00     0.042 C 
ATOM      7  O   UNL     1      31.105  -5.676 -30.462  1.00  0.00    -0.550 OA
ATOM      8  O   UNL     1      30.422  -7.744 -29.748  1.00  0.00    -0.550 OA
ENDBRANCH   5   6
ENDBRANCH   1   5
TORSDOF 3
ENDMDL
MODEL 3
REMARK VINA RESULT:    -3.175     13.404     14.755
REMARK INTER + INTRA:          -3.774
REMARK INTER:                  -3.739
REMARK INTRA:                  -0.035
REMARK UNBOUND:                -0.042
REMARK SMILES O=C([O-])CCC(=O)[O-]
REMARK SMILES IDX 4 1 2 2 1 3 3 4 5 5 6 6 7 7 8 8
REMARK H PARENT
REMARK Flexibility Score: inf
ROOT
ATOM      1  C   UNL     1      14.939  -9.735 -28.995  1.00  0.00     0.059 C 
ENDROOT
BRANCH   1   2
ATOM      2  C   UNL     1      14.224 -10.024 -27.710  1.00  0.00     0.042 C 
ATOM      3  O   UNL     1      13.040  -9.633 -27.541  1.00  0.00    -0.550 OA
ATOM      4  O   UNL     1      14.857 -10.759 -26.714  1.00  0.00    -0.550 OA
ENDBRANCH   1   2
BRANCH   1   5
ATOM      5  C   UNL     1      14.574  -8.354 -29.546  1.00  0.00     0.059 C 
BRANCH   5   6
ATOM      6  C   UNL     1      15.624  -7.835 -30.479  1.00  0.00     0.042 C 
ATOM      7  O   UNL     1      16.798  -7.642 -30.067  1.00  0.00    -0.550 OA
ATOM      8  O   UNL     1      15.316  -7.604 -31.814  1.00  0.00    -0.550 OA
ENDBRANCH   5   6
ENDBRANCH   1   5
TORSDOF 3
ENDMDL
MODEL 4
REMARK VINA RESULT:    -3.128     13.578     15.139
REMARK INTER + INTRA:          -3.719
REMARK INTER:                  -3.653
REMARK INTRA:                  -0.067
REMARK UNBOUND:                -0.042
REMARK SMILES O=C([O-])CCC(=O)[O-]
REMARK SMILES IDX 4 1 2 2 1 3 3 4 5 5 6 6 7 7 8 8
REMARK H PARENT
REMARK Flexibility Score: inf
ROOT
ATOM      1  C   UNL     1      14.329  -8.783 -29.781  1.00  0.00     0.059 C 
ENDROOT
BRANCH   1   2
ATOM      2  C   UNL     1      15.179  -7.553 -29.890  1.00  0.00     0.042 C 
ATOM      3  O   UNL     1      14.688  -6.420 -29.648  1.00  0.00    -0.550 OA
ATOM      4  O   UNL     1      16.524  -7.666 -30.219  1.00  0.00    -0.550 OA
ENDBRANCH   1   2
BRANCH   1   5
ATOM      5  C   UNL     1      14.994  -9.851 -28.908  1.00  0.00     0.059 C 
BRANCH   5   6
ATOM      6  C   UNL     1      14.242 -10.067 -27.631  1.00  0.00     0.042 C 
ATOM      7  O   UNL     1      13.060  -9.650 -27.513  1.00  0.00    -0.550 OA
ATOM      8  O   UNL     1      14.832 -10.767 -26.586  1.00  0.00    -0.550 OA
ENDBRANCH   5   6
ENDBRANCH   1   5
TORSDOF 3
ENDMDL
MODEL 5
REMARK VINA RESULT:    -3.048     12.992     14.557
REMARK INTER + INTRA:          -3.625
REMARK INTER:                  -3.523
REMARK INTRA:                  -0.102
REMARK UNBOUND:                -0.042
REMARK SMILES O=C([O-])CCC(=O)[O-]
REMARK SMILES IDX 4 1 2 2 1 3 3 4 5 5 6 6 7 7 8 8
REMARK H PARENT
REMARK Flexibility Score: inf
ROOT
ATOM      1  C   UNL     1      14.980  -9.319 -29.487  1.00  0.00     0.059 C 
ENDROOT
BRANCH   1   2
ATOM      2  C   UNL     1      13.872  -9.132 -28.495  1.00  0.00     0.042 C 
ATOM      3  O   UNL     1      13.542 -10.074 -27.728  1.00  0.00    -0.550 OA
ATOM      4  O   UNL     1      13.232  -7.902 -28.393  1.00  0.00    -0.550 OA
ENDBRANCH   1   2
BRANCH   1   5
ATOM      5  C   UNL     1      15.074  -8.136 -30.455  1.00  0.00     0.059 C 
BRANCH   5   6
ATOM      6  C   UNL     1      16.185  -7.203 -30.082  1.00  0.00     0.042 C 
ATOM      7  O   UNL     1      17.383  -7.520 -30.308  1.00  0.00    -0.550 OA
ATOM      8  O   UNL     1      15.896  -5.966 -29.520  1.00  0.00    -0.550 OA
ENDBRANCH   5   6
ENDBRANCH   1   5
TORSDOF 3
ENDMDL
MODEL 6
REMARK VINA RESULT:    -3.046     12.943     14.515
REMARK INTER + INTRA:          -3.622
REMARK INTER:                  -3.514
REMARK INTRA:                  -0.108
REMARK UNBOUND:                -0.042
REMARK SMILES O=C([O-])CCC(=O)[O-]
REMARK SMILES IDX 4 1 2 2 1 3 3 4 5 5 6 6 7 7 8 8
REMARK H PARENT
REMARK Flexibility Score: inf
ROOT
ATOM      1  C   UNL     1      15.032  -9.213 -29.488  1.00  0.00     0.059 C 
ENDROOT
BRANCH   1   2
ATOM      2  C   UNL     1      13.873  -9.086 -28.546  1.00  0.00     0.042 C 
ATOM      3  O   UNL     1      13.448 -10.094 -27.923  1.00  0.00    -0.550 OA
ATOM      4  O   UNL     1      13.288  -7.844 -28.328  1.00  0.00    -0.550 OA
ENDBRANCH   1   2
BRANCH   1   5
ATOM      5  C   UNL     1      15.093  -8.038 -30.468  1.00  0.00     0.059 C 
BRANCH   5   6
ATOM      6  C   UNL     1      16.202  -7.091 -30.126  1.00  0.00     0.042 C 
ATOM      7  O   UNL     1      15.948  -5.994 -29.562  1.00  0.00    -0.550 OA
ATOM      8  O   UNL     1      17.521  -7.439 -30.393  1.00  0.00    -0.550 OA
ENDBRANCH   5   6
ENDBRANCH   1   5
TORSDOF 3
ENDMDL
MODEL 7
REMARK VINA RESULT:    -3.036     12.942     14.465
REMARK INTER + INTRA:          -3.611
REMARK INTER:                  -3.502
REMARK INTRA:                  -0.109
REMARK UNBOUND:                -0.042
REMARK SMILES O=C([O-])CCC(=O)[O-]
REMARK SMILES IDX 4 1 2 2 1 3 3 4 5 5 6 6 7 7 8 8
REMARK H PARENT
REMARK Flexibility Score: inf
ROOT
ATOM      1  C   UNL     1      15.069  -8.008 -30.485  1.00  0.00     0.059 C 
ENDROOT
BRANCH   1   2
ATOM      2  C   UNL     1      16.198  -7.081 -30.150  1.00  0.00     0.042 C 
ATOM      3  O   UNL     1      15.973  -5.998 -29.549  1.00  0.00    -0.550 OA
ATOM      4  O   UNL     1      17.504  -7.435 -30.468  1.00  0.00    -0.550 OA
ENDBRANCH   1   2
BRANCH   1   5
ATOM      5  C   UNL     1      15.006  -9.193 -29.517  1.00  0.00     0.059 C 
BRANCH   5   6
ATOM      6  C   UNL     1      13.865  -9.062 -28.557  1.00  0.00     0.042 C 
ATOM      7  O   UNL     1      13.443 -10.070 -27.932  1.00  0.00    -0.550 OA
ATOM      8  O   UNL     1      13.294  -7.817 -28.320  1.00  0.00    -0.550 OA
ENDBRANCH   5   6
ENDBRANCH   1   5
TORSDOF 3
ENDMDL
MODEL 8
REMARK VINA RESULT:    -3.035     14.902     15.554
REMARK INTER + INTRA:          -3.610
REMARK INTER:                  -3.492
REMARK INTRA:                  -0.118
REMARK UNBOUND:                -0.042
REMARK SMILES O=C([O-])CCC(=O)[O-]
REMARK SMILES IDX 4 1 2 2 1 3 3 4 5 5 6 6 7 7 8 8
REMARK H PARENT
REMARK Flexibility Score: inf
ROOT
ATOM      1  C   UNL     1      14.948  -9.735 -29.002  1.00  0.00     0.059 C 
ENDROOT
BRANCH   1   2
ATOM      2  C   UNL     1      14.226 -10.018 -27.719  1.00  0.00     0.042 C 
ATOM      3  O   UNL     1      13.043  -9.620 -27.556  1.00  0.00    -0.550 OA
ATOM      4  O   UNL     1      14.849 -10.758 -26.721  1.00  0.00    -0.550 OA
ENDBRANCH   1   2
BRANCH   1   5
ATOM      5  C   UNL     1      14.431  -8.457 -29.669  1.00  0.00     0.059 C 
BRANCH   5   6
ATOM      6  C   UNL     1      13.828  -8.738 -31.010  1.00  0.00     0.042 C 
ATOM      7  O   UNL     1      12.746  -9.377 -31.097  1.00  0.00    -0.550 OA
ATOM      8  O   UNL     1      14.438  -8.259 -32.163  1.00  0.00    -0.550 OA
ENDBRANCH   5   6
ENDBRANCH   1   5
TORSDOF 3
ENDMDL
MODEL 9
REMARK VINA RESULT:    -2.955      1.686      4.327
REMARK INTER + INTRA:          -3.516
REMARK INTER:                  -3.395
REMARK INTRA:                  -0.121
REMARK UNBOUND:                -0.042
REMARK SMILES O=C([O-])CCC(=O)[O-]
REMARK SMILES IDX 4 1 2 2 1 3 3 4 5 5 6 6 7 7 8 8
REMARK H PARENT
REMARK Flexibility Score: inf
ROOT
ATOM      1  C   UNL     1      30.609  -5.626 -31.361  1.00  0.00     0.059 C 
ENDROOT
BRANCH   1   2
ATOM      2  C   UNL     1      29.228  -5.259 -31.813  1.00  0.00     0.042 C 
ATOM      3  O   UNL     1      29.056  -4.670 -32.912  1.00  0.00    -0.550 OA
ATOM      4  O   UNL     1      28.128  -5.605 -31.037  1.00  0.00    -0.550 OA
ENDBRANCH   1   2
BRANCH   1   5
ATOM      5  C   UNL     1      31.003  -7.028 -31.835  1.00  0.00     0.059 C 
BRANCH   5   6
ATOM      6  C   UNL     1      30.832  -8.046 -30.750  1.00  0.00     0.042 C 
ATOM      7  O   UNL     1      31.116  -9.254 -30.963  1.00  0.00    -0.550 OA
ATOM      8  O   UNL     1      30.397  -7.654 -29.490  1.00  0.00    -0.550 OA
ENDBRANCH   5   6
ENDBRANCH   1   5
TORSDOF 3
ENDMDL
