MODEL 1
REMARK VINA RESULT:    -4.145      0.000      0.000
REMARK INTER + INTRA:          -4.266
REMARK INTER:                  -4.266
REMARK INTRA:                   0.000
REMARK UNBOUND:                 0.000
REMARK SMILES Cc1ccccc1O
REMARK SMILES IDX 1 1 2 2 3 3 4 4 5 5 6 6 7 7 8 8
REMARK H PARENT 8 9
REMARK Flexibility Score: inf
ROOT
ATOM      1  C   UNL     1     -17.278  40.680  34.236  1.00  0.00     0.048 C 
ATOM      2  C   UNL     1     -17.616  42.113  33.930  1.00  0.00    -0.009 A 
ATOM      3  C   UNL     1     -16.581  43.043  33.727  1.00  0.00     0.007 A 
ATOM      4  C   UNL     1     -16.874  44.379  33.441  1.00  0.00     0.001 A 
ATOM      5  C   UNL     1     -18.202  44.801  33.355  1.00  0.00     0.004 A 
ATOM      6  C   UNL     1     -19.240  43.888  33.554  1.00  0.00     0.046 A 
ATOM      7  C   UNL     1     -18.960  42.546  33.841  1.00  0.00     0.118 A 
ENDROOT
BRANCH   7   8
ATOM      8  O   UNL     1     -20.033  41.673  34.032  1.00  0.00    -0.508 OA
ATOM      9  H   UNL     1     -20.955  41.986  34.312  1.00  0.00     0.293 HD
ENDBRANCH   7   8
TORSDOF 1
ENDMDL
MODEL 2
REMARK VINA RESULT:    -4.125      1.833      2.914
REMARK INTER + INTRA:          -4.246
REMARK INTER:                  -4.246
REMARK INTRA:                   0.000
REMARK UNBOUND:                 0.000
REMARK SMILES Cc1ccccc1O
REMARK SMILES IDX 1 1 2 2 3 3 4 4 5 5 6 6 7 7 8 8
REMARK H PARENT 8 9
REMARK Flexibility Score: inf
ROOT
ATOM      1  C   UNL     1     -16.688  44.814  30.897  1.00  0.00     0.048 C 
ATOM      2  C   UNL     1     -17.107  43.858  31.980  1.00  0.00    -0.009 A 
ATOM      3  C   UNL     1     -16.136  43.307  32.835  1.00  0.00     0.007 A 
ATOM      4  C   UNL     1     -16.506  42.418  33.848  1.00  0.00     0.001 A 
ATOM      5  C   UNL     1     -17.846  42.069  34.017  1.00  0.00     0.004 A 
ATOM      6  C   UNL     1     -18.821  42.607  33.175  1.00  0.00     0.046 A 
ATOM      7  C   UNL     1     -18.464  43.500  32.156  1.00  0.00     0.118 A 
ENDROOT
BRANCH   7   8
ATOM      8  O   UNL     1     -19.476  44.011  31.341  1.00  0.00    -0.508 OA
ATOM      9  H   UNL     1     -20.434  43.685  31.382  1.00  0.00     0.293 HD
ENDBRANCH   7   8
TORSDOF 1
ENDMDL
MODEL 3
REMARK VINA RESULT:    -4.100      1.812      2.353
REMARK INTER + INTRA:          -4.220
REMARK INTER:                  -4.220
REMARK INTRA:                   0.000
REMARK UNBOUND:                 0.000
REMARK SMILES Cc1ccccc1O
REMARK SMILES IDX 1 1 2 2 3 3 4 4 5 5 6 6 7 7 8 8
REMARK H PARENT 8 9
REMARK Flexibility Score: inf
ROOT
ATOM      1  C   UNL     1     -19.209  42.267  33.806  1.00  0.00     0.048 C 
ATOM      2  C   UNL     1     -18.037  43.007  33.223  1.00  0.00    -0.009 A 
ATOM      3  C   UNL     1     -16.765  42.864  33.806  1.00  0.00     0.007 A 
ATOM      4  C   UNL     1     -15.663  43.542  33.278  1.00  0.00     0.001 A 
ATOM      5  C   UNL     1     -15.819  44.370  32.165  1.00  0.00     0.004 A 
ATOM      6  C   UNL     1     -17.076  44.521  31.576  1.00  0.00     0.046 A 
ATOM      7  C   UNL     1     -18.189  43.847  32.095  1.00  0.00     0.118 A 
ENDROOT
BRANCH   7   8
ATOM      8  O   UNL     1     -19.424  44.032  31.470  1.00  0.00    -0.508 OA
ATOM      9  H   UNL     1     -19.941  43.276  31.037  1.00  0.00     0.293 HD
ENDBRANCH   7   8
TORSDOF 1
ENDMDL
MODEL 4
REMARK VINA RESULT:    -4.093      1.971      2.533
REMARK INTER + INTRA:          -4.213
REMARK INTER:                  -4.213
REMARK INTRA:                   0.000
REMARK UNBOUND:                 0.000
REMARK SMILES Cc1ccccc1O
REMARK SMILES IDX 1 1 2 2 3 3 4 4 5 5 6 6 7 7 8 8
REMARK H PARENT 8 9
REMARK Flexibility Score: inf
ROOT
ATOM      1  C   UNL     1     -17.209  40.748  34.305  1.00  0.00     0.048 C 
ATOM      2  C   UNL     1     -17.335  42.068  33.595  1.00  0.00    -0.009 A 
ATOM      3  C   UNL     1     -18.410  42.283  32.714  1.00  0.00     0.007 A 
ATOM      4  C   UNL     1     -18.545  43.502  32.045  1.00  0.00     0.001 A 
ATOM      5  C   UNL     1     -17.611  44.519  32.248  1.00  0.00     0.004 A 
ATOM      6  C   UNL     1     -16.539  44.319  33.120  1.00  0.00     0.046 A 
ATOM      7  C   UNL     1     -16.391  43.102  33.797  1.00  0.00     0.118 A 
ENDROOT
BRANCH   7   8
ATOM      8  O   UNL     1     -15.302  42.952  34.658  1.00  0.00    -0.508 OA
ATOM      9  H   UNL     1     -14.403  42.602  34.353  1.00  0.00     0.293 HD
ENDBRANCH   7   8
TORSDOF 1
ENDMDL
MODEL 5
REMARK VINA RESULT:    -4.081      2.509      3.484
REMARK INTER + INTRA:          -4.201
REMARK INTER:                  -4.201
REMARK INTRA:                   0.000
REMARK UNBOUND:                 0.000
REMARK SMILES Cc1ccccc1O
REMARK SMILES IDX 1 1 2 2 3 3 4 4 5 5 6 6 7 7 8 8
REMARK H PARENT 8 9
REMARK Flexibility Score: inf
ROOT
ATOM      1  C   UNL     1     -16.760  44.820  29.510  1.00  0.00     0.048 C 
ATOM      2  C   UNL     1     -16.616  44.473  30.966  1.00  0.00    -0.009 A 
ATOM      3  C   UNL     1     -15.348  44.528  31.572  1.00  0.00     0.007 A 
ATOM      4  C   UNL     1     -15.195  44.210  32.924  1.00  0.00     0.001 A 
ATOM      5  C   UNL     1     -16.303  43.834  33.684  1.00  0.00     0.004 A 
ATOM      6  C   UNL     1     -17.567  43.775  33.096  1.00  0.00     0.046 A 
ATOM      7  C   UNL     1     -17.736  44.091  31.742  1.00  0.00     0.118 A 
ENDROOT
BRANCH   7   8
ATOM      8  O   UNL     1     -19.021  44.017  31.200  1.00  0.00    -0.508 OA
ATOM      9  H   UNL     1     -19.824  44.464  31.625  1.00  0.00     0.293 HD
ENDBRANCH   7   8
TORSDOF 1
ENDMDL
MODEL 6
REMARK VINA RESULT:    -4.020      3.880      4.910
REMARK INTER + INTRA:          -4.138
REMARK INTER:                  -4.138
REMARK INTRA:                   0.000
REMARK UNBOUND:                 0.000
REMARK SMILES Cc1ccccc1O
REMARK SMILES IDX 1 1 2 2 3 3 4 4 5 5 6 6 7 7 8 8
REMARK H PARENT 8 9
REMARK Flexibility Score: inf
ROOT
ATOM      1  C   UNL     1     -12.084  44.477  32.126  1.00  0.00     0.048 C 
ATOM      2  C   UNL     1     -13.532  44.478  32.529  1.00  0.00    -0.009 A 
ATOM      3  C   UNL     1     -14.530  44.470  31.538  1.00  0.00     0.007 A 
ATOM      4  C   UNL     1     -15.881  44.470  31.893  1.00  0.00     0.001 A 
ATOM      5  C   UNL     1     -16.252  44.478  33.238  1.00  0.00     0.004 A 
ATOM      6  C   UNL     1     -15.272  44.486  34.233  1.00  0.00     0.046 A 
ATOM      7  C   UNL     1     -13.913  44.486  33.892  1.00  0.00     0.118 A 
ENDROOT
BRANCH   7   8
ATOM      8  O   UNL     1     -12.972  44.495  34.924  1.00  0.00    -0.508 OA
ATOM      9  H   UNL     1     -12.560  43.650  35.300  1.00  0.00     0.293 HD
ENDBRANCH   7   8
TORSDOF 1
ENDMDL
MODEL 7
REMARK VINA RESULT:    -3.982      2.520      3.565
REMARK INTER + INTRA:          -4.099
REMARK INTER:                  -4.099
REMARK INTRA:                   0.000
REMARK UNBOUND:                 0.000
REMARK SMILES Cc1ccccc1O
REMARK SMILES IDX 1 1 2 2 3 3 4 4 5 5 6 6 7 7 8 8
REMARK H PARENT 8 9
REMARK Flexibility Score: inf
ROOT
ATOM      1  C   UNL     1     -19.413  44.145  33.508  1.00  0.00     0.048 C 
ATOM      2  C   UNL     1     -18.576  43.161  32.737  1.00  0.00    -0.009 A 
ATOM      3  C   UNL     1     -18.497  41.826  33.171  1.00  0.00     0.007 A 
ATOM      4  C   UNL     1     -17.725  40.897  32.468  1.00  0.00     0.001 A 
ATOM      5  C   UNL     1     -17.026  41.290  31.326  1.00  0.00     0.004 A 
ATOM      6  C   UNL     1     -17.095  42.612  30.884  1.00  0.00     0.046 A 
ATOM      7  C   UNL     1     -17.864  43.554  31.579  1.00  0.00     0.118 A 
ENDROOT
BRANCH   7   8
ATOM      8  O   UNL     1     -17.901  44.864  31.096  1.00  0.00    -0.508 OA
ATOM      9  H   UNL     1     -17.668  45.106  30.141  1.00  0.00     0.293 HD
ENDBRANCH   7   8
TORSDOF 1
ENDMDL
MODEL 8
REMARK VINA RESULT:    -3.977      4.342      5.522
REMARK INTER + INTRA:          -4.094
REMARK INTER:                  -4.094
REMARK INTRA:                   0.000
REMARK UNBOUND:                 0.000
REMARK SMILES Cc1ccccc1O
REMARK SMILES IDX 1 1 2 2 3 3 4 4 5 5 6 6 7 7 8 8
REMARK H PARENT 8 9
REMARK Flexibility Score: inf
ROOT
ATOM      1  C   UNL     1     -15.789  44.508  33.818  1.00  0.00     0.048 C 
ATOM      2  C   UNL     1     -14.607  44.499  32.888  1.00  0.00    -0.009 A 
ATOM      3  C   UNL     1     -14.817  44.536  31.498  1.00  0.00     0.007 A 
ATOM      4  C   UNL     1     -13.732  44.529  30.617  1.00  0.00     0.001 A 
ATOM      5  C   UNL     1     -12.429  44.485  31.113  1.00  0.00     0.004 A 
ATOM      6  C   UNL     1     -12.205  44.448  32.491  1.00  0.00     0.046 A 
ATOM      7  C   UNL     1     -13.283  44.454  33.385  1.00  0.00     0.118 A 
ENDROOT
BRANCH   7   8
ATOM      8  O   UNL     1     -13.008  44.416  34.754  1.00  0.00    -0.508 OA
ATOM      9  H   UNL     1     -12.081  44.246  35.124  1.00  0.00     0.293 HD
ENDBRANCH   7   8
TORSDOF 1
ENDMDL
MODEL 9
REMARK VINA RESULT:    -3.944      2.731      3.253
REMARK INTER + INTRA:          -4.060
REMARK INTER:                  -4.060
REMARK INTRA:                   0.000
REMARK UNBOUND:                 0.000
REMARK SMILES Cc1ccccc1O
REMARK SMILES IDX 1 1 2 2 3 3 4 4 5 5 6 6 7 7 8 8
REMARK H PARENT 8 9
REMARK Flexibility Score: inf
ROOT
ATOM      1  C   UNL     1     -17.363  42.849  33.488  1.00  0.00     0.048 C 
ATOM      2  C   UNL     1     -16.738  43.549  32.312  1.00  0.00    -0.009 A 
ATOM      3  C   UNL     1     -15.341  43.701  32.256  1.00  0.00     0.007 A 
ATOM      4  C   UNL     1     -14.742  44.347  31.171  1.00  0.00     0.001 A 
ATOM      5  C   UNL     1     -15.529  44.847  30.133  1.00  0.00     0.004 A 
ATOM      6  C   UNL     1     -16.917  44.703  30.176  1.00  0.00     0.046 A 
ATOM      7  C   UNL     1     -17.531  44.057  31.257  1.00  0.00     0.118 A 
ENDROOT
BRANCH   7   8
ATOM      8  O   UNL     1     -18.923  43.938  31.253  1.00  0.00    -0.508 OA
ATOM      9  H   UNL     1     -19.471  43.912  30.401  1.00  0.00     0.293 HD
ENDBRANCH   7   8
TORSDOF 1
ENDMDL
