MODEL 1
REMARK VINA RESULT:    -4.467      0.000      0.000
REMARK INTER + INTRA:          -7.684
REMARK INTER:                  -7.078
REMARK INTRA:                  -0.606
REMARK UNBOUND:                -0.606
REMARK SMILES CCCCCCCCCCCC(=O)[O-]
REMARK SMILES IDX 7 1 8 2 9 3 10 4 11 5 12 6 13 7 14 8 6 9 5 10 4 11 3 12 2 13
REMARK SMILES IDX 1 14
REMARK H PARENT
REMARK Flexibility Score: inf
ROOT
ATOM      1  C   UNL     1      -3.087   1.777  14.806  1.00  0.00     0.000 C 
ENDROOT
BRANCH   1   2
ATOM      2  C   UNL     1      -3.107   3.237  15.291  1.00  0.00     0.000 C 
BRANCH   2   3
ATOM      3  C   UNL     1      -4.519   3.711  15.670  1.00  0.00     0.000 C 
BRANCH   3   4
ATOM      4  C   UNL     1      -5.579   2.606  15.513  1.00  0.00     0.006 C 
BRANCH   4   5
ATOM      5  C   UNL     1      -6.763   2.799  16.470  1.00  0.00     0.053 C 
BRANCH   5   6
ATOM      6  C   UNL     1      -7.687   3.878  15.997  1.00  0.00     0.041 C 
ATOM      7  O   UNL     1      -8.073   4.776  16.790  1.00  0.00    -0.550 OA
ATOM      8  O   UNL     1      -8.098   3.910  14.670  1.00  0.00    -0.550 OA
ENDBRANCH   5   6
ENDBRANCH   4   5
ENDBRANCH   3   4
ENDBRANCH   2   3
ENDBRANCH   1   2
BRANCH   1   9
ATOM      9  C   UNL     1      -1.783   1.050  15.177  1.00  0.00     0.000 C 
BRANCH   9  10
ATOM     10  C   UNL     1      -0.808   1.942  15.960  1.00  0.00    -0.000 C 
BRANCH  10  11
ATOM     11  C   UNL     1      -0.689   1.478  17.417  1.00  0.00    -0.000 C 
BRANCH  11  12
ATOM     12  C   UNL     1       0.333   0.339  17.550  1.00  0.00    -0.000 C 
BRANCH  12  13
ATOM     13  C   UNL     1       0.109  -0.512  18.810  1.00  0.00    -0.003 C 
ATOM     14  C   UNL     1      -0.643   0.242  19.906  1.00  0.00     0.004 C 
ENDBRANCH  12  13
ENDBRANCH  11  12
ENDBRANCH  10  11
ENDBRANCH   9  10
ENDBRANCH   1   9
TORSDOF 10
ENDMDL
MODEL 2
REMARK VINA RESULT:    -4.366      4.839      6.332
REMARK INTER + INTRA:          -7.524
REMARK INTER:                  -6.903
REMARK INTRA:                  -0.620
REMARK UNBOUND:                -0.606
REMARK SMILES CCCCCCCCCCCC(=O)[O-]
REMARK SMILES IDX 7 1 8 2 9 3 10 4 11 5 12 6 13 7 14 8 6 9 5 10 4 11 3 12 2 13
REMARK SMILES IDX 1 14
REMARK H PARENT
REMARK Flexibility Score: inf
ROOT
ATOM      1  C   UNL     1      -4.000   0.944  10.426  1.00  0.00     0.000 C 
ENDROOT
BRANCH   1   2
ATOM      2  C   UNL     1      -3.739   0.666  11.917  1.00  0.00     0.000 C 
BRANCH   2   3
ATOM      3  C   UNL     1      -5.009   0.802  12.772  1.00  0.00     0.000 C 
BRANCH   3   4
ATOM      4  C   UNL     1      -4.729   1.404  14.161  1.00  0.00     0.006 C 
BRANCH   4   5
ATOM      5  C   UNL     1      -5.538   2.684  14.411  1.00  0.00     0.053 C 
BRANCH   5   6
ATOM      6  C   UNL     1      -5.602   3.023  15.867  1.00  0.00     0.041 C 
ATOM      7  O   UNL     1      -4.797   3.857  16.360  1.00  0.00    -0.550 OA
ATOM      8  O   UNL     1      -6.572   2.444  16.676  1.00  0.00    -0.550 OA
ENDBRANCH   5   6
ENDBRANCH   4   5
ENDBRANCH   3   4
ENDBRANCH   2   3
ENDBRANCH   1   2
BRANCH   1   9
ATOM      9  C   UNL     1      -3.362  -0.113   9.509  1.00  0.00     0.000 C 
BRANCH   9  10
ATOM     10  C   UNL     1      -4.343  -1.227   9.114  1.00  0.00    -0.000 C 
BRANCH  10  11
ATOM     11  C   UNL     1      -3.694  -2.609   9.264  1.00  0.00    -0.000 C 
BRANCH  11  12
ATOM     12  C   UNL     1      -3.038  -2.762  10.644  1.00  0.00    -0.000 C 
BRANCH  12  13
ATOM     13  C   UNL     1      -3.766  -3.782  11.534  1.00  0.00    -0.003 C 
ATOM     14  C   UNL     1      -4.535  -4.828  10.727  1.00  0.00     0.004 C 
ENDBRANCH  12  13
ENDBRANCH  11  12
ENDBRANCH  10  11
ENDBRANCH   9  10
ENDBRANCH   1   9
TORSDOF 10
ENDMDL
MODEL 3
REMARK VINA RESULT:    -4.326      3.784      5.243
REMARK INTER + INTRA:          -7.461
REMARK INTER:                  -6.451
REMARK INTRA:                  -1.010
REMARK UNBOUND:                -0.606
REMARK SMILES CCCCCCCCCCCC(=O)[O-]
REMARK SMILES IDX 7 1 8 2 9 3 10 4 11 5 12 6 13 7 14 8 6 9 5 10 4 11 3 12 2 13
REMARK SMILES IDX 1 14
REMARK H PARENT
REMARK Flexibility Score: inf
ROOT
ATOM      1  C   UNL     1      -5.268   0.864  13.055  1.00  0.00     0.000 C 
ENDROOT
BRANCH   1   2
ATOM      2  C   UNL     1      -4.574   1.773  14.086  1.00  0.00     0.000 C 
BRANCH   2   3
ATOM      3  C   UNL     1      -5.465   2.944  14.530  1.00  0.00     0.000 C 
BRANCH   3   4
ATOM      4  C   UNL     1      -5.611   3.033  16.060  1.00  0.00     0.006 C 
BRANCH   4   5
ATOM      5  C   UNL     1      -7.071   2.896  16.510  1.00  0.00     0.053 C 
BRANCH   5   6
ATOM      6  C   UNL     1      -7.868   4.121  16.184  1.00  0.00     0.041 C 
ATOM      7  O   UNL     1      -7.685   5.188  16.828  1.00  0.00    -0.550 OA
ATOM      8  O   UNL     1      -8.792   4.095  15.147  1.00  0.00    -0.550 OA
ENDBRANCH   5   6
ENDBRANCH   4   5
ENDBRANCH   3   4
ENDBRANCH   2   3
ENDBRANCH   1   2
BRANCH   1   9
ATOM      9  C   UNL     1      -4.345   0.492  11.882  1.00  0.00     0.000 C 
BRANCH   9  10
ATOM     10  C   UNL     1      -2.880   0.876  12.134  1.00  0.00    -0.000 C 
BRANCH  10  11
ATOM     11  C   UNL     1      -2.398   1.911  11.109  1.00  0.00    -0.000 C 
BRANCH  11  12
ATOM     12  C   UNL     1      -3.491   2.205  10.070  1.00  0.00    -0.000 C 
BRANCH  12  13
ATOM     13  C   UNL     1      -3.845   3.699   9.995  1.00  0.00    -0.003 C 
ATOM     14  C   UNL     1      -3.646   4.422  11.327  1.00  0.00     0.004 C 
ENDBRANCH  12  13
ENDBRANCH  11  12
ENDBRANCH  10  11
ENDBRANCH   9  10
ENDBRANCH   1   9
TORSDOF 10
ENDMDL
MODEL 4
REMARK VINA RESULT:    -4.326      6.022      8.048
REMARK INTER + INTRA:          -7.461
REMARK INTER:                  -7.073
REMARK INTRA:                  -0.388
REMARK UNBOUND:                -0.606
REMARK SMILES CCCCCCCCCCCC(=O)[O-]
REMARK SMILES IDX 7 1 8 2 9 3 10 4 11 5 12 6 13 7 14 8 6 9 5 10 4 11 3 12 2 13
REMARK SMILES IDX 1 14
REMARK H PARENT
REMARK Flexibility Score: inf
ROOT
ATOM      1  C   UNL     1      -3.394   0.301  10.878  1.00  0.00     0.000 C 
ENDROOT
BRANCH   1   2
ATOM      2  C   UNL     1      -3.725  -0.011   9.408  1.00  0.00     0.000 C 
BRANCH   2   3
ATOM      3  C   UNL     1      -4.312  -1.419   9.224  1.00  0.00     0.000 C 
BRANCH   3   4
ATOM      4  C   UNL     1      -3.480  -2.506   9.928  1.00  0.00     0.006 C 
BRANCH   4   5
ATOM      5  C   UNL     1      -3.681  -3.889   9.294  1.00  0.00     0.053 C 
BRANCH   5   6
ATOM      6  C   UNL     1      -4.771  -4.658   9.975  1.00  0.00     0.041 C 
ATOM      7  O   UNL     1      -5.786  -5.028   9.328  1.00  0.00    -0.550 OA
ATOM      8  O   UNL     1      -4.651  -4.995  11.317  1.00  0.00    -0.550 OA
ENDBRANCH   5   6
ENDBRANCH   4   5
ENDBRANCH   3   4
ENDBRANCH   2   3
ENDBRANCH   1   2
BRANCH   1   9
ATOM      9  C   UNL     1      -4.390   1.288  11.511  1.00  0.00     0.000 C 
BRANCH   9  10
ATOM     10  C   UNL     1      -4.859   0.847  12.905  1.00  0.00    -0.000 C 
BRANCH  10  11
ATOM     11  C   UNL     1      -5.431   2.033  13.693  1.00  0.00    -0.000 C 
BRANCH  11  12
ATOM     12  C   UNL     1      -4.826   2.099  15.103  1.00  0.00    -0.000 C 
BRANCH  12  13
ATOM     13  C   UNL     1      -5.464   3.199  15.967  1.00  0.00    -0.003 C 
ATOM     14  C   UNL     1      -6.901   2.873  16.372  1.00  0.00     0.004 C 
ENDBRANCH  12  13
ENDBRANCH  11  12
ENDBRANCH  10  11
ENDBRANCH   9  10
ENDBRANCH   1   9
TORSDOF 10
ENDMDL
MODEL 5
REMARK VINA RESULT:    -4.286      3.809      5.279
REMARK INTER + INTRA:          -7.398
REMARK INTER:                  -7.004
REMARK INTRA:                  -0.394
REMARK UNBOUND:                -0.606
REMARK SMILES CCCCCCCCCCCC(=O)[O-]
REMARK SMILES IDX 7 1 8 2 9 3 10 4 11 5 12 6 13 7 14 8 6 9 5 10 4 11 3 12 2 13
REMARK SMILES IDX 1 14
REMARK H PARENT
REMARK Flexibility Score: inf
ROOT
ATOM      1  C   UNL     1      -5.173   0.937  12.778  1.00  0.00     0.000 C 
ENDROOT
BRANCH   1   2
ATOM      2  C   UNL     1      -4.664   1.570  14.086  1.00  0.00     0.000 C 
BRANCH   2   3
ATOM      3  C   UNL     1      -5.426   2.852  14.455  1.00  0.00     0.000 C 
BRANCH   3   4
ATOM      4  C   UNL     1      -5.556   3.050  15.976  1.00  0.00     0.006 C 
BRANCH   4   5
ATOM      5  C   UNL     1      -7.001   2.874  16.461  1.00  0.00     0.053 C 
BRANCH   5   6
ATOM      6  C   UNL     1      -7.837   4.078  16.158  1.00  0.00     0.041 C 
ATOM      7  O   UNL     1      -8.705   4.035  15.246  1.00  0.00    -0.550 OA
ATOM      8  O   UNL     1      -7.682   5.239  16.905  1.00  0.00    -0.550 OA
ENDBRANCH   5   6
ENDBRANCH   4   5
ENDBRANCH   3   4
ENDBRANCH   2   3
ENDBRANCH   1   2
BRANCH   1   9
ATOM      9  C   UNL     1      -4.385   1.414  11.547  1.00  0.00     0.000 C 
BRANCH   9  10
ATOM     10  C   UNL     1      -3.867   0.252  10.687  1.00  0.00    -0.000 C 
BRANCH  10  11
ATOM     11  C   UNL     1      -3.580  -0.984  11.549  1.00  0.00    -0.000 C 
BRANCH  11  12
ATOM     12  C   UNL     1      -3.238  -2.198  10.673  1.00  0.00    -0.000 C 
BRANCH  12  13
ATOM     13  C   UNL     1      -3.133  -3.499  11.484  1.00  0.00    -0.003 C 
ATOM     14  C   UNL     1      -4.249  -4.491  11.159  1.00  0.00     0.004 C 
ENDBRANCH  12  13
ENDBRANCH  11  12
ENDBRANCH  10  11
ENDBRANCH   9  10
ENDBRANCH   1   9
TORSDOF 10
ENDMDL
MODEL 6
REMARK VINA RESULT:    -4.241      5.649      7.122
REMARK INTER + INTRA:          -7.326
REMARK INTER:                  -6.433
REMARK INTRA:                  -0.893
REMARK UNBOUND:                -0.606
REMARK SMILES CCCCCCCCCCCC(=O)[O-]
REMARK SMILES IDX 7 1 8 2 9 3 10 4 11 5 12 6 13 7 14 8 6 9 5 10 4 11 3 12 2 13
REMARK SMILES IDX 1 14
REMARK H PARENT
REMARK Flexibility Score: inf
ROOT
ATOM      1  C   UNL     1      -3.864  -0.227   9.248  1.00  0.00     0.000 C 
ENDROOT
BRANCH   1   2
ATOM      2  C   UNL     1      -3.082  -0.192  10.573  1.00  0.00     0.000 C 
BRANCH   2   3
ATOM      3  C   UNL     1      -3.993  -0.359  11.798  1.00  0.00     0.000 C 
BRANCH   3   4
ATOM      4  C   UNL     1      -3.999   0.882  12.709  1.00  0.00     0.006 C 
BRANCH   4   5
ATOM      5  C   UNL     1      -5.422   1.380  12.998  1.00  0.00     0.053 C 
BRANCH   5   6
ATOM      6  C   UNL     1      -5.418   2.566  13.913  1.00  0.00     0.041 C 
ATOM      7  O   UNL     1      -6.000   2.509  15.028  1.00  0.00    -0.550 OA
ATOM      8  O   UNL     1      -4.743   3.724  13.548  1.00  0.00    -0.550 OA
ENDBRANCH   5   6
ENDBRANCH   4   5
ENDBRANCH   3   4
ENDBRANCH   2   3
ENDBRANCH   1   2
BRANCH   1   9
ATOM      9  C   UNL     1      -4.079  -1.659   8.728  1.00  0.00     0.000 C 
BRANCH   9  10
ATOM     10  C   UNL     1      -2.765  -2.441   8.581  1.00  0.00    -0.000 C 
BRANCH  10  11
ATOM     11  C   UNL     1      -2.923  -3.880   9.088  1.00  0.00    -0.000 C 
BRANCH  11  12
ATOM     12  C   UNL     1      -4.394  -4.198   9.394  1.00  0.00    -0.000 C 
BRANCH  12  13
ATOM     13  C   UNL     1      -4.580  -4.863  10.767  1.00  0.00    -0.003 C 
ATOM     14  C   UNL     1      -3.956  -4.057  11.905  1.00  0.00     0.004 C 
ENDBRANCH  12  13
ENDBRANCH  11  12
ENDBRANCH  10  11
ENDBRANCH   9  10
ENDBRANCH   1   9
TORSDOF 10
ENDMDL
MODEL 7
REMARK VINA RESULT:    -4.235      5.238      7.379
REMARK INTER + INTRA:          -7.317
REMARK INTER:                  -6.745
REMARK INTRA:                  -0.572
REMARK UNBOUND:                -0.606
REMARK SMILES CCCCCCCCCCCC(=O)[O-]
REMARK SMILES IDX 7 1 8 2 9 3 10 4 11 5 12 6 13 7 14 8 6 9 5 10 4 11 3 12 2 13
REMARK SMILES IDX 1 14
REMARK H PARENT
REMARK Flexibility Score: inf
ROOT
ATOM      1  C   UNL     1      -5.615   2.520  14.470  1.00  0.00     0.000 C 
ENDROOT
BRANCH   1   2
ATOM      2  C   UNL     1      -4.567   1.496  13.999  1.00  0.00     0.000 C 
BRANCH   2   3
ATOM      3  C   UNL     1      -5.059   0.656  12.810  1.00  0.00     0.000 C 
BRANCH   3   4
ATOM      4  C   UNL     1      -4.166   0.807  11.565  1.00  0.00     0.006 C 
BRANCH   4   5
ATOM      5  C   UNL     1      -3.770  -0.550  10.968  1.00  0.00     0.053 C 
BRANCH   5   6
ATOM      6  C   UNL     1      -3.752  -0.513   9.472  1.00  0.00     0.041 C 
ATOM      7  O   UNL     1      -4.591  -1.179   8.810  1.00  0.00    -0.550 OA
ATOM      8  O   UNL     1      -2.828   0.284   8.807  1.00  0.00    -0.550 OA
ENDBRANCH   5   6
ENDBRANCH   4   5
ENDBRANCH   3   4
ENDBRANCH   2   3
ENDBRANCH   1   2
BRANCH   1   9
ATOM      9  C   UNL     1      -5.663   2.652  16.001  1.00  0.00     0.000 C 
BRANCH   9  10
ATOM     10  C   UNL     1      -7.080   2.917  16.530  1.00  0.00    -0.000 C 
BRANCH  10  11
ATOM     11  C   UNL     1      -7.621   4.254  16.008  1.00  0.00    -0.000 C 
BRANCH  11  12
ATOM     12  C   UNL     1      -7.040   5.432  16.804  1.00  0.00    -0.000 C 
BRANCH  12  13
ATOM     13  C   UNL     1      -6.400   6.496  15.899  1.00  0.00    -0.003 C 
ATOM     14  C   UNL     1      -6.421   6.107  14.421  1.00  0.00     0.004 C 
ENDBRANCH  12  13
ENDBRANCH  11  12
ENDBRANCH  10  11
ENDBRANCH   9  10
ENDBRANCH   1   9
TORSDOF 10
ENDMDL
MODEL 8
REMARK VINA RESULT:    -4.183      3.888      7.270
REMARK INTER + INTRA:          -7.235
REMARK INTER:                  -6.823
REMARK INTRA:                  -0.412
REMARK UNBOUND:                -0.606
REMARK SMILES CCCCCCCCCCCC(=O)[O-]
REMARK SMILES IDX 7 1 8 2 9 3 10 4 11 5 12 6 13 7 14 8 6 9 5 10 4 11 3 12 2 13
REMARK SMILES IDX 1 14
REMARK H PARENT
REMARK Flexibility Score: inf
ROOT
ATOM      1  C   UNL     1      -2.745   2.235  14.770  1.00  0.00     0.000 C 
ENDROOT
BRANCH   1   2
ATOM      2  C   UNL     1      -1.907   2.309  16.060  1.00  0.00     0.000 C 
BRANCH   2   3
ATOM      3  C   UNL     1      -1.137   1.009  16.336  1.00  0.00     0.000 C 
BRANCH   3   4
ATOM      4  C   UNL     1      -0.254   1.097  17.595  1.00  0.00     0.006 C 
BRANCH   4   5
ATOM      5  C   UNL     1      -0.511  -0.065  18.563  1.00  0.00     0.053 C 
BRANCH   5   6
ATOM      6  C   UNL     1      -0.174   0.305  19.974  1.00  0.00     0.041 C 
ATOM      7  O   UNL     1      -1.089   0.584  20.794  1.00  0.00    -0.550 OA
ATOM      8  O   UNL     1       1.151   0.311  20.395  1.00  0.00    -0.550 OA
ENDBRANCH   5   6
ENDBRANCH   4   5
ENDBRANCH   3   4
ENDBRANCH   2   3
ENDBRANCH   1   2
BRANCH   1   9
ATOM      9  C   UNL     1      -3.674   3.448  14.600  1.00  0.00     0.000 C 
BRANCH   9  10
ATOM     10  C   UNL     1      -5.161   3.066  14.623  1.00  0.00    -0.000 C 
BRANCH  10  11
ATOM     11  C   UNL     1      -5.649   2.845  16.061  1.00  0.00    -0.000 C 
BRANCH  11  12
ATOM     12  C   UNL     1      -7.132   3.219  16.202  1.00  0.00    -0.000 C 
BRANCH  12  13
ATOM     13  C   UNL     1      -7.571   4.283  15.184  1.00  0.00    -0.003 C 
ATOM     14  C   UNL     1      -8.947   3.996  14.585  1.00  0.00     0.004 C 
ENDBRANCH  12  13
ENDBRANCH  11  12
ENDBRANCH  10  11
ENDBRANCH   9  10
ENDBRANCH   1   9
TORSDOF 10
ENDMDL
MODEL 9
REMARK VINA RESULT:    -4.106      5.474      7.672
REMARK INTER + INTRA:          -7.113
REMARK INTER:                  -6.534
REMARK INTRA:                  -0.578
REMARK UNBOUND:                -0.606
REMARK SMILES CCCCCCCCCCCC(=O)[O-]
REMARK SMILES IDX 7 1 8 2 9 3 10 4 11 5 12 6 13 7 14 8 6 9 5 10 4 11 3 12 2 13
REMARK SMILES IDX 1 14
REMARK H PARENT
REMARK Flexibility Score: inf
ROOT
ATOM      1  C   UNL     1      -5.326   1.003  13.109  1.00  0.00     0.000 C 
ENDROOT
BRANCH   1   2
ATOM      2  C   UNL     1      -4.428   1.250  11.883  1.00  0.00     0.000 C 
BRANCH   2   3
ATOM      3  C   UNL     1      -3.928  -0.057  11.248  1.00  0.00     0.000 C 
BRANCH   3   4
ATOM      4  C   UNL     1      -3.564   0.106   9.761  1.00  0.00     0.006 C 
BRANCH   4   5
ATOM      5  C   UNL     1      -4.292  -0.912   8.873  1.00  0.00     0.053 C 
BRANCH   5   6
ATOM      6  C   UNL     1      -3.598  -2.239   8.868  1.00  0.00     0.041 C 
ATOM      7  O   UNL     1      -2.530  -2.394   8.218  1.00  0.00    -0.550 OA
ATOM      8  O   UNL     1      -4.112  -3.296   9.609  1.00  0.00    -0.550 OA
ENDBRANCH   5   6
ENDBRANCH   4   5
ENDBRANCH   3   4
ENDBRANCH   2   3
ENDBRANCH   1   2
BRANCH   1   9
ATOM      9  C   UNL     1      -4.730   1.583  14.402  1.00  0.00     0.000 C 
BRANCH   9  10
ATOM     10  C   UNL     1      -4.529   3.104  14.334  1.00  0.00    -0.000 C 
BRANCH  10  11
ATOM     11  C   UNL     1      -5.117   3.792  15.573  1.00  0.00    -0.000 C 
BRANCH  11  12
ATOM     12  C   UNL     1      -6.272   2.970  16.163  1.00  0.00    -0.000 C 
BRANCH  12  13
ATOM     13  C   UNL     1      -7.592   3.755  16.208  1.00  0.00    -0.003 C 
ATOM     14  C   UNL     1      -8.106   4.128  14.818  1.00  0.00     0.004 C 
ENDBRANCH  12  13
ENDBRANCH  11  12
ENDBRANCH  10  11
ENDBRANCH   9  10
ENDBRANCH   1   9
TORSDOF 10
ENDMDL
