MODEL 1
REMARK VINA RESULT:    -7.044      0.000      0.000
REMARK INTER + INTRA:          -7.963
REMARK INTER:                  -8.486
REMARK INTRA:                   0.523
REMARK UNBOUND:                 0.523
REMARK SMILES O=c1c(O)c(-c2ccc(O)c(O)c2)oc2cc(O)cc(O)c12
REMARK SMILES IDX 5 1 3 2 2 3 1 4 22 5 20 6 19 7 17 8 16 9 15 10 14 11 6 12
REMARK SMILES IDX 7 13 8 14 9 15 13 16 11 17 10 18 12 20 4 22 21 24 18 26
REMARK H PARENT 10 19 12 21 4 23 21 25 18 27
REMARK Flexibility Score: inf
ROOT
ATOM      1  C   UNL     1       9.765  -6.954  -9.284  1.00  0.00     0.180 A 
ATOM      2  C   UNL     1      11.109  -6.840  -9.690  1.00  0.00     0.208 A 
ATOM      3  C   UNL     1      11.509  -7.447 -10.890  1.00  0.00     0.238 A 
ATOM      4  O   UNL     1      12.713  -7.361 -11.258  1.00  0.00    -0.285 OA
ATOM      5  C   UNL     1      10.561  -8.138 -11.672  1.00  0.00     0.111 A 
ATOM      6  C   UNL     1      10.882  -8.775 -12.895  1.00  0.00     0.134 A 
ATOM      7  C   UNL     1       9.879  -9.435 -13.620  1.00  0.00     0.093 A 
ATOM      8  C   UNL     1       8.563  -9.470 -13.145  1.00  0.00     0.123 A 
ATOM      9  C   UNL     1       8.242  -8.844 -11.940  1.00  0.00     0.094 A 
ATOM     10  C   UNL     1       9.227  -8.182 -11.202  1.00  0.00     0.146 A 
ATOM     11  O   UNL     1       8.896  -7.601 -10.055  1.00  0.00    -0.452 OA
ENDROOT
BRANCH   1  12
ATOM     12  C   UNL     1       9.270  -6.357  -8.024  1.00  0.00     0.025 A 
ATOM     13  C   UNL     1       7.896  -6.295  -7.732  1.00  0.00     0.016 A 
ATOM     14  C   UNL     1       7.452  -5.704  -6.547  1.00  0.00     0.051 A 
ATOM     15  C   UNL     1       8.371  -5.155  -5.641  1.00  0.00     0.157 A 
ATOM     16  C   UNL     1      10.186  -5.786  -7.123  1.00  0.00     0.062 A 
ATOM     17  C   UNL     1       9.744  -5.195  -5.934  1.00  0.00     0.158 A 
BRANCH  15  18
ATOM     18  O   UNL     1       7.923  -4.569  -4.458  1.00  0.00    -0.504 OA
ATOM     19  H   UNL     1       7.495  -5.118  -3.723  1.00  0.00     0.293 HD
ENDBRANCH  15  18
BRANCH  17  20
ATOM     20  O   UNL     1      10.683  -4.651  -5.058  1.00  0.00    -0.504 OA
ATOM     21  H   UNL     1      10.944  -3.674  -5.088  1.00  0.00     0.293 HD
ENDBRANCH  17  20
ENDBRANCH   1  12
BRANCH   2  22
ATOM     22  O   UNL     1      12.018  -6.107  -8.922  1.00  0.00    -0.502 OA
ATOM     23  H   UNL     1      11.786  -5.207  -8.520  1.00  0.00     0.293 HD
ENDBRANCH   2  22
BRANCH   6  24
ATOM     24  O   UNL     1      12.186  -8.756 -13.394  1.00  0.00    -0.507 OA
ATOM     25  H   UNL     1      12.524  -9.472 -14.027  1.00  0.00     0.293 HD
ENDBRANCH   6  24
BRANCH   8  26
ATOM     26  O   UNL     1       7.566 -10.125 -13.866  1.00  0.00    -0.508 OA
ATOM     27  H   UNL     1       7.534 -11.136 -13.929  1.00  0.00     0.293 HD
ENDBRANCH   8  26
TORSDOF 6
ENDMDL
MODEL 2
REMARK VINA RESULT:    -6.950      1.280      2.890
REMARK INTER + INTRA:          -7.849
REMARK INTER:                  -8.264
REMARK INTRA:                   0.415
REMARK UNBOUND:                 0.523
REMARK SMILES O=c1c(O)c(-c2ccc(O)c(O)c2)oc2cc(O)cc(O)c12
REMARK SMILES IDX 5 1 3 2 2 3 1 4 22 5 20 6 19 7 17 8 16 9 15 10 14 11 6 12
REMARK SMILES IDX 7 13 8 14 9 15 13 16 11 17 10 18 12 20 4 22 21 24 18 26
REMARK H PARENT 10 19 12 21 4 23 21 25 18 27
REMARK Flexibility Score: inf
ROOT
ATOM      1  C   UNL     1       9.445  -7.380  -9.098  1.00  0.00     0.180 A 
ATOM      2  C   UNL     1       8.542  -8.240  -9.753  1.00  0.00     0.208 A 
ATOM      3  C   UNL     1       8.949  -8.878 -10.935  1.00  0.00     0.238 A 
ATOM      4  O   UNL     1       8.145  -9.641 -11.536  1.00  0.00    -0.285 OA
ATOM      5  C   UNL     1      10.251  -8.664 -11.430  1.00  0.00     0.111 A 
ATOM      6  C   UNL     1      10.740  -9.272 -12.612  1.00  0.00     0.134 A 
ATOM      7  C   UNL     1      12.053  -9.015 -13.035  1.00  0.00     0.093 A 
ATOM      8  C   UNL     1      12.885  -8.164 -12.297  1.00  0.00     0.123 A 
ATOM      9  C   UNL     1      12.407  -7.563 -11.132  1.00  0.00     0.094 A 
ATOM     10  C   UNL     1      11.102  -7.804 -10.695  1.00  0.00     0.146 A 
ATOM     11  O   UNL     1      10.671  -7.214  -9.586  1.00  0.00    -0.452 OA
ENDROOT
BRANCH   1  12
ATOM     12  C   UNL     1       9.085  -6.658  -7.857  1.00  0.00     0.025 A 
ATOM     13  C   UNL     1       7.753  -6.586  -7.412  1.00  0.00     0.016 A 
ATOM     14  C   UNL     1       7.433  -5.877  -6.252  1.00  0.00     0.051 A 
ATOM     15  C   UNL     1       8.435  -5.218  -5.526  1.00  0.00     0.157 A 
ATOM     16  C   UNL     1      10.082  -5.978  -7.138  1.00  0.00     0.062 A 
ATOM     17  C   UNL     1       9.765  -5.268  -5.974  1.00  0.00     0.158 A 
BRANCH  15  18
ATOM     18  O   UNL     1       8.113  -4.514  -4.367  1.00  0.00    -0.504 OA
ATOM     19  H   UNL     1       8.828  -4.183  -3.731  1.00  0.00     0.293 HD
ENDBRANCH  15  18
BRANCH  17  20
ATOM     20  O   UNL     1      10.785  -4.617  -5.279  1.00  0.00    -0.504 OA
ATOM     21  H   UNL     1      11.749  -4.652  -5.583  1.00  0.00     0.293 HD
ENDBRANCH  17  20
ENDBRANCH   1  12
BRANCH   2  22
ATOM     22  O   UNL     1       7.274  -8.474  -9.214  1.00  0.00    -0.502 OA
ATOM     23  H   UNL     1       6.621  -9.129  -9.628  1.00  0.00     0.293 HD
ENDBRANCH   2  22
BRANCH   6  24
ATOM     24  O   UNL     1       9.934 -10.125 -13.367  1.00  0.00    -0.507 OA
ATOM     25  H   UNL     1       9.784  -9.978 -14.358  1.00  0.00     0.293 HD
ENDBRANCH   6  24
BRANCH   8  26
ATOM     26  O   UNL     1      14.189  -7.910 -12.716  1.00  0.00    -0.508 OA
ATOM     27  H   UNL     1      14.981  -8.045 -12.098  1.00  0.00     0.293 HD
ENDBRANCH   8  26
TORSDOF 6
ENDMDL
MODEL 3
REMARK VINA RESULT:    -6.740     13.991     17.073
REMARK INTER + INTRA:          -7.596
REMARK INTER:                  -7.446
REMARK INTRA:                  -0.150
REMARK UNBOUND:                 0.523
REMARK SMILES O=c1c(O)c(-c2ccc(O)c(O)c2)oc2cc(O)cc(O)c12
REMARK SMILES IDX 5 1 3 2 2 3 1 4 22 5 20 6 19 7 17 8 16 9 15 10 14 11 6 12
REMARK SMILES IDX 7 13 8 14 9 15 13 16 11 17 10 18 12 20 4 22 21 24 18 26
REMARK H PARENT 10 19 12 21 4 23 21 25 18 27
REMARK Flexibility Score: inf
ROOT
ATOM      1  C   UNL     1      20.548   0.472 -17.446  1.00  0.00     0.180 A 
ATOM      2  C   UNL     1      19.315   0.383 -16.769  1.00  0.00     0.208 A 
ATOM      3  C   UNL     1      19.260   0.733 -15.411  1.00  0.00     0.238 A 
ATOM      4  O   UNL     1      18.164   0.646 -14.793  1.00  0.00    -0.285 OA
ATOM      5  C   UNL     1      20.426   1.183 -14.759  1.00  0.00     0.111 A 
ATOM      6  C   UNL     1      20.453   1.559 -13.394  1.00  0.00     0.134 A 
ATOM      7  C   UNL     1      21.653   2.006 -12.819  1.00  0.00     0.093 A 
ATOM      8  C   UNL     1      22.822   2.085 -13.584  1.00  0.00     0.123 A 
ATOM      9  C   UNL     1      22.800   1.716 -14.930  1.00  0.00     0.094 A 
ATOM     10  C   UNL     1      21.616   1.267 -15.521  1.00  0.00     0.146 A 
ATOM     11  O   UNL     1      21.624   0.916 -16.801  1.00  0.00    -0.452 OA
ENDROOT
BRANCH   1  12
ATOM     12  C   UNL     1      20.691   0.104 -18.872  1.00  0.00     0.025 A 
ATOM     13  C   UNL     1      20.411  -1.197 -19.324  1.00  0.00     0.016 A 
ATOM     14  C   UNL     1      20.577  -1.528 -20.671  1.00  0.00     0.051 A 
ATOM     15  C   UNL     1      21.038  -0.569 -21.584  1.00  0.00     0.157 A 
ATOM     16  C   UNL     1      21.172   1.056 -19.787  1.00  0.00     0.062 A 
ATOM     17  C   UNL     1      21.339   0.728 -21.137  1.00  0.00     0.158 A 
BRANCH  15  18
ATOM     18  O   UNL     1      21.200  -0.902 -22.928  1.00  0.00    -0.504 OA
ATOM     19  H   UNL     1      21.666  -0.279 -23.577  1.00  0.00     0.293 HD
ENDBRANCH  15  18
BRANCH  17  20
ATOM     20  O   UNL     1      21.806   1.703 -22.018  1.00  0.00    -0.504 OA
ATOM     21  H   UNL     1      21.454   2.652 -22.006  1.00  0.00     0.293 HD
ENDBRANCH  17  20
ENDBRANCH   1  12
BRANCH   2  22
ATOM     22  O   UNL     1      18.165  -0.019 -17.451  1.00  0.00    -0.502 OA
ATOM     23  H   UNL     1      17.242   0.321 -17.206  1.00  0.00     0.293 HD
ENDBRANCH   2  22
BRANCH   6  24
ATOM     24  O   UNL     1      19.303   1.490 -12.607  1.00  0.00    -0.507 OA
ATOM     25  H   UNL     1      19.234   1.977 -11.721  1.00  0.00     0.293 HD
ENDBRANCH   6  24
BRANCH   8  26
ATOM     26  O   UNL     1      24.013   2.530 -13.014  1.00  0.00    -0.508 OA
ATOM     27  H   UNL     1      24.679   1.885 -12.605  1.00  0.00     0.293 HD
ENDBRANCH   8  26
TORSDOF 6
ENDMDL
MODEL 4
REMARK VINA RESULT:    -6.675     10.982     13.700
REMARK INTER + INTRA:          -7.518
REMARK INTER:                  -7.343
REMARK INTRA:                  -0.175
REMARK UNBOUND:                 0.523
REMARK SMILES O=c1c(O)c(-c2ccc(O)c(O)c2)oc2cc(O)cc(O)c12
REMARK SMILES IDX 5 1 3 2 2 3 1 4 22 5 20 6 19 7 17 8 16 9 15 10 14 11 6 12
REMARK SMILES IDX 7 13 8 14 9 15 13 16 11 17 10 18 12 20 4 22 21 24 18 26
REMARK H PARENT 10 19 12 21 4 23 21 25 18 27
REMARK Flexibility Score: inf
ROOT
ATOM      1  C   UNL     1      18.475  -1.096 -16.699  1.00  0.00     0.180 A 
ATOM      2  C   UNL     1      17.826  -0.297 -15.736  1.00  0.00     0.208 A 
ATOM      3  C   UNL     1      17.092  -0.925 -14.718  1.00  0.00     0.238 A 
ATOM      4  O   UNL     1      16.498  -0.220 -13.857  1.00  0.00    -0.285 OA
ATOM      5  C   UNL     1      17.034  -2.332 -14.666  1.00  0.00     0.111 A 
ATOM      6  C   UNL     1      16.319  -3.041 -13.670  1.00  0.00     0.134 A 
ATOM      7  C   UNL     1      16.317  -4.445 -13.681  1.00  0.00     0.093 A 
ATOM      8  C   UNL     1      17.017  -5.149 -14.668  1.00  0.00     0.123 A 
ATOM      9  C   UNL     1      17.723  -4.455 -15.651  1.00  0.00     0.094 A 
ATOM     10  C   UNL     1      17.736  -3.057 -15.658  1.00  0.00     0.146 A 
ATOM     11  O   UNL     1      18.410  -2.421 -16.609  1.00  0.00    -0.452 OA
ENDROOT
BRANCH   1  12
ATOM     12  C   UNL     1      19.253  -0.509 -17.813  1.00  0.00     0.025 A 
ATOM     13  C   UNL     1      18.854  -0.673 -19.151  1.00  0.00     0.016 A 
ATOM     14  C   UNL     1      19.618  -0.131 -20.187  1.00  0.00     0.051 A 
ATOM     15  C   UNL     1      20.798   0.571 -19.904  1.00  0.00     0.157 A 
ATOM     16  C   UNL     1      20.447   0.177 -17.536  1.00  0.00     0.062 A 
ATOM     17  C   UNL     1      21.214   0.723 -18.572  1.00  0.00     0.158 A 
BRANCH  15  18
ATOM     18  O   UNL     1      21.556   1.112 -20.941  1.00  0.00    -0.504 OA
ATOM     19  H   UNL     1      22.130   0.530 -21.539  1.00  0.00     0.293 HD
ENDBRANCH  15  18
BRANCH  17  20
ATOM     20  O   UNL     1      22.387   1.409 -18.257  1.00  0.00    -0.504 OA
ATOM     21  H   UNL     1      22.582   1.739 -17.320  1.00  0.00     0.293 HD
ENDBRANCH  17  20
ENDBRANCH   1  12
BRANCH   2  22
ATOM     22  O   UNL     1      17.941   1.094 -15.782  1.00  0.00    -0.502 OA
ATOM     23  H   UNL     1      17.488   1.653 -16.496  1.00  0.00     0.293 HD
ENDBRANCH   2  22
BRANCH   6  24
ATOM     24  O   UNL     1      15.613  -2.365 -12.674  1.00  0.00    -0.507 OA
ATOM     25  H   UNL     1      14.854  -2.806 -12.167  1.00  0.00     0.293 HD
ENDBRANCH   6  24
BRANCH   8  26
ATOM     26  O   UNL     1      17.016  -6.543 -14.678  1.00  0.00    -0.508 OA
ATOM     27  H   UNL     1      16.281  -7.070 -15.135  1.00  0.00     0.293 HD
ENDBRANCH   8  26
TORSDOF 6
ENDMDL
MODEL 5
REMARK VINA RESULT:    -6.575     13.816     14.888
REMARK INTER + INTRA:          -7.397
REMARK INTER:                  -7.121
REMARK INTRA:                  -0.276
REMARK UNBOUND:                 0.523
REMARK SMILES O=c1c(O)c(-c2ccc(O)c(O)c2)oc2cc(O)cc(O)c12
REMARK SMILES IDX 5 1 3 2 2 3 1 4 22 5 20 6 19 7 17 8 16 9 15 10 14 11 6 12
REMARK SMILES IDX 7 13 8 14 9 15 13 16 11 17 10 18 12 20 4 22 21 24 18 26
REMARK H PARENT 10 19 12 21 4 23 21 25 18 27
REMARK Flexibility Score: inf
ROOT
ATOM      1  C   UNL     1       9.154   3.590 -18.630  1.00  0.00     0.180 A 
ATOM      2  C   UNL     1       8.718   2.801 -19.713  1.00  0.00     0.208 A 
ATOM      3  C   UNL     1       7.347   2.535 -19.849  1.00  0.00     0.238 A 
ATOM      4  O   UNL     1       6.946   1.820 -20.809  1.00  0.00    -0.285 OA
ATOM      5  C   UNL     1       6.436   3.074 -18.919  1.00  0.00     0.111 A 
ATOM      6  C   UNL     1       5.038   2.856 -18.988  1.00  0.00     0.134 A 
ATOM      7  C   UNL     1       4.195   3.435 -18.028  1.00  0.00     0.093 A 
ATOM      8  C   UNL     1       4.724   4.228 -17.002  1.00  0.00     0.123 A 
ATOM      9  C   UNL     1       6.100   4.446 -16.930  1.00  0.00     0.094 A 
ATOM     10  C   UNL     1       6.957   3.876 -17.876  1.00  0.00     0.146 A 
ATOM     11  O   UNL     1       8.263   4.094 -17.780  1.00  0.00    -0.452 OA
ENDROOT
BRANCH   1  12
ATOM     12  C   UNL     1      10.584   3.900 -18.408  1.00  0.00     0.025 A 
ATOM     13  C   UNL     1      11.129   5.144 -18.771  1.00  0.00     0.016 A 
ATOM     14  C   UNL     1      12.487   5.405 -18.574  1.00  0.00     0.051 A 
ATOM     15  C   UNL     1      13.323   4.423 -18.025  1.00  0.00     0.157 A 
ATOM     16  C   UNL     1      11.431   2.912 -17.877  1.00  0.00     0.062 A 
ATOM     17  C   UNL     1      12.792   3.171 -17.677  1.00  0.00     0.158 A 
BRANCH  15  18
ATOM     18  O   UNL     1      14.678   4.688 -17.828  1.00  0.00    -0.504 OA
ATOM     19  H   UNL     1      15.139   4.471 -16.952  1.00  0.00     0.293 HD
ENDBRANCH  15  18
BRANCH  17  20
ATOM     20  O   UNL     1      13.599   2.170 -17.135  1.00  0.00    -0.504 OA
ATOM     21  H   UNL     1      13.556   1.917 -16.157  1.00  0.00     0.293 HD
ENDBRANCH  17  20
ENDBRANCH   1  12
BRANCH   2  22
ATOM     22  O   UNL     1       9.636   2.320 -20.649  1.00  0.00    -0.502 OA
ATOM     23  H   UNL     1       9.693   1.340 -20.900  1.00  0.00     0.293 HD
ENDBRANCH   2  22
BRANCH   6  24
ATOM     24  O   UNL     1       4.483   2.071 -19.999  1.00  0.00    -0.507 OA
ATOM     25  H   UNL     1       3.878   2.466 -20.710  1.00  0.00     0.293 HD
ENDBRANCH   6  24
BRANCH   8  26
ATOM     26  O   UNL     1       3.886   4.805 -16.049  1.00  0.00    -0.508 OA
ATOM     27  H   UNL     1       3.389   5.668 -16.233  1.00  0.00     0.293 HD
ENDBRANCH   8  26
TORSDOF 6
ENDMDL
MODEL 6
REMARK VINA RESULT:    -6.542      2.885      3.870
REMARK INTER + INTRA:          -7.358
REMARK INTER:                  -7.587
REMARK INTRA:                   0.230
REMARK UNBOUND:                 0.523
REMARK SMILES O=c1c(O)c(-c2ccc(O)c(O)c2)oc2cc(O)cc(O)c12
REMARK SMILES IDX 5 1 3 2 2 3 1 4 22 5 20 6 19 7 17 8 16 9 15 10 14 11 6 12
REMARK SMILES IDX 7 13 8 14 9 15 13 16 11 17 10 18 12 20 4 22 21 24 18 26
REMARK H PARENT 10 19 12 21 4 23 21 25 18 27
REMARK Flexibility Score: inf
ROOT
ATOM      1  C   UNL     1       8.048  -6.404  -8.564  1.00  0.00     0.180 A 
ATOM      2  C   UNL     1       8.399  -7.557  -9.294  1.00  0.00     0.208 A 
ATOM      3  C   UNL     1       8.386  -7.502 -10.696  1.00  0.00     0.238 A 
ATOM      4  O   UNL     1       8.687  -8.532 -11.360  1.00  0.00    -0.285 OA
ATOM      5  C   UNL     1       8.043  -6.299 -11.343  1.00  0.00     0.111 A 
ATOM      6  C   UNL     1       8.009  -6.160 -12.753  1.00  0.00     0.134 A 
ATOM      7  C   UNL     1       7.666  -4.924 -13.322  1.00  0.00     0.093 A 
ATOM      8  C   UNL     1       7.359  -3.826 -12.509  1.00  0.00     0.123 A 
ATOM      9  C   UNL     1       7.391  -3.959 -11.120  1.00  0.00     0.094 A 
ATOM     10  C   UNL     1       7.728  -5.182 -10.534  1.00  0.00     0.146 A 
ATOM     11  O   UNL     1       7.745  -5.282  -9.210  1.00  0.00    -0.452 OA
ENDROOT
BRANCH   1  12
ATOM     12  C   UNL     1       8.021  -6.388  -7.084  1.00  0.00     0.025 A 
ATOM     13  C   UNL     1       8.451  -5.264  -6.357  1.00  0.00     0.016 A 
ATOM     14  C   UNL     1       8.440  -5.281  -4.960  1.00  0.00     0.051 A 
ATOM     15  C   UNL     1       8.012  -6.423  -4.269  1.00  0.00     0.157 A 
ATOM     16  C   UNL     1       7.614  -7.538  -6.387  1.00  0.00     0.062 A 
ATOM     17  C   UNL     1       7.600  -7.557  -4.988  1.00  0.00     0.158 A 
BRANCH  15  18
ATOM     18  O   UNL     1       8.000  -6.435  -2.875  1.00  0.00    -0.504 OA
ATOM     19  H   UNL     1       7.951  -7.302  -2.352  1.00  0.00     0.293 HD
ENDBRANCH  15  18
BRANCH  17  20
ATOM     20  O   UNL     1       7.177  -8.712  -4.331  1.00  0.00    -0.504 OA
ATOM     21  H   UNL     1       6.588  -8.678  -3.508  1.00  0.00     0.293 HD
ENDBRANCH  17  20
ENDBRANCH   1  12
BRANCH   2  22
ATOM     22  O   UNL     1       8.783  -8.724  -8.627  1.00  0.00    -0.502 OA
ATOM     23  H   UNL     1       8.135  -9.479  -8.438  1.00  0.00     0.293 HD
ENDBRANCH   2  22
BRANCH   6  24
ATOM     24  O   UNL     1       8.311  -7.236 -13.588  1.00  0.00    -0.507 OA
ATOM     25  H   UNL     1       8.295  -8.192 -13.251  1.00  0.00     0.293 HD
ENDBRANCH   6  24
BRANCH   8  26
ATOM     26  O   UNL     1       7.020  -2.599 -13.074  1.00  0.00    -0.508 OA
ATOM     27  H   UNL     1       7.238  -1.724 -12.612  1.00  0.00     0.293 HD
ENDBRANCH   8  26
TORSDOF 6
ENDMDL
MODEL 7
REMARK VINA RESULT:    -6.475      2.382      6.639
REMARK INTER + INTRA:          -7.277
REMARK INTER:                  -7.738
REMARK INTRA:                   0.461
REMARK UNBOUND:                 0.523
REMARK SMILES O=c1c(O)c(-c2ccc(O)c(O)c2)oc2cc(O)cc(O)c12
REMARK SMILES IDX 5 1 3 2 2 3 1 4 22 5 20 6 19 7 17 8 16 9 15 10 14 11 6 12
REMARK SMILES IDX 7 13 8 14 9 15 13 16 11 17 10 18 12 20 4 22 21 24 18 26
REMARK H PARENT 10 19 12 21 4 23 21 25 18 27
REMARK Flexibility Score: inf
ROOT
ATOM      1  C   UNL     1      10.786  -7.191  -9.199  1.00  0.00     0.180 A 
ATOM      2  C   UNL     1      10.032  -8.378  -9.271  1.00  0.00     0.208 A 
ATOM      3  C   UNL     1       9.018  -8.595  -8.324  1.00  0.00     0.238 A 
ATOM      4  O   UNL     1       8.343  -9.660  -8.372  1.00  0.00    -0.285 OA
ATOM      5  C   UNL     1       8.763  -7.619  -7.340  1.00  0.00     0.111 A 
ATOM      6  C   UNL     1       7.757  -7.760  -6.353  1.00  0.00     0.134 A 
ATOM      7  C   UNL     1       7.558  -6.738  -5.412  1.00  0.00     0.093 A 
ATOM      8  C   UNL     1       8.344  -5.581  -5.441  1.00  0.00     0.123 A 
ATOM      9  C   UNL     1       9.337  -5.438  -6.412  1.00  0.00     0.094 A 
ATOM     10  C   UNL     1       9.551  -6.445  -7.357  1.00  0.00     0.146 A 
ATOM     11  O   UNL     1      10.506  -6.286  -8.266  1.00  0.00    -0.452 OA
ENDROOT
BRANCH   1  12
ATOM     12  C   UNL     1      11.883  -6.897 -10.149  1.00  0.00     0.025 A 
ATOM     13  C   UNL     1      12.281  -7.833 -11.120  1.00  0.00     0.016 A 
ATOM     14  C   UNL     1      13.336  -7.544 -11.989  1.00  0.00     0.051 A 
ATOM     15  C   UNL     1      14.016  -6.322 -11.894  1.00  0.00     0.157 A 
ATOM     16  C   UNL     1      12.582  -5.683 -10.044  1.00  0.00     0.062 A 
ATOM     17  C   UNL     1      13.638  -5.390 -10.914  1.00  0.00     0.158 A 
BRANCH  15  18
ATOM     18  O   UNL     1      15.067  -6.036 -12.765  1.00  0.00    -0.504 OA
ATOM     19  H   UNL     1      15.106  -6.432 -13.697  1.00  0.00     0.293 HD
ENDBRANCH  15  18
BRANCH  17  20
ATOM     20  O   UNL     1      14.300  -4.168 -10.789  1.00  0.00    -0.504 OA
ATOM     21  H   UNL     1      15.091  -4.047 -10.169  1.00  0.00     0.293 HD
ENDBRANCH  17  20
ENDBRANCH   1  12
BRANCH   2  22
ATOM     22  O   UNL     1      10.272  -9.307 -10.286  1.00  0.00    -0.502 OA
ATOM     23  H   UNL     1       9.816  -9.253 -11.189  1.00  0.00     0.293 HD
ENDBRANCH   2  22
BRANCH   6  24
ATOM     24  O   UNL     1       6.958  -8.903  -6.300  1.00  0.00    -0.507 OA
ATOM     25  H   UNL     1       6.952  -9.512  -5.490  1.00  0.00     0.293 HD
ENDBRANCH   6  24
BRANCH   8  26
ATOM     26  O   UNL     1       8.146  -4.566  -4.507  1.00  0.00    -0.508 OA
ATOM     27  H   UNL     1       8.923  -4.127  -4.027  1.00  0.00     0.293 HD
ENDBRANCH   8  26
TORSDOF 6
ENDMDL
MODEL 8
REMARK VINA RESULT:    -6.440      8.411     10.170
REMARK INTER + INTRA:          -7.235
REMARK INTER:                  -6.932
REMARK INTRA:                  -0.303
REMARK UNBOUND:                 0.523
REMARK SMILES O=c1c(O)c(-c2ccc(O)c(O)c2)oc2cc(O)cc(O)c12
REMARK SMILES IDX 5 1 3 2 2 3 1 4 22 5 20 6 19 7 17 8 16 9 15 10 14 11 6 12
REMARK SMILES IDX 7 13 8 14 9 15 13 16 11 17 10 18 12 20 4 22 21 24 18 26
REMARK H PARENT 10 19 12 21 4 23 21 25 18 27
REMARK Flexibility Score: inf
ROOT
ATOM      1  C   UNL     1      18.107  -2.450  -8.962  1.00  0.00     0.180 A 
ATOM      2  C   UNL     1      17.377  -1.246  -8.992  1.00  0.00     0.208 A 
ATOM      3  C   UNL     1      16.325  -1.113  -9.911  1.00  0.00     0.238 A 
ATOM      4  O   UNL     1      15.672  -0.035  -9.955  1.00  0.00    -0.285 OA
ATOM      5  C   UNL     1      16.007  -2.187 -10.767  1.00  0.00     0.111 A 
ATOM      6  C   UNL     1      14.959  -2.135 -11.718  1.00  0.00     0.134 A 
ATOM      7  C   UNL     1      14.699  -3.251 -12.529  1.00  0.00     0.093 A 
ATOM      8  C   UNL     1      15.466  -4.415 -12.404  1.00  0.00     0.123 A 
ATOM      9  C   UNL     1      16.499  -4.471 -11.468  1.00  0.00     0.094 A 
ATOM     10  C   UNL     1      16.775  -3.370 -10.653  1.00  0.00     0.146 A 
ATOM     11  O   UNL     1      17.768  -3.447  -9.775  1.00  0.00    -0.452 OA
ENDROOT
BRANCH   1  12
ATOM     12  C   UNL     1      19.241  -2.660  -8.035  1.00  0.00     0.025 A 
ATOM     13  C   UNL     1      19.033  -3.025  -6.693  1.00  0.00     0.016 A 
ATOM     14  C   UNL     1      20.118  -3.193  -5.830  1.00  0.00     0.051 A 
ATOM     15  C   UNL     1      21.426  -2.987  -6.289  1.00  0.00     0.157 A 
ATOM     16  C   UNL     1      20.553  -2.435  -8.485  1.00  0.00     0.062 A 
ATOM     17  C   UNL     1      21.643  -2.604  -7.623  1.00  0.00     0.158 A 
BRANCH  15  18
ATOM     18  O   UNL     1      22.507  -3.158  -5.426  1.00  0.00    -0.504 OA
ATOM     19  H   UNL     1      23.371  -2.644  -5.549  1.00  0.00     0.293 HD
ENDBRANCH  15  18
BRANCH  17  20
ATOM     20  O   UNL     1      22.931  -2.384  -8.109  1.00  0.00    -0.504 OA
ATOM     21  H   UNL     1      23.639  -3.107  -8.102  1.00  0.00     0.293 HD
ENDBRANCH  17  20
ENDBRANCH   1  12
BRANCH   2  22
ATOM     22  O   UNL     1      17.681  -0.215  -8.099  1.00  0.00    -0.502 OA
ATOM     23  H   UNL     1      17.834   0.739  -8.403  1.00  0.00     0.293 HD
ENDBRANCH   2  22
BRANCH   6  24
ATOM     24  O   UNL     1      14.178  -0.988 -11.864  1.00  0.00    -0.507 OA
ATOM     25  H   UNL     1      13.905  -0.642 -12.777  1.00  0.00     0.293 HD
ENDBRANCH   6  24
BRANCH   8  26
ATOM     26  O   UNL     1      15.206  -5.524 -13.208  1.00  0.00    -0.508 OA
ATOM     27  H   UNL     1      15.690  -5.666 -14.087  1.00  0.00     0.293 HD
ENDBRANCH   8  26
TORSDOF 6
ENDMDL
MODEL 9
REMARK VINA RESULT:    -6.371     11.299     13.008
REMARK INTER + INTRA:          -7.151
REMARK INTER:                  -6.830
REMARK INTRA:                  -0.321
REMARK UNBOUND:                 0.523
REMARK SMILES O=c1c(O)c(-c2ccc(O)c(O)c2)oc2cc(O)cc(O)c12
REMARK SMILES IDX 5 1 3 2 2 3 1 4 22 5 20 6 19 7 17 8 16 9 15 10 14 11 6 12
REMARK SMILES IDX 7 13 8 14 9 15 13 16 11 17 10 18 12 20 4 22 21 24 18 26
REMARK H PARENT 10 19 12 21 4 23 21 25 18 27
REMARK Flexibility Score: inf
ROOT
ATOM      1  C   UNL     1      18.041  -0.294 -15.547  1.00  0.00     0.180 A 
ATOM      2  C   UNL     1      19.115   0.466 -15.042  1.00  0.00     0.208 A 
ATOM      3  C   UNL     1      20.169   0.806 -15.905  1.00  0.00     0.238 A 
ATOM      4  O   UNL     1      21.141   1.477 -15.461  1.00  0.00    -0.285 OA
ATOM      5  C   UNL     1      20.125   0.400 -17.253  1.00  0.00     0.111 A 
ATOM      6  C   UNL     1      21.145   0.705 -18.188  1.00  0.00     0.134 A 
ATOM      7  C   UNL     1      21.023   0.272 -19.517  1.00  0.00     0.093 A 
ATOM      8  C   UNL     1      19.902  -0.457 -19.928  1.00  0.00     0.123 A 
ATOM      9  C   UNL     1      18.894  -0.759 -19.011  1.00  0.00     0.094 A 
ATOM     10  C   UNL     1      18.997  -0.339 -17.682  1.00  0.00     0.146 A 
ATOM     11  O   UNL     1      18.027  -0.646 -16.829  1.00  0.00    -0.452 OA
ENDROOT
BRANCH   1  12
ATOM     12  C   UNL     1      16.902  -0.707 -14.697  1.00  0.00     0.025 A 
ATOM     13  C   UNL     1      15.795   0.135 -14.496  1.00  0.00     0.016 A 
ATOM     14  C   UNL     1      14.743  -0.266 -13.669  1.00  0.00     0.051 A 
ATOM     15  C   UNL     1      14.786  -1.508 -13.021  1.00  0.00     0.157 A 
ATOM     16  C   UNL     1      16.951  -1.942 -14.028  1.00  0.00     0.062 A 
ATOM     17  C   UNL     1      15.898  -2.348 -13.200  1.00  0.00     0.158 A 
BRANCH  15  18
ATOM     18  O   UNL     1      13.733  -1.906 -12.199  1.00  0.00    -0.504 OA
ATOM     19  H   UNL     1      13.777  -2.760 -11.656  1.00  0.00     0.293 HD
ENDBRANCH  15  18
BRANCH  17  20
ATOM     20  O   UNL     1      15.975  -3.586 -12.563  1.00  0.00    -0.504 OA
ATOM     21  H   UNL     1      15.472  -4.397 -12.901  1.00  0.00     0.293 HD
ENDBRANCH  17  20
ENDBRANCH   1  12
BRANCH   2  22
ATOM     22  O   UNL     1      19.110   0.898 -13.714  1.00  0.00    -0.502 OA
ATOM     23  H   UNL     1      18.920   0.271 -12.941  1.00  0.00     0.293 HD
ENDBRANCH   2  22
BRANCH   6  24
ATOM     24  O   UNL     1      22.274   1.431 -17.806  1.00  0.00    -0.507 OA
ATOM     25  H   UNL     1      23.075   1.531 -18.419  1.00  0.00     0.293 HD
ENDBRANCH   6  24
BRANCH   8  26
ATOM     26  O   UNL     1      19.780  -0.885 -21.248  1.00  0.00    -0.508 OA
ATOM     27  H   UNL     1      19.556  -0.240 -21.997  1.00  0.00     0.293 HD
ENDBRANCH   8  26
TORSDOF 6
ENDMDL
