MODEL 1
REMARK VINA RESULT:    -3.752      0.000      0.000
REMARK INTER + INTRA:          -5.171
REMARK INTER:                  -4.849
REMARK INTRA:                  -0.322
REMARK UNBOUND:                -0.322
REMARK SMILES CCCCCCC(=O)[O-]
REMARK SMILES IDX 5 1 6 2 7 3 8 4 9 5 4 6 3 7 2 8 1 9
REMARK H PARENT
REMARK Flexibility Score: inf
ROOT
ATOM      1  C   UNL     1      98.834  91.378  85.429  1.00  0.00     0.006 C 
ENDROOT
BRANCH   1   2
ATOM      2  C   UNL     1      99.641  92.062  86.542  1.00  0.00     0.053 C 
BRANCH   2   3
ATOM      3  C   UNL     1      98.887  92.093  87.836  1.00  0.00     0.041 C 
ATOM      4  O   UNL     1      97.875  92.831  87.962  1.00  0.00    -0.550 OA
ATOM      5  O   UNL     1      99.282  91.282  88.892  1.00  0.00    -0.550 OA
ENDBRANCH   2   3
ENDBRANCH   1   2
BRANCH   1   6
ATOM      6  C   UNL     1      99.545  90.135  84.875  1.00  0.00     0.000 C 
BRANCH   6   7
ATOM      7  C   UNL     1     100.512  89.547  85.914  1.00  0.00    -0.000 C 
BRANCH   7   8
ATOM      8  C   UNL     1     100.158  88.103  86.300  1.00  0.00    -0.003 C 
ATOM      9  C   UNL     1      99.016  88.025  87.314  1.00  0.00     0.004 C 
ENDBRANCH   7   8
ENDBRANCH   6   7
ENDBRANCH   1   6
TORSDOF 5
ENDMDL
MODEL 2
REMARK VINA RESULT:    -3.742      2.093      3.764
REMARK INTER + INTRA:          -5.157
REMARK INTER:                  -4.798
REMARK INTRA:                  -0.359
REMARK UNBOUND:                -0.322
REMARK SMILES CCCCCCC(=O)[O-]
REMARK SMILES IDX 5 1 6 2 7 3 8 4 9 5 4 6 3 7 2 8 1 9
REMARK H PARENT
REMARK Flexibility Score: inf
ROOT
ATOM      1  C   UNL     1      99.406  90.226  84.899  1.00  0.00     0.006 C 
ENDROOT
BRANCH   1   2
ATOM      2  C   UNL     1     100.441  89.618  85.857  1.00  0.00     0.053 C 
BRANCH   2   3
ATOM      3  C   UNL     1      99.974  88.314  86.425  1.00  0.00     0.041 C 
ATOM      4  O   UNL     1     100.593  87.250  86.162  1.00  0.00    -0.550 OA
ATOM      5  O   UNL     1      98.873  88.277  87.272  1.00  0.00    -0.550 OA
ENDBRANCH   2   3
ENDBRANCH   1   2
BRANCH   1   6
ATOM      6  C   UNL     1      98.917  91.603  85.368  1.00  0.00     0.000 C 
BRANCH   6   7
ATOM      7  C   UNL     1      99.693  92.068  86.610  1.00  0.00    -0.000 C 
BRANCH   7   8
ATOM      8  C   UNL     1      98.779  92.308  87.822  1.00  0.00    -0.003 C 
ATOM      9  C   UNL     1      99.209  91.512  89.054  1.00  0.00     0.004 C 
ENDBRANCH   7   8
ENDBRANCH   6   7
ENDBRANCH   1   6
TORSDOF 5
ENDMDL
MODEL 3
REMARK VINA RESULT:    -3.655      1.617      3.353
REMARK INTER + INTRA:          -5.044
REMARK INTER:                  -4.632
REMARK INTRA:                  -0.413
REMARK UNBOUND:                -0.322
REMARK SMILES CCCCCCC(=O)[O-]
REMARK SMILES IDX 5 1 6 2 7 3 8 4 9 5 4 6 3 7 2 8 1 9
REMARK H PARENT
REMARK Flexibility Score: inf
ROOT
ATOM      1  C   UNL     1     100.209  88.429  86.044  1.00  0.00     0.006 C 
ENDROOT
BRANCH   1   2
ATOM      2  C   UNL     1      99.312  88.230  87.274  1.00  0.00     0.053 C 
BRANCH   2   3
ATOM      3  C   UNL     1      99.982  88.692  88.531  1.00  0.00     0.041 C 
ATOM      4  O   UNL     1      99.594  89.742  89.107  1.00  0.00    -0.550 OA
ATOM      5  O   UNL     1     101.014  87.944  89.085  1.00  0.00    -0.550 OA
ENDBRANCH   2   3
ENDBRANCH   1   2
BRANCH   1   6
ATOM      6  C   UNL     1      99.848  89.697  85.258  1.00  0.00     0.000 C 
BRANCH   6   7
ATOM      7  C   UNL     1     100.734  90.878  85.684  1.00  0.00    -0.000 C 
BRANCH   7   8
ATOM      8  C   UNL     1      99.917  92.096  86.141  1.00  0.00    -0.003 C 
ATOM      9  C   UNL     1      98.437  91.772  86.343  1.00  0.00     0.004 C 
ENDBRANCH   7   8
ENDBRANCH   6   7
ENDBRANCH   1   6
TORSDOF 5
ENDMDL
MODEL 4
REMARK VINA RESULT:    -3.630      1.729      2.219
REMARK INTER + INTRA:          -5.013
REMARK INTER:                  -4.654
REMARK INTRA:                  -0.359
REMARK UNBOUND:                -0.322
REMARK SMILES CCCCCCC(=O)[O-]
REMARK SMILES IDX 5 1 6 2 7 3 8 4 9 5 4 6 3 7 2 8 1 9
REMARK H PARENT
REMARK Flexibility Score: inf
ROOT
ATOM      1  C   UNL     1      99.051  91.560  87.307  1.00  0.00     0.006 C 
ENDROOT
BRANCH   1   2
ATOM      2  C   UNL     1      99.246  91.901  88.790  1.00  0.00     0.053 C 
BRANCH   2   3
ATOM      3  C   UNL     1      99.126  90.687  89.660  1.00  0.00     0.041 C 
ATOM      4  O   UNL     1      98.245  90.636  90.558  1.00  0.00    -0.550 OA
ATOM      5  O   UNL     1      99.965  89.598  89.457  1.00  0.00    -0.550 OA
ENDBRANCH   2   3
ENDBRANCH   1   2
BRANCH   1   6
ATOM      6  C   UNL     1     100.260  91.965  86.451  1.00  0.00     0.000 C 
BRANCH   6   7
ATOM      7  C   UNL     1     101.088  90.733  86.054  1.00  0.00    -0.000 C 
BRANCH   7   8
ATOM      8  C   UNL     1     100.224  89.477  85.864  1.00  0.00    -0.003 C 
ATOM      9  C   UNL     1     100.923  88.202  86.337  1.00  0.00     0.004 C 
ENDBRANCH   7   8
ENDBRANCH   6   7
ENDBRANCH   1   6
TORSDOF 5
ENDMDL
MODEL 5
REMARK VINA RESULT:    -3.519      1.551      2.078
REMARK INTER + INTRA:          -4.870
REMARK INTER:                  -4.457
REMARK INTRA:                  -0.412
REMARK UNBOUND:                -0.322
REMARK SMILES CCCCCCC(=O)[O-]
REMARK SMILES IDX 5 1 6 2 7 3 8 4 9 5 4 6 3 7 2 8 1 9
REMARK H PARENT
REMARK Flexibility Score: inf
ROOT
ATOM      1  C   UNL     1      99.235  89.574  85.172  1.00  0.00     0.006 C 
ENDROOT
BRANCH   1   2
ATOM      2  C   UNL     1      99.683  91.036  85.043  1.00  0.00     0.053 C 
BRANCH   2   3
ATOM      3  C   UNL     1      99.544  91.776  86.338  1.00  0.00     0.041 C 
ATOM      4  O   UNL     1      98.403  92.086  86.771  1.00  0.00    -0.550 OA
ATOM      5  O   UNL     1     100.673  92.095  87.083  1.00  0.00    -0.550 OA
ENDBRANCH   2   3
ENDBRANCH   1   2
BRANCH   1   6
ATOM      6  C   UNL     1     100.214  88.736  86.007  1.00  0.00     0.000 C 
BRANCH   6   7
ATOM      7  C   UNL     1      99.552  88.250  87.305  1.00  0.00    -0.000 C 
BRANCH   7   8
ATOM      8  C   UNL     1     100.342  88.657  88.559  1.00  0.00    -0.003 C 
ATOM      9  C   UNL     1      99.593  89.668  89.427  1.00  0.00     0.004 C 
ENDBRANCH   7   8
ENDBRANCH   6   7
ENDBRANCH   1   6
TORSDOF 5
ENDMDL
MODEL 6
REMARK VINA RESULT:    -3.482      2.324      4.011
REMARK INTER + INTRA:          -4.822
REMARK INTER:                  -4.416
REMARK INTRA:                  -0.405
REMARK UNBOUND:                -0.322
REMARK SMILES CCCCCCC(=O)[O-]
REMARK SMILES IDX 5 1 6 2 7 3 8 4 9 5 4 6 3 7 2 8 1 9
REMARK H PARENT
REMARK Flexibility Score: inf
ROOT
ATOM      1  C   UNL     1      99.605  89.162  87.711  1.00  0.00     0.006 C 
ENDROOT
BRANCH   1   2
ATOM      2  C   UNL     1     100.870  89.285  86.850  1.00  0.00     0.053 C 
BRANCH   2   3
ATOM      3  C   UNL     1     100.819  90.486  85.956  1.00  0.00     0.041 C 
ATOM      4  O   UNL     1      99.899  90.603  85.104  1.00  0.00    -0.550 OA
ATOM      5  O   UNL     1     101.768  91.492  86.086  1.00  0.00    -0.550 OA
ENDBRANCH   2   3
ENDBRANCH   1   2
BRANCH   1   6
ATOM      6  C   UNL     1      99.852  89.566  89.171  1.00  0.00     0.000 C 
BRANCH   6   7
ATOM      7  C   UNL     1      99.005  90.790  89.552  1.00  0.00    -0.000 C 
BRANCH   7   8
ATOM      8  C   UNL     1      99.610  92.108  89.047  1.00  0.00    -0.003 C 
ATOM      9  C   UNL     1      98.705  92.832  88.051  1.00  0.00     0.004 C 
ENDBRANCH   7   8
ENDBRANCH   6   7
ENDBRANCH   1   6
TORSDOF 5
ENDMDL
MODEL 7
REMARK VINA RESULT:    -3.465      2.465      3.797
REMARK INTER + INTRA:          -4.800
REMARK INTER:                  -4.519
REMARK INTRA:                  -0.281
REMARK UNBOUND:                -0.322
REMARK SMILES CCCCCCC(=O)[O-]
REMARK SMILES IDX 5 1 6 2 7 3 8 4 9 5 4 6 3 7 2 8 1 9
REMARK H PARENT
REMARK Flexibility Score: inf
ROOT
ATOM      1  C   UNL     1      99.548  88.334  87.464  1.00  0.00     0.006 C 
ENDROOT
BRANCH   1   2
ATOM      2  C   UNL     1      99.740  89.279  88.658  1.00  0.00     0.053 C 
BRANCH   2   3
ATOM      3  C   UNL     1     100.472  88.612  89.782  1.00  0.00     0.041 C 
ATOM      4  O   UNL     1     100.899  87.436  89.651  1.00  0.00    -0.550 OA
ATOM      5  O   UNL     1     100.712  89.303  90.964  1.00  0.00    -0.550 OA
ENDBRANCH   2   3
ENDBRANCH   1   2
BRANCH   1   6
ATOM      6  C   UNL     1     100.410  88.735  86.259  1.00  0.00     0.000 C 
BRANCH   6   7
ATOM      7  C   UNL     1      99.608  89.600  85.274  1.00  0.00    -0.000 C 
BRANCH   7   8
ATOM      8  C   UNL     1     100.023  91.079  85.314  1.00  0.00    -0.003 C 
ATOM      9  C   UNL     1     101.391  91.293  85.961  1.00  0.00     0.004 C 
ENDBRANCH   7   8
ENDBRANCH   6   7
ENDBRANCH   1   6
TORSDOF 5
ENDMDL
MODEL 8
REMARK VINA RESULT:    -3.449      2.356      3.542
REMARK INTER + INTRA:          -4.778
REMARK INTER:                  -4.539
REMARK INTRA:                  -0.239
REMARK UNBOUND:                -0.322
REMARK SMILES CCCCCCC(=O)[O-]
REMARK SMILES IDX 5 1 6 2 7 3 8 4 9 5 4 6 3 7 2 8 1 9
REMARK H PARENT
REMARK Flexibility Score: inf
ROOT
ATOM      1  C   UNL     1      99.987  89.124  88.927  1.00  0.00     0.006 C 
ENDROOT
BRANCH   1   2
ATOM      2  C   UNL     1      99.428  90.418  89.534  1.00  0.00     0.053 C 
BRANCH   2   3
ATOM      3  C   UNL     1      98.858  90.189  90.901  1.00  0.00     0.041 C 
ATOM      4  O   UNL     1      99.623  90.018  91.886  1.00  0.00    -0.550 OA
ATOM      5  O   UNL     1      97.482  90.197  91.092  1.00  0.00    -0.550 OA
ENDBRANCH   2   3
ENDBRANCH   1   2
BRANCH   1   6
ATOM      6  C   UNL     1      99.440  88.858  87.517  1.00  0.00     0.000 C 
BRANCH   6   7
ATOM      7  C   UNL     1     100.530  89.076  86.456  1.00  0.00    -0.000 C 
BRANCH   7   8
ATOM      8  C   UNL     1     100.365  90.404  85.703  1.00  0.00    -0.003 C 
ATOM      9  C   UNL     1     101.466  91.412  86.032  1.00  0.00     0.004 C 
ENDBRANCH   7   8
ENDBRANCH   6   7
ENDBRANCH   1   6
TORSDOF 5
ENDMDL
MODEL 9
REMARK VINA RESULT:    -3.441      1.662      2.767
REMARK INTER + INTRA:          -4.768
REMARK INTER:                  -4.343
REMARK INTRA:                  -0.425
REMARK UNBOUND:                -0.322
REMARK SMILES CCCCCCC(=O)[O-]
REMARK SMILES IDX 5 1 6 2 7 3 8 4 9 5 4 6 3 7 2 8 1 9
REMARK H PARENT
REMARK Flexibility Score: inf
ROOT
ATOM      1  C   UNL     1      99.388  89.428  88.680  1.00  0.00     0.006 C 
ENDROOT
BRANCH   1   2
ATOM      2  C   UNL     1      99.634  90.610  89.629  1.00  0.00     0.053 C 
BRANCH   2   3
ATOM      3  C   UNL     1      99.211  91.910  89.017  1.00  0.00     0.041 C 
ATOM      4  O   UNL     1      97.995  92.137  88.788  1.00  0.00    -0.550 OA
ATOM      5  O   UNL     1     100.158  92.886  88.731  1.00  0.00    -0.550 OA
ENDBRANCH   2   3
ENDBRANCH   1   2
BRANCH   1   6
ATOM      6  C   UNL     1     100.411  89.376  87.537  1.00  0.00     0.000 C 
BRANCH   6   7
ATOM      7  C   UNL     1      99.721  89.546  86.175  1.00  0.00    -0.000 C 
BRANCH   7   8
ATOM      8  C   UNL     1     100.139  90.840  85.460  1.00  0.00    -0.003 C 
ATOM      9  C   UNL     1     101.501  91.358  85.921  1.00  0.00     0.004 C 
ENDBRANCH   7   8
ENDBRANCH   6   7
ENDBRANCH   1   6
TORSDOF 5
ENDMDL
