MODEL 1
REMARK VINA RESULT:    -3.809      0.000      0.000
REMARK INTER + INTRA:          -5.758
REMARK INTER:                  -5.145
REMARK INTRA:                  -0.613
REMARK UNBOUND:                -0.613
REMARK SMILES CCCCCCCC(=O)[O-]
REMARK SMILES IDX 5 1 6 2 7 3 8 4 9 5 10 6 4 7 3 8 2 9 1 10
REMARK H PARENT
REMARK Flexibility Score: inf
ROOT
ATOM      1  C   UNL     1     -19.134  45.691  -5.866  1.00  0.00     0.000 C 
ENDROOT
BRANCH   1   2
ATOM      2  C   UNL     1     -19.614  45.913  -7.305  1.00  0.00     0.006 C 
BRANCH   2   3
ATOM      3  C   UNL     1     -20.675  44.880  -7.697  1.00  0.00     0.053 C 
BRANCH   3   4
ATOM      4  C   UNL     1     -20.323  44.235  -9.000  1.00  0.00     0.041 C 
ATOM      5  O   UNL     1     -19.830  44.921  -9.934  1.00  0.00    -0.550 OA
ATOM      6  O   UNL     1     -20.494  42.867  -9.168  1.00  0.00    -0.550 OA
ENDBRANCH   3   4
ENDBRANCH   2   3
ENDBRANCH   1   2
BRANCH   1   7
ATOM      7  C   UNL     1     -18.633  44.256  -5.667  1.00  0.00     0.000 C 
BRANCH   7   8
ATOM      8  C   UNL     1     -17.214  44.087  -6.229  1.00  0.00    -0.000 C 
BRANCH   8   9
ATOM      9  C   UNL     1     -17.134  42.999  -7.312  1.00  0.00    -0.003 C 
ATOM     10  C   UNL     1     -16.634  43.536  -8.653  1.00  0.00     0.004 C 
ENDBRANCH   8   9
ENDBRANCH   7   8
ENDBRANCH   1   7
TORSDOF 6
ENDMDL
MODEL 2
REMARK VINA RESULT:    -3.807      1.943      3.550
REMARK INTER + INTRA:          -5.755
REMARK INTER:                  -5.156
REMARK INTRA:                  -0.599
REMARK UNBOUND:                -0.613
REMARK SMILES CCCCCCCC(=O)[O-]
REMARK SMILES IDX 5 1 6 2 7 3 8 4 9 5 10 6 4 7 3 8 2 9 1 10
REMARK H PARENT
REMARK Flexibility Score: inf
ROOT
ATOM      1  C   UNL     1     -20.256  44.604  -6.620  1.00  0.00     0.000 C 
ENDROOT
BRANCH   1   2
ATOM      2  C   UNL     1     -18.967  45.067  -5.929  1.00  0.00     0.006 C 
BRANCH   2   3
ATOM      3  C   UNL     1     -17.961  43.918  -5.816  1.00  0.00     0.053 C 
BRANCH   3   4
ATOM      4  C   UNL     1     -17.239  43.724  -7.112  1.00  0.00     0.041 C 
ATOM      5  O   UNL     1     -17.048  42.564  -7.563  1.00  0.00    -0.550 OA
ATOM      6  O   UNL     1     -16.821  44.825  -7.847  1.00  0.00    -0.550 OA
ENDBRANCH   3   4
ENDBRANCH   2   3
ENDBRANCH   1   2
BRANCH   1   7
ATOM      7  C   UNL     1     -20.553  45.455  -7.859  1.00  0.00     0.000 C 
BRANCH   7   8
ATOM      8  C   UNL     1     -20.264  44.670  -9.147  1.00  0.00    -0.000 C 
BRANCH   8   9
ATOM      9  C   UNL     1     -20.508  43.162  -8.986  1.00  0.00    -0.003 C 
ATOM     10  C   UNL     1     -19.932  42.343 -10.141  1.00  0.00     0.004 C 
ENDBRANCH   8   9
ENDBRANCH   7   8
ENDBRANCH   1   7
TORSDOF 6
ENDMDL
MODEL 3
REMARK VINA RESULT:    -3.774      2.078      3.473
REMARK INTER + INTRA:          -5.711
REMARK INTER:                  -5.157
REMARK INTRA:                  -0.554
REMARK UNBOUND:                -0.613
REMARK SMILES CCCCCCCC(=O)[O-]
REMARK SMILES IDX 5 1 6 2 7 3 8 4 9 5 10 6 4 7 3 8 2 9 1 10
REMARK H PARENT
REMARK Flexibility Score: inf
ROOT
ATOM      1  C   UNL     1     -16.955  44.062  -7.201  1.00  0.00     0.000 C 
ENDROOT
BRANCH   1   2
ATOM      2  C   UNL     1     -17.664  44.033  -5.841  1.00  0.00     0.006 C 
BRANCH   2   3
ATOM      3  C   UNL     1     -19.134  44.437  -5.979  1.00  0.00     0.053 C 
BRANCH   3   4
ATOM      4  C   UNL     1     -19.248  45.878  -6.366  1.00  0.00     0.041 C 
ATOM      5  O   UNL     1     -19.824  46.203  -7.438  1.00  0.00    -0.550 OA
ATOM      6  O   UNL     1     -18.762  46.866  -5.520  1.00  0.00    -0.550 OA
ENDBRANCH   3   4
ENDBRANCH   2   3
ENDBRANCH   1   2
BRANCH   1   7
ATOM      7  C   UNL     1     -17.229  42.778  -7.992  1.00  0.00     0.000 C 
BRANCH   7   8
ATOM      8  C   UNL     1     -17.931  43.092  -9.321  1.00  0.00    -0.000 C 
BRANCH   8   9
ATOM      9  C   UNL     1     -19.263  42.341  -9.476  1.00  0.00    -0.003 C 
ATOM     10  C   UNL     1     -20.478  43.239  -9.246  1.00  0.00     0.004 C 
ENDBRANCH   8   9
ENDBRANCH   7   8
ENDBRANCH   1   7
TORSDOF 6
ENDMDL
MODEL 4
REMARK VINA RESULT:    -3.699      0.918      2.982
REMARK INTER + INTRA:          -5.609
REMARK INTER:                  -4.989
REMARK INTRA:                  -0.620
REMARK UNBOUND:                -0.613
REMARK SMILES CCCCCCCC(=O)[O-]
REMARK SMILES IDX 5 1 6 2 7 3 8 4 9 5 10 6 4 7 3 8 2 9 1 10
REMARK H PARENT
REMARK Flexibility Score: inf
ROOT
ATOM      1  C   UNL     1     -16.952  42.995  -7.251  1.00  0.00     0.000 C 
ENDROOT
BRANCH   1   2
ATOM      2  C   UNL     1     -17.091  43.359  -8.734  1.00  0.00     0.006 C 
BRANCH   2   3
ATOM      3  C   UNL     1     -18.352  42.734  -9.338  1.00  0.00     0.053 C 
BRANCH   3   4
ATOM      4  C   UNL     1     -19.485  43.712  -9.314  1.00  0.00     0.041 C 
ATOM      5  O   UNL     1     -20.624  43.352  -8.918  1.00  0.00    -0.550 OA
ATOM      6  O   UNL     1     -19.270  45.033  -9.683  1.00  0.00    -0.550 OA
ENDBRANCH   3   4
ENDBRANCH   2   3
ENDBRANCH   1   2
BRANCH   1   7
ATOM      7  C   UNL     1     -17.232  44.208  -6.357  1.00  0.00     0.000 C 
BRANCH   7   8
ATOM      8  C   UNL     1     -18.501  43.992  -5.519  1.00  0.00    -0.000 C 
BRANCH   8   9
ATOM      9  C   UNL     1     -19.632  44.960  -5.901  1.00  0.00    -0.003 C 
ATOM     10  C   UNL     1     -19.114  46.313  -6.386  1.00  0.00     0.004 C 
ENDBRANCH   8   9
ENDBRANCH   7   8
ENDBRANCH   1   7
TORSDOF 6
ENDMDL
MODEL 5
REMARK VINA RESULT:    -3.683      2.221      3.325
REMARK INTER + INTRA:          -5.588
REMARK INTER:                  -5.029
REMARK INTRA:                  -0.560
REMARK UNBOUND:                -0.613
REMARK SMILES CCCCCCCC(=O)[O-]
REMARK SMILES IDX 5 1 6 2 7 3 8 4 9 5 10 6 4 7 3 8 2 9 1 10
REMARK H PARENT
REMARK Flexibility Score: inf
ROOT
ATOM      1  C   UNL     1     -20.282  44.679  -9.175  1.00  0.00     0.000 C 
ENDROOT
BRANCH   1   2
ATOM      2  C   UNL     1     -20.668  45.335  -7.843  1.00  0.00     0.006 C 
BRANCH   2   3
ATOM      3  C   UNL     1     -19.439  45.532  -6.951  1.00  0.00     0.053 C 
BRANCH   3   4
ATOM      4  C   UNL     1     -19.435  44.533  -5.837  1.00  0.00     0.041 C 
ATOM      5  O   UNL     1     -18.346  44.140  -5.342  1.00  0.00    -0.550 OA
ATOM      6  O   UNL     1     -20.635  44.075  -5.310  1.00  0.00    -0.550 OA
ENDBRANCH   3   4
ENDBRANCH   2   3
ENDBRANCH   1   2
BRANCH   1   7
ATOM      7  C   UNL     1     -20.508  43.164  -9.128  1.00  0.00     0.000 C 
BRANCH   7   8
ATOM      8  C   UNL     1     -19.276  42.408  -9.646  1.00  0.00    -0.000 C 
BRANCH   8   9
ATOM      9  C   UNL     1     -17.970  43.186  -9.423  1.00  0.00    -0.003 C 
ATOM     10  C   UNL     1     -17.184  42.686  -8.211  1.00  0.00     0.004 C 
ENDBRANCH   8   9
ENDBRANCH   7   8
ENDBRANCH   1   7
TORSDOF 6
ENDMDL
MODEL 6
REMARK VINA RESULT:    -3.597      1.565      2.146
REMARK INTER + INTRA:          -5.471
REMARK INTER:                  -4.995
REMARK INTRA:                  -0.476
REMARK UNBOUND:                -0.613
REMARK SMILES CCCCCCCC(=O)[O-]
REMARK SMILES IDX 5 1 6 2 7 3 8 4 9 5 10 6 4 7 3 8 2 9 1 10
REMARK H PARENT
REMARK Flexibility Score: inf
ROOT
ATOM      1  C   UNL     1     -19.928  45.611  -7.438  1.00  0.00     0.000 C 
ENDROOT
BRANCH   1   2
ATOM      2  C   UNL     1     -19.926  45.055  -8.867  1.00  0.00     0.006 C 
BRANCH   2   3
ATOM      3  C   UNL     1     -20.489  43.632  -8.905  1.00  0.00     0.053 C 
BRANCH   3   4
ATOM      4  C   UNL     1     -19.573  42.726  -9.666  1.00  0.00     0.041 C 
ATOM      5  O   UNL     1     -20.044  41.859 -10.448  1.00  0.00    -0.550 OA
ATOM      6  O   UNL     1     -18.196  42.871  -9.550  1.00  0.00    -0.550 OA
ENDBRANCH   3   4
ENDBRANCH   2   3
ENDBRANCH   1   2
BRANCH   1   7
ATOM      7  C   UNL     1     -20.228  44.507  -6.418  1.00  0.00     0.000 C 
BRANCH   7   8
ATOM      8  C   UNL     1     -19.056  44.326  -5.442  1.00  0.00    -0.000 C 
BRANCH   8   9
ATOM      9  C   UNL     1     -17.773  43.853  -6.143  1.00  0.00    -0.003 C 
ATOM     10  C   UNL     1     -16.646  44.883  -6.073  1.00  0.00     0.004 C 
ENDBRANCH   8   9
ENDBRANCH   7   8
ENDBRANCH   1   7
TORSDOF 6
ENDMDL
MODEL 7
REMARK VINA RESULT:    -3.571      2.414      3.578
REMARK INTER + INTRA:          -5.437
REMARK INTER:                  -4.842
REMARK INTRA:                  -0.595
REMARK UNBOUND:                -0.613
REMARK SMILES CCCCCCCC(=O)[O-]
REMARK SMILES IDX 5 1 6 2 7 3 8 4 9 5 10 6 4 7 3 8 2 9 1 10
REMARK H PARENT
REMARK Flexibility Score: inf
ROOT
ATOM      1  C   UNL     1     -20.981  44.926  -7.724  1.00  0.00     0.000 C 
ENDROOT
BRANCH   1   2
ATOM      2  C   UNL     1     -20.216  44.589  -6.438  1.00  0.00     0.006 C 
BRANCH   2   3
ATOM      3  C   UNL     1     -19.085  45.591  -6.192  1.00  0.00     0.053 C 
BRANCH   3   4
ATOM      4  C   UNL     1     -17.790  44.876  -5.966  1.00  0.00     0.041 C 
ATOM      5  O   UNL     1     -17.755  43.618  -5.955  1.00  0.00    -0.550 OA
ATOM      6  O   UNL     1     -16.613  45.599  -5.818  1.00  0.00    -0.550 OA
ENDBRANCH   3   4
ENDBRANCH   2   3
ENDBRANCH   1   2
BRANCH   1   7
ATOM      7  C   UNL     1     -20.147  44.591  -8.965  1.00  0.00     0.000 C 
BRANCH   7   8
ATOM      8  C   UNL     1     -20.184  43.084  -9.261  1.00  0.00    -0.000 C 
BRANCH   8   9
ATOM      9  C   UNL     1     -18.790  42.439  -9.216  1.00  0.00    -0.003 C 
ATOM     10  C   UNL     1     -17.669  43.432  -9.523  1.00  0.00     0.004 C 
ENDBRANCH   8   9
ENDBRANCH   7   8
ENDBRANCH   1   7
TORSDOF 6
ENDMDL
MODEL 8
REMARK VINA RESULT:    -3.487      2.459      4.281
REMARK INTER + INTRA:          -5.323
REMARK INTER:                  -4.742
REMARK INTRA:                  -0.581
REMARK UNBOUND:                -0.613
REMARK SMILES CCCCCCCC(=O)[O-]
REMARK SMILES IDX 5 1 6 2 7 3 8 4 9 5 10 6 4 7 3 8 2 9 1 10
REMARK H PARENT
REMARK Flexibility Score: inf
ROOT
ATOM      1  C   UNL     1     -17.506  43.708  -8.462  1.00  0.00     0.000 C 
ENDROOT
BRANCH   1   2
ATOM      2  C   UNL     1     -17.150  43.144  -7.082  1.00  0.00     0.006 C 
BRANCH   2   3
ATOM      3  C   UNL     1     -17.902  43.887  -5.974  1.00  0.00     0.053 C 
BRANCH   3   4
ATOM      4  C   UNL     1     -17.471  45.319  -5.917  1.00  0.00     0.041 C 
ATOM      5  O   UNL     1     -18.330  46.238  -5.861  1.00  0.00    -0.550 OA
ATOM      6  O   UNL     1     -16.120  45.637  -5.874  1.00  0.00    -0.550 OA
ENDBRANCH   3   4
ENDBRANCH   2   3
ENDBRANCH   1   2
BRANCH   1   7
ATOM      7  C   UNL     1     -18.362  42.716  -9.259  1.00  0.00     0.000 C 
BRANCH   7   8
ATOM      8  C   UNL     1     -19.858  43.007  -9.072  1.00  0.00    -0.000 C 
BRANCH   8   9
ATOM      9  C   UNL     1     -20.172  44.511  -9.086  1.00  0.00    -0.003 C 
ATOM     10  C   UNL     1     -20.937  44.967  -7.843  1.00  0.00     0.004 C 
ENDBRANCH   8   9
ENDBRANCH   7   8
ENDBRANCH   1   7
TORSDOF 6
ENDMDL
MODEL 9
REMARK VINA RESULT:    -3.385      2.312      3.373
REMARK INTER + INTRA:          -5.185
REMARK INTER:                  -4.582
REMARK INTRA:                  -0.603
REMARK UNBOUND:                -0.613
REMARK SMILES CCCCCCCC(=O)[O-]
REMARK SMILES IDX 5 1 6 2 7 3 8 4 9 5 10 6 4 7 3 8 2 9 1 10
REMARK H PARENT
REMARK Flexibility Score: inf
ROOT
ATOM      1  C   UNL     1     -20.280  43.473  -8.887  1.00  0.00     0.000 C 
ENDROOT
BRANCH   1   2
ATOM      2  C   UNL     1     -20.022  44.779  -8.125  1.00  0.00     0.006 C 
BRANCH   2   3
ATOM      3  C   UNL     1     -20.209  44.581  -6.618  1.00  0.00     0.053 C 
BRANCH   3   4
ATOM      4  C   UNL     1     -18.922  44.825  -5.894  1.00  0.00     0.041 C 
ATOM      5  O   UNL     1     -18.184  43.858  -5.570  1.00  0.00    -0.550 OA
ATOM      6  O   UNL     1     -18.513  46.124  -5.621  1.00  0.00    -0.550 OA
ENDBRANCH   3   4
ENDBRANCH   2   3
ENDBRANCH   1   2
BRANCH   1   7
ATOM      7  C   UNL     1     -18.964  42.777  -9.251  1.00  0.00     0.000 C 
BRANCH   7   8
ATOM      8  C   UNL     1     -17.891  43.803  -9.646  1.00  0.00    -0.000 C 
BRANCH   8   9
ATOM      9  C   UNL     1     -16.608  43.667  -8.812  1.00  0.00    -0.003 C 
ATOM     10  C   UNL     1     -16.141  44.998  -8.224  1.00  0.00     0.004 C 
ENDBRANCH   8   9
ENDBRANCH   7   8
ENDBRANCH   1   7
TORSDOF 6
ENDMDL
