MODEL 1
REMARK VINA RESULT:    -5.177      0.000      0.000
REMARK INTER + INTRA:         -10.927
REMARK INTER:                  -9.415
REMARK INTRA:                  -1.513
REMARK UNBOUND:                -1.513
REMARK SMILES CCCCCCCCCCCCCCCC(=O)[O-]
REMARK SMILES IDX 9 1 10 2 11 3 12 4 13 5 14 6 15 7 16 8 17 9 18 10 8 11 7 12
REMARK SMILES IDX 6 13 5 14 4 15 3 16 2 17 1 18
REMARK H PARENT
REMARK Flexibility Score: inf
ROOT
ATOM      1  C   UNL     1       2.963 -10.847 -18.672  1.00  0.00     0.000 C 
ENDROOT
BRANCH   1   2
ATOM      2  C   UNL     1       3.147  -9.402 -18.184  1.00  0.00     0.000 C 
BRANCH   2   3
ATOM      3  C   UNL     1       2.594  -9.181 -16.767  1.00  0.00     0.000 C 
BRANCH   3   4
ATOM      4  C   UNL     1       3.729  -8.890 -15.774  1.00  0.00     0.000 C 
BRANCH   4   5
ATOM      5  C   UNL     1       4.665 -10.091 -15.573  1.00  0.00     0.000 C 
BRANCH   5   6
ATOM      6  C   UNL     1       3.981 -11.260 -14.843  1.00  0.00     0.006 C 
BRANCH   6   7
ATOM      7  C   UNL     1       4.111 -12.581 -15.614  1.00  0.00     0.053 C 
BRANCH   7   8
ATOM      8  C   UNL     1       2.780 -13.229 -15.835  1.00  0.00     0.041 C 
ATOM      9  O   UNL     1       2.479 -13.694 -16.967  1.00  0.00    -0.550 OA
ATOM     10  O   UNL     1       1.880 -13.344 -14.784  1.00  0.00    -0.550 OA
ENDBRANCH   7   8
ENDBRANCH   6   7
ENDBRANCH   5   6
ENDBRANCH   4   5
ENDBRANCH   3   4
ENDBRANCH   2   3
ENDBRANCH   1   2
BRANCH   1  11
ATOM     11  C   UNL     1       4.282 -11.484 -19.145  1.00  0.00     0.000 C 
BRANCH  11  12
ATOM     12  C   UNL     1       5.352 -10.440 -19.498  1.00  0.00    -0.000 C 
BRANCH  12  13
ATOM     13  C   UNL     1       5.551 -10.290 -21.016  1.00  0.00    -0.000 C 
BRANCH  13  14
ATOM     14  C   UNL     1       4.910  -9.009 -21.578  1.00  0.00    -0.000 C 
BRANCH  14  15
ATOM     15  C   UNL     1       5.872  -8.096 -22.363  1.00  0.00    -0.000 C 
BRANCH  15  16
ATOM     16  C   UNL     1       5.348  -6.655 -22.549  1.00  0.00    -0.000 C 
BRANCH  16  17
ATOM     17  C   UNL     1       3.868  -6.488 -22.162  1.00  0.00    -0.003 C 
ATOM     18  C   UNL     1       2.983  -6.171 -23.367  1.00  0.00     0.004 C 
ENDBRANCH  16  17
ENDBRANCH  15  16
ENDBRANCH  14  15
ENDBRANCH  13  14
ENDBRANCH  12  13
ENDBRANCH  11  12
ENDBRANCH   1  11
TORSDOF 14
ENDMDL
MODEL 2
REMARK VINA RESULT:    -5.157      1.189      1.919
REMARK INTER + INTRA:         -10.890
REMARK INTER:                  -9.344
REMARK INTRA:                  -1.546
REMARK UNBOUND:                -1.513
REMARK SMILES CCCCCCCCCCCCCCCC(=O)[O-]
REMARK SMILES IDX 9 1 10 2 11 3 12 4 13 5 14 6 15 7 16 8 17 9 18 10 8 11 7 12
REMARK SMILES IDX 6 13 5 14 4 15 3 16 2 17 1 18
REMARK H PARENT
REMARK Flexibility Score: inf
ROOT
ATOM      1  C   UNL     1       3.983 -11.508 -19.169  1.00  0.00     0.000 C 
ENDROOT
BRANCH   1   2
ATOM      2  C   UNL     1       2.783 -10.864 -18.455  1.00  0.00     0.000 C 
BRANCH   2   3
ATOM      3  C   UNL     1       3.032  -9.391 -18.092  1.00  0.00     0.000 C 
BRANCH   3   4
ATOM      4  C   UNL     1       2.958  -9.180 -16.573  1.00  0.00     0.000 C 
BRANCH   4   5
ATOM      5  C   UNL     1       4.311  -9.400 -15.877  1.00  0.00     0.000 C 
BRANCH   5   6
ATOM      6  C   UNL     1       4.181 -10.205 -14.572  1.00  0.00     0.006 C 
BRANCH   6   7
ATOM      7  C   UNL     1       3.145 -11.330 -14.686  1.00  0.00     0.053 C 
BRANCH   7   8
ATOM      8  C   UNL     1       3.711 -12.540 -15.364  1.00  0.00     0.041 C 
ATOM      9  O   UNL     1       2.946 -13.383 -15.903  1.00  0.00    -0.550 OA
ATOM     10  O   UNL     1       5.086 -12.723 -15.424  1.00  0.00    -0.550 OA
ENDBRANCH   7   8
ENDBRANCH   6   7
ENDBRANCH   5   6
ENDBRANCH   4   5
ENDBRANCH   3   4
ENDBRANCH   2   3
ENDBRANCH   1   2
BRANCH   1  11
ATOM     11  C   UNL     1       5.215 -10.587 -19.201  1.00  0.00     0.000 C 
BRANCH  11  12
ATOM     12  C   UNL     1       5.736 -10.343 -20.626  1.00  0.00    -0.000 C 
BRANCH  12  13
ATOM     13  C   UNL     1       4.707  -9.622 -21.514  1.00  0.00    -0.000 C 
BRANCH  13  14
ATOM     14  C   UNL     1       4.738  -8.094 -21.343  1.00  0.00    -0.000 C 
BRANCH  14  15
ATOM     15  C   UNL     1       4.065  -7.302 -22.480  1.00  0.00    -0.000 C 
BRANCH  15  16
ATOM     16  C   UNL     1       5.065  -6.605 -23.430  1.00  0.00    -0.000 C 
BRANCH  16  17
ATOM     17  C   UNL     1       6.525  -6.693 -22.951  1.00  0.00    -0.003 C 
ATOM     18  C   UNL     1       7.452  -7.286 -24.013  1.00  0.00     0.004 C 
ENDBRANCH  16  17
ENDBRANCH  15  16
ENDBRANCH  14  15
ENDBRANCH  13  14
ENDBRANCH  12  13
ENDBRANCH  11  12
ENDBRANCH   1  11
TORSDOF 14
ENDMDL
MODEL 3
REMARK VINA RESULT:    -5.151      0.843      1.643
REMARK INTER + INTRA:         -10.879
REMARK INTER:                  -9.821
REMARK INTRA:                  -1.058
REMARK UNBOUND:                -1.513
REMARK SMILES CCCCCCCCCCCCCCCC(=O)[O-]
REMARK SMILES IDX 9 1 10 2 11 3 12 4 13 5 14 6 15 7 16 8 17 9 18 10 8 11 7 12
REMARK SMILES IDX 6 13 5 14 4 15 3 16 2 17 1 18
REMARK H PARENT
REMARK Flexibility Score: inf
ROOT
ATOM      1  C   UNL     1       5.807 -11.103 -18.687  1.00  0.00     0.000 C 
ENDROOT
BRANCH   1   2
ATOM      2  C   UNL     1       5.224 -10.417 -17.441  1.00  0.00     0.000 C 
BRANCH   2   3
ATOM      3  C   UNL     1       3.874  -9.737 -17.717  1.00  0.00     0.000 C 
BRANCH   3   4
ATOM      4  C   UNL     1       3.151  -9.400 -16.405  1.00  0.00     0.000 C 
BRANCH   4   5
ATOM      5  C   UNL     1       4.017  -9.665 -15.164  1.00  0.00     0.000 C 
BRANCH   5   6
ATOM      6  C   UNL     1       3.443 -10.774 -14.265  1.00  0.00     0.006 C 
BRANCH   6   7
ATOM      7  C   UNL     1       3.927 -12.168 -14.686  1.00  0.00     0.053 C 
BRANCH   7   8
ATOM      8  C   UNL     1       2.874 -12.915 -15.446  1.00  0.00     0.041 C 
ATOM      9  O   UNL     1       1.911 -13.452 -14.836  1.00  0.00    -0.550 OA
ATOM     10  O   UNL     1       2.943 -12.998 -16.830  1.00  0.00    -0.550 OA
ENDBRANCH   7   8
ENDBRANCH   6   7
ENDBRANCH   5   6
ENDBRANCH   4   5
ENDBRANCH   3   4
ENDBRANCH   2   3
ENDBRANCH   1   2
BRANCH   1  11
ATOM     11  C   UNL     1       5.054 -10.726 -19.976  1.00  0.00     0.000 C 
BRANCH  11  12
ATOM     12  C   UNL     1       5.953 -10.019 -21.003  1.00  0.00    -0.000 C 
BRANCH  12  13
ATOM     13  C   UNL     1       5.218  -8.893 -21.752  1.00  0.00    -0.000 C 
BRANCH  13  14
ATOM     14  C   UNL     1       6.175  -7.953 -22.503  1.00  0.00    -0.000 C 
BRANCH  14  15
ATOM     15  C   UNL     1       5.542  -6.631 -22.979  1.00  0.00    -0.000 C 
BRANCH  15  16
ATOM     16  C   UNL     1       4.323  -6.188 -22.139  1.00  0.00    -0.000 C 
BRANCH  16  17
ATOM     17  C   UNL     1       2.989  -6.281 -22.902  1.00  0.00    -0.003 C 
ATOM     18  C   UNL     1       3.141  -5.939 -24.384  1.00  0.00     0.004 C 
ENDBRANCH  16  17
ENDBRANCH  15  16
ENDBRANCH  14  15
ENDBRANCH  13  14
ENDBRANCH  12  13
ENDBRANCH  11  12
ENDBRANCH   1  11
TORSDOF 14
ENDMDL
MODEL 4
REMARK VINA RESULT:    -5.101      0.862      1.212
REMARK INTER + INTRA:         -10.790
REMARK INTER:                  -9.491
REMARK INTRA:                  -1.298
REMARK UNBOUND:                -1.513
REMARK SMILES CCCCCCCCCCCCCCCC(=O)[O-]
REMARK SMILES IDX 9 1 10 2 11 3 12 4 13 5 14 6 15 7 16 8 17 9 18 10 8 11 7 12
REMARK SMILES IDX 6 13 5 14 4 15 3 16 2 17 1 18
REMARK H PARENT
REMARK Flexibility Score: inf
ROOT
ATOM      1  C   UNL     1       4.339 -11.612 -19.074  1.00  0.00     0.000 C 
ENDROOT
BRANCH   1   2
ATOM      2  C   UNL     1       3.149 -11.127 -18.232  1.00  0.00     0.000 C 
BRANCH   2   3
ATOM      3  C   UNL     1       3.163  -9.607 -18.006  1.00  0.00     0.000 C 
BRANCH   3   4
ATOM      4  C   UNL     1       3.109  -9.274 -16.507  1.00  0.00     0.000 C 
BRANCH   4   5
ATOM      5  C   UNL     1       4.439  -9.547 -15.789  1.00  0.00     0.000 C 
BRANCH   5   6
ATOM      6  C   UNL     1       4.261 -10.379 -14.507  1.00  0.00     0.006 C 
BRANCH   6   7
ATOM      7  C   UNL     1       2.961 -11.196 -14.523  1.00  0.00     0.053 C 
BRANCH   7   8
ATOM      8  C   UNL     1       3.183 -12.581 -15.045  1.00  0.00     0.041 C 
ATOM      9  O   UNL     1       4.328 -12.940 -15.430  1.00  0.00    -0.550 OA
ATOM     10  O   UNL     1       2.130 -13.487 -15.083  1.00  0.00    -0.550 OA
ENDBRANCH   7   8
ENDBRANCH   6   7
ENDBRANCH   5   6
ENDBRANCH   4   5
ENDBRANCH   3   4
ENDBRANCH   2   3
ENDBRANCH   1   2
BRANCH   1  11
ATOM     11  C   UNL     1       5.609 -10.774 -18.841  1.00  0.00     0.000 C 
BRANCH  11  12
ATOM     12  C   UNL     1       6.321 -10.398 -20.150  1.00  0.00    -0.000 C 
BRANCH  12  13
ATOM     13  C   UNL     1       5.346 -10.262 -21.332  1.00  0.00    -0.000 C 
BRANCH  13  14
ATOM     14  C   UNL     1       4.904  -8.809 -21.576  1.00  0.00    -0.000 C 
BRANCH  14  15
ATOM     15  C   UNL     1       5.924  -7.942 -22.339  1.00  0.00    -0.000 C 
BRANCH  15  16
ATOM     16  C   UNL     1       5.366  -6.570 -22.780  1.00  0.00    -0.000 C 
BRANCH  16  17
ATOM     17  C   UNL     1       3.882  -6.371 -22.427  1.00  0.00    -0.003 C 
ATOM     18  C   UNL     1       3.031  -6.038 -23.653  1.00  0.00     0.004 C 
ENDBRANCH  16  17
ENDBRANCH  15  16
ENDBRANCH  14  15
ENDBRANCH  13  14
ENDBRANCH  12  13
ENDBRANCH  11  12
ENDBRANCH   1  11
TORSDOF 14
ENDMDL
MODEL 5
REMARK VINA RESULT:    -5.035      3.807      7.906
REMARK INTER + INTRA:         -10.668
REMARK INTER:                  -9.469
REMARK INTRA:                  -1.200
REMARK UNBOUND:                -1.513
REMARK SMILES CCCCCCCCCCCCCCCC(=O)[O-]
REMARK SMILES IDX 9 1 10 2 11 3 12 4 13 5 14 6 15 7 16 8 17 9 18 10 8 11 7 12
REMARK SMILES IDX 6 13 5 14 4 15 3 16 2 17 1 18
REMARK H PARENT
REMARK Flexibility Score: inf
ROOT
ATOM      1  C   UNL     1       6.134 -10.984 -17.849  1.00  0.00     0.000 C 
ENDROOT
BRANCH   1   2
ATOM      2  C   UNL     1       5.222 -11.399 -19.015  1.00  0.00     0.000 C 
BRANCH   2   3
ATOM      3  C   UNL     1       5.626 -10.742 -20.344  1.00  0.00     0.000 C 
BRANCH   3   4
ATOM      4  C   UNL     1       4.593  -9.689 -20.772  1.00  0.00     0.000 C 
BRANCH   4   5
ATOM      5  C   UNL     1       5.023  -8.909 -22.024  1.00  0.00     0.000 C 
BRANCH   5   6
ATOM      6  C   UNL     1       4.355  -7.526 -22.120  1.00  0.00     0.006 C 
BRANCH   6   7
ATOM      7  C   UNL     1       4.943  -6.677 -23.255  1.00  0.00     0.053 C 
BRANCH   7   8
ATOM      8  C   UNL     1       6.430  -6.825 -23.346  1.00  0.00     0.041 C 
ATOM      9  O   UNL     1       7.169  -6.405 -22.416  1.00  0.00    -0.550 OA
ATOM     10  O   UNL     1       7.000  -7.450 -24.447  1.00  0.00    -0.550 OA
ENDBRANCH   7   8
ENDBRANCH   6   7
ENDBRANCH   5   6
ENDBRANCH   4   5
ENDBRANCH   3   4
ENDBRANCH   2   3
ENDBRANCH   1   2
BRANCH   1  11
ATOM     11  C   UNL     1       5.444 -10.011 -16.877  1.00  0.00     0.000 C 
BRANCH  11  12
ATOM     12  C   UNL     1       3.979  -9.737 -17.251  1.00  0.00    -0.000 C 
BRANCH  12  13
ATOM     13  C   UNL     1       3.129  -9.323 -16.037  1.00  0.00    -0.000 C 
BRANCH  13  14
ATOM     14  C   UNL     1       3.789  -9.684 -14.695  1.00  0.00    -0.000 C 
BRANCH  14  15
ATOM     15  C   UNL     1       3.322 -11.020 -14.084  1.00  0.00    -0.000 C 
BRANCH  15  16
ATOM     16  C   UNL     1       4.173 -12.234 -14.521  1.00  0.00    -0.000 C 
BRANCH  16  17
ATOM     17  C   UNL     1       3.528 -13.059 -15.648  1.00  0.00    -0.003 C 
ATOM     18  C   UNL     1       2.072 -13.417 -15.349  1.00  0.00     0.004 C 
ENDBRANCH  16  17
ENDBRANCH  15  16
ENDBRANCH  14  15
ENDBRANCH  13  14
ENDBRANCH  12  13
ENDBRANCH  11  12
ENDBRANCH   1  11
TORSDOF 14
ENDMDL
MODEL 6
REMARK VINA RESULT:    -5.014      3.852      7.638
REMARK INTER + INTRA:         -10.631
REMARK INTER:                  -9.014
REMARK INTRA:                  -1.618
REMARK UNBOUND:                -1.513
REMARK SMILES CCCCCCCCCCCCCCCC(=O)[O-]
REMARK SMILES IDX 9 1 10 2 11 3 12 4 13 5 14 6 15 7 16 8 17 9 18 10 8 11 7 12
REMARK SMILES IDX 6 13 5 14 4 15 3 16 2 17 1 18
REMARK H PARENT
REMARK Flexibility Score: inf
ROOT
ATOM      1  C   UNL     1       5.359 -10.137 -17.115  1.00  0.00     0.000 C 
ENDROOT
BRANCH   1   2
ATOM      2  C   UNL     1       6.155 -10.924 -18.168  1.00  0.00     0.000 C 
BRANCH   2   3
ATOM      3  C   UNL     1       5.329 -11.232 -19.426  1.00  0.00     0.000 C 
BRANCH   3   4
ATOM      4  C   UNL     1       5.862 -10.454 -20.638  1.00  0.00     0.000 C 
BRANCH   4   5
ATOM      5  C   UNL     1       4.774  -9.623 -21.336  1.00  0.00     0.000 C 
BRANCH   5   6
ATOM      6  C   UNL     1       5.308  -8.287 -21.881  1.00  0.00     0.006 C 
BRANCH   6   7
ATOM      7  C   UNL     1       4.184  -7.268 -22.115  1.00  0.00     0.053 C 
BRANCH   7   8
ATOM      8  C   UNL     1       4.334  -6.569 -23.430  1.00  0.00     0.041 C 
ATOM      9  O   UNL     1       5.434  -6.596 -24.043  1.00  0.00    -0.550 OA
ATOM     10  O   UNL     1       3.250  -5.908 -23.994  1.00  0.00    -0.550 OA
ENDBRANCH   7   8
ENDBRANCH   6   7
ENDBRANCH   5   6
ENDBRANCH   4   5
ENDBRANCH   3   4
ENDBRANCH   2   3
ENDBRANCH   1   2
BRANCH   1  11
ATOM     11  C   UNL     1       3.968  -9.715 -17.619  1.00  0.00     0.000 C 
BRANCH  11  12
ATOM     12  C   UNL     1       3.036  -9.265 -16.483  1.00  0.00    -0.000 C 
BRANCH  12  13
ATOM     13  C   UNL     1       3.672  -9.447 -15.094  1.00  0.00    -0.000 C 
BRANCH  13  14
ATOM     14  C   UNL     1       3.194 -10.725 -14.382  1.00  0.00    -0.000 C 
BRANCH  14  15
ATOM     15  C   UNL     1       4.267 -11.820 -14.231  1.00  0.00    -0.000 C 
BRANCH  15  16
ATOM     16  C   UNL     1       4.204 -12.907 -15.328  1.00  0.00    -0.000 C 
BRANCH  16  17
ATOM     17  C   UNL     1       2.789 -13.122 -15.895  1.00  0.00    -0.003 C 
ATOM     18  C   UNL     1       2.762 -13.080 -17.423  1.00  0.00     0.004 C 
ENDBRANCH  16  17
ENDBRANCH  15  16
ENDBRANCH  14  15
ENDBRANCH  13  14
ENDBRANCH  12  13
ENDBRANCH  11  12
ENDBRANCH   1  11
TORSDOF 14
ENDMDL
MODEL 7
REMARK VINA RESULT:    -4.905      3.382      7.715
REMARK INTER + INTRA:         -10.432
REMARK INTER:                  -9.089
REMARK INTRA:                  -1.344
REMARK UNBOUND:                -1.513
REMARK SMILES CCCCCCCCCCCCCCCC(=O)[O-]
REMARK SMILES IDX 9 1 10 2 11 3 12 4 13 5 14 6 15 7 16 8 17 9 18 10 8 11 7 12
REMARK SMILES IDX 6 13 5 14 4 15 3 16 2 17 1 18
REMARK H PARENT
REMARK Flexibility Score: inf
ROOT
ATOM      1  C   UNL     1       4.243 -11.602 -19.142  1.00  0.00     0.000 C 
ENDROOT
BRANCH   1   2
ATOM      2  C   UNL     1       5.379 -10.570 -19.226  1.00  0.00     0.000 C 
BRANCH   2   3
ATOM      3  C   UNL     1       5.934 -10.417 -20.651  1.00  0.00     0.000 C 
BRANCH   3   4
ATOM      4  C   UNL     1       5.243  -9.260 -21.389  1.00  0.00     0.000 C 
BRANCH   4   5
ATOM      5  C   UNL     1       6.184  -8.529 -22.358  1.00  0.00     0.000 C 
BRANCH   5   6
ATOM      6  C   UNL     1       5.921  -7.014 -22.410  1.00  0.00     0.006 C 
BRANCH   6   7
ATOM      7  C   UNL     1       5.122  -6.607 -23.656  1.00  0.00     0.053 C 
BRANCH   7   8
ATOM      8  C   UNL     1       3.714  -6.230 -23.315  1.00  0.00     0.041 C 
ATOM      9  O   UNL     1       3.326  -6.239 -22.116  1.00  0.00    -0.550 OA
ATOM     10  O   UNL     1       2.835  -5.845 -24.318  1.00  0.00    -0.550 OA
ENDBRANCH   7   8
ENDBRANCH   6   7
ENDBRANCH   5   6
ENDBRANCH   4   5
ENDBRANCH   3   4
ENDBRANCH   2   3
ENDBRANCH   1   2
BRANCH   1  11
ATOM     11  C   UNL     1       2.979 -11.036 -18.470  1.00  0.00     0.000 C 
BRANCH  11  12
ATOM     12  C   UNL     1       3.081  -9.530 -18.186  1.00  0.00    -0.000 C 
BRANCH  12  13
ATOM     13  C   UNL     1       2.924  -9.201 -16.691  1.00  0.00    -0.000 C 
BRANCH  13  14
ATOM     14  C   UNL     1       4.185  -9.529 -15.873  1.00  0.00    -0.000 C 
BRANCH  14  15
ATOM     15  C   UNL     1       3.922 -10.289 -14.558  1.00  0.00    -0.000 C 
BRANCH  15  16
ATOM     16  C   UNL     1       4.249 -11.797 -14.636  1.00  0.00    -0.000 C 
BRANCH  16  17
ATOM     17  C   UNL     1       3.000 -12.696 -14.611  1.00  0.00    -0.003 C 
ATOM     18  C   UNL     1       2.698 -13.313 -15.976  1.00  0.00     0.004 C 
ENDBRANCH  16  17
ENDBRANCH  15  16
ENDBRANCH  14  15
ENDBRANCH  13  14
ENDBRANCH  12  13
ENDBRANCH  11  12
ENDBRANCH   1  11
TORSDOF 14
ENDMDL
MODEL 8
REMARK VINA RESULT:    -4.849      1.407      2.250
REMARK INTER + INTRA:         -10.331
REMARK INTER:                  -9.291
REMARK INTRA:                  -1.041
REMARK UNBOUND:                -1.513
REMARK SMILES CCCCCCCCCCCCCCCC(=O)[O-]
REMARK SMILES IDX 9 1 10 2 11 3 12 4 13 5 14 6 15 7 16 8 17 9 18 10 8 11 7 12
REMARK SMILES IDX 6 13 5 14 4 15 3 16 2 17 1 18
REMARK H PARENT
REMARK Flexibility Score: inf
ROOT
ATOM      1  C   UNL     1       6.097 -11.060 -19.208  1.00  0.00     0.000 C 
ENDROOT
BRANCH   1   2
ATOM      2  C   UNL     1       4.585 -11.295 -19.065  1.00  0.00     0.000 C 
BRANCH   2   3
ATOM      3  C   UNL     1       3.783  -9.984 -19.036  1.00  0.00     0.000 C 
BRANCH   3   4
ATOM      4  C   UNL     1       2.698 -10.027 -17.950  1.00  0.00     0.000 C 
BRANCH   4   5
ATOM      5  C   UNL     1       3.040  -9.151 -16.735  1.00  0.00     0.000 C 
BRANCH   5   6
ATOM      6  C   UNL     1       4.092  -9.797 -15.816  1.00  0.00     0.006 C 
BRANCH   6   7
ATOM      7  C   UNL     1       3.504 -10.938 -14.974  1.00  0.00     0.053 C 
BRANCH   7   8
ATOM      8  C   UNL     1       3.909 -12.280 -15.498  1.00  0.00     0.041 C 
ATOM      9  O   UNL     1       5.122 -12.536 -15.721  1.00  0.00    -0.550 OA
ATOM     10  O   UNL     1       2.949 -13.260 -15.717  1.00  0.00    -0.550 OA
ENDBRANCH   7   8
ENDBRANCH   6   7
ENDBRANCH   5   6
ENDBRANCH   4   5
ENDBRANCH   3   4
ENDBRANCH   2   3
ENDBRANCH   1   2
BRANCH   1  11
ATOM     11  C   UNL     1       6.490 -10.581 -20.617  1.00  0.00     0.000 C 
BRANCH  11  12
ATOM     12  C   UNL     1       7.955 -10.124 -20.700  1.00  0.00    -0.000 C 
BRANCH  12  13
ATOM     13  C   UNL     1       8.170  -9.026 -21.756  1.00  0.00    -0.000 C 
BRANCH  13  14
ATOM     14  C   UNL     1       6.849  -8.433 -22.277  1.00  0.00    -0.000 C 
BRANCH  14  15
ATOM     15  C   UNL     1       7.011  -7.236 -23.233  1.00  0.00    -0.000 C 
BRANCH  15  16
ATOM     16  C   UNL     1       5.699  -6.459 -23.483  1.00  0.00    -0.000 C 
BRANCH  16  17
ATOM     17  C   UNL     1       4.574  -6.825 -22.499  1.00  0.00    -0.003 C 
ATOM     18  C   UNL     1       3.226  -6.232 -22.908  1.00  0.00     0.004 C 
ENDBRANCH  16  17
ENDBRANCH  15  16
ENDBRANCH  14  15
ENDBRANCH  13  14
ENDBRANCH  12  13
ENDBRANCH  11  12
ENDBRANCH   1  11
TORSDOF 14
ENDMDL
MODEL 9
REMARK VINA RESULT:    -4.654      3.483      7.639
REMARK INTER + INTRA:          -9.976
REMARK INTER:                  -8.688
REMARK INTRA:                  -1.288
REMARK UNBOUND:                -1.513
REMARK SMILES CCCCCCCCCCCCCCCC(=O)[O-]
REMARK SMILES IDX 9 1 10 2 11 3 12 4 13 5 14 6 15 7 16 8 17 9 18 10 8 11 7 12
REMARK SMILES IDX 6 13 5 14 4 15 3 16 2 17 1 18
REMARK H PARENT
REMARK Flexibility Score: inf
ROOT
ATOM      1  C   UNL     1       5.331 -10.586 -20.166  1.00  0.00     0.000 C 
ENDROOT
BRANCH   1   2
ATOM      2  C   UNL     1       6.858 -10.758 -20.150  1.00  0.00     0.000 C 
BRANCH   2   3
ATOM      3  C   UNL     1       7.574  -9.775 -21.088  1.00  0.00     0.000 C 
BRANCH   3   4
ATOM      4  C   UNL     1       6.567  -8.842 -21.778  1.00  0.00     0.000 C 
BRANCH   4   5
ATOM      5  C   UNL     1       7.233  -7.889 -22.783  1.00  0.00     0.000 C 
BRANCH   5   6
ATOM      6  C   UNL     1       6.221  -6.965 -23.483  1.00  0.00     0.006 C 
BRANCH   6   7
ATOM      7  C   UNL     1       5.169  -6.416 -22.510  1.00  0.00     0.053 C 
BRANCH   7   8
ATOM      8  C   UNL     1       3.855  -6.178 -23.188  1.00  0.00     0.041 C 
ATOM      9  O   UNL     1       3.811  -5.957 -24.427  1.00  0.00    -0.550 OA
ATOM     10  O   UNL     1       2.676  -6.228 -22.456  1.00  0.00    -0.550 OA
ENDBRANCH   7   8
ENDBRANCH   6   7
ENDBRANCH   5   6
ENDBRANCH   4   5
ENDBRANCH   3   4
ENDBRANCH   2   3
ENDBRANCH   1   2
BRANCH   1  11
ATOM     11  C   UNL     1       4.622 -11.504 -19.154  1.00  0.00     0.000 C 
BRANCH  11  12
ATOM     12  C   UNL     1       3.236 -10.979 -18.746  1.00  0.00    -0.000 C 
BRANCH  12  13
ATOM     13  C   UNL     1       3.273  -9.508 -18.297  1.00  0.00    -0.000 C 
BRANCH  13  14
ATOM     14  C   UNL     1       3.085  -9.343 -16.779  1.00  0.00    -0.000 C 
BRANCH  14  15
ATOM     15  C   UNL     1       4.321  -9.701 -15.932  1.00  0.00    -0.000 C 
BRANCH  15  16
ATOM     16  C   UNL     1       4.052 -10.790 -14.870  1.00  0.00    -0.000 C 
BRANCH  16  17
ATOM     17  C   UNL     1       4.391 -12.212 -15.353  1.00  0.00    -0.003 C 
ATOM     18  C   UNL     1       3.142 -13.024 -15.694  1.00  0.00     0.004 C 
ENDBRANCH  16  17
ENDBRANCH  15  16
ENDBRANCH  14  15
ENDBRANCH  13  14
ENDBRANCH  12  13
ENDBRANCH  11  12
ENDBRANCH   1  11
TORSDOF 14
ENDMDL
