MODEL 1
REMARK VINA RESULT:    -3.079      0.000      0.000
REMARK INTER + INTRA:          -4.063
REMARK INTER:                  -3.799
REMARK INTRA:                  -0.265
REMARK UNBOUND:                -0.265
REMARK SMILES C=CCc1ccc(OC)c(OC)c1
REMARK SMILES IDX 7 1 10 2 13 3 4 4 5 5 6 6 8 7 9 8 11 9 12 10 3 11 2 12 1 13
REMARK H PARENT
REMARK Flexibility Score: inf
ROOT
ATOM      1  C   UNL     1     147.228 158.917 138.786  1.00  0.00     0.160 A 
ATOM      2  C   UNL     1     146.970 158.603 137.443  1.00  0.00     0.160 A 
ATOM      3  C   UNL     1     146.560 157.299 137.099  1.00  0.00     0.054 A 
ATOM      4  C   UNL     1     146.415 156.313 138.086  1.00  0.00    -0.040 A 
ATOM      5  C   UNL     1     146.665 156.639 139.426  1.00  0.00     0.008 A 
ATOM      6  C   UNL     1     147.071 157.928 139.775  1.00  0.00     0.051 A 
ENDROOT
BRANCH   1   7
ATOM      7  O   UNL     1     147.635 160.224 139.099  1.00  0.00    -0.493 OA
ATOM      8  C   UNL     1     147.424 160.856 140.358  1.00  0.00     0.278 C 
ENDBRANCH   1   7
BRANCH   2   9
ATOM      9  O   UNL     1     147.129 159.612 136.480  1.00  0.00    -0.493 OA
ATOM     10  C   UNL     1     146.058 160.357 135.907  1.00  0.00     0.278 C 
ENDBRANCH   2   9
BRANCH   4  11
ATOM     11  C   UNL     1     145.949 154.931 137.713  1.00  0.00     0.062 C 
BRANCH  11  12
ATOM     12  C   UNL     1     144.957 154.414 138.718  1.00  0.00    -0.030 C 
ATOM     13  C   UNL     1     144.563 153.137 138.721  1.00  0.00     0.004 C 
ENDBRANCH  11  12
ENDBRANCH   4  11
TORSDOF 4
ENDMDL
MODEL 2
REMARK VINA RESULT:    -3.054     11.499     12.017
REMARK INTER + INTRA:          -4.033
REMARK INTER:                  -3.775
REMARK INTRA:                  -0.258
REMARK UNBOUND:                -0.265
REMARK SMILES C=CCc1ccc(OC)c(OC)c1
REMARK SMILES IDX 7 1 10 2 13 3 4 4 5 5 6 6 8 7 9 8 11 9 12 10 3 11 2 12 1 13
REMARK H PARENT
REMARK Flexibility Score: inf
ROOT
ATOM      1  C   UNL     1     158.928 154.040 138.837  1.00  0.00     0.160 A 
ATOM      2  C   UNL     1     158.640 154.276 137.483  1.00  0.00     0.160 A 
ATOM      3  C   UNL     1     157.342 154.676 137.107  1.00  0.00     0.054 A 
ATOM      4  C   UNL     1     156.336 154.833 138.071  1.00  0.00    -0.040 A 
ATOM      5  C   UNL     1     156.635 154.605 139.421  1.00  0.00     0.008 A 
ATOM      6  C   UNL     1     157.918 154.209 139.802  1.00  0.00     0.051 A 
ENDROOT
BRANCH   1   7
ATOM      7  O   UNL     1     160.229 153.642 139.182  1.00  0.00    -0.493 OA
ATOM      8  C   UNL     1     160.810 153.813 140.471  1.00  0.00     0.278 C 
ENDBRANCH   1   7
BRANCH   2   9
ATOM      9  O   UNL     1     159.669 154.106 136.544  1.00  0.00    -0.493 OA
ATOM     10  C   UNL     1     160.072 155.093 135.599  1.00  0.00     0.278 C 
ENDBRANCH   2   9
BRANCH   4  11
ATOM     11  C   UNL     1     154.960 155.289 137.662  1.00  0.00     0.062 C 
BRANCH  11  12
ATOM     12  C   UNL     1     154.420 156.296 138.639  1.00  0.00    -0.030 C 
ATOM     13  C   UNL     1     153.134 156.661 138.633  1.00  0.00     0.004 C 
ENDBRANCH  11  12
ENDBRANCH   4  11
TORSDOF 4
ENDMDL
MODEL 3
REMARK VINA RESULT:    -3.016      2.333      3.114
REMARK INTER + INTRA:          -3.987
REMARK INTER:                  -3.692
REMARK INTRA:                  -0.295
REMARK UNBOUND:                -0.265
REMARK SMILES C=CCc1ccc(OC)c(OC)c1
REMARK SMILES IDX 7 1 10 2 13 3 4 4 5 5 6 6 8 7 9 8 11 9 12 10 3 11 2 12 1 13
REMARK H PARENT
REMARK Flexibility Score: inf
ROOT
ATOM      1  C   UNL     1     148.588 158.251 139.297  1.00  0.00     0.160 A 
ATOM      2  C   UNL     1     149.157 156.972 139.410  1.00  0.00     0.160 A 
ATOM      3  C   UNL     1     148.418 155.843 139.004  1.00  0.00     0.054 A 
ATOM      4  C   UNL     1     147.118 155.986 138.496  1.00  0.00    -0.040 A 
ATOM      5  C   UNL     1     146.563 157.267 138.376  1.00  0.00     0.008 A 
ATOM      6  C   UNL     1     147.288 158.390 138.776  1.00  0.00     0.051 A 
ENDROOT
BRANCH   1   7
ATOM      7  O   UNL     1     149.348 159.357 139.710  1.00  0.00    -0.493 OA
ATOM      8  C   UNL     1     150.050 160.229 138.828  1.00  0.00     0.278 C 
ENDBRANCH   1   7
BRANCH   2   9
ATOM      9  O   UNL     1     150.458 156.866 139.927  1.00  0.00    -0.493 OA
ATOM     10  C   UNL     1     151.632 156.715 139.135  1.00  0.00     0.278 C 
ENDBRANCH   2   9
BRANCH   4  11
ATOM     11  C   UNL     1     146.348 154.776 138.038  1.00  0.00     0.062 C 
BRANCH  11  12
ATOM     12  C   UNL     1     145.058 154.646 138.799  1.00  0.00    -0.030 C 
ATOM     13  C   UNL     1     144.403 153.484 138.877  1.00  0.00     0.004 C 
ENDBRANCH  11  12
ENDBRANCH   4  11
TORSDOF 4
ENDMDL
MODEL 4
REMARK VINA RESULT:    -3.014      7.179     10.298
REMARK INTER + INTRA:          -3.983
REMARK INTER:                  -3.687
REMARK INTRA:                  -0.297
REMARK UNBOUND:                -0.265
REMARK SMILES C=CCc1ccc(OC)c(OC)c1
REMARK SMILES IDX 7 1 10 2 13 3 4 4 5 5 6 6 8 7 9 8 11 9 12 10 3 11 2 12 1 13
REMARK H PARENT
REMARK Flexibility Score: inf
ROOT
ATOM      1  C   UNL     1     142.993 148.631 139.352  1.00  0.00     0.160 A 
ATOM      2  C   UNL     1     144.263 149.222 139.446  1.00  0.00     0.160 A 
ATOM      3  C   UNL     1     145.401 148.496 139.041  1.00  0.00     0.054 A 
ATOM      4  C   UNL     1     145.275 147.187 138.552  1.00  0.00    -0.040 A 
ATOM      5  C   UNL     1     144.003 146.609 138.452  1.00  0.00     0.008 A 
ATOM      6  C   UNL     1     142.871 147.321 138.851  1.00  0.00     0.051 A 
ENDROOT
BRANCH   1   7
ATOM      7  O   UNL     1     141.878 149.377 139.763  1.00  0.00    -0.493 OA
ATOM      8  C   UNL     1     141.033 150.116 138.886  1.00  0.00     0.278 C 
ENDBRANCH   1   7
BRANCH   2   9
ATOM      9  O   UNL     1     144.352 150.532 139.944  1.00  0.00    -0.493 OA
ATOM     10  C   UNL     1     144.554 151.689 139.138  1.00  0.00     0.278 C 
ENDBRANCH   2   9
BRANCH   4  11
ATOM     11  C   UNL     1     146.494 146.431 138.095  1.00  0.00     0.062 C 
BRANCH  11  12
ATOM     12  C   UNL     1     146.558 145.078 138.748  1.00  0.00    -0.030 C 
ATOM     13  C   UNL     1     147.703 144.394 138.837  1.00  0.00     0.004 C 
ENDBRANCH  11  12
ENDBRANCH   4  11
TORSDOF 4
ENDMDL
MODEL 5
REMARK VINA RESULT:    -3.005     13.745     15.577
REMARK INTER + INTRA:          -3.972
REMARK INTER:                  -3.675
REMARK INTRA:                  -0.297
REMARK UNBOUND:                -0.265
REMARK SMILES C=CCc1ccc(OC)c(OC)c1
REMARK SMILES IDX 7 1 10 2 13 3 4 4 5 5 6 6 8 7 9 8 11 9 12 10 3 11 2 12 1 13
REMARK H PARENT
REMARK Flexibility Score: inf
ROOT
ATOM      1  C   UNL     1     152.684 143.136 139.284  1.00  0.00     0.160 A 
ATOM      2  C   UNL     1     152.093 144.408 139.346  1.00  0.00     0.160 A 
ATOM      3  C   UNL     1     152.819 145.534 138.908  1.00  0.00     0.054 A 
ATOM      4  C   UNL     1     154.126 145.395 138.418  1.00  0.00    -0.040 A 
ATOM      5  C   UNL     1     154.703 144.120 138.350  1.00  0.00     0.008 A 
ATOM      6  C   UNL     1     153.992 142.999 138.782  1.00  0.00     0.051 A 
ENDROOT
BRANCH   1   7
ATOM      7  O   UNL     1     151.938 142.032 139.728  1.00  0.00    -0.493 OA
ATOM      8  C   UNL     1     151.261 141.118 138.871  1.00  0.00     0.278 C 
ENDBRANCH   1   7
BRANCH   2   9
ATOM      9  O   UNL     1     150.786 144.512 139.846  1.00  0.00    -0.493 OA
ATOM     10  C   UNL     1     149.615 144.583 139.037  1.00  0.00     0.278 C 
ENDBRANCH   2   9
BRANCH   4  11
ATOM     11  C   UNL     1     154.881 146.600 137.926  1.00  0.00     0.062 C 
BRANCH  11  12
ATOM     12  C   UNL     1     156.183 146.752 138.664  1.00  0.00    -0.030 C 
ATOM     13  C   UNL     1     156.754 147.947 138.841  1.00  0.00     0.004 C 
ENDBRANCH  11  12
ENDBRANCH   4  11
TORSDOF 4
ENDMDL
MODEL 6
REMARK VINA RESULT:    -2.985      3.045      3.819
REMARK INTER + INTRA:          -3.948
REMARK INTER:                  -3.669
REMARK INTRA:                  -0.280
REMARK UNBOUND:                -0.265
REMARK SMILES C=CCc1ccc(OC)c(OC)c1
REMARK SMILES IDX 7 1 10 2 13 3 4 4 5 5 6 6 8 7 9 8 11 9 12 10 3 11 2 12 1 13
REMARK H PARENT
REMARK Flexibility Score: inf
ROOT
ATOM      1  C   UNL     1     150.471 156.818 139.196  1.00  0.00     0.160 A 
ATOM      2  C   UNL     1     149.648 157.954 139.149  1.00  0.00     0.160 A 
ATOM      3  C   UNL     1     148.252 157.799 139.046  1.00  0.00     0.054 A 
ATOM      4  C   UNL     1     147.679 156.520 138.984  1.00  0.00    -0.040 A 
ATOM      5  C   UNL     1     148.507 155.392 139.043  1.00  0.00     0.008 A 
ATOM      6  C   UNL     1     149.891 155.537 139.144  1.00  0.00     0.051 A 
ENDROOT
BRANCH   1   7
ATOM      7  O   UNL     1     151.859 157.004 139.297  1.00  0.00    -0.493 OA
ATOM      8  C   UNL     1     152.814 156.464 138.388  1.00  0.00     0.278 C 
ENDBRANCH   1   7
BRANCH   2   9
ATOM      9  O   UNL     1     150.255 159.219 139.209  1.00  0.00    -0.493 OA
ATOM     10  C   UNL     1     149.829 160.280 140.058  1.00  0.00     0.278 C 
ENDBRANCH   2   9
BRANCH   4  11
ATOM     11  C   UNL     1     146.183 156.364 138.904  1.00  0.00     0.062 C 
BRANCH  11  12
ATOM     12  C   UNL     1     145.816 155.006 138.374  1.00  0.00    -0.030 C 
ATOM     13  C   UNL     1     144.754 154.337 138.831  1.00  0.00     0.004 C 
ENDBRANCH  11  12
ENDBRANCH   4  11
TORSDOF 4
ENDMDL
MODEL 7
REMARK VINA RESULT:    -2.974      6.364      9.478
REMARK INTER + INTRA:          -3.935
REMARK INTER:                  -3.670
REMARK INTRA:                  -0.264
REMARK UNBOUND:                -0.265
REMARK SMILES C=CCc1ccc(OC)c(OC)c1
REMARK SMILES IDX 7 1 10 2 13 3 4 4 5 5 6 6 8 7 9 8 11 9 12 10 3 11 2 12 1 13
REMARK H PARENT
REMARK Flexibility Score: inf
ROOT
ATOM      1  C   UNL     1     144.413 150.428 139.105  1.00  0.00     0.160 A 
ATOM      2  C   UNL     1     143.315 149.575 139.299  1.00  0.00     0.160 A 
ATOM      3  C   UNL     1     143.497 148.179 139.233  1.00  0.00     0.054 A 
ATOM      4  C   UNL     1     144.763 147.637 138.967  1.00  0.00    -0.040 A 
ATOM      5  C   UNL     1     145.855 148.495 138.785  1.00  0.00     0.008 A 
ATOM      6  C   UNL     1     145.683 149.879 138.850  1.00  0.00     0.051 A 
ENDROOT
BRANCH   1   7
ATOM      7  O   UNL     1     144.201 151.814 139.177  1.00  0.00    -0.493 OA
ATOM      8  C   UNL     1     144.842 152.772 138.340  1.00  0.00     0.278 C 
ENDBRANCH   1   7
BRANCH   2   9
ATOM      9  O   UNL     1     142.061 150.152 139.558  1.00  0.00    -0.493 OA
ATOM     10  C   UNL     1     140.940 149.445 140.080  1.00  0.00     0.278 C 
ENDBRANCH   2   9
BRANCH   4  11
ATOM     11  C   UNL     1     144.953 146.144 138.927  1.00  0.00     0.062 C 
BRANCH  11  12
ATOM     12  C   UNL     1     146.313 145.794 138.388  1.00  0.00    -0.030 C 
ATOM     13  C   UNL     1     146.990 144.729 138.830  1.00  0.00     0.004 C 
ENDBRANCH  11  12
ENDBRANCH   4  11
TORSDOF 4
ENDMDL
MODEL 8
REMARK VINA RESULT:    -2.953     11.263     12.145
REMARK INTER + INTRA:          -3.908
REMARK INTER:                  -3.645
REMARK INTRA:                  -0.263
REMARK UNBOUND:                -0.265
REMARK SMILES C=CCc1ccc(OC)c(OC)c1
REMARK SMILES IDX 7 1 10 2 13 3 4 4 5 5 6 6 8 7 9 8 11 9 12 10 3 11 2 12 1 13
REMARK H PARENT
REMARK Flexibility Score: inf
ROOT
ATOM      1  C   UNL     1     158.238 152.641 139.290  1.00  0.00     0.160 A 
ATOM      2  C   UNL     1     156.985 152.008 139.311  1.00  0.00     0.160 A 
ATOM      3  C   UNL     1     155.842 152.712 138.886  1.00  0.00     0.054 A 
ATOM      4  C   UNL     1     155.944 154.041 138.448  1.00  0.00    -0.040 A 
ATOM      5  C   UNL     1     157.200 154.662 138.420  1.00  0.00     0.008 A 
ATOM      6  C   UNL     1     158.338 153.971 138.840  1.00  0.00     0.051 A 
ENDROOT
BRANCH   1   7
ATOM      7  O   UNL     1     159.360 151.914 139.720  1.00  0.00    -0.493 OA
ATOM      8  C   UNL     1     160.574 152.501 140.179  1.00  0.00     0.278 C 
ENDBRANCH   1   7
BRANCH   2   9
ATOM      9  O   UNL     1     156.918 150.679 139.759  1.00  0.00    -0.493 OA
ATOM     10  C   UNL     1     156.721 149.550 138.912  1.00  0.00     0.278 C 
ENDBRANCH   2   9
BRANCH   4  11
ATOM     11  C   UNL     1     154.721 154.776 137.968  1.00  0.00     0.062 C 
BRANCH  11  12
ATOM     12  C   UNL     1     154.676 156.166 138.539  1.00  0.00    -0.030 C 
ATOM     13  C   UNL     1     153.518 156.779 138.803  1.00  0.00     0.004 C 
ENDBRANCH  11  12
ENDBRANCH   4  11
TORSDOF 4
ENDMDL
MODEL 9
REMARK VINA RESULT:    -2.910     11.306     11.927
REMARK INTER + INTRA:          -3.856
REMARK INTER:                  -3.605
REMARK INTRA:                  -0.250
REMARK UNBOUND:                -0.265
REMARK SMILES C=CCc1ccc(OC)c(OC)c1
REMARK SMILES IDX 7 1 10 2 13 3 4 4 5 5 6 6 8 7 9 8 11 9 12 10 3 11 2 12 1 13
REMARK H PARENT
REMARK Flexibility Score: inf
ROOT
ATOM      1  C   UNL     1     142.802 147.229 138.791  1.00  0.00     0.160 A 
ATOM      2  C   UNL     1     143.074 146.889 137.456  1.00  0.00     0.160 A 
ATOM      3  C   UNL     1     144.377 146.499 137.089  1.00  0.00     0.054 A 
ATOM      4  C   UNL     1     145.405 146.455 138.043  1.00  0.00    -0.040 A 
ATOM      5  C   UNL     1     145.122 146.786 139.374  1.00  0.00     0.008 A 
ATOM      6  C   UNL     1     143.834 147.173 139.747  1.00  0.00     0.051 A 
ENDROOT
BRANCH   1   7
ATOM      7  O   UNL     1     141.495 147.615 139.128  1.00  0.00    -0.493 OA
ATOM      8  C   UNL     1     140.875 147.353 140.383  1.00  0.00     0.278 C 
ENDBRANCH   1   7
BRANCH   2   9
ATOM      9  O   UNL     1     142.023 146.949 136.527  1.00  0.00    -0.493 OA
ATOM     10  C   UNL     1     141.915 146.115 135.377  1.00  0.00     0.278 C 
ENDBRANCH   2   9
BRANCH   4  11
ATOM     11  C   UNL     1     146.787 146.009 137.645  1.00  0.00     0.062 C 
BRANCH  11  12
ATOM     12  C   UNL     1     147.217 144.819 138.458  1.00  0.00    -0.030 C 
ATOM     13  C   UNL     1     148.507 144.546 138.674  1.00  0.00     0.004 C 
ENDBRANCH  11  12
ENDBRANCH   4  11
TORSDOF 4
ENDMDL
