MODEL 1
REMARK VINA RESULT:    -4.543      0.000      0.000
REMARK INTER + INTRA:          -9.776
REMARK INTER:                  -8.261
REMARK INTRA:                  -1.515
REMARK UNBOUND:                -1.515
REMARK SMILES CCCCCCCCCCCCCCCC(=O)[O-]
REMARK SMILES IDX 9 1 10 2 11 3 12 4 13 5 14 6 15 7 16 8 17 9 18 10 8 11 7 12
REMARK SMILES IDX 6 13 5 14 4 15 3 16 2 17 1 18
REMARK H PARENT
REMARK Flexibility Score: inf
ROOT
ATOM      1  C   UNL     1      -1.573   2.804  -4.156  1.00  0.00     0.000 C 
ENDROOT
BRANCH   1   2
ATOM      2  C   UNL     1      -0.229   3.463  -4.499  1.00  0.00     0.000 C 
BRANCH   2   3
ATOM      3  C   UNL     1       0.539   3.932  -3.252  1.00  0.00     0.000 C 
BRANCH   3   4
ATOM      4  C   UNL     1       2.043   3.618  -3.333  1.00  0.00     0.000 C 
BRANCH   4   5
ATOM      5  C   UNL     1       2.335   2.111  -3.248  1.00  0.00     0.000 C 
BRANCH   5   6
ATOM      6  C   UNL     1       3.619   1.713  -3.997  1.00  0.00     0.006 C 
BRANCH   6   7
ATOM      7  C   UNL     1       4.127   2.839  -4.908  1.00  0.00     0.053 C 
BRANCH   7   8
ATOM      8  C   UNL     1       3.758   2.604  -6.340  1.00  0.00     0.041 C 
ATOM      9  O   UNL     1       4.366   1.735  -7.018  1.00  0.00    -0.550 OA
ATOM     10  O   UNL     1       2.720   3.326  -6.917  1.00  0.00    -0.550 OA
ENDBRANCH   7   8
ENDBRANCH   6   7
ENDBRANCH   5   6
ENDBRANCH   4   5
ENDBRANCH   3   4
ENDBRANCH   2   3
ENDBRANCH   1   2
BRANCH   1  11
ATOM     11  C   UNL     1      -1.564   2.248  -2.727  1.00  0.00     0.000 C 
BRANCH  11  12
ATOM     12  C   UNL     1      -2.874   2.580  -1.999  1.00  0.00    -0.000 C 
BRANCH  12  13
ATOM     13  C   UNL     1      -4.037   2.887  -2.960  1.00  0.00    -0.000 C 
BRANCH  13  14
ATOM     14  C   UNL     1      -5.021   1.724  -3.185  1.00  0.00    -0.000 C 
BRANCH  14  15
ATOM     15  C   UNL     1      -4.995   1.182  -4.621  1.00  0.00    -0.000 C 
BRANCH  15  16
ATOM     16  C   UNL     1      -4.136  -0.089  -4.711  1.00  0.00    -0.000 C 
BRANCH  16  17
ATOM     17  C   UNL     1      -3.824  -0.688  -3.331  1.00  0.00    -0.003 C 
ATOM     18  C   UNL     1      -3.862  -2.216  -3.327  1.00  0.00     0.004 C 
ENDBRANCH  16  17
ENDBRANCH  15  16
ENDBRANCH  14  15
ENDBRANCH  13  14
ENDBRANCH  12  13
ENDBRANCH  11  12
ENDBRANCH   1  11
TORSDOF 14
ENDMDL
MODEL 2
REMARK VINA RESULT:    -4.421      1.272      2.443
REMARK INTER + INTRA:          -9.553
REMARK INTER:                  -8.440
REMARK INTRA:                  -1.113
REMARK UNBOUND:                -1.515
REMARK SMILES CCCCCCCCCCCCCCCC(=O)[O-]
REMARK SMILES IDX 9 1 10 2 11 3 12 4 13 5 14 6 15 7 16 8 17 9 18 10 8 11 7 12
REMARK SMILES IDX 6 13 5 14 4 15 3 16 2 17 1 18
REMARK H PARENT
REMARK Flexibility Score: inf
ROOT
ATOM      1  C   UNL     1       1.033   3.261  -4.474  1.00  0.00     0.000 C 
ENDROOT
BRANCH   1   2
ATOM      2  C   UNL     1       2.044   3.282  -3.318  1.00  0.00     0.000 C 
BRANCH   2   3
ATOM      3  C   UNL     1       2.899   2.006  -3.251  1.00  0.00     0.000 C 
BRANCH   3   4
ATOM      4  C   UNL     1       3.760   1.805  -4.510  1.00  0.00     0.000 C 
BRANCH   4   5
ATOM      5  C   UNL     1       4.603   3.044  -4.850  1.00  0.00     0.000 C 
BRANCH   5   6
ATOM      6  C   UNL     1       4.678   3.312  -6.364  1.00  0.00     0.006 C 
BRANCH   6   7
ATOM      7  C   UNL     1       3.851   2.302  -7.170  1.00  0.00     0.053 C 
BRANCH   7   8
ATOM      8  C   UNL     1       4.718   1.431  -8.026  1.00  0.00     0.041 C 
ATOM      9  O   UNL     1       5.829   1.854  -8.439  1.00  0.00    -0.550 OA
ATOM     10  O   UNL     1       4.310   0.142  -8.344  1.00  0.00    -0.550 OA
ENDBRANCH   7   8
ENDBRANCH   6   7
ENDBRANCH   5   6
ENDBRANCH   4   5
ENDBRANCH   3   4
ENDBRANCH   2   3
ENDBRANCH   1   2
BRANCH   1  11
ATOM     11  C   UNL     1      -0.363   3.670  -3.989  1.00  0.00     0.000 C 
BRANCH  11  12
ATOM     12  C   UNL     1      -0.724   2.953  -2.681  1.00  0.00    -0.000 C 
BRANCH  12  13
ATOM     13  C   UNL     1      -1.939   2.017  -2.822  1.00  0.00    -0.000 C 
BRANCH  13  14
ATOM     14  C   UNL     1      -3.226   2.513  -2.137  1.00  0.00    -0.000 C 
BRANCH  14  15
ATOM     15  C   UNL     1      -4.491   2.237  -2.964  1.00  0.00    -0.000 C 
BRANCH  15  16
ATOM     16  C   UNL     1      -4.194   1.258  -4.109  1.00  0.00    -0.000 C 
BRANCH  16  17
ATOM     17  C   UNL     1      -4.855  -0.114  -3.899  1.00  0.00    -0.003 C 
ATOM     18  C   UNL     1      -3.867  -1.182  -3.432  1.00  0.00     0.004 C 
ENDBRANCH  16  17
ENDBRANCH  15  16
ENDBRANCH  14  15
ENDBRANCH  13  14
ENDBRANCH  12  13
ENDBRANCH  11  12
ENDBRANCH   1  11
TORSDOF 14
ENDMDL
MODEL 3
REMARK VINA RESULT:    -4.373      2.157      2.867
REMARK INTER + INTRA:          -9.468
REMARK INTER:                  -7.519
REMARK INTRA:                  -1.948
REMARK UNBOUND:                -1.515
REMARK SMILES CCCCCCCCCCCCCCCC(=O)[O-]
REMARK SMILES IDX 9 1 10 2 11 3 12 4 13 5 14 6 15 7 16 8 17 9 18 10 8 11 7 12
REMARK SMILES IDX 6 13 5 14 4 15 3 16 2 17 1 18
REMARK H PARENT
REMARK Flexibility Score: inf
ROOT
ATOM      1  C   UNL     1      -1.878   2.798  -6.046  1.00  0.00     0.000 C 
ENDROOT
BRANCH   1   2
ATOM      2  C   UNL     1      -0.523   3.351  -5.583  1.00  0.00     0.000 C 
BRANCH   2   3
ATOM      3  C   UNL     1      -0.650   4.336  -4.409  1.00  0.00     0.000 C 
BRANCH   3   4
ATOM      4  C   UNL     1      -0.133   3.746  -3.085  1.00  0.00     0.000 C 
BRANCH   4   5
ATOM      5  C   UNL     1       0.894   2.624  -3.303  1.00  0.00     0.000 C 
BRANCH   5   6
ATOM      6  C   UNL     1       2.342   3.144  -3.334  1.00  0.00     0.006 C 
BRANCH   6   7
ATOM      7  C   UNL     1       3.366   2.007  -3.218  1.00  0.00     0.053 C 
BRANCH   7   8
ATOM      8  C   UNL     1       4.674   2.491  -2.672  1.00  0.00     0.041 C 
ATOM      9  O   UNL     1       5.515   3.037  -3.433  1.00  0.00    -0.550 OA
ATOM     10  O   UNL     1       4.951   2.364  -1.317  1.00  0.00    -0.550 OA
ENDBRANCH   7   8
ENDBRANCH   6   7
ENDBRANCH   5   6
ENDBRANCH   4   5
ENDBRANCH   3   4
ENDBRANCH   2   3
ENDBRANCH   1   2
BRANCH   1  11
ATOM     11  C   UNL     1      -2.917   3.920  -6.165  1.00  0.00     0.000 C 
BRANCH  11  12
ATOM     12  C   UNL     1      -4.243   3.514  -5.506  1.00  0.00    -0.000 C 
BRANCH  12  13
ATOM     13  C   UNL     1      -4.378   4.024  -4.059  1.00  0.00    -0.000 C 
BRANCH  13  14
ATOM     14  C   UNL     1      -4.554   2.926  -2.995  1.00  0.00    -0.000 C 
BRANCH  14  15
ATOM     15  C   UNL     1      -3.226   2.287  -2.563  1.00  0.00    -0.000 C 
BRANCH  15  16
ATOM     16  C   UNL     1      -3.062   0.893  -3.187  1.00  0.00    -0.000 C 
BRANCH  16  17
ATOM     17  C   UNL     1      -4.409   0.245  -3.548  1.00  0.00    -0.003 C 
ATOM     18  C   UNL     1      -4.468  -0.224  -5.001  1.00  0.00     0.004 C 
ENDBRANCH  16  17
ENDBRANCH  15  16
ENDBRANCH  14  15
ENDBRANCH  13  14
ENDBRANCH  12  13
ENDBRANCH  11  12
ENDBRANCH   1  11
TORSDOF 14
ENDMDL
MODEL 4
REMARK VINA RESULT:    -4.345      1.822      2.078
REMARK INTER + INTRA:          -9.416
REMARK INTER:                  -8.117
REMARK INTRA:                  -1.299
REMARK UNBOUND:                -1.515
REMARK SMILES CCCCCCCCCCCCCCCC(=O)[O-]
REMARK SMILES IDX 9 1 10 2 11 3 12 4 13 5 14 6 15 7 16 8 17 9 18 10 8 11 7 12
REMARK SMILES IDX 6 13 5 14 4 15 3 16 2 17 1 18
REMARK H PARENT
REMARK Flexibility Score: inf
ROOT
ATOM      1  C   UNL     1      -2.022   2.561  -4.139  1.00  0.00     0.000 C 
ENDROOT
BRANCH   1   2
ATOM      2  C   UNL     1      -0.698   3.225  -4.542  1.00  0.00     0.000 C 
BRANCH   2   3
ATOM      3  C   UNL     1       0.187   3.571  -3.333  1.00  0.00     0.000 C 
BRANCH   3   4
ATOM      4  C   UNL     1       1.587   2.939  -3.425  1.00  0.00     0.000 C 
BRANCH   4   5
ATOM      5  C   UNL     1       2.276   3.228  -4.768  1.00  0.00     0.000 C 
BRANCH   5   6
ATOM      6  C   UNL     1       3.652   2.549  -4.887  1.00  0.00     0.006 C 
BRANCH   6   7
ATOM      7  C   UNL     1       4.037   1.801  -3.604  1.00  0.00     0.053 C 
BRANCH   7   8
ATOM      8  C   UNL     1       5.191   2.453  -2.906  1.00  0.00     0.041 C 
ATOM      9  O   UNL     1       5.727   1.898  -1.912  1.00  0.00    -0.550 OA
ATOM     10  O   UNL     1       5.691   3.663  -3.373  1.00  0.00    -0.550 OA
ENDBRANCH   7   8
ENDBRANCH   6   7
ENDBRANCH   5   6
ENDBRANCH   4   5
ENDBRANCH   3   4
ENDBRANCH   2   3
ENDBRANCH   1   2
BRANCH   1  11
ATOM     11  C   UNL     1      -2.071   2.305  -2.628  1.00  0.00     0.000 C 
BRANCH  11  12
ATOM     12  C   UNL     1      -3.471   2.592  -2.066  1.00  0.00    -0.000 C 
BRANCH  12  13
ATOM     13  C   UNL     1      -4.467   3.062  -3.141  1.00  0.00    -0.000 C 
BRANCH  13  14
ATOM     14  C   UNL     1      -5.661   2.118  -3.380  1.00  0.00    -0.000 C 
BRANCH  14  15
ATOM     15  C   UNL     1      -5.320   0.938  -4.301  1.00  0.00    -0.000 C 
BRANCH  15  16
ATOM     16  C   UNL     1      -5.193  -0.365  -3.496  1.00  0.00    -0.000 C 
BRANCH  16  17
ATOM     17  C   UNL     1      -3.759  -0.919  -3.492  1.00  0.00    -0.003 C 
ATOM     18  C   UNL     1      -3.671  -2.337  -4.055  1.00  0.00     0.004 C 
ENDBRANCH  16  17
ENDBRANCH  15  16
ENDBRANCH  14  15
ENDBRANCH  13  14
ENDBRANCH  12  13
ENDBRANCH  11  12
ENDBRANCH   1  11
TORSDOF 14
ENDMDL
MODEL 5
REMARK VINA RESULT:    -4.270      2.138      3.378
REMARK INTER + INTRA:          -9.279
REMARK INTER:                  -7.202
REMARK INTRA:                  -2.077
REMARK UNBOUND:                -1.515
REMARK SMILES CCCCCCCCCCCCCCCC(=O)[O-]
REMARK SMILES IDX 9 1 10 2 11 3 12 4 13 5 14 6 15 7 16 8 17 9 18 10 8 11 7 12
REMARK SMILES IDX 6 13 5 14 4 15 3 16 2 17 1 18
REMARK H PARENT
REMARK Flexibility Score: inf
ROOT
ATOM      1  C   UNL     1      -1.158   6.127  -4.906  1.00  0.00     0.000 C 
ENDROOT
BRANCH   1   2
ATOM      2  C   UNL     1       0.307   5.674  -4.818  1.00  0.00     0.000 C 
BRANCH   2   3
ATOM      3  C   UNL     1       0.904   5.860  -3.414  1.00  0.00     0.000 C 
BRANCH   3   4
ATOM      4  C   UNL     1       1.939   4.776  -3.064  1.00  0.00     0.000 C 
BRANCH   4   5
ATOM      5  C   UNL     1       2.078   3.717  -4.169  1.00  0.00     0.000 C 
BRANCH   5   6
ATOM      6  C   UNL     1       2.301   2.301  -3.608  1.00  0.00     0.006 C 
BRANCH   6   7
ATOM      7  C   UNL     1       3.708   1.774  -3.919  1.00  0.00     0.053 C 
BRANCH   7   8
ATOM      8  C   UNL     1       4.746   2.418  -3.052  1.00  0.00     0.041 C 
ATOM      9  O   UNL     1       4.824   2.125  -1.831  1.00  0.00    -0.550 OA
ATOM     10  O   UNL     1       5.647   3.322  -3.603  1.00  0.00    -0.550 OA
ENDBRANCH   7   8
ENDBRANCH   6   7
ENDBRANCH   5   6
ENDBRANCH   4   5
ENDBRANCH   3   4
ENDBRANCH   2   3
ENDBRANCH   1   2
BRANCH   1  11
ATOM     11  C   UNL     1      -2.092   4.929  -5.114  1.00  0.00     0.000 C 
BRANCH  11  12
ATOM     12  C   UNL     1      -1.298   3.672  -5.498  1.00  0.00    -0.000 C 
BRANCH  12  13
ATOM     13  C   UNL     1      -1.595   2.469  -4.585  1.00  0.00    -0.000 C 
BRANCH  13  14
ATOM     14  C   UNL     1      -1.374   2.722  -3.082  1.00  0.00    -0.000 C 
BRANCH  14  15
ATOM     15  C   UNL     1      -2.620   2.428  -2.233  1.00  0.00    -0.000 C 
BRANCH  15  16
ATOM     16  C   UNL     1      -3.638   1.596  -3.025  1.00  0.00    -0.000 C 
BRANCH  16  17
ATOM     17  C   UNL     1      -5.053   2.197  -2.982  1.00  0.00    -0.003 C 
ATOM     18  C   UNL     1      -5.122   3.594  -3.597  1.00  0.00     0.004 C 
ENDBRANCH  16  17
ENDBRANCH  15  16
ENDBRANCH  14  15
ENDBRANCH  13  14
ENDBRANCH  12  13
ENDBRANCH  11  12
ENDBRANCH   1  11
TORSDOF 14
ENDMDL
MODEL 6
REMARK VINA RESULT:    -4.269      2.151      3.355
REMARK INTER + INTRA:          -9.277
REMARK INTER:                  -7.546
REMARK INTRA:                  -1.732
REMARK UNBOUND:                -1.515
REMARK SMILES CCCCCCCCCCCCCCCC(=O)[O-]
REMARK SMILES IDX 9 1 10 2 11 3 12 4 13 5 14 6 15 7 16 8 17 9 18 10 8 11 7 12
REMARK SMILES IDX 6 13 5 14 4 15 3 16 2 17 1 18
REMARK H PARENT
REMARK Flexibility Score: inf
ROOT
ATOM      1  C   UNL     1      -1.785   2.493  -4.827  1.00  0.00     0.000 C 
ENDROOT
BRANCH   1   2
ATOM      2  C   UNL     1      -0.758   3.315  -5.619  1.00  0.00     0.000 C 
BRANCH   2   3
ATOM      3  C   UNL     1       0.026   4.299  -4.735  1.00  0.00     0.000 C 
BRANCH   3   4
ATOM      4  C   UNL     1       1.540   4.026  -4.748  1.00  0.00     0.000 C 
BRANCH   4   5
ATOM      5  C   UNL     1       2.077   3.630  -3.363  1.00  0.00     0.000 C 
BRANCH   5   6
ATOM      6  C   UNL     1       2.365   2.122  -3.249  1.00  0.00     0.006 C 
BRANCH   6   7
ATOM      7  C   UNL     1       3.783   1.769  -3.716  1.00  0.00     0.053 C 
BRANCH   7   8
ATOM      8  C   UNL     1       4.827   2.474  -2.905  1.00  0.00     0.041 C 
ATOM      9  O   UNL     1       5.641   3.256  -3.462  1.00  0.00    -0.550 OA
ATOM     10  O   UNL     1       4.880   2.289  -1.529  1.00  0.00    -0.550 OA
ENDBRANCH   7   8
ENDBRANCH   6   7
ENDBRANCH   5   6
ENDBRANCH   4   5
ENDBRANCH   3   4
ENDBRANCH   2   3
ENDBRANCH   1   2
BRANCH   1  11
ATOM     11  C   UNL     1      -1.472   2.522  -3.326  1.00  0.00     0.000 C 
BRANCH  11  12
ATOM     12  C   UNL     1      -2.749   2.335  -2.493  1.00  0.00    -0.000 C 
BRANCH  12  13
ATOM     13  C   UNL     1      -3.714   1.297  -3.095  1.00  0.00    -0.000 C 
BRANCH  13  14
ATOM     14  C   UNL     1      -5.053   1.866  -3.597  1.00  0.00    -0.000 C 
BRANCH  14  15
ATOM     15  C   UNL     1      -5.597   2.996  -2.710  1.00  0.00    -0.000 C 
BRANCH  15  16
ATOM     16  C   UNL     1      -5.849   4.267  -3.535  1.00  0.00    -0.000 C 
BRANCH  16  17
ATOM     17  C   UNL     1      -5.043   4.290  -4.844  1.00  0.00    -0.003 C 
ATOM     18  C   UNL     1      -4.029   5.432  -4.894  1.00  0.00     0.004 C 
ENDBRANCH  16  17
ENDBRANCH  15  16
ENDBRANCH  14  15
ENDBRANCH  13  14
ENDBRANCH  12  13
ENDBRANCH  11  12
ENDBRANCH   1  11
TORSDOF 14
ENDMDL
MODEL 7
REMARK VINA RESULT:    -4.268      1.840      2.793
REMARK INTER + INTRA:          -9.276
REMARK INTER:                  -7.484
REMARK INTRA:                  -1.792
REMARK UNBOUND:                -1.515
REMARK SMILES CCCCCCCCCCCCCCCC(=O)[O-]
REMARK SMILES IDX 9 1 10 2 11 3 12 4 13 5 14 6 15 7 16 8 17 9 18 10 8 11 7 12
REMARK SMILES IDX 6 13 5 14 4 15 3 16 2 17 1 18
REMARK H PARENT
REMARK Flexibility Score: inf
ROOT
ATOM      1  C   UNL     1      -1.880   3.500  -4.152  1.00  0.00     0.000 C 
ENDROOT
BRANCH   1   2
ATOM      2  C   UNL     1      -1.185   2.820  -5.340  1.00  0.00     0.000 C 
BRANCH   2   3
ATOM      3  C   UNL     1      -0.299   3.785  -6.144  1.00  0.00     0.000 C 
BRANCH   3   4
ATOM      4  C   UNL     1       1.160   3.793  -5.657  1.00  0.00     0.000 C 
BRANCH   4   5
ATOM      5  C   UNL     1       1.382   4.755  -4.479  1.00  0.00     0.000 C 
BRANCH   5   6
ATOM      6  C   UNL     1       2.157   4.104  -3.319  1.00  0.00     0.006 C 
BRANCH   6   7
ATOM      7  C   UNL     1       2.036   2.575  -3.332  1.00  0.00     0.053 C 
BRANCH   7   8
ATOM      8  C   UNL     1       3.377   1.911  -3.263  1.00  0.00     0.041 C 
ATOM      9  O   UNL     1       3.862   1.354  -4.283  1.00  0.00    -0.550 OA
ATOM     10  O   UNL     1       4.104   1.933  -2.079  1.00  0.00    -0.550 OA
ENDBRANCH   7   8
ENDBRANCH   6   7
ENDBRANCH   5   6
ENDBRANCH   4   5
ENDBRANCH   3   4
ENDBRANCH   2   3
ENDBRANCH   1   2
BRANCH   1  11
ATOM     11  C   UNL     1      -1.541   2.789  -2.836  1.00  0.00     0.000 C 
BRANCH  11  12
ATOM     12  C   UNL     1      -2.810   2.514  -2.016  1.00  0.00    -0.000 C 
BRANCH  12  13
ATOM     13  C   UNL     1      -4.102   2.636  -2.846  1.00  0.00    -0.000 C 
BRANCH  13  14
ATOM     14  C   UNL     1      -4.780   1.299  -3.195  1.00  0.00    -0.000 C 
BRANCH  14  15
ATOM     15  C   UNL     1      -3.962   0.448  -4.177  1.00  0.00    -0.000 C 
BRANCH  15  16
ATOM     16  C   UNL     1      -4.646   0.387  -5.551  1.00  0.00    -0.000 C 
BRANCH  16  17
ATOM     17  C   UNL     1      -4.622   1.740  -6.282  1.00  0.00    -0.003 C 
ATOM     18  C   UNL     1      -3.943   1.662  -7.649  1.00  0.00     0.004 C 
ENDBRANCH  16  17
ENDBRANCH  15  16
ENDBRANCH  14  15
ENDBRANCH  13  14
ENDBRANCH  12  13
ENDBRANCH  11  12
ENDBRANCH   1  11
TORSDOF 14
ENDMDL
MODEL 8
REMARK VINA RESULT:    -4.263      3.300      7.636
REMARK INTER + INTRA:          -9.267
REMARK INTER:                  -8.326
REMARK INTRA:                  -0.941
REMARK UNBOUND:                -1.515
REMARK SMILES CCCCCCCCCCCCCCCC(=O)[O-]
REMARK SMILES IDX 9 1 10 2 11 3 12 4 13 5 14 6 15 7 16 8 17 9 18 10 8 11 7 12
REMARK SMILES IDX 6 13 5 14 4 15 3 16 2 17 1 18
REMARK H PARENT
REMARK Flexibility Score: inf
ROOT
ATOM      1  C   UNL     1      -0.996   2.859  -2.997  1.00  0.00     0.000 C 
ENDROOT
BRANCH   1   2
ATOM      2  C   UNL     1      -1.440   2.809  -4.467  1.00  0.00     0.000 C 
BRANCH   2   3
ATOM      3  C   UNL     1      -2.701   1.955  -4.679  1.00  0.00     0.000 C 
BRANCH   3   4
ATOM      4  C   UNL     1      -3.125   1.201  -3.406  1.00  0.00     0.000 C 
BRANCH   4   5
ATOM      5  C   UNL     1      -4.580   0.712  -3.470  1.00  0.00     0.000 C 
BRANCH   5   6
ATOM      6  C   UNL     1      -4.698  -0.730  -3.997  1.00  0.00     0.006 C 
BRANCH   6   7
ATOM      7  C   UNL     1      -3.668  -1.665  -3.351  1.00  0.00     0.053 C 
BRANCH   7   8
ATOM      8  C   UNL     1      -3.441  -2.895  -4.175  1.00  0.00     0.041 C 
ATOM      9  O   UNL     1      -4.369  -3.363  -4.884  1.00  0.00    -0.550 OA
ATOM     10  O   UNL     1      -2.193  -3.507  -4.180  1.00  0.00    -0.550 OA
ENDBRANCH   7   8
ENDBRANCH   6   7
ENDBRANCH   5   6
ENDBRANCH   4   5
ENDBRANCH   3   4
ENDBRANCH   2   3
ENDBRANCH   1   2
BRANCH   1  11
ATOM     11  C   UNL     1       0.381   3.521  -2.862  1.00  0.00     0.000 C 
BRANCH  11  12
ATOM     12  C   UNL     1       1.366   2.959  -3.898  1.00  0.00    -0.000 C 
BRANCH  12  13
ATOM     13  C   UNL     1       2.416   2.017  -3.281  1.00  0.00    -0.000 C 
BRANCH  13  14
ATOM     14  C   UNL     1       3.691   1.823  -4.122  1.00  0.00    -0.000 C 
BRANCH  14  15
ATOM     15  C   UNL     1       4.461   3.131  -4.357  1.00  0.00    -0.000 C 
BRANCH  15  16
ATOM     16  C   UNL     1       4.742   3.340  -5.853  1.00  0.00    -0.000 C 
BRANCH  16  17
ATOM     17  C   UNL     1       3.788   2.535  -6.750  1.00  0.00    -0.003 C 
ATOM     18  C   UNL     1       4.525   1.653  -7.757  1.00  0.00     0.004 C 
ENDBRANCH  16  17
ENDBRANCH  15  16
ENDBRANCH  14  15
ENDBRANCH  13  14
ENDBRANCH  12  13
ENDBRANCH  11  12
ENDBRANCH   1  11
TORSDOF 14
ENDMDL
MODEL 9
REMARK VINA RESULT:    -4.201      2.926      6.863
REMARK INTER + INTRA:          -9.153
REMARK INTER:                  -7.092
REMARK INTRA:                  -2.061
REMARK UNBOUND:                -1.515
REMARK SMILES CCCCCCCCCCCCCCCC(=O)[O-]
REMARK SMILES IDX 9 1 10 2 11 3 12 4 13 5 14 6 15 7 16 8 17 9 18 10 8 11 7 12
REMARK SMILES IDX 6 13 5 14 4 15 3 16 2 17 1 18
REMARK H PARENT
REMARK Flexibility Score: inf
ROOT
ATOM      1  C   UNL     1       0.023   3.751  -6.273  1.00  0.00     0.000 C 
ENDROOT
BRANCH   1   2
ATOM      2  C   UNL     1      -1.153   2.985  -5.649  1.00  0.00     0.000 C 
BRANCH   2   3
ATOM      3  C   UNL     1      -1.579   3.555  -4.286  1.00  0.00     0.000 C 
BRANCH   3   4
ATOM      4  C   UNL     1      -1.321   2.574  -3.129  1.00  0.00     0.000 C 
BRANCH   4   5
ATOM      5  C   UNL     1      -2.500   2.501  -2.146  1.00  0.00     0.000 C 
BRANCH   5   6
ATOM      6  C   UNL     1      -3.763   1.890  -2.781  1.00  0.00     0.006 C 
BRANCH   6   7
ATOM      7  C   UNL     1      -3.512   0.475  -3.316  1.00  0.00     0.053 C 
BRANCH   7   8
ATOM      8  C   UNL     1      -4.156   0.264  -4.652  1.00  0.00     0.041 C 
ATOM      9  O   UNL     1      -4.150   1.184  -5.511  1.00  0.00    -0.550 OA
ATOM     10  O   UNL     1      -4.739  -0.960  -4.957  1.00  0.00    -0.550 OA
ENDBRANCH   7   8
ENDBRANCH   6   7
ENDBRANCH   5   6
ENDBRANCH   4   5
ENDBRANCH   3   4
ENDBRANCH   2   3
ENDBRANCH   1   2
BRANCH   1  11
ATOM     11  C   UNL     1       0.212   5.113  -5.596  1.00  0.00     0.000 C 
BRANCH  11  12
ATOM     12  C   UNL     1       1.633   5.256  -5.031  1.00  0.00    -0.000 C 
BRANCH  12  13
ATOM     13  C   UNL     1       1.706   5.010  -3.513  1.00  0.00    -0.000 C 
BRANCH  13  14
ATOM     14  C   UNL     1       2.697   3.916  -3.077  1.00  0.00    -0.000 C 
BRANCH  14  15
ATOM     15  C   UNL     1       2.281   2.510  -3.534  1.00  0.00    -0.000 C 
BRANCH  15  16
ATOM     16  C   UNL     1       3.455   1.784  -4.208  1.00  0.00    -0.000 C 
BRANCH  16  17
ATOM     17  C   UNL     1       4.247   2.698  -5.157  1.00  0.00    -0.003 C 
ATOM     18  C   UNL     1       3.812   2.557  -6.615  1.00  0.00     0.004 C 
ENDBRANCH  16  17
ENDBRANCH  15  16
ENDBRANCH  14  15
ENDBRANCH  13  14
ENDBRANCH  12  13
ENDBRANCH  11  12
ENDBRANCH   1  11
TORSDOF 14
ENDMDL
