MODEL 1
REMARK VINA RESULT:    -3.661      0.000      0.000
REMARK INTER + INTRA:         -12.241
REMARK INTER:                  -7.941
REMARK INTRA:                  -4.300
REMARK UNBOUND:                -4.300
REMARK SMILES CCCCCCCCCCCCCCCCCCCCCC(=O)[O-]
REMARK SMILES IDX 12 1 11 2 10 3 9 4 8 5 7 6 6 7 5 8 4 9 3 10 2 11 1 12 13 13
REMARK SMILES IDX 14 14 15 15 16 16 17 17 18 18 19 19 20 20 21 21 22 22 23 23
REMARK SMILES IDX 24 24
REMARK H PARENT
REMARK Flexibility Score: inf
ROOT
ATOM      1  C   UNL     1      -0.342 -28.605 -32.456  1.00  0.00     0.000 C 
ENDROOT
BRANCH   1   2
ATOM      2  C   UNL     1      -1.522 -28.905 -31.518  1.00  0.00     0.000 C 
BRANCH   2   3
ATOM      3  C   UNL     1      -1.450 -30.312 -30.904  1.00  0.00     0.000 C 
BRANCH   3   4
ATOM      4  C   UNL     1      -2.788 -31.047 -31.052  1.00  0.00    -0.000 C 
BRANCH   4   5
ATOM      5  C   UNL     1      -2.713 -32.456 -30.451  1.00  0.00    -0.000 C 
BRANCH   5   6
ATOM      6  C   UNL     1      -1.576 -32.554 -29.423  1.00  0.00    -0.000 C 
BRANCH   6   7
ATOM      7  C   UNL     1      -2.075 -32.926 -28.014  1.00  0.00    -0.000 C 
BRANCH   7   8
ATOM      8  C   UNL     1      -2.452 -31.731 -27.116  1.00  0.00    -0.000 C 
BRANCH   8   9
ATOM      9  C   UNL     1      -3.935 -31.318 -27.158  1.00  0.00    -0.000 C 
BRANCH   9  10
ATOM     10  C   UNL     1      -4.144 -29.891 -27.692  1.00  0.00    -0.000 C 
BRANCH  10  11
ATOM     11  C   UNL     1      -2.831 -29.098 -27.773  1.00  0.00    -0.003 C 
ATOM     12  C   UNL     1      -3.033 -27.669 -28.277  1.00  0.00     0.004 C 
ENDBRANCH  10  11
ENDBRANCH   9  10
ENDBRANCH   8   9
ENDBRANCH   7   8
ENDBRANCH   6   7
ENDBRANCH   5   6
ENDBRANCH   4   5
ENDBRANCH   3   4
ENDBRANCH   2   3
ENDBRANCH   1   2
BRANCH   1  13
ATOM     13  C   UNL     1      -0.566 -29.134 -33.880  1.00  0.00     0.000 C 
BRANCH  13  14
ATOM     14  C   UNL     1      -2.017 -28.961 -34.360  1.00  0.00     0.000 C 
BRANCH  14  15
ATOM     15  C   UNL     1      -2.628 -30.240 -34.969  1.00  0.00     0.000 C 
BRANCH  15  16
ATOM     16  C   UNL     1      -1.628 -31.408 -34.995  1.00  0.00     0.000 C 
BRANCH  16  17
ATOM     17  C   UNL     1      -2.210 -32.646 -34.302  1.00  0.00     0.000 C 
BRANCH  17  18
ATOM     18  C   UNL     1      -1.098 -33.489 -33.660  1.00  0.00     0.000 C 
BRANCH  18  19
ATOM     19  C   UNL     1       0.230 -32.724 -33.518  1.00  0.00     0.000 C 
BRANCH  19  20
ATOM     20  C   UNL     1       0.881 -32.799 -32.122  1.00  0.00     0.006 C 
BRANCH  20  21
ATOM     21  C   UNL     1       1.963 -31.739 -31.865  1.00  0.00     0.053 C 
BRANCH  21  22
ATOM     22  C   UNL     1       3.343 -32.316 -31.952  1.00  0.00     0.041 C 
ATOM     23  O   UNL     1       3.522 -33.553 -31.791  1.00  0.00    -0.550 OA
ATOM     24  O   UNL     1       4.429 -31.490 -32.214  1.00  0.00    -0.550 OA
ENDBRANCH  21  22
ENDBRANCH  20  21
ENDBRANCH  19  20
ENDBRANCH  18  19
ENDBRANCH  17  18
ENDBRANCH  16  17
ENDBRANCH  15  16
ENDBRANCH  14  15
ENDBRANCH  13  14
ENDBRANCH   1  13
TORSDOF 20
ENDMDL
MODEL 2
REMARK VINA RESULT:    -3.659     14.855     18.072
REMARK INTER + INTRA:         -12.238
REMARK INTER:                  -9.827
REMARK INTRA:                  -2.411
REMARK UNBOUND:                -4.300
REMARK SMILES CCCCCCCCCCCCCCCCCCCCCC(=O)[O-]
REMARK SMILES IDX 12 1 11 2 10 3 9 4 8 5 7 6 6 7 5 8 4 9 3 10 2 11 1 12 13 13
REMARK SMILES IDX 14 14 15 15 16 16 17 17 18 18 19 19 20 20 21 21 22 22 23 23
REMARK SMILES IDX 24 24
REMARK H PARENT
REMARK Flexibility Score: inf
ROOT
ATOM      1  C   UNL     1       3.139 -41.663 -15.989  1.00  0.00     0.000 C 
ENDROOT
BRANCH   1   2
ATOM      2  C   UNL     1       3.711 -42.404 -17.208  1.00  0.00     0.000 C 
BRANCH   2   3
ATOM      3  C   UNL     1       2.916 -43.672 -17.559  1.00  0.00     0.000 C 
BRANCH   3   4
ATOM      4  C   UNL     1       2.972 -44.691 -16.415  1.00  0.00    -0.000 C 
BRANCH   4   5
ATOM      5  C   UNL     1       2.051 -45.885 -16.695  1.00  0.00    -0.000 C 
BRANCH   5   6
ATOM      6  C   UNL     1       1.106 -45.587 -17.868  1.00  0.00    -0.000 C 
BRANCH   6   7
ATOM      7  C   UNL     1      -0.380 -45.725 -17.487  1.00  0.00    -0.000 C 
BRANCH   7   8
ATOM      8  C   UNL     1      -0.716 -45.385 -16.021  1.00  0.00    -0.000 C 
BRANCH   8   9
ATOM      9  C   UNL     1      -1.334 -43.994 -15.795  1.00  0.00    -0.000 C 
BRANCH   9  10
ATOM     10  C   UNL     1      -0.280 -42.878 -15.697  1.00  0.00    -0.000 C 
BRANCH  10  11
ATOM     11  C   UNL     1      -0.594 -41.694 -16.625  1.00  0.00    -0.003 C 
ATOM     12  C   UNL     1      -0.440 -42.046 -18.104  1.00  0.00     0.004 C 
ENDBRANCH  10  11
ENDBRANCH   9  10
ENDBRANCH   8   9
ENDBRANCH   7   8
ENDBRANCH   6   7
ENDBRANCH   5   6
ENDBRANCH   4   5
ENDBRANCH   3   4
ENDBRANCH   2   3
ENDBRANCH   1   2
BRANCH   1  13
ATOM     13  C   UNL     1       4.225 -41.239 -14.988  1.00  0.00     0.000 C 
BRANCH  13  14
ATOM     14  C   UNL     1       4.667 -39.777 -15.171  1.00  0.00     0.000 C 
BRANCH  14  15
ATOM     15  C   UNL     1       6.138 -39.622 -15.611  1.00  0.00     0.000 C 
BRANCH  15  16
ATOM     16  C   UNL     1       6.263 -39.084 -17.044  1.00  0.00     0.000 C 
BRANCH  16  17
ATOM     17  C   UNL     1       7.175 -39.979 -17.892  1.00  0.00     0.000 C 
BRANCH  17  18
ATOM     18  C   UNL     1       7.141 -39.558 -19.368  1.00  0.00     0.000 C 
BRANCH  18  19
ATOM     19  C   UNL     1       6.732 -38.086 -19.564  1.00  0.00     0.000 C 
BRANCH  19  20
ATOM     20  C   UNL     1       6.605 -37.634 -21.032  1.00  0.00     0.006 C 
BRANCH  20  21
ATOM     21  C   UNL     1       5.853 -36.309 -21.228  1.00  0.00     0.053 C 
BRANCH  21  22
ATOM     22  C   UNL     1       5.602 -36.016 -22.676  1.00  0.00     0.041 C 
ATOM     23  O   UNL     1       4.422 -35.885 -23.099  1.00  0.00    -0.550 OA
ATOM     24  O   UNL     1       6.670 -35.885 -23.556  1.00  0.00    -0.550 OA
ENDBRANCH  21  22
ENDBRANCH  20  21
ENDBRANCH  19  20
ENDBRANCH  18  19
ENDBRANCH  17  18
ENDBRANCH  16  17
ENDBRANCH  15  16
ENDBRANCH  14  15
ENDBRANCH  13  14
ENDBRANCH   1  13
TORSDOF 20
ENDMDL
MODEL 3
REMARK VINA RESULT:    -3.642     12.473     14.454
REMARK INTER + INTRA:         -12.201
REMARK INTER:                 -10.536
REMARK INTRA:                  -1.665
REMARK UNBOUND:                -4.300
REMARK SMILES CCCCCCCCCCCCCCCCCCCCCC(=O)[O-]
REMARK SMILES IDX 12 1 11 2 10 3 9 4 8 5 7 6 6 7 5 8 4 9 3 10 2 11 1 12 13 13
REMARK SMILES IDX 14 14 15 15 16 16 17 17 18 18 19 19 20 20 21 21 22 22 23 23
REMARK SMILES IDX 24 24
REMARK H PARENT
REMARK Flexibility Score: inf
ROOT
ATOM      1  C   UNL     1       6.361 -32.421 -19.593  1.00  0.00     0.000 C 
ENDROOT
BRANCH   1   2
ATOM      2  C   UNL     1       7.222 -31.719 -18.530  1.00  0.00     0.000 C 
BRANCH   2   3
ATOM      3  C   UNL     1       6.487 -31.545 -17.191  1.00  0.00     0.000 C 
BRANCH   3   4
ATOM      4  C   UNL     1       5.012 -31.941 -17.318  1.00  0.00    -0.000 C 
BRANCH   4   5
ATOM      5  C   UNL     1       4.093 -30.770 -16.948  1.00  0.00    -0.000 C 
BRANCH   5   6
ATOM      6  C   UNL     1       4.316 -30.335 -15.492  1.00  0.00    -0.000 C 
BRANCH   6   7
ATOM      7  C   UNL     1       4.908 -28.918 -15.376  1.00  0.00    -0.000 C 
BRANCH   7   8
ATOM      8  C   UNL     1       4.122 -27.817 -16.116  1.00  0.00    -0.000 C 
BRANCH   8   9
ATOM      9  C   UNL     1       4.893 -27.102 -17.241  1.00  0.00    -0.000 C 
BRANCH   9  10
ATOM     10  C   UNL     1       5.999 -27.974 -17.858  1.00  0.00    -0.000 C 
BRANCH  10  11
ATOM     11  C   UNL     1       7.393 -27.350 -17.698  1.00  0.00    -0.003 C 
ATOM     12  C   UNL     1       8.465 -28.380 -17.343  1.00  0.00     0.004 C 
ENDBRANCH  10  11
ENDBRANCH   9  10
ENDBRANCH   8   9
ENDBRANCH   7   8
ENDBRANCH   6   7
ENDBRANCH   5   6
ENDBRANCH   4   5
ENDBRANCH   3   4
ENDBRANCH   2   3
ENDBRANCH   1   2
BRANCH   1  13
ATOM     13  C   UNL     1       7.075 -33.618 -20.239  1.00  0.00     0.000 C 
BRANCH  13  14
ATOM     14  C   UNL     1       6.304 -34.197 -21.438  1.00  0.00     0.000 C 
BRANCH  14  15
ATOM     15  C   UNL     1       6.316 -35.739 -21.498  1.00  0.00     0.000 C 
BRANCH  15  16
ATOM     16  C   UNL     1       6.310 -36.265 -22.943  1.00  0.00     0.000 C 
BRANCH  16  17
ATOM     17  C   UNL     1       7.731 -36.317 -23.516  1.00  0.00     0.000 C 
BRANCH  17  18
ATOM     18  C   UNL     1       7.724 -36.051 -25.028  1.00  0.00     0.000 C 
BRANCH  18  19
ATOM     19  C   UNL     1       8.941 -35.233 -25.500  1.00  0.00     0.000 C 
BRANCH  19  20
ATOM     20  C   UNL     1      10.011 -36.038 -26.263  1.00  0.00     0.006 C 
BRANCH  20  21
ATOM     21  C   UNL     1      10.428 -37.350 -25.582  1.00  0.00     0.053 C 
BRANCH  21  22
ATOM     22  C   UNL     1      11.778 -37.243 -24.940  1.00  0.00     0.041 C 
ATOM     23  O   UNL     1      12.463 -36.194 -25.081  1.00  0.00    -0.550 OA
ATOM     24  O   UNL     1      12.278 -38.297 -24.186  1.00  0.00    -0.550 OA
ENDBRANCH  21  22
ENDBRANCH  20  21
ENDBRANCH  19  20
ENDBRANCH  18  19
ENDBRANCH  17  18
ENDBRANCH  16  17
ENDBRANCH  15  16
ENDBRANCH  14  15
ENDBRANCH  13  14
ENDBRANCH   1  13
TORSDOF 20
ENDMDL
MODEL 4
REMARK VINA RESULT:    -3.366      3.133      5.346
REMARK INTER + INTRA:         -11.602
REMARK INTER:                  -7.300
REMARK INTRA:                  -4.301
REMARK UNBOUND:                -4.300
REMARK SMILES CCCCCCCCCCCCCCCCCCCCCC(=O)[O-]
REMARK SMILES IDX 12 1 11 2 10 3 9 4 8 5 7 6 6 7 5 8 4 9 3 10 2 11 1 12 13 13
REMARK SMILES IDX 14 14 15 15 16 16 17 17 18 18 19 19 20 20 21 21 22 22 23 23
REMARK SMILES IDX 24 24
REMARK H PARENT
REMARK Flexibility Score: inf
ROOT
ATOM      1  C   UNL     1      -0.383 -28.379 -32.433  1.00  0.00     0.000 C 
ENDROOT
BRANCH   1   2
ATOM      2  C   UNL     1      -0.242 -29.223 -33.710  1.00  0.00     0.000 C 
BRANCH   2   3
ATOM      3  C   UNL     1      -0.287 -30.734 -33.431  1.00  0.00     0.000 C 
BRANCH   3   4
ATOM      4  C   UNL     1      -1.197 -31.452 -34.434  1.00  0.00    -0.000 C 
BRANCH   4   5
ATOM      5  C   UNL     1      -1.648 -32.815 -33.893  1.00  0.00    -0.000 C 
BRANCH   5   6
ATOM      6  C   UNL     1      -3.091 -33.125 -34.320  1.00  0.00    -0.000 C 
BRANCH   6   7
ATOM      7  C   UNL     1      -3.844 -33.990 -33.292  1.00  0.00    -0.000 C 
BRANCH   7   8
ATOM      8  C   UNL     1      -2.999 -34.471 -32.095  1.00  0.00    -0.000 C 
BRANCH   8   9
ATOM      9  C   UNL     1      -3.771 -34.649 -30.775  1.00  0.00    -0.000 C 
BRANCH   9  10
ATOM     10  C   UNL     1      -2.892 -34.427 -29.532  1.00  0.00    -0.000 C 
BRANCH  10  11
ATOM     11  C   UNL     1      -1.431 -34.125 -29.895  1.00  0.00    -0.003 C 
ATOM     12  C   UNL     1      -0.642 -33.535 -28.727  1.00  0.00     0.004 C 
ENDBRANCH  10  11
ENDBRANCH   9  10
ENDBRANCH   8   9
ENDBRANCH   7   8
ENDBRANCH   6   7
ENDBRANCH   5   6
ENDBRANCH   4   5
ENDBRANCH   3   4
ENDBRANCH   2   3
ENDBRANCH   1   2
BRANCH   1  13
ATOM     13  C   UNL     1      -1.707 -27.601 -32.379  1.00  0.00     0.000 C 
BRANCH  13  14
ATOM     14  C   UNL     1      -2.627 -27.906 -33.573  1.00  0.00     0.000 C 
BRANCH  14  15
ATOM     15  C   UNL     1      -4.054 -28.330 -33.165  1.00  0.00     0.000 C 
BRANCH  15  16
ATOM     16  C   UNL     1      -4.174 -29.848 -32.962  1.00  0.00     0.000 C 
BRANCH  16  17
ATOM     17  C   UNL     1      -4.268 -30.199 -31.472  1.00  0.00     0.000 C 
BRANCH  17  18
ATOM     18  C   UNL     1      -3.034 -30.992 -31.016  1.00  0.00     0.000 C 
BRANCH  18  19
ATOM     19  C   UNL     1      -2.235 -30.277 -29.911  1.00  0.00     0.000 C 
BRANCH  19  20
ATOM     20  C   UNL     1      -3.089 -29.640 -28.797  1.00  0.00     0.006 C 
BRANCH  20  21
ATOM     21  C   UNL     1      -2.937 -30.302 -27.419  1.00  0.00     0.053 C 
BRANCH  21  22
ATOM     22  C   UNL     1      -3.797 -31.523 -27.287  1.00  0.00     0.041 C 
ATOM     23  O   UNL     1      -4.930 -31.560 -27.837  1.00  0.00    -0.550 OA
ATOM     24  O   UNL     1      -3.346 -32.618 -26.562  1.00  0.00    -0.550 OA
ENDBRANCH  21  22
ENDBRANCH  20  21
ENDBRANCH  19  20
ENDBRANCH  18  19
ENDBRANCH  17  18
ENDBRANCH  16  17
ENDBRANCH  15  16
ENDBRANCH  14  15
ENDBRANCH  13  14
ENDBRANCH   1  13
TORSDOF 20
ENDMDL
MODEL 5
REMARK VINA RESULT:    -3.337      3.182      6.517
REMARK INTER + INTRA:         -11.540
REMARK INTER:                  -7.452
REMARK INTRA:                  -4.088
REMARK UNBOUND:                -4.300
REMARK SMILES CCCCCCCCCCCCCCCCCCCCCC(=O)[O-]
REMARK SMILES IDX 12 1 11 2 10 3 9 4 8 5 7 6 6 7 5 8 4 9 3 10 2 11 1 12 13 13
REMARK SMILES IDX 14 14 15 15 16 16 17 17 18 18 19 19 20 20 21 21 22 22 23 23
REMARK SMILES IDX 24 24
REMARK H PARENT
REMARK Flexibility Score: inf
ROOT
ATOM      1  C   UNL     1      -4.615 -33.413 -31.648  1.00  0.00     0.000 C 
ENDROOT
BRANCH   1   2
ATOM      2  C   UNL     1      -3.433 -34.151 -30.999  1.00  0.00     0.000 C 
BRANCH   2   3
ATOM      3  C   UNL     1      -2.136 -34.028 -31.814  1.00  0.00     0.000 C 
BRANCH   3   4
ATOM      4  C   UNL     1      -2.380 -33.272 -33.125  1.00  0.00    -0.000 C 
BRANCH   4   5
ATOM      5  C   UNL     1      -1.232 -32.299 -33.423  1.00  0.00    -0.000 C 
BRANCH   5   6
ATOM      6  C   UNL     1      -0.388 -32.045 -32.165  1.00  0.00    -0.000 C 
BRANCH   6   7
ATOM      7  C   UNL     1       0.028 -30.570 -32.014  1.00  0.00    -0.000 C 
BRANCH   7   8
ATOM      8  C   UNL     1      -0.343 -29.659 -33.201  1.00  0.00    -0.000 C 
BRANCH   8   9
ATOM      9  C   UNL     1      -0.982 -28.311 -32.821  1.00  0.00    -0.000 C 
BRANCH   9  10
ATOM     10  C   UNL     1      -2.309 -28.050 -33.554  1.00  0.00    -0.000 C 
BRANCH  10  11
ATOM     11  C   UNL     1      -2.654 -29.162 -34.556  1.00  0.00    -0.003 C 
ATOM     12  C   UNL     1      -4.158 -29.308 -34.783  1.00  0.00     0.004 C 
ENDBRANCH  10  11
ENDBRANCH   9  10
ENDBRANCH   8   9
ENDBRANCH   7   8
ENDBRANCH   6   7
ENDBRANCH   5   6
ENDBRANCH   4   5
ENDBRANCH   3   4
ENDBRANCH   2   3
ENDBRANCH   1   2
BRANCH   1  13
ATOM     13  C   UNL     1      -5.513 -32.709 -30.619  1.00  0.00     0.000 C 
BRANCH  13  14
ATOM     14  C   UNL     1      -5.404 -31.176 -30.679  1.00  0.00     0.000 C 
BRANCH  14  15
ATOM     15  C   UNL     1      -4.087 -30.671 -31.306  1.00  0.00     0.000 C 
BRANCH  15  16
ATOM     16  C   UNL     1      -3.293 -29.772 -30.345  1.00  0.00     0.000 C 
BRANCH  16  17
ATOM     17  C   UNL     1      -2.476 -30.610 -29.355  1.00  0.00     0.000 C 
BRANCH  17  18
ATOM     18  C   UNL     1      -2.713 -30.141 -27.911  1.00  0.00     0.000 C 
BRANCH  18  19
ATOM     19  C   UNL     1      -2.926 -31.306 -26.928  1.00  0.00     0.000 C 
BRANCH  19  20
ATOM     20  C   UNL     1      -3.058 -32.696 -27.582  1.00  0.00     0.006 C 
BRANCH  20  21
ATOM     21  C   UNL     1      -4.346 -33.451 -27.221  1.00  0.00     0.053 C 
BRANCH  21  22
ATOM     22  C   UNL     1      -4.087 -34.901 -26.945  1.00  0.00     0.041 C 
ATOM     23  O   UNL     1      -3.354 -35.570 -27.721  1.00  0.00    -0.550 OA
ATOM     24  O   UNL     1      -4.652 -35.511 -25.832  1.00  0.00    -0.550 OA
ENDBRANCH  21  22
ENDBRANCH  20  21
ENDBRANCH  19  20
ENDBRANCH  18  19
ENDBRANCH  17  18
ENDBRANCH  16  17
ENDBRANCH  15  16
ENDBRANCH  14  15
ENDBRANCH  13  14
ENDBRANCH   1  13
TORSDOF 20
ENDMDL
MODEL 6
REMARK VINA RESULT:    -3.329     11.786     15.436
REMARK INTER + INTRA:         -11.521
REMARK INTER:                  -8.411
REMARK INTRA:                  -3.110
REMARK UNBOUND:                -4.300
REMARK SMILES CCCCCCCCCCCCCCCCCCCCCC(=O)[O-]
REMARK SMILES IDX 12 1 11 2 10 3 9 4 8 5 7 6 6 7 5 8 4 9 3 10 2 11 1 12 13 13
REMARK SMILES IDX 14 14 15 15 16 16 17 17 18 18 19 19 20 20 21 21 22 22 23 23
REMARK SMILES IDX 24 24
REMARK H PARENT
REMARK Flexibility Score: inf
ROOT
ATOM      1  C   UNL     1       8.605 -43.341 -27.305  1.00  0.00     0.000 C 
ENDROOT
BRANCH   1   2
ATOM      2  C   UNL     1       9.882 -44.099 -27.700  1.00  0.00     0.000 C 
BRANCH   2   3
ATOM      3  C   UNL     1       9.621 -45.583 -28.007  1.00  0.00     0.000 C 
BRANCH   3   4
ATOM      4  C   UNL     1       8.164 -45.957 -27.714  1.00  0.00    -0.000 C 
BRANCH   4   5
ATOM      5  C   UNL     1       7.512 -46.628 -28.930  1.00  0.00    -0.000 C 
BRANCH   5   6
ATOM      6  C   UNL     1       8.523 -46.792 -30.074  1.00  0.00    -0.000 C 
BRANCH   6   7
ATOM      7  C   UNL     1       7.984 -46.282 -31.424  1.00  0.00    -0.000 C 
BRANCH   7   8
ATOM      8  C   UNL     1       6.526 -45.781 -31.401  1.00  0.00    -0.000 C 
BRANCH   8   9
ATOM      9  C   UNL     1       6.004 -45.215 -32.734  1.00  0.00    -0.000 C 
BRANCH   9  10
ATOM     10  C   UNL     1       7.083 -44.458 -33.527  1.00  0.00    -0.000 C 
BRANCH  10  11
ATOM     11  C   UNL     1       6.508 -43.736 -34.754  1.00  0.00    -0.003 C 
ATOM     12  C   UNL     1       4.980 -43.722 -34.770  1.00  0.00     0.004 C 
ENDBRANCH  10  11
ENDBRANCH   9  10
ENDBRANCH   8   9
ENDBRANCH   7   8
ENDBRANCH   6   7
ENDBRANCH   5   6
ENDBRANCH   4   5
ENDBRANCH   3   4
ENDBRANCH   2   3
ENDBRANCH   1   2
BRANCH   1  13
ATOM     13  C   UNL     1       8.230 -42.244 -28.313  1.00  0.00     0.000 C 
BRANCH  13  14
ATOM     14  C   UNL     1       7.479 -42.790 -29.539  1.00  0.00     0.000 C 
BRANCH  14  15
ATOM     15  C   UNL     1       7.952 -42.187 -30.878  1.00  0.00     0.000 C 
BRANCH  15  16
ATOM     16  C   UNL     1       6.858 -41.349 -31.558  1.00  0.00     0.000 C 
BRANCH  16  17
ATOM     17  C   UNL     1       5.463 -41.890 -31.225  1.00  0.00     0.000 C 
BRANCH  17  18
ATOM     18  C   UNL     1       4.369 -40.933 -31.720  1.00  0.00     0.000 C 
BRANCH  18  19
ATOM     19  C   UNL     1       3.234 -41.654 -32.471  1.00  0.00     0.000 C 
BRANCH  19  20
ATOM     20  C   UNL     1       1.863 -41.622 -31.768  1.00  0.00     0.006 C 
BRANCH  20  21
ATOM     21  C   UNL     1       1.684 -40.467 -30.771  1.00  0.00     0.053 C 
BRANCH  21  22
ATOM     22  C   UNL     1       0.873 -39.348 -31.349  1.00  0.00     0.041 C 
ATOM     23  O   UNL     1      -0.004 -38.776 -30.647  1.00  0.00    -0.550 OA
ATOM     24  O   UNL     1       1.087 -38.935 -32.658  1.00  0.00    -0.550 OA
ENDBRANCH  21  22
ENDBRANCH  20  21
ENDBRANCH  19  20
ENDBRANCH  18  19
ENDBRANCH  17  18
ENDBRANCH  16  17
ENDBRANCH  15  16
ENDBRANCH  14  15
ENDBRANCH  13  14
ENDBRANCH   1  13
TORSDOF 20
ENDMDL
MODEL 7
REMARK VINA RESULT:    -3.329      3.172      5.264
REMARK INTER + INTRA:         -11.521
REMARK INTER:                  -7.700
REMARK INTRA:                  -3.821
REMARK UNBOUND:                -4.300
REMARK SMILES CCCCCCCCCCCCCCCCCCCCCC(=O)[O-]
REMARK SMILES IDX 12 1 11 2 10 3 9 4 8 5 7 6 6 7 5 8 4 9 3 10 2 11 1 12 13 13
REMARK SMILES IDX 14 14 15 15 16 16 17 17 18 18 19 19 20 20 21 21 22 22 23 23
REMARK SMILES IDX 24 24
REMARK H PARENT
REMARK Flexibility Score: inf
ROOT
ATOM      1  C   UNL     1      -2.561 -29.300 -30.048  1.00  0.00     0.000 C 
ENDROOT
BRANCH   1   2
ATOM      2  C   UNL     1      -3.202 -29.038 -28.675  1.00  0.00     0.000 C 
BRANCH   2   3
ATOM      3  C   UNL     1      -2.754 -30.048 -27.607  1.00  0.00     0.000 C 
BRANCH   3   4
ATOM      4  C   UNL     1      -3.958 -30.777 -26.999  1.00  0.00    -0.000 C 
BRANCH   4   5
ATOM      5  C   UNL     1      -5.254 -29.992 -27.236  1.00  0.00    -0.000 C 
BRANCH   5   6
ATOM      6  C   UNL     1      -6.405 -30.935 -27.616  1.00  0.00    -0.000 C 
BRANCH   6   7
ATOM      7  C   UNL     1      -6.532 -31.140 -29.137  1.00  0.00    -0.000 C 
BRANCH   7   8
ATOM      8  C   UNL     1      -6.739 -32.601 -29.586  1.00  0.00    -0.000 C 
BRANCH   8   9
ATOM      9  C   UNL     1      -5.495 -33.290 -30.174  1.00  0.00    -0.000 C 
BRANCH   9  10
ATOM     10  C   UNL     1      -4.477 -33.707 -29.100  1.00  0.00    -0.000 C 
BRANCH  10  11
ATOM     11  C   UNL     1      -3.400 -34.655 -29.650  1.00  0.00    -0.003 C 
ATOM     12  C   UNL     1      -2.216 -34.820 -28.698  1.00  0.00     0.004 C 
ENDBRANCH  10  11
ENDBRANCH   9  10
ENDBRANCH   8   9
ENDBRANCH   7   8
ENDBRANCH   6   7
ENDBRANCH   5   6
ENDBRANCH   4   5
ENDBRANCH   3   4
ENDBRANCH   2   3
ENDBRANCH   1   2
BRANCH   1  13
ATOM     13  C   UNL     1      -3.325 -30.350 -30.869  1.00  0.00     0.000 C 
BRANCH  13  14
ATOM     14  C   UNL     1      -2.419 -31.482 -31.382  1.00  0.00     0.000 C 
BRANCH  14  15
ATOM     15  C   UNL     1      -1.170 -31.723 -30.508  1.00  0.00     0.000 C 
BRANCH  15  16
ATOM     16  C   UNL     1       0.043 -32.175 -31.338  1.00  0.00     0.000 C 
BRANCH  16  17
ATOM     17  C   UNL     1      -0.137 -31.815 -32.817  1.00  0.00     0.000 C 
BRANCH  17  18
ATOM     18  C   UNL     1       0.936 -30.815 -33.274  1.00  0.00     0.000 C 
BRANCH  18  19
ATOM     19  C   UNL     1       0.360 -29.652 -34.102  1.00  0.00     0.000 C 
BRANCH  19  20
ATOM     20  C   UNL     1      -0.701 -28.799 -33.378  1.00  0.00     0.006 C 
BRANCH  20  21
ATOM     21  C   UNL     1      -2.085 -28.804 -34.044  1.00  0.00     0.053 C 
BRANCH  21  22
ATOM     22  C   UNL     1      -2.964 -27.710 -33.517  1.00  0.00     0.041 C 
ATOM     23  O   UNL     1      -2.510 -26.882 -32.683  1.00  0.00    -0.550 OA
ATOM     24  O   UNL     1      -4.281 -27.604 -33.949  1.00  0.00    -0.550 OA
ENDBRANCH  21  22
ENDBRANCH  20  21
ENDBRANCH  19  20
ENDBRANCH  18  19
ENDBRANCH  17  18
ENDBRANCH  16  17
ENDBRANCH  15  16
ENDBRANCH  14  15
ENDBRANCH  13  14
ENDBRANCH   1  13
TORSDOF 20
ENDMDL
MODEL 8
REMARK VINA RESULT:    -3.315      2.415      5.356
REMARK INTER + INTRA:         -11.492
REMARK INTER:                  -7.326
REMARK INTRA:                  -4.166
REMARK UNBOUND:                -4.300
REMARK SMILES CCCCCCCCCCCCCCCCCCCCCC(=O)[O-]
REMARK SMILES IDX 12 1 11 2 10 3 9 4 8 5 7 6 6 7 5 8 4 9 3 10 2 11 1 12 13 13
REMARK SMILES IDX 14 14 15 15 16 16 17 17 18 18 19 19 20 20 21 21 22 22 23 23
REMARK SMILES IDX 24 24
REMARK H PARENT
REMARK Flexibility Score: inf
ROOT
ATOM      1  C   UNL     1      -3.950 -33.674 -28.376  1.00  0.00     0.000 C 
ENDROOT
BRANCH   1   2
ATOM      2  C   UNL     1      -4.179 -32.325 -27.675  1.00  0.00     0.000 C 
BRANCH   2   3
ATOM      3  C   UNL     1      -2.978 -31.890 -26.819  1.00  0.00     0.000 C 
BRANCH   3   4
ATOM      4  C   UNL     1      -2.637 -30.415 -27.061  1.00  0.00    -0.000 C 
BRANCH   4   5
ATOM      5  C   UNL     1      -3.679 -29.749 -27.969  1.00  0.00    -0.000 C 
BRANCH   5   6
ATOM      6  C   UNL     1      -3.240 -28.331 -28.361  1.00  0.00    -0.000 C 
BRANCH   6   7
ATOM      7  C   UNL     1      -3.309 -28.082 -29.879  1.00  0.00    -0.000 C 
BRANCH   7   8
ATOM      8  C   UNL     1      -2.454 -26.905 -30.390  1.00  0.00    -0.000 C 
BRANCH   8   9
ATOM      9  C   UNL     1      -1.896 -27.068 -31.816  1.00  0.00    -0.000 C 
BRANCH   9  10
ATOM     10  C   UNL     1      -0.763 -28.105 -31.901  1.00  0.00    -0.000 C 
BRANCH  10  11
ATOM     11  C   UNL     1      -0.771 -28.873 -33.231  1.00  0.00    -0.003 C 
ATOM     12  C   UNL     1      -2.037 -28.623 -34.050  1.00  0.00     0.004 C 
ENDBRANCH  10  11
ENDBRANCH   9  10
ENDBRANCH   8   9
ENDBRANCH   7   8
ENDBRANCH   6   7
ENDBRANCH   5   6
ENDBRANCH   4   5
ENDBRANCH   3   4
ENDBRANCH   2   3
ENDBRANCH   1   2
BRANCH   1  13
ATOM     13  C   UNL     1      -4.881 -33.882 -29.581  1.00  0.00     0.000 C 
BRANCH  13  14
ATOM     14  C   UNL     1      -5.838 -32.699 -29.807  1.00  0.00     0.000 C 
BRANCH  14  15
ATOM     15  C   UNL     1      -6.224 -32.485 -31.286  1.00  0.00     0.000 C 
BRANCH  15  16
ATOM     16  C   UNL     1      -6.227 -30.999 -31.677  1.00  0.00     0.000 C 
BRANCH  16  17
ATOM     17  C   UNL     1      -4.811 -30.514 -32.009  1.00  0.00     0.000 C 
BRANCH  17  18
ATOM     18  C   UNL     1      -4.085 -31.518 -32.916  1.00  0.00     0.000 C 
BRANCH  18  19
ATOM     19  C   UNL     1      -2.700 -31.923 -32.376  1.00  0.00     0.000 C 
BRANCH  19  20
ATOM     20  C   UNL     1      -2.403 -31.463 -30.935  1.00  0.00     0.006 C 
BRANCH  20  21
ATOM     21  C   UNL     1      -0.939 -31.634 -30.501  1.00  0.00     0.053 C 
BRANCH  21  22
ATOM     22  C   UNL     1      -0.666 -33.014 -29.984  1.00  0.00     0.041 C 
ATOM     23  O   UNL     1      -0.428 -33.193 -28.759  1.00  0.00    -0.550 OA
ATOM     24  O   UNL     1      -0.677 -34.099 -30.851  1.00  0.00    -0.550 OA
ENDBRANCH  21  22
ENDBRANCH  20  21
ENDBRANCH  19  20
ENDBRANCH  18  19
ENDBRANCH  17  18
ENDBRANCH  16  17
ENDBRANCH  15  16
ENDBRANCH  14  15
ENDBRANCH  13  14
ENDBRANCH   1  13
TORSDOF 20
ENDMDL
MODEL 9
REMARK VINA RESULT:    -3.292      2.070      4.153
REMARK INTER + INTRA:         -11.441
REMARK INTER:                  -7.173
REMARK INTRA:                  -4.269
REMARK UNBOUND:                -4.300
REMARK SMILES CCCCCCCCCCCCCCCCCCCCCC(=O)[O-]
REMARK SMILES IDX 12 1 11 2 10 3 9 4 8 5 7 6 6 7 5 8 4 9 3 10 2 11 1 12 13 13
REMARK SMILES IDX 14 14 15 15 16 16 17 17 18 18 19 19 20 20 21 21 22 22 23 23
REMARK SMILES IDX 24 24
REMARK H PARENT
REMARK Flexibility Score: inf
ROOT
ATOM      1  C   UNL     1      -4.221 -32.803 -33.407  1.00  0.00     0.000 C 
ENDROOT
BRANCH   1   2
ATOM      2  C   UNL     1      -4.681 -33.277 -32.019  1.00  0.00     0.000 C 
BRANCH   2   3
ATOM      3  C   UNL     1      -5.948 -32.554 -31.534  1.00  0.00     0.000 C 
BRANCH   3   4
ATOM      4  C   UNL     1      -5.633 -31.616 -30.363  1.00  0.00    -0.000 C 
BRANCH   4   5
ATOM      5  C   UNL     1      -5.663 -30.148 -30.809  1.00  0.00    -0.000 C 
BRANCH   5   6
ATOM      6  C   UNL     1      -4.341 -29.444 -30.472  1.00  0.00    -0.000 C 
BRANCH   6   7
ATOM      7  C   UNL     1      -3.287 -30.403 -29.885  1.00  0.00    -0.000 C 
BRANCH   7   8
ATOM      8  C   UNL     1      -2.733 -30.001 -28.503  1.00  0.00    -0.000 C 
BRANCH   8   9
ATOM      9  C   UNL     1      -2.679 -31.133 -27.462  1.00  0.00    -0.000 C 
BRANCH   9  10
ATOM     10  C   UNL     1      -2.860 -32.528 -28.084  1.00  0.00    -0.000 C 
BRANCH  10  11
ATOM     11  C   UNL     1      -1.519 -33.223 -28.362  1.00  0.00    -0.003 C 
ATOM     12  C   UNL     1      -1.311 -33.535 -29.843  1.00  0.00     0.004 C 
ENDBRANCH  10  11
ENDBRANCH   9  10
ENDBRANCH   8   9
ENDBRANCH   7   8
ENDBRANCH   6   7
ENDBRANCH   5   6
ENDBRANCH   4   5
ENDBRANCH   3   4
ENDBRANCH   2   3
ENDBRANCH   1   2
BRANCH   1  13
ATOM     13  C   UNL     1      -2.991 -31.883 -33.342  1.00  0.00     0.000 C 
BRANCH  13  14
ATOM     14  C   UNL     1      -3.062 -30.719 -34.344  1.00  0.00     0.000 C 
BRANCH  14  15
ATOM     15  C   UNL     1      -4.419 -29.983 -34.348  1.00  0.00     0.000 C 
BRANCH  15  16
ATOM     16  C   UNL     1      -4.273 -28.493 -34.003  1.00  0.00     0.000 C 
BRANCH  16  17
ATOM     17  C   UNL     1      -2.798 -28.076 -33.972  1.00  0.00     0.000 C 
BRANCH  17  18
ATOM     18  C   UNL     1      -2.483 -27.260 -32.709  1.00  0.00     0.000 C 
BRANCH  18  19
ATOM     19  C   UNL     1      -1.274 -27.806 -31.928  1.00  0.00     0.000 C 
BRANCH  19  20
ATOM     20  C   UNL     1      -0.363 -28.765 -32.721  1.00  0.00     0.006 C 
BRANCH  20  21
ATOM     21  C   UNL     1      -0.056 -30.089 -32.006  1.00  0.00     0.053 C 
BRANCH  21  22
ATOM     22  C   UNL     1       0.662 -31.054 -32.900  1.00  0.00     0.041 C 
ATOM     23  O   UNL     1       1.340 -30.629 -33.873  1.00  0.00    -0.550 OA
ATOM     24  O   UNL     1       0.586 -32.420 -32.656  1.00  0.00    -0.550 OA
ENDBRANCH  21  22
ENDBRANCH  20  21
ENDBRANCH  19  20
ENDBRANCH  18  19
ENDBRANCH  17  18
ENDBRANCH  16  17
ENDBRANCH  15  16
ENDBRANCH  14  15
ENDBRANCH  13  14
ENDBRANCH   1  13
TORSDOF 20
ENDMDL
