MODEL 1
REMARK VINA RESULT:    -4.212      0.000      0.000
REMARK INTER + INTRA:          -6.192
REMARK INTER:                  -5.812
REMARK INTRA:                  -0.380
REMARK UNBOUND:                -0.380
REMARK SMILES OC[C@H](O)C(O)[C@@H](O)CO
REMARK SMILES IDX 5 1 7 2 9 3 10 4 8 6 3 8 2 9 1 10 4 12 6 14
REMARK H PARENT 10 5 8 7 1 11 4 13 6 15
REMARK Flexibility Score: inf
ROOT
ATOM      1  C   UNL     1       2.655  -0.360 -22.861  1.00  0.00     0.176 C 
ENDROOT
BRANCH   1   2
ATOM      2  C   UNL     1       2.514   0.232 -24.290  1.00  0.00     0.171 C 
BRANCH   2   3
ATOM      3  C   UNL     1       3.797   0.928 -24.785  1.00  0.00     0.190 C 
BRANCH   3   4
ATOM      4  O   UNL     1       4.099   2.032 -23.973  1.00  0.00    -0.394 OA
ATOM      5  H   UNL     1       3.247   2.518 -23.821  1.00  0.00     0.210 HD
ENDBRANCH   3   4
ENDBRANCH   2   3
BRANCH   2   6
ATOM      6  O   UNL     1       1.432   1.131 -24.325  1.00  0.00    -0.388 OA
ATOM      7  H   UNL     1       1.768   1.991 -24.693  1.00  0.00     0.211 HD
ENDBRANCH   2   6
ENDBRANCH   1   2
BRANCH   1   8
ATOM      8  C   UNL     1       2.091  -1.800 -22.693  1.00  0.00     0.171 C 
BRANCH   8   9
ATOM      9  C   UNL     1       1.798  -2.161 -21.226  1.00  0.00     0.190 C 
BRANCH   9  10
ATOM     10  O   UNL     1       0.445  -1.937 -20.930  1.00  0.00    -0.394 OA
ATOM     11  H   UNL     1       0.077  -2.795 -20.594  1.00  0.00     0.210 HD
ENDBRANCH   9  10
ENDBRANCH   8   9
BRANCH   8  12
ATOM     12  O   UNL     1       3.014  -2.723 -23.211  1.00  0.00    -0.388 OA
ATOM     13  H   UNL     1       3.750  -2.801 -22.549  1.00  0.00     0.211 HD
ENDBRANCH   8  12
ENDBRANCH   1   8
BRANCH   1  14
ATOM     14  O   UNL     1       2.022   0.507 -21.952  1.00  0.00    -0.388 OA
ATOM     15  H   UNL     1       1.309   0.986 -22.452  1.00  0.00     0.211 HD
ENDBRANCH   1  14
TORSDOF 9
ENDMDL
MODEL 2
REMARK VINA RESULT:    -4.192      5.709      6.866
REMARK INTER + INTRA:          -6.165
REMARK INTER:                  -5.604
REMARK INTRA:                  -0.561
REMARK UNBOUND:                -0.380
REMARK SMILES OC[C@H](O)C(O)[C@@H](O)CO
REMARK SMILES IDX 5 1 7 2 9 3 10 4 8 6 3 8 2 9 1 10 4 12 6 14
REMARK H PARENT 10 5 8 7 1 11 4 13 6 15
REMARK Flexibility Score: inf
ROOT
ATOM      1  C   UNL     1      -2.579   2.974 -22.845  1.00  0.00     0.176 C 
ENDROOT
BRANCH   1   2
ATOM      2  C   UNL     1      -3.686   2.647 -21.807  1.00  0.00     0.171 C 
BRANCH   2   3
ATOM      3  C   UNL     1      -5.027   3.344 -22.112  1.00  0.00     0.190 C 
BRANCH   3   4
ATOM      4  O   UNL     1      -4.811   4.516 -22.852  1.00  0.00    -0.394 OA
ATOM      5  H   UNL     1      -4.726   4.244 -23.803  1.00  0.00     0.210 HD
ENDBRANCH   3   4
ENDBRANCH   2   3
BRANCH   2   6
ATOM      6  O   UNL     1      -3.243   2.994 -20.517  1.00  0.00    -0.388 OA
ATOM      7  H   UNL     1      -4.031   3.319 -20.006  1.00  0.00     0.211 HD
ENDBRANCH   2   6
ENDBRANCH   1   2
BRANCH   1   8
ATOM      8  C   UNL     1      -1.415   1.943 -22.905  1.00  0.00     0.171 C 
BRANCH   8   9
ATOM      9  C   UNL     1      -0.858   1.751 -24.326  1.00  0.00     0.190 C 
BRANCH   9  10
ATOM     10  O   UNL     1      -0.297   2.948 -24.796  1.00  0.00    -0.394 OA
ATOM     11  H   UNL     1       0.246   2.718 -25.594  1.00  0.00     0.210 HD
ENDBRANCH   9  10
ENDBRANCH   8   9
BRANCH   8  12
ATOM     12  O   UNL     1      -1.868   0.704 -22.423  1.00  0.00    -0.388 OA
ATOM     13  H   UNL     1      -2.367   0.270 -23.164  1.00  0.00     0.211 HD
ENDBRANCH   8  12
ENDBRANCH   1   8
BRANCH   1  14
ATOM     14  O   UNL     1      -2.066   4.253 -22.566  1.00  0.00    -0.388 OA
ATOM     15  H   UNL     1      -1.768   4.644 -23.429  1.00  0.00     0.211 HD
ENDBRANCH   1  14
TORSDOF 9
ENDMDL
MODEL 3
REMARK VINA RESULT:    -4.114      5.346      6.058
REMARK INTER + INTRA:          -6.058
REMARK INTER:                  -5.648
REMARK INTRA:                  -0.410
REMARK UNBOUND:                -0.380
REMARK SMILES OC[C@H](O)C(O)[C@@H](O)CO
REMARK SMILES IDX 5 1 7 2 9 3 10 4 8 6 3 8 2 9 1 10 4 12 6 14
REMARK H PARENT 10 5 8 7 1 11 4 13 6 15
REMARK Flexibility Score: inf
ROOT
ATOM      1  C   UNL     1      -1.468   4.035 -23.343  1.00  0.00     0.176 C 
ENDROOT
BRANCH   1   2
ATOM      2  C   UNL     1      -1.522   5.242 -24.319  1.00  0.00     0.171 C 
BRANCH   2   3
ATOM      3  C   UNL     1      -0.580   6.393 -23.912  1.00  0.00     0.190 C 
BRANCH   3   4
ATOM      4  O   UNL     1      -0.568   6.544 -22.517  1.00  0.00    -0.394 OA
ATOM      5  H   UNL     1      -0.332   7.490 -22.332  1.00  0.00     0.210 HD
ENDBRANCH   3   4
ENDBRANCH   2   3
BRANCH   2   6
ATOM      6  O   UNL     1      -2.845   5.712 -24.418  1.00  0.00    -0.388 OA
ATOM      7  H   UNL     1      -3.149   5.559 -25.351  1.00  0.00     0.211 HD
ENDBRANCH   2   6
ENDBRANCH   1   2
BRANCH   1   8
ATOM      8  C   UNL     1      -1.331   2.646 -24.031  1.00  0.00     0.171 C 
BRANCH   8   9
ATOM      9  C   UNL     1      -1.178   1.493 -23.024  1.00  0.00     0.190 C 
BRANCH   9  10
ATOM     10  O   UNL     1      -2.344   1.358 -22.255  1.00  0.00    -0.394 OA
ATOM     11  H   UNL     1      -2.910   2.150 -22.448  1.00  0.00     0.210 HD
ENDBRANCH   9  10
ENDBRANCH   8   9
BRANCH   8  12
ATOM     12  O   UNL     1      -0.213   2.657 -24.881  1.00  0.00    -0.388 OA
ATOM     13  H   UNL     1      -0.184   1.773 -25.333  1.00  0.00     0.211 HD
ENDBRANCH   8  12
ENDBRANCH   1   8
BRANCH   1  14
ATOM     14  O   UNL     1      -2.622   4.056 -22.540  1.00  0.00    -0.388 OA
ATOM     15  H   UNL     1      -2.406   3.566 -21.704  1.00  0.00     0.211 HD
ENDBRANCH   1  14
TORSDOF 9
ENDMDL
MODEL 4
REMARK VINA RESULT:    -4.113      6.514      7.142
REMARK INTER + INTRA:          -6.057
REMARK INTER:                  -5.345
REMARK INTRA:                  -0.712
REMARK UNBOUND:                -0.380
REMARK SMILES OC[C@H](O)C(O)[C@@H](O)CO
REMARK SMILES IDX 5 1 7 2 9 3 10 4 8 6 3 8 2 9 1 10 4 12 6 14
REMARK H PARENT 10 5 8 7 1 11 4 13 6 15
REMARK Flexibility Score: inf
ROOT
ATOM      1  C   UNL     1      -2.972   3.170 -22.933  1.00  0.00     0.176 C 
ENDROOT
BRANCH   1   2
ATOM      2  C   UNL     1      -2.597   4.236 -23.998  1.00  0.00     0.171 C 
BRANCH   2   3
ATOM      3  C   UNL     1      -1.134   4.712 -23.888  1.00  0.00     0.190 C 
BRANCH   3   4
ATOM      4  O   UNL     1      -1.008   5.672 -22.873  1.00  0.00    -0.394 OA
ATOM      5  H   UNL     1      -0.393   6.372 -23.215  1.00  0.00     0.210 HD
ENDBRANCH   3   4
ENDBRANCH   2   3
BRANCH   2   6
ATOM      6  O   UNL     1      -3.471   5.333 -23.897  1.00  0.00    -0.388 OA
ATOM      7  H   UNL     1      -2.965   6.146 -24.161  1.00  0.00     0.211 HD
ENDBRANCH   2   6
ENDBRANCH   1   2
BRANCH   1   8
ATOM      8  C   UNL     1      -4.256   3.490 -22.114  1.00  0.00     0.171 C 
BRANCH   8   9
ATOM      9  C   UNL     1      -4.498   2.493 -20.967  1.00  0.00     0.190 C 
BRANCH   9  10
ATOM     10  O   UNL     1      -3.745   2.855 -19.839  1.00  0.00    -0.394 OA
ATOM     11  H   UNL     1      -4.392   3.070 -19.118  1.00  0.00     0.210 HD
ENDBRANCH   9  10
ENDBRANCH   8   9
BRANCH   8  12
ATOM     12  O   UNL     1      -5.369   3.474 -22.970  1.00  0.00    -0.388 OA
ATOM     13  H   UNL     1      -5.738   4.396 -22.983  1.00  0.00     0.211 HD
ENDBRANCH   8  12
ENDBRANCH   1   8
BRANCH   1  14
ATOM     14  O   UNL     1      -1.882   3.003 -22.061  1.00  0.00    -0.388 OA
ATOM     15  H   UNL     1      -1.060   2.989 -22.618  1.00  0.00     0.211 HD
ENDBRANCH   1  14
TORSDOF 9
ENDMDL
MODEL 5
REMARK VINA RESULT:    -4.078      4.531      5.257
REMARK INTER + INTRA:          -6.008
REMARK INTER:                  -5.708
REMARK INTRA:                  -0.300
REMARK UNBOUND:                -0.380
REMARK SMILES OC[C@H](O)C(O)[C@@H](O)CO
REMARK SMILES IDX 5 1 7 2 9 3 10 4 8 6 3 8 2 9 1 10 4 12 6 14
REMARK H PARENT 10 5 8 7 1 11 4 13 6 15
REMARK Flexibility Score: inf
ROOT
ATOM      1  C   UNL     1      -1.319   2.700 -24.031  1.00  0.00     0.176 C 
ENDROOT
BRANCH   1   2
ATOM      2  C   UNL     1      -1.922   4.108 -23.772  1.00  0.00     0.171 C 
BRANCH   2   3
ATOM      3  C   UNL     1      -0.909   5.249 -23.991  1.00  0.00     0.190 C 
BRANCH   3   4
ATOM      4  O   UNL     1      -0.734   5.981 -22.807  1.00  0.00    -0.394 OA
ATOM      5  H   UNL     1       0.212   5.858 -22.531  1.00  0.00     0.210 HD
ENDBRANCH   3   4
ENDBRANCH   2   3
BRANCH   2   6
ATOM      6  O   UNL     1      -2.441   4.166 -22.466  1.00  0.00    -0.388 OA
ATOM      7  H   UNL     1      -1.821   3.665 -21.873  1.00  0.00     0.211 HD
ENDBRANCH   2   6
ENDBRANCH   1   2
BRANCH   1   8
ATOM      8  C   UNL     1      -1.089   1.843 -22.753  1.00  0.00     0.171 C 
BRANCH   8   9
ATOM      9  C   UNL     1      -0.077   0.705 -22.970  1.00  0.00     0.190 C 
BRANCH   9  10
ATOM     10  O   UNL     1      -0.265  -0.304 -22.014  1.00  0.00    -0.394 OA
ATOM     11  H   UNL     1       0.581  -0.374 -21.499  1.00  0.00     0.210 HD
ENDBRANCH   9  10
ENDBRANCH   8   9
BRANCH   8  12
ATOM     12  O   UNL     1      -2.312   1.289 -22.339  1.00  0.00    -0.388 OA
ATOM     13  H   UNL     1      -2.119   0.371 -22.012  1.00  0.00     0.211 HD
ENDBRANCH   8  12
ENDBRANCH   1   8
BRANCH   1  14
ATOM     14  O   UNL     1      -0.107   2.852 -24.726  1.00  0.00    -0.388 OA
ATOM     15  H   UNL     1       0.453   2.058 -24.516  1.00  0.00     0.211 HD
ENDBRANCH   1  14
TORSDOF 9
ENDMDL
MODEL 6
REMARK VINA RESULT:    -4.010      6.597      7.356
REMARK INTER + INTRA:          -5.914
REMARK INTER:                  -5.295
REMARK INTRA:                  -0.619
REMARK UNBOUND:                -0.380
REMARK SMILES OC[C@H](O)C(O)[C@@H](O)CO
REMARK SMILES IDX 5 1 7 2 9 3 10 4 8 6 3 8 2 9 1 10 4 12 6 14
REMARK H PARENT 10 5 8 7 1 11 4 13 6 15
REMARK Flexibility Score: inf
ROOT
ATOM      1  C   UNL     1      -3.594   2.780 -21.980  1.00  0.00     0.176 C 
ENDROOT
BRANCH   1   2
ATOM      2  C   UNL     1      -2.416   3.094 -22.943  1.00  0.00     0.171 C 
BRANCH   2   3
ATOM      3  C   UNL     1      -1.294   2.038 -22.892  1.00  0.00     0.190 C 
BRANCH   3   4
ATOM      4  O   UNL     1      -1.808   0.798 -22.484  1.00  0.00    -0.394 OA
ATOM      5  H   UNL     1      -1.541   0.675 -21.535  1.00  0.00     0.210 HD
ENDBRANCH   3   4
ENDBRANCH   2   3
BRANCH   2   6
ATOM      6  O   UNL     1      -1.895   4.368 -22.651  1.00  0.00    -0.388 OA
ATOM      7  H   UNL     1      -0.911   4.328 -22.785  1.00  0.00     0.211 HD
ENDBRANCH   2   6
ENDBRANCH   1   2
BRANCH   1   8
ATOM      8  C   UNL     1      -4.892   3.594 -22.249  1.00  0.00     0.171 C 
BRANCH   8   9
ATOM      9  C   UNL     1      -6.167   2.739 -22.143  1.00  0.00     0.190 C 
BRANCH   9  10
ATOM     10  O   UNL     1      -5.931   1.607 -21.348  1.00  0.00    -0.394 OA
ATOM     11  H   UNL     1      -6.071   1.883 -20.406  1.00  0.00     0.210 HD
ENDBRANCH   9  10
ENDBRANCH   8   9
BRANCH   8  12
ATOM     12  O   UNL     1      -4.829   4.157 -23.534  1.00  0.00    -0.388 OA
ATOM     13  H   UNL     1      -4.267   3.554 -24.088  1.00  0.00     0.211 HD
ENDBRANCH   8  12
ENDBRANCH   1   8
BRANCH   1  14
ATOM     14  O   UNL     1      -3.163   2.996 -20.659  1.00  0.00    -0.388 OA
ATOM     15  H   UNL     1      -3.619   3.815 -20.332  1.00  0.00     0.211 HD
ENDBRANCH   1  14
TORSDOF 9
ENDMDL
MODEL 7
REMARK VINA RESULT:    -3.990      6.666      8.093
REMARK INTER + INTRA:          -5.887
REMARK INTER:                  -5.401
REMARK INTRA:                  -0.486
REMARK UNBOUND:                -0.380
REMARK SMILES OC[C@H](O)C(O)[C@@H](O)CO
REMARK SMILES IDX 5 1 7 2 9 3 10 4 8 6 3 8 2 9 1 10 4 12 6 14
REMARK H PARENT 10 5 8 7 1 11 4 13 6 15
REMARK Flexibility Score: inf
ROOT
ATOM      1  C   UNL     1      -3.207   3.074 -21.963  1.00  0.00     0.176 C 
ENDROOT
BRANCH   1   2
ATOM      2  C   UNL     1      -4.655   3.258 -21.431  1.00  0.00     0.171 C 
BRANCH   2   3
ATOM      3  C   UNL     1      -4.955   2.401 -20.184  1.00  0.00     0.190 C 
BRANCH   3   4
ATOM      4  O   UNL     1      -3.890   2.475 -19.274  1.00  0.00    -0.394 OA
ATOM      5  H   UNL     1      -4.270   2.297 -18.374  1.00  0.00     0.210 HD
ENDBRANCH   3   4
ENDBRANCH   2   3
BRANCH   2   6
ATOM      6  O   UNL     1      -5.576   2.962 -22.453  1.00  0.00    -0.388 OA
ATOM      7  H   UNL     1      -5.998   3.816 -22.734  1.00  0.00     0.211 HD
ENDBRANCH   2   6
ENDBRANCH   1   2
BRANCH   1   8
ATOM      8  C   UNL     1      -2.950   3.677 -23.374  1.00  0.00     0.171 C 
BRANCH   8   9
ATOM      9  C   UNL     1      -1.478   4.066 -23.599  1.00  0.00     0.190 C 
BRANCH   9  10
ATOM     10  O   UNL     1      -1.169   5.237 -22.890  1.00  0.00    -0.394 OA
ATOM     11  H   UNL     1      -0.486   4.992 -22.213  1.00  0.00     0.210 HD
ENDBRANCH   9  10
ENDBRANCH   8   9
BRANCH   8  12
ATOM     12  O   UNL     1      -3.751   4.818 -23.545  1.00  0.00    -0.388 OA
ATOM     13  H   UNL     1      -4.306   4.664 -24.354  1.00  0.00     0.211 HD
ENDBRANCH   8  12
ENDBRANCH   1   8
BRANCH   1  14
ATOM     14  O   UNL     1      -2.903   1.701 -21.970  1.00  0.00    -0.388 OA
ATOM     15  H   UNL     1      -3.548   1.261 -22.585  1.00  0.00     0.211 HD
ENDBRANCH   1  14
TORSDOF 9
ENDMDL
MODEL 8
REMARK VINA RESULT:    -3.931      5.038      6.391
REMARK INTER + INTRA:          -5.805
REMARK INTER:                  -5.173
REMARK INTRA:                  -0.632
REMARK UNBOUND:                -0.380
REMARK SMILES OC[C@H](O)C(O)[C@@H](O)CO
REMARK SMILES IDX 5 1 7 2 9 3 10 4 8 6 3 8 2 9 1 10 4 12 6 14
REMARK H PARENT 10 5 8 7 1 11 4 13 6 15
REMARK Flexibility Score: inf
ROOT
ATOM      1  C   UNL     1      -1.660   2.556 -22.766  1.00  0.00     0.176 C 
ENDROOT
BRANCH   1   2
ATOM      2  C   UNL     1      -2.807   3.497 -22.307  1.00  0.00     0.171 C 
BRANCH   2   3
ATOM      3  C   UNL     1      -3.911   2.765 -21.518  1.00  0.00     0.190 C 
BRANCH   3   4
ATOM      4  O   UNL     1      -3.626   2.785 -20.145  1.00  0.00    -0.394 OA
ATOM      5  H   UNL     1      -3.639   1.842 -19.835  1.00  0.00     0.210 HD
ENDBRANCH   3   4
ENDBRANCH   2   3
BRANCH   2   6
ATOM      6  O   UNL     1      -3.362   4.147 -23.425  1.00  0.00    -0.388 OA
ATOM      7  H   UNL     1      -3.086   5.100 -23.386  1.00  0.00     0.211 HD
ENDBRANCH   2   6
ENDBRANCH   1   2
BRANCH   1   8
ATOM      8  C   UNL     1      -1.277   2.679 -24.269  1.00  0.00     0.171 C 
BRANCH   8   9
ATOM      9  C   UNL     1      -0.458   1.481 -24.778  1.00  0.00     0.190 C 
BRANCH   9  10
ATOM     10  O   UNL     1       0.512   1.116 -23.832  1.00  0.00    -0.394 OA
ATOM     11  H   UNL     1       1.141   0.498 -24.288  1.00  0.00     0.210 HD
ENDBRANCH   9  10
ENDBRANCH   8   9
BRANCH   8  12
ATOM     12  O   UNL     1      -0.531   3.854 -24.463  1.00  0.00    -0.388 OA
ATOM     13  H   UNL     1      -1.099   4.475 -24.990  1.00  0.00     0.211 HD
ENDBRANCH   8  12
ENDBRANCH   1   8
BRANCH   1  14
ATOM     14  O   UNL     1      -2.025   1.230 -22.477  1.00  0.00    -0.388 OA
ATOM     15  H   UNL     1      -2.707   1.264 -21.756  1.00  0.00     0.211 HD
ENDBRANCH   1  14
TORSDOF 9
ENDMDL
MODEL 9
REMARK VINA RESULT:    -3.853      6.386      7.267
REMARK INTER + INTRA:          -5.698
REMARK INTER:                  -4.976
REMARK INTRA:                  -0.722
REMARK UNBOUND:                -0.380
REMARK SMILES OC[C@H](O)C(O)[C@@H](O)CO
REMARK SMILES IDX 5 1 7 2 9 3 10 4 8 6 3 8 2 9 1 10 4 12 6 14
REMARK H PARENT 10 5 8 7 1 11 4 13 6 15
REMARK Flexibility Score: inf
ROOT
ATOM      1  C   UNL     1      -0.861   5.614 -24.212  1.00  0.00     0.176 C 
ENDROOT
BRANCH   1   2
ATOM      2  C   UNL     1      -1.850   6.583 -24.915  1.00  0.00     0.171 C 
BRANCH   2   3
ATOM      3  C   UNL     1      -1.430   8.062 -24.804  1.00  0.00     0.190 C 
BRANCH   3   4
ATOM      4  O   UNL     1      -0.051   8.196 -25.022  1.00  0.00    -0.394 OA
ATOM      5  H   UNL     1       0.086   9.071 -25.471  1.00  0.00     0.210 HD
ENDBRANCH   3   4
ENDBRANCH   2   3
BRANCH   2   6
ATOM      6  O   UNL     1      -3.142   6.406 -24.386  1.00  0.00    -0.388 OA
ATOM      7  H   UNL     1      -3.045   6.208 -23.417  1.00  0.00     0.211 HD
ENDBRANCH   2   6
ENDBRANCH   1   2
BRANCH   1   8
ATOM      8  C   UNL     1      -1.254   4.110 -24.291  1.00  0.00     0.171 C 
BRANCH   8   9
ATOM      9  C   UNL     1      -1.725   3.543 -22.941  1.00  0.00     0.190 C 
BRANCH   9  10
ATOM     10  O   UNL     1      -2.985   4.063 -22.606  1.00  0.00    -0.394 OA
ATOM     11  H   UNL     1      -3.111   3.910 -21.634  1.00  0.00     0.210 HD
ENDBRANCH   9  10
ENDBRANCH   8   9
BRANCH   8  12
ATOM     12  O   UNL     1      -0.149   3.365 -24.735  1.00  0.00    -0.388 OA
ATOM     13  H   UNL     1       0.577   3.497 -24.070  1.00  0.00     0.211 HD
ENDBRANCH   8  12
ENDBRANCH   1   8
BRANCH   1  14
ATOM     14  O   UNL     1      -0.734   6.001 -22.867  1.00  0.00    -0.388 OA
ATOM     15  H   UNL     1      -0.889   6.981 -22.828  1.00  0.00     0.211 HD
ENDBRANCH   1  14
TORSDOF 9
ENDMDL
