MODEL 1
REMARK VINA RESULT:    -0.749      0.000      0.000
REMARK INTER + INTRA:          -3.669
REMARK INTER:                  -1.712
REMARK INTRA:                  -1.958
REMARK UNBOUND:                -1.958
REMARK SMILES CCCCCCCCCCCCCCCCCCCCCCCC(=O)[O-]
REMARK SMILES IDX 13 1 14 2 15 3 16 4 17 5 18 6 19 7 20 8 21 9 22 10 23 11
REMARK SMILES IDX 24 12 25 13 26 14 12 15 11 16 10 17 9 18 8 19 7 20 6 21 5 22
REMARK SMILES IDX 4 23 3 24 2 25 1 26
REMARK H PARENT
REMARK Flexibility Score: inf
ROOT
ATOM      1  C   UNL     1    -116.436 -98.501  35.883  1.00  0.00     0.000 C 
ENDROOT
BRANCH   1   2
ATOM      2  C   UNL     1    -115.780 -99.765  36.470  1.00  0.00     0.000 C 
BRANCH   2   3
ATOM      3  C   UNL     1    -116.309-100.122  37.866  1.00  0.00     0.000 C 
BRANCH   3   4
ATOM      4  C   UNL     1    -116.921 -98.892  38.555  1.00  0.00     0.000 C 
BRANCH   4   5
ATOM      5  C   UNL     1    -116.802 -98.948  40.089  1.00  0.00     0.000 C 
BRANCH   5   6
ATOM      6  C   UNL     1    -118.062 -98.494  40.852  1.00  0.00     0.000 C 
BRANCH   6   7
ATOM      7  C   UNL     1    -119.076 -99.614  41.156  1.00  0.00     0.000 C 
BRANCH   7   8
ATOM      8  C   UNL     1    -119.092-100.100  42.621  1.00  0.00     0.000 C 
BRANCH   8   9
ATOM      9  C   UNL     1    -118.232 -99.271  43.591  1.00  0.00     0.000 C 
BRANCH   9  10
ATOM     10  C   UNL     1    -118.638 -99.460  45.064  1.00  0.00     0.006 C 
BRANCH  10  11
ATOM     11  C   UNL     1    -117.707 -98.704  46.021  1.00  0.00     0.053 C 
BRANCH  11  12
ATOM     12  C   UNL     1    -118.456 -98.132  47.185  1.00  0.00     0.041 C 
ATOM     13  O   UNL     1    -119.105 -98.888  47.956  1.00  0.00    -0.550 OA
ATOM     14  O   UNL     1    -118.411 -96.766  47.437  1.00  0.00    -0.550 OA
ENDBRANCH  11  12
ENDBRANCH  10  11
ENDBRANCH   9  10
ENDBRANCH   8   9
ENDBRANCH   7   8
ENDBRANCH   6   7
ENDBRANCH   5   6
ENDBRANCH   4   5
ENDBRANCH   3   4
ENDBRANCH   2   3
ENDBRANCH   1   2
BRANCH   1  15
ATOM     15  C   UNL     1    -117.648 -98.762  34.967  1.00  0.00     0.000 C 
BRANCH  15  16
ATOM     16  C   UNL     1    -117.519 -99.992  34.049  1.00  0.00     0.000 C 
BRANCH  16  17
ATOM     17  C   UNL     1    -116.701 -99.728  32.768  1.00  0.00     0.000 C 
BRANCH  17  18
ATOM     18  C   UNL     1    -117.464-100.125  31.493  1.00  0.00    -0.000 C 
BRANCH  18  19
ATOM     19  C   UNL     1    -118.851 -99.467  31.407  1.00  0.00    -0.000 C 
BRANCH  19  20
ATOM     20  C   UNL     1    -119.052 -98.676  30.101  1.00  0.00    -0.000 C 
BRANCH  20  21
ATOM     21  C   UNL     1    -118.355 -97.299  30.148  1.00  0.00    -0.000 C 
BRANCH  21  22
ATOM     22  C   UNL     1    -119.089 -96.261  31.018  1.00  0.00    -0.000 C 
BRANCH  22  23
ATOM     23  C   UNL     1    -118.391 -96.012  32.365  1.00  0.00    -0.000 C 
BRANCH  23  24
ATOM     24  C   UNL     1    -116.855 -96.077  32.270  1.00  0.00    -0.000 C 
BRANCH  24  25
ATOM     25  C   UNL     1    -116.112 -95.989  33.616  1.00  0.00    -0.003 C 
ATOM     26  C   UNL     1    -114.810 -96.790  33.639  1.00  0.00     0.004 C 
ENDBRANCH  24  25
ENDBRANCH  23  24
ENDBRANCH  22  23
ENDBRANCH  21  22
ENDBRANCH  20  21
ENDBRANCH  19  20
ENDBRANCH  18  19
ENDBRANCH  17  18
ENDBRANCH  16  17
ENDBRANCH  15  16
ENDBRANCH   1  15
TORSDOF 22
ENDMDL
MODEL 2
REMARK VINA RESULT:    -0.167      1.234      2.967
REMARK INTER + INTRA:          -2.340
REMARK INTER:                  -2.417
REMARK INTRA:                   0.077
REMARK UNBOUND:                -1.958
REMARK SMILES CCCCCCCCCCCCCCCCCCCCCCCC(=O)[O-]
REMARK SMILES IDX 13 1 14 2 15 3 16 4 17 5 18 6 19 7 20 8 21 9 22 10 23 11
REMARK SMILES IDX 24 12 25 13 26 14 12 15 11 16 10 17 9 18 8 19 7 20 6 21 5 22
REMARK SMILES IDX 4 23 3 24 2 25 1 26
REMARK H PARENT
REMARK Flexibility Score: inf
ROOT
ATOM      1  C   UNL     1    -116.059 -98.758  37.877  1.00  0.00     0.000 C 
ENDROOT
BRANCH   1   2
ATOM      2  C   UNL     1    -116.392 -99.199  39.315  1.00  0.00     0.000 C 
BRANCH   2   3
ATOM      3  C   UNL     1    -116.687 -98.018  40.251  1.00  0.00     0.000 C 
BRANCH   3   4
ATOM      4  C   UNL     1    -116.892 -98.498  41.696  1.00  0.00     0.000 C 
BRANCH   4   5
ATOM      5  C   UNL     1    -117.382 -99.955  41.777  1.00  0.00     0.000 C 
BRANCH   5   6
ATOM      6  C   UNL     1    -118.828-100.125  42.283  1.00  0.00     0.000 C 
BRANCH   6   7
ATOM      7  C   UNL     1    -119.123 -99.461  43.643  1.00  0.00     0.000 C 
BRANCH   7   8
ATOM      8  C   UNL     1    -117.901 -99.308  44.573  1.00  0.00     0.000 C 
BRANCH   8   9
ATOM      9  C   UNL     1    -118.081 -99.893  45.985  1.00  0.00     0.000 C 
BRANCH   9  10
ATOM     10  C   UNL     1    -117.825 -98.860  47.098  1.00  0.00     0.006 C 
BRANCH  10  11
ATOM     11  C   UNL     1    -119.007 -97.896  47.274  1.00  0.00     0.053 C 
BRANCH  11  12
ATOM     12  C   UNL     1    -118.557 -96.468  47.297  1.00  0.00     0.041 C 
ATOM     13  O   UNL     1    -118.209 -95.929  48.382  1.00  0.00    -0.550 OA
ATOM     14  O   UNL     1    -118.492 -95.741  46.115  1.00  0.00    -0.550 OA
ENDBRANCH  11  12
ENDBRANCH  10  11
ENDBRANCH   9  10
ENDBRANCH   8   9
ENDBRANCH   7   8
ENDBRANCH   6   7
ENDBRANCH   5   6
ENDBRANCH   4   5
ENDBRANCH   3   4
ENDBRANCH   2   3
ENDBRANCH   1   2
BRANCH   1  15
ATOM     15  C   UNL     1    -116.333 -99.816  36.792  1.00  0.00     0.000 C 
BRANCH  15  16
ATOM     16  C   UNL     1    -115.419 -99.734  35.555  1.00  0.00     0.000 C 
BRANCH  16  17
ATOM     17  C   UNL     1    -116.182 -99.525  34.230  1.00  0.00     0.000 C 
BRANCH  17  18
ATOM     18  C   UNL     1    -115.629 -98.343  33.416  1.00  0.00    -0.000 C 
BRANCH  18  19
ATOM     19  C   UNL     1    -115.978 -96.982  34.039  1.00  0.00    -0.000 C 
BRANCH  19  20
ATOM     20  C   UNL     1    -116.869 -96.122  33.124  1.00  0.00    -0.000 C 
BRANCH  20  21
ATOM     21  C   UNL     1    -117.153 -96.818  31.776  1.00  0.00    -0.000 C 
BRANCH  21  22
ATOM     22  C   UNL     1    -118.483 -96.395  31.127  1.00  0.00    -0.000 C 
BRANCH  22  23
ATOM     23  C   UNL     1    -118.885 -97.298  29.948  1.00  0.00    -0.000 C 
BRANCH  23  24
ATOM     24  C   UNL     1    -119.109 -98.765  30.361  1.00  0.00    -0.000 C 
BRANCH  24  25
ATOM     25  C   UNL     1    -118.215 -99.264  31.511  1.00  0.00    -0.003 C 
ATOM     26  C   UNL     1    -119.005 -99.886  32.663  1.00  0.00     0.004 C 
ENDBRANCH  24  25
ENDBRANCH  23  24
ENDBRANCH  22  23
ENDBRANCH  21  22
ENDBRANCH  20  21
ENDBRANCH  19  20
ENDBRANCH  18  19
ENDBRANCH  17  18
ENDBRANCH  16  17
ENDBRANCH  15  16
ENDBRANCH   1  15
TORSDOF 22
ENDMDL
MODEL 3
REMARK VINA RESULT:    -0.127      4.314     11.790
REMARK INTER + INTRA:          -2.248
REMARK INTER:                  -2.099
REMARK INTRA:                  -0.149
REMARK UNBOUND:                -1.958
REMARK SMILES CCCCCCCCCCCCCCCCCCCCCCCC(=O)[O-]
REMARK SMILES IDX 13 1 14 2 15 3 16 4 17 5 18 6 19 7 20 8 21 9 22 10 23 11
REMARK SMILES IDX 24 12 25 13 26 14 12 15 11 16 10 17 9 18 8 19 7 20 6 21 5 22
REMARK SMILES IDX 4 23 3 24 2 25 1 26
REMARK H PARENT
REMARK Flexibility Score: inf
ROOT
ATOM      1  C   UNL     1    -116.561 -98.390  37.317  1.00  0.00     0.000 C 
ENDROOT
BRANCH   1   2
ATOM      2  C   UNL     1    -115.300 -99.097  36.782  1.00  0.00     0.000 C 
BRANCH   2   3
ATOM      3  C   UNL     1    -115.606-100.105  35.666  1.00  0.00     0.000 C 
BRANCH   3   4
ATOM      4  C   UNL     1    -115.458 -99.457  34.281  1.00  0.00     0.000 C 
BRANCH   4   5
ATOM      5  C   UNL     1    -116.808 -99.252  33.571  1.00  0.00     0.000 C 
BRANCH   5   6
ATOM      6  C   UNL     1    -116.761 -99.396  32.037  1.00  0.00     0.000 C 
BRANCH   6   7
ATOM      7  C   UNL     1    -117.968-100.125  31.415  1.00  0.00     0.000 C 
BRANCH   7   8
ATOM      8  C   UNL     1    -119.097 -99.202  30.909  1.00  0.00     0.000 C 
BRANCH   8   9
ATOM      9  C   UNL     1    -118.705 -98.268  29.750  1.00  0.00     0.000 C 
BRANCH   9  10
ATOM     10  C   UNL     1    -119.121 -96.806  29.992  1.00  0.00     0.006 C 
BRANCH  10  11
ATOM     11  C   UNL     1    -118.033 -96.009  30.724  1.00  0.00     0.053 C 
BRANCH  11  12
ATOM     12  C   UNL     1    -117.966 -96.367  32.176  1.00  0.00     0.041 C 
ATOM     13  O   UNL     1    -116.896 -96.207  32.822  1.00  0.00    -0.550 OA
ATOM     14  O   UNL     1    -119.096 -96.849  32.825  1.00  0.00    -0.550 OA
ENDBRANCH  11  12
ENDBRANCH  10  11
ENDBRANCH   9  10
ENDBRANCH   8   9
ENDBRANCH   7   8
ENDBRANCH   6   7
ENDBRANCH   5   6
ENDBRANCH   4   5
ENDBRANCH   3   4
ENDBRANCH   2   3
ENDBRANCH   1   2
BRANCH   1  15
ATOM     15  C   UNL     1    -116.929 -98.730  38.774  1.00  0.00     0.000 C 
BRANCH  15  16
ATOM     16  C   UNL     1    -117.567-100.117  38.979  1.00  0.00     0.000 C 
BRANCH  16  17
ATOM     17  C   UNL     1    -118.951-100.070  39.660  1.00  0.00     0.000 C 
BRANCH  17  18
ATOM     18  C   UNL     1    -119.032 -98.986  40.749  1.00  0.00    -0.000 C 
BRANCH  18  19
ATOM     19  C   UNL     1    -118.130 -99.294  41.955  1.00  0.00    -0.000 C 
BRANCH  19  20
ATOM     20  C   UNL     1    -118.728 -98.798  43.285  1.00  0.00    -0.000 C 
BRANCH  20  21
ATOM     21  C   UNL     1    -118.179 -99.587  44.493  1.00  0.00    -0.000 C 
BRANCH  21  22
ATOM     22  C   UNL     1    -117.787 -98.698  45.688  1.00  0.00    -0.000 C 
BRANCH  22  23
ATOM     23  C   UNL     1    -118.538 -99.068  46.978  1.00  0.00    -0.000 C 
BRANCH  23  24
ATOM     24  C   UNL     1    -117.714 -98.804  48.252  1.00  0.00    -0.000 C 
BRANCH  24  25
ATOM     25  C   UNL     1    -118.116 -97.544  49.041  1.00  0.00    -0.003 C 
ATOM     26  C   UNL     1    -117.009 -96.491  49.102  1.00  0.00     0.004 C 
ENDBRANCH  24  25
ENDBRANCH  23  24
ENDBRANCH  22  23
ENDBRANCH  21  22
ENDBRANCH  20  21
ENDBRANCH  19  20
ENDBRANCH  18  19
ENDBRANCH  17  18
ENDBRANCH  16  17
ENDBRANCH  15  16
ENDBRANCH   1  15
TORSDOF 22
ENDMDL
MODEL 4
REMARK VINA RESULT:     0.005      4.142     11.744
REMARK INTER + INTRA:          -1.946
REMARK INTER:                  -3.505
REMARK INTRA:                   1.558
REMARK UNBOUND:                -1.958
REMARK SMILES CCCCCCCCCCCCCCCCCCCCCCCC(=O)[O-]
REMARK SMILES IDX 13 1 14 2 15 3 16 4 17 5 18 6 19 7 20 8 21 9 22 10 23 11
REMARK SMILES IDX 24 12 25 13 26 14 12 15 11 16 10 17 9 18 8 19 7 20 6 21 5 22
REMARK SMILES IDX 4 23 3 24 2 25 1 26
REMARK H PARENT
REMARK Flexibility Score: inf
ROOT
ATOM      1  C   UNL     1    -116.934 -99.002  38.195  1.00  0.00     0.000 C 
ENDROOT
BRANCH   1   2
ATOM      2  C   UNL     1    -116.637-100.122  37.180  1.00  0.00     0.000 C 
BRANCH   2   3
ATOM      3  C   UNL     1    -116.921 -99.709  35.730  1.00  0.00     0.000 C 
BRANCH   3   4
ATOM      4  C   UNL     1    -115.773 -98.860  35.163  1.00  0.00     0.000 C 
BRANCH   4   5
ATOM      5  C   UNL     1    -116.022 -97.348  35.308  1.00  0.00     0.000 C 
BRANCH   5   6
ATOM      6  C   UNL     1    -115.877 -96.540  34.003  1.00  0.00     0.000 C 
BRANCH   6   7
ATOM      7  C   UNL     1    -115.453 -97.364  32.771  1.00  0.00     0.000 C 
BRANCH   7   8
ATOM      8  C   UNL     1    -116.603 -98.092  32.046  1.00  0.00     0.000 C 
BRANCH   8   9
ATOM      9  C   UNL     1    -117.602 -97.171  31.321  1.00  0.00     0.000 C 
BRANCH   9  10
ATOM     10  C   UNL     1    -118.763 -97.942  30.669  1.00  0.00     0.006 C 
BRANCH  10  11
ATOM     11  C   UNL     1    -119.115 -99.220  31.442  1.00  0.00     0.053 C 
BRANCH  11  12
ATOM     12  C   UNL     1    -119.048 -99.006  32.923  1.00  0.00     0.041 C 
ATOM     13  O   UNL     1    -118.982 -97.840  33.394  1.00  0.00    -0.550 OA
ATOM     14  O   UNL     1    -119.089-100.096  33.785  1.00  0.00    -0.550 OA
ENDBRANCH  11  12
ENDBRANCH  10  11
ENDBRANCH   9  10
ENDBRANCH   8   9
ENDBRANCH   7   8
ENDBRANCH   6   7
ENDBRANCH   5   6
ENDBRANCH   4   5
ENDBRANCH   3   4
ENDBRANCH   2   3
ENDBRANCH   1   2
BRANCH   1  15
ATOM     15  C   UNL     1    -117.200 -99.480  39.635  1.00  0.00     0.000 C 
BRANCH  15  16
ATOM     16  C   UNL     1    -118.686 -99.648  40.003  1.00  0.00     0.000 C 
BRANCH  16  17
ATOM     17  C   UNL     1    -119.125 -98.801  41.215  1.00  0.00     0.000 C 
BRANCH  17  18
ATOM     18  C   UNL     1    -118.011 -98.659  42.266  1.00  0.00    -0.000 C 
BRANCH  18  19
ATOM     19  C   UNL     1    -118.109 -99.718  43.376  1.00  0.00    -0.000 C 
BRANCH  19  20
ATOM     20  C   UNL     1    -117.287 -99.347  44.624  1.00  0.00    -0.000 C 
BRANCH  20  21
ATOM     21  C   UNL     1    -117.942 -99.867  45.922  1.00  0.00    -0.000 C 
BRANCH  21  22
ATOM     22  C   UNL     1    -118.967 -98.893  46.532  1.00  0.00    -0.000 C 
BRANCH  22  23
ATOM     23  C   UNL     1    -118.576 -98.424  47.944  1.00  0.00    -0.000 C 
BRANCH  23  24
ATOM     24  C   UNL     1    -119.123 -97.025  48.287  1.00  0.00    -0.000 C 
BRANCH  24  25
ATOM     25  C   UNL     1    -118.302 -95.848  47.729  1.00  0.00    -0.003 C 
ATOM     26  C   UNL     1    -118.459 -94.563  48.544  1.00  0.00     0.004 C 
ENDBRANCH  24  25
ENDBRANCH  23  24
ENDBRANCH  22  23
ENDBRANCH  21  22
ENDBRANCH  20  21
ENDBRANCH  19  20
ENDBRANCH  18  19
ENDBRANCH  17  18
ENDBRANCH  16  17
ENDBRANCH  15  16
ENDBRANCH   1  15
TORSDOF 22
ENDMDL
MODEL 5
REMARK VINA RESULT:     0.022      6.349     12.463
REMARK INTER + INTRA:          -1.907
REMARK INTER:                  -0.945
REMARK INTRA:                  -0.962
REMARK UNBOUND:                -1.958
REMARK SMILES CCCCCCCCCCCCCCCCCCCCCCCC(=O)[O-]
REMARK SMILES IDX 13 1 14 2 15 3 16 4 17 5 18 6 19 7 20 8 21 9 22 10 23 11
REMARK SMILES IDX 24 12 25 13 26 14 12 15 11 16 10 17 9 18 8 19 7 20 6 21 5 22
REMARK SMILES IDX 4 23 3 24 2 25 1 26
REMARK H PARENT
REMARK Flexibility Score: inf
ROOT
ATOM      1  C   UNL     1    -116.609 -97.809  34.942  1.00  0.00     0.000 C 
ENDROOT
BRANCH   1   2
ATOM      2  C   UNL     1    -116.005 -96.717  34.038  1.00  0.00     0.000 C 
BRANCH   2   3
ATOM      3  C   UNL     1    -116.379 -96.890  32.559  1.00  0.00     0.000 C 
BRANCH   3   4
ATOM      4  C   UNL     1    -117.679 -96.142  32.228  1.00  0.00     0.000 C 
BRANCH   4   5
ATOM      5  C   UNL     1    -117.886 -95.946  30.715  1.00  0.00     0.000 C 
BRANCH   5   6
ATOM      6  C   UNL     1    -119.125 -95.112  30.333  1.00  0.00     0.000 C 
BRANCH   6   7
ATOM      7  C   UNL     1    -119.082 -93.639  30.787  1.00  0.00     0.000 C 
BRANCH   7   8
ATOM      8  C   UNL     1    -118.978 -92.608  29.644  1.00  0.00     0.000 C 
BRANCH   8   9
ATOM      9  C   UNL     1    -119.093 -91.137  30.083  1.00  0.00     0.000 C 
BRANCH   9  10
ATOM     10  C   UNL     1    -118.569 -90.152  29.022  1.00  0.00     0.006 C 
BRANCH  10  11
ATOM     11  C   UNL     1    -117.487 -89.219  29.585  1.00  0.00     0.053 C 
BRANCH  11  12
ATOM     12  C   UNL     1    -118.005 -87.827  29.779  1.00  0.00     0.041 C 
ATOM     13  O   UNL     1    -118.880 -87.592  30.655  1.00  0.00    -0.550 OA
ATOM     14  O   UNL     1    -117.498 -86.784  29.015  1.00  0.00    -0.550 OA
ENDBRANCH  11  12
ENDBRANCH  10  11
ENDBRANCH   9  10
ENDBRANCH   8   9
ENDBRANCH   7   8
ENDBRANCH   6   7
ENDBRANCH   5   6
ENDBRANCH   4   5
ENDBRANCH   3   4
ENDBRANCH   2   3
ENDBRANCH   1   2
BRANCH   1  15
ATOM     15  C   UNL     1    -115.609 -98.870  35.439  1.00  0.00     0.000 C 
BRANCH  15  16
ATOM     16  C   UNL     1    -116.152 -99.826  36.517  1.00  0.00     0.000 C 
BRANCH  16  17
ATOM     17  C   UNL     1    -117.135 -99.158  37.501  1.00  0.00     0.000 C 
BRANCH  17  18
ATOM     18  C   UNL     1    -117.283 -99.951  38.811  1.00  0.00    -0.000 C 
BRANCH  18  19
ATOM     19  C   UNL     1    -118.743-100.038  39.285  1.00  0.00    -0.000 C 
BRANCH  19  20
ATOM     20  C   UNL     1    -118.901 -99.711  40.782  1.00  0.00    -0.000 C 
BRANCH  20  21
ATOM     21  C   UNL     1    -117.750 -98.823  41.303  1.00  0.00    -0.000 C 
BRANCH  21  22
ATOM     22  C   UNL     1    -118.227 -97.584  42.082  1.00  0.00    -0.000 C 
BRANCH  22  23
ATOM     23  C   UNL     1    -117.705 -97.552  43.529  1.00  0.00    -0.000 C 
BRANCH  23  24
ATOM     24  C   UNL     1    -117.273 -98.938  44.045  1.00  0.00    -0.000 C 
BRANCH  24  25
ATOM     25  C   UNL     1    -118.355 -99.713  44.821  1.00  0.00    -0.003 C 
ATOM     26  C   UNL     1    -118.530 -99.224  46.259  1.00  0.00     0.004 C 
ENDBRANCH  24  25
ENDBRANCH  23  24
ENDBRANCH  22  23
ENDBRANCH  21  22
ENDBRANCH  20  21
ENDBRANCH  19  20
ENDBRANCH  18  19
ENDBRANCH  17  18
ENDBRANCH  16  17
ENDBRANCH  15  16
ENDBRANCH   1  15
TORSDOF 22
ENDMDL
MODEL 6
REMARK VINA RESULT:     1.419      5.318     12.273
REMARK INTER + INTRA:           1.286
REMARK INTER:                   1.171
REMARK INTRA:                   0.115
REMARK UNBOUND:                -1.958
REMARK SMILES CCCCCCCCCCCCCCCCCCCCCCCC(=O)[O-]
REMARK SMILES IDX 13 1 14 2 15 3 16 4 17 5 18 6 19 7 20 8 21 9 22 10 23 11
REMARK SMILES IDX 24 12 25 13 26 14 12 15 11 16 10 17 9 18 8 19 7 20 6 21 5 22
REMARK SMILES IDX 4 23 3 24 2 25 1 26
REMARK H PARENT
REMARK Flexibility Score: inf
ROOT
ATOM      1  C   UNL     1    -116.901 -99.018  38.230  1.00  0.00     0.000 C 
ENDROOT
BRANCH   1   2
ATOM      2  C   UNL     1    -116.884-100.093  37.127  1.00  0.00     0.000 C 
BRANCH   2   3
ATOM      3  C   UNL     1    -117.005 -99.505  35.714  1.00  0.00     0.000 C 
BRANCH   3   4
ATOM      4  C   UNL     1    -115.653 -98.967  35.222  1.00  0.00     0.000 C 
BRANCH   4   5
ATOM      5  C   UNL     1    -115.318 -97.579  35.799  1.00  0.00     0.000 C 
BRANCH   5   6
ATOM      6  C   UNL     1    -114.867 -96.537  34.757  1.00  0.00     0.000 C 
BRANCH   6   7
ATOM      7  C   UNL     1    -114.570 -97.105  33.355  1.00  0.00     0.000 C 
BRANCH   7   8
ATOM      8  C   UNL     1    -115.804 -97.618  32.584  1.00  0.00     0.000 C 
BRANCH   8   9
ATOM      9  C   UNL     1    -116.817 -96.531  32.180  1.00  0.00     0.000 C 
BRANCH   9  10
ATOM     10  C   UNL     1    -118.165 -97.112  31.716  1.00  0.00     0.006 C 
BRANCH  10  11
ATOM     11  C   UNL     1    -119.118 -96.022  31.206  1.00  0.00     0.053 C 
BRANCH  11  12
ATOM     12  C   UNL     1    -118.578 -95.339  29.988  1.00  0.00     0.041 C 
ATOM     13  O   UNL     1    -119.125 -94.291  29.552  1.00  0.00    -0.550 OA
ATOM     14  O   UNL     1    -117.450 -95.842  29.352  1.00  0.00    -0.550 OA
ENDBRANCH  11  12
ENDBRANCH  10  11
ENDBRANCH   9  10
ENDBRANCH   8   9
ENDBRANCH   7   8
ENDBRANCH   6   7
ENDBRANCH   5   6
ENDBRANCH   4   5
ENDBRANCH   3   4
ENDBRANCH   2   3
ENDBRANCH   1   2
BRANCH   1  15
ATOM     15  C   UNL     1    -117.074 -99.558  39.663  1.00  0.00     0.000 C 
BRANCH  15  16
ATOM     16  C   UNL     1    -118.531 -99.811  40.093  1.00  0.00     0.000 C 
BRANCH  16  17
ATOM     17  C   UNL     1    -119.041 -98.830  41.169  1.00  0.00     0.000 C 
BRANCH  17  18
ATOM     18  C   UNL     1    -117.994 -98.566  42.265  1.00  0.00    -0.000 C 
BRANCH  18  19
ATOM     19  C   UNL     1    -118.147 -99.512  43.467  1.00  0.00    -0.000 C 
BRANCH  19  20
ATOM     20  C   UNL     1    -117.191 -99.162  44.622  1.00  0.00    -0.000 C 
BRANCH  20  21
ATOM     21  C   UNL     1    -117.763 -99.587  45.992  1.00  0.00    -0.000 C 
BRANCH  21  22
ATOM     22  C   UNL     1    -118.634 -98.509  46.663  1.00  0.00    -0.000 C 
BRANCH  22  23
ATOM     23  C   UNL     1    -118.193 -98.197  48.103  1.00  0.00    -0.000 C 
BRANCH  23  24
ATOM     24  C   UNL     1    -119.048 -97.104  48.772  1.00  0.00    -0.000 C 
BRANCH  24  25
ATOM     25  C   UNL     1    -119.093 -95.760  48.022  1.00  0.00    -0.003 C 
ATOM     26  C   UNL     1    -117.798 -95.444  47.272  1.00  0.00     0.004 C 
ENDBRANCH  24  25
ENDBRANCH  23  24
ENDBRANCH  22  23
ENDBRANCH  21  22
ENDBRANCH  20  21
ENDBRANCH  19  20
ENDBRANCH  18  19
ENDBRANCH  17  18
ENDBRANCH  16  17
ENDBRANCH  15  16
ENDBRANCH   1  15
TORSDOF 22
ENDMDL
MODEL 7
REMARK VINA RESULT:     1.520      1.341      2.374
REMARK INTER + INTRA:           1.518
REMARK INTER:                   1.459
REMARK INTRA:                   0.059
REMARK UNBOUND:                -1.958
REMARK SMILES CCCCCCCCCCCCCCCCCCCCCCCC(=O)[O-]
REMARK SMILES IDX 13 1 14 2 15 3 16 4 17 5 18 6 19 7 20 8 21 9 22 10 23 11
REMARK SMILES IDX 24 12 25 13 26 14 12 15 11 16 10 17 9 18 8 19 7 20 6 21 5 22
REMARK SMILES IDX 4 23 3 24 2 25 1 26
REMARK H PARENT
REMARK Flexibility Score: inf
ROOT
ATOM      1  C   UNL     1    -116.737 -99.012  37.250  1.00  0.00     0.000 C 
ENDROOT
BRANCH   1   2
ATOM      2  C   UNL     1    -116.464 -98.327  38.602  1.00  0.00     0.000 C 
BRANCH   2   3
ATOM      3  C   UNL     1    -116.516 -99.299  39.789  1.00  0.00     0.000 C 
BRANCH   3   4
ATOM      4  C   UNL     1    -117.851-100.059  39.820  1.00  0.00     0.000 C 
BRANCH   4   5
ATOM      5  C   UNL     1    -118.892 -99.399  40.742  1.00  0.00     0.000 C 
BRANCH   5   6
ATOM      6  C   UNL     1    -119.087-100.099  42.103  1.00  0.00     0.000 C 
BRANCH   6   7
ATOM      7  C   UNL     1    -119.124 -99.154  43.320  1.00  0.00     0.000 C 
BRANCH   7   8
ATOM      8  C   UNL     1    -117.751 -98.606  43.762  1.00  0.00     0.000 C 
BRANCH   8   9
ATOM      9  C   UNL     1    -117.486 -98.659  45.277  1.00  0.00     0.000 C 
BRANCH   9  10
ATOM     10  C   UNL     1    -118.762 -98.464  46.116  1.00  0.00     0.006 C 
BRANCH  10  11
ATOM     11  C   UNL     1    -118.851 -97.053  46.713  1.00  0.00     0.053 C 
BRANCH  11  12
ATOM     12  C   UNL     1    -118.214 -96.984  48.067  1.00  0.00     0.041 C 
ATOM     13  O   UNL     1    -118.021 -98.036  48.732  1.00  0.00    -0.550 OA
ATOM     14  O   UNL     1    -117.805 -95.760  48.581  1.00  0.00    -0.550 OA
ENDBRANCH  11  12
ENDBRANCH  10  11
ENDBRANCH   9  10
ENDBRANCH   8   9
ENDBRANCH   7   8
ENDBRANCH   6   7
ENDBRANCH   5   6
ENDBRANCH   4   5
ENDBRANCH   3   4
ENDBRANCH   2   3
ENDBRANCH   1   2
BRANCH   1  15
ATOM     15  C   UNL     1    -116.381 -98.170  36.010  1.00  0.00     0.000 C 
BRANCH  15  16
ATOM     16  C   UNL     1    -117.268 -98.418  34.775  1.00  0.00     0.000 C 
BRANCH  16  17
ATOM     17  C   UNL     1    -117.372 -99.904  34.372  1.00  0.00     0.000 C 
BRANCH  17  18
ATOM     18  C   UNL     1    -117.117-100.123  32.871  1.00  0.00    -0.000 C 
BRANCH  18  19
ATOM     19  C   UNL     1    -116.310 -98.978  32.237  1.00  0.00    -0.000 C 
BRANCH  19  20
ATOM     20  C   UNL     1    -117.151 -98.126  31.269  1.00  0.00    -0.000 C 
BRANCH  20  21
ATOM     21  C   UNL     1    -118.132 -98.987  30.446  1.00  0.00    -0.000 C 
BRANCH  21  22
ATOM     22  C   UNL     1    -119.092 -98.164  29.567  1.00  0.00    -0.000 C 
BRANCH  22  23
ATOM     23  C   UNL     1    -119.125 -96.675  29.951  1.00  0.00    -0.000 C 
BRANCH  23  24
ATOM     24  C   UNL     1    -118.872 -96.434  31.452  1.00  0.00    -0.000 C 
BRANCH  24  25
ATOM     25  C   UNL     1    -118.917 -94.959  31.893  1.00  0.00    -0.003 C 
ATOM     26  C   UNL     1    -119.100 -93.987  30.728  1.00  0.00     0.004 C 
ENDBRANCH  24  25
ENDBRANCH  23  24
ENDBRANCH  22  23
ENDBRANCH  21  22
ENDBRANCH  20  21
ENDBRANCH  19  20
ENDBRANCH  18  19
ENDBRANCH  17  18
ENDBRANCH  16  17
ENDBRANCH  15  16
ENDBRANCH   1  15
TORSDOF 22
ENDMDL
