MODEL 1
REMARK VINA RESULT:    -3.631      0.000      0.000
REMARK INTER + INTRA:          -4.689
REMARK INTER:                  -4.480
REMARK INTRA:                  -0.209
REMARK UNBOUND:                -0.209
REMARK SMILES CCCCC=CC(C)=O
REMARK SMILES IDX 4 1 3 2 2 3 1 4 5 5 6 6 7 7 9 8 8 9
REMARK H PARENT
REMARK Flexibility Score: inf
ROOT
ATOM      1  C   UNL     1      -3.055  -3.563  11.453  1.00  0.00     0.027 C 
ENDROOT
BRANCH   1   2
ATOM      2  C   UNL     1      -3.720  -4.309  10.286  1.00  0.00     0.004 C 
BRANCH   2   3
ATOM      3  C   UNL     1      -4.956  -5.108  10.725  1.00  0.00    -0.003 C 
ATOM      4  C   UNL     1      -5.949  -5.332   9.584  1.00  0.00     0.004 C 
ENDBRANCH   2   3
ENDBRANCH   1   2
BRANCH   1   5
ATOM      5  C   UNL     1      -2.944  -2.094  11.163  1.00  0.00    -0.023 C 
ATOM      6  C   UNL     1      -3.442  -1.563  10.041  1.00  0.00     0.042 C 
BRANCH   6   7
ATOM      7  C   UNL     1      -3.333  -0.126   9.730  1.00  0.00     0.152 C 
ATOM      8  O   UNL     1      -2.680   0.269   8.726  1.00  0.00    -0.295 OA
ATOM      9  C   UNL     1      -4.000   0.875  10.616  1.00  0.00     0.093 C 
ENDBRANCH   6   7
ENDBRANCH   1   5
TORSDOF 4
ENDMDL
MODEL 2
REMARK VINA RESULT:    -3.610      1.775      2.169
REMARK INTER + INTRA:          -4.663
REMARK INTER:                  -4.425
REMARK INTRA:                  -0.237
REMARK UNBOUND:                -0.209
REMARK SMILES CCCCC=CC(C)=O
REMARK SMILES IDX 4 1 3 2 2 3 1 4 5 5 6 6 7 7 9 8 8 9
REMARK H PARENT
REMARK Flexibility Score: inf
ROOT
ATOM      1  C   UNL     1      -3.327  -2.468   8.503  1.00  0.00     0.027 C 
ENDROOT
BRANCH   1   2
ATOM      2  C   UNL     1      -3.198  -3.628   9.503  1.00  0.00     0.004 C 
BRANCH   2   3
ATOM      3  C   UNL     1      -4.518  -4.390   9.695  1.00  0.00    -0.003 C 
ATOM      4  C   UNL     1      -4.659  -4.980  11.098  1.00  0.00     0.004 C 
ENDBRANCH   2   3
ENDBRANCH   1   2
BRANCH   1   5
ATOM      5  C   UNL     1      -3.897  -1.246   9.162  1.00  0.00    -0.023 C 
ATOM      6  C   UNL     1      -3.527  -0.880  10.395  1.00  0.00     0.042 C 
BRANCH   6   7
ATOM      7  C   UNL     1      -4.082   0.310  11.066  1.00  0.00     0.152 C 
ATOM      8  O   UNL     1      -4.500   0.244  12.254  1.00  0.00    -0.295 OA
ATOM      9  C   UNL     1      -4.155   1.608  10.330  1.00  0.00     0.093 C 
ENDBRANCH   6   7
ENDBRANCH   1   5
TORSDOF 4
ENDMDL
MODEL 3
REMARK VINA RESULT:    -3.603      2.434      4.855
REMARK INTER + INTRA:          -4.655
REMARK INTER:                  -4.439
REMARK INTRA:                  -0.216
REMARK UNBOUND:                -0.209
REMARK SMILES CCCCC=CC(C)=O
REMARK SMILES IDX 4 1 3 2 2 3 1 4 5 5 6 6 7 7 9 8 8 9
REMARK H PARENT
REMARK Flexibility Score: inf
ROOT
ATOM      1  C   UNL     1      -2.570  -1.844   8.254  1.00  0.00     0.027 C 
ENDROOT
BRANCH   1   2
ATOM      2  C   UNL     1      -2.433  -0.379   8.695  1.00  0.00     0.004 C 
BRANCH   2   3
ATOM      3  C   UNL     1      -3.022  -0.126  10.090  1.00  0.00    -0.003 C 
ATOM      4  C   UNL     1      -3.950   1.089  10.128  1.00  0.00     0.004 C 
ENDBRANCH   2   3
ENDBRANCH   1   2
BRANCH   1   5
ATOM      5  C   UNL     1      -3.634  -2.550   9.043  1.00  0.00    -0.023 C 
ATOM      6  C   UNL     1      -3.687  -3.886   9.107  1.00  0.00     0.042 C 
BRANCH   6   7
ATOM      7  C   UNL     1      -4.730  -4.600   9.865  1.00  0.00     0.152 C 
ATOM      8  O   UNL     1      -5.766  -5.029   9.289  1.00  0.00    -0.295 OA
ATOM      9  C   UNL     1      -4.561  -4.815  11.334  1.00  0.00     0.093 C 
ENDBRANCH   6   7
ENDBRANCH   1   5
TORSDOF 4
ENDMDL
MODEL 4
REMARK VINA RESULT:    -3.602      9.384     11.552
REMARK INTER + INTRA:          -4.653
REMARK INTER:                  -4.385
REMARK INTRA:                  -0.268
REMARK UNBOUND:                -0.209
REMARK SMILES CCCCC=CC(C)=O
REMARK SMILES IDX 4 1 3 2 2 3 1 4 5 5 6 6 7 7 9 8 8 9
REMARK H PARENT
REMARK Flexibility Score: inf
ROOT
ATOM      1  C   UNL     1      -3.855   6.920   5.535  1.00  0.00     0.027 C 
ENDROOT
BRANCH   1   2
ATOM      2  C   UNL     1      -4.461   6.754   6.937  1.00  0.00     0.004 C 
BRANCH   2   3
ATOM      3  C   UNL     1      -3.619   5.838   7.838  1.00  0.00    -0.003 C 
ATOM      4  C   UNL     1      -2.941   6.596   8.980  1.00  0.00     0.004 C 
ENDBRANCH   2   3
ENDBRANCH   1   2
BRANCH   1   5
ATOM      5  C   UNL     1      -3.302   8.303   5.343  1.00  0.00    -0.023 C 
ATOM      6  C   UNL     1      -2.209   8.715   5.996  1.00  0.00     0.042 C 
BRANCH   6   7
ATOM      7  C   UNL     1      -1.657  10.072   5.833  1.00  0.00     0.152 C 
ATOM      8  O   UNL     1      -0.735  10.488   6.586  1.00  0.00    -0.295 OA
ATOM      9  C   UNL     1      -2.198  10.968   4.766  1.00  0.00     0.093 C 
ENDBRANCH   6   7
ENDBRANCH   1   5
TORSDOF 4
ENDMDL
MODEL 5
REMARK VINA RESULT:    -3.601      5.962      9.356
REMARK INTER + INTRA:          -4.652
REMARK INTER:                  -4.440
REMARK INTRA:                  -0.212
REMARK UNBOUND:                -0.209
REMARK SMILES CCCCC=CC(C)=O
REMARK SMILES IDX 4 1 3 2 2 3 1 4 5 5 6 6 7 7 9 8 8 9
REMARK H PARENT
REMARK Flexibility Score: inf
ROOT
ATOM      1  C   UNL     1      -3.344   7.223   7.942  1.00  0.00     0.027 C 
ENDROOT
BRANCH   1   2
ATOM      2  C   UNL     1      -4.454   6.730   7.001  1.00  0.00     0.004 C 
BRANCH   2   3
ATOM      3  C   UNL     1      -4.011   6.703   5.531  1.00  0.00    -0.003 C 
ATOM      4  C   UNL     1      -3.315   7.995   5.101  1.00  0.00     0.004 C 
ENDBRANCH   2   3
ENDBRANCH   1   2
BRANCH   1   5
ATOM      5  C   UNL     1      -2.799   6.099   8.774  1.00  0.00    -0.023 C 
ATOM      6  C   UNL     1      -3.530   5.011   9.044  1.00  0.00     0.042 C 
BRANCH   6   7
ATOM      7  C   UNL     1      -3.020   3.901   9.869  1.00  0.00     0.152 C 
ATOM      8  O   UNL     1      -1.863   3.947  10.368  1.00  0.00    -0.295 OA
ATOM      9  C   UNL     1      -3.882   2.706  10.116  1.00  0.00     0.093 C 
ENDBRANCH   6   7
ENDBRANCH   1   5
TORSDOF 4
ENDMDL
MODEL 6
REMARK VINA RESULT:    -3.596      5.637      7.966
REMARK INTER + INTRA:          -4.646
REMARK INTER:                  -4.366
REMARK INTRA:                  -0.279
REMARK UNBOUND:                -0.209
REMARK SMILES CCCCC=CC(C)=O
REMARK SMILES IDX 4 1 3 2 2 3 1 4 5 5 6 6 7 7 9 8 8 9
REMARK H PARENT
REMARK Flexibility Score: inf
ROOT
ATOM      1  C   UNL     1      -5.665   3.665  16.377  1.00  0.00     0.027 C 
ENDROOT
BRANCH   1   2
ATOM      2  C   UNL     1      -7.139   3.233  16.401  1.00  0.00     0.004 C 
BRANCH   2   3
ATOM      3  C   UNL     1      -8.089   4.358  15.963  1.00  0.00    -0.003 C 
ATOM      4  C   UNL     1      -8.700   4.109  14.584  1.00  0.00     0.004 C 
ENDBRANCH   2   3
ENDBRANCH   1   2
BRANCH   1   5
ATOM      5  C   UNL     1      -4.846   2.747  15.517  1.00  0.00    -0.023 C 
ATOM      6  C   UNL     1      -5.344   2.207  14.398  1.00  0.00     0.042 C 
BRANCH   6   7
ATOM      7  C   UNL     1      -4.563   1.294  13.545  1.00  0.00     0.152 C 
ATOM      8  O   UNL     1      -5.139   0.489  12.763  1.00  0.00    -0.295 OA
ATOM      9  C   UNL     1      -3.070   1.318  13.609  1.00  0.00     0.093 C 
ENDBRANCH   6   7
ENDBRANCH   1   5
TORSDOF 4
ENDMDL
MODEL 7
REMARK VINA RESULT:    -3.578      5.424      6.976
REMARK INTER + INTRA:          -4.624
REMARK INTER:                  -4.460
REMARK INTRA:                  -0.164
REMARK UNBOUND:                -0.209
REMARK SMILES CCCCC=CC(C)=O
REMARK SMILES IDX 4 1 3 2 2 3 1 4 5 5 6 6 7 7 9 8 8 9
REMARK H PARENT
REMARK Flexibility Score: inf
ROOT
ATOM      1  C   UNL     1      -4.821   0.956  12.735  1.00  0.00     0.027 C 
ENDROOT
BRANCH   1   2
ATOM      2  C   UNL     1      -3.756   1.678  11.897  1.00  0.00     0.004 C 
BRANCH   2   3
ATOM      3  C   UNL     1      -4.234   1.979  10.469  1.00  0.00    -0.003 C 
ATOM      4  C   UNL     1      -3.845   3.382  10.000  1.00  0.00     0.004 C 
ENDBRANCH   2   3
ENDBRANCH   1   2
BRANCH   1   5
ATOM      5  C   UNL     1      -5.445   1.885  13.735  1.00  0.00    -0.023 C 
ATOM      6  C   UNL     1      -4.852   2.155  14.904  1.00  0.00     0.042 C 
BRANCH   6   7
ATOM      7  C   UNL     1      -5.453   3.054  15.906  1.00  0.00     0.152 C 
ATOM      8  O   UNL     1      -4.782   3.992  16.416  1.00  0.00    -0.295 OA
ATOM      9  C   UNL     1      -6.873   2.851  16.325  1.00  0.00     0.093 C 
ENDBRANCH   6   7
ENDBRANCH   1   5
TORSDOF 4
ENDMDL
MODEL 8
REMARK VINA RESULT:    -3.574      6.498      7.992
REMARK INTER + INTRA:          -4.618
REMARK INTER:                  -4.495
REMARK INTRA:                  -0.124
REMARK UNBOUND:                -0.209
REMARK SMILES CCCCC=CC(C)=O
REMARK SMILES IDX 4 1 3 2 2 3 1 4 5 5 6 6 7 7 9 8 8 9
REMARK H PARENT
REMARK Flexibility Score: inf
ROOT
ATOM      1  C   UNL     1      -0.560   1.090  16.337  1.00  0.00     0.027 C 
ENDROOT
BRANCH   1   2
ATOM      2  C   UNL     1      -0.362   1.260  17.851  1.00  0.00     0.004 C 
BRANCH   2   3
ATOM      3  C   UNL     1      -0.358  -0.082  18.599  1.00  0.00    -0.003 C 
ATOM      4  C   UNL     1      -0.728   0.065  20.075  1.00  0.00     0.004 C 
ENDBRANCH   2   3
ENDBRANCH   1   2
BRANCH   1   5
ATOM      5  C   UNL     1      -1.762   1.853  15.859  1.00  0.00    -0.023 C 
ATOM      6  C   UNL     1      -2.493   1.428  14.822  1.00  0.00     0.042 C 
BRANCH   6   7
ATOM      7  C   UNL     1      -3.669   2.168  14.329  1.00  0.00     0.152 C 
ATOM      8  O   UNL     1      -3.641   2.752  13.211  1.00  0.00    -0.295 OA
ATOM      9  C   UNL     1      -4.907   2.230  15.162  1.00  0.00     0.093 C 
ENDBRANCH   6   7
ENDBRANCH   1   5
TORSDOF 4
ENDMDL
MODEL 9
REMARK VINA RESULT:    -3.550      6.070      7.747
REMARK INTER + INTRA:          -4.589
REMARK INTER:                  -4.442
REMARK INTRA:                  -0.147
REMARK UNBOUND:                -0.209
REMARK SMILES CCCCC=CC(C)=O
REMARK SMILES IDX 4 1 3 2 2 3 1 4 5 5 6 6 7 7 9 8 8 9
REMARK H PARENT
REMARK Flexibility Score: inf
ROOT
ATOM      1  C   UNL     1      -4.724   2.006  15.128  1.00  0.00     0.027 C 
ENDROOT
BRANCH   1   2
ATOM      2  C   UNL     1      -4.065   1.768  13.761  1.00  0.00     0.004 C 
BRANCH   2   3
ATOM      3  C   UNL     1      -4.966   0.977  12.802  1.00  0.00    -0.003 C 
ATOM      4  C   UNL     1      -4.172   0.208  11.746  1.00  0.00     0.004 C 
ENDBRANCH   2   3
ENDBRANCH   1   2
BRANCH   1   5
ATOM      5  C   UNL     1      -5.871   2.968  15.016  1.00  0.00    -0.023 C 
ATOM      6  C   UNL     1      -6.648   3.255  16.067  1.00  0.00     0.042 C 
BRANCH   6   7
ATOM      7  C   UNL     1      -7.787   4.186  15.976  1.00  0.00     0.152 C 
ATOM      8  O   UNL     1      -7.982   5.055  16.869  1.00  0.00    -0.295 OA
ATOM      9  C   UNL     1      -8.723   4.099  14.816  1.00  0.00     0.093 C 
ENDBRANCH   6   7
ENDBRANCH   1   5
TORSDOF 4
ENDMDL
