MODEL 1
REMARK VINA RESULT:    -4.105      0.000      0.000
REMARK INTER + INTRA:          -8.167
REMARK INTER:                  -6.505
REMARK INTRA:                  -1.662
REMARK UNBOUND:                -1.662
REMARK SMILES CCCCCCCCCCCC(=O)[O-]
REMARK SMILES IDX 7 1 8 2 9 3 10 4 11 5 12 6 13 7 14 8 6 9 5 10 4 11 3 12 2 13
REMARK SMILES IDX 1 14
REMARK H PARENT
REMARK Flexibility Score: inf
ROOT
ATOM      1  C   UNL     1     -37.860  17.228 -30.019  1.00  0.00     0.000 C 
ENDROOT
BRANCH   1   2
ATOM      2  C   UNL     1     -38.634  18.553 -29.963  1.00  0.00     0.000 C 
BRANCH   2   3
ATOM      3  C   UNL     1     -38.239  19.469 -31.132  1.00  0.00     0.000 C 
BRANCH   3   4
ATOM      4  C   UNL     1     -38.126  20.949 -30.721  1.00  0.00     0.006 C 
BRANCH   4   5
ATOM      5  C   UNL     1     -38.360  21.209 -29.224  1.00  0.00     0.053 C 
BRANCH   5   6
ATOM      6  C   UNL     1     -39.476  22.180 -28.990  1.00  0.00     0.041 C 
ATOM      7  O   UNL     1     -39.335  23.121 -28.166  1.00  0.00    -0.550 OA
ATOM      8  O   UNL     1     -40.659  22.067 -29.710  1.00  0.00    -0.550 OA
ENDBRANCH   5   6
ENDBRANCH   4   5
ENDBRANCH   3   4
ENDBRANCH   2   3
ENDBRANCH   1   2
BRANCH   1   9
ATOM      9  C   UNL     1     -36.837  17.093 -28.880  1.00  0.00     0.000 C 
BRANCH   9  10
ATOM     10  C   UNL     1     -37.260  17.857 -27.612  1.00  0.00    -0.000 C 
BRANCH  10  11
ATOM     11  C   UNL     1     -36.250  18.945 -27.213  1.00  0.00    -0.000 C 
BRANCH  11  12
ATOM     12  C   UNL     1     -34.946  18.867 -28.027  1.00  0.00    -0.000 C 
BRANCH  12  13
ATOM     13  C   UNL     1     -34.721  20.114 -28.897  1.00  0.00    -0.003 C 
ATOM     14  C   UNL     1     -34.578  19.783 -30.382  1.00  0.00     0.004 C 
ENDBRANCH  12  13
ENDBRANCH  11  12
ENDBRANCH  10  11
ENDBRANCH   9  10
ENDBRANCH   1   9
TORSDOF 10
ENDMDL
MODEL 2
REMARK VINA RESULT:    -4.030      1.869      3.352
REMARK INTER + INTRA:          -8.048
REMARK INTER:                  -6.743
REMARK INTRA:                  -1.305
REMARK UNBOUND:                -1.662
REMARK SMILES CCCCCCCCCCCC(=O)[O-]
REMARK SMILES IDX 7 1 8 2 9 3 10 4 11 5 12 6 13 7 14 8 6 9 5 10 4 11 3 12 2 13
REMARK SMILES IDX 1 14
REMARK H PARENT
REMARK Flexibility Score: inf
ROOT
ATOM      1  C   UNL     1     -35.672  20.335 -30.279  1.00  0.00     0.000 C 
ENDROOT
BRANCH   1   2
ATOM      2  C   UNL     1     -36.752  21.396 -30.534  1.00  0.00     0.000 C 
BRANCH   2   3
ATOM      3  C   UNL     1     -37.176  22.074 -29.222  1.00  0.00     0.000 C 
BRANCH   3   4
ATOM      4  C   UNL     1     -38.689  21.969 -28.957  1.00  0.00     0.006 C 
BRANCH   4   5
ATOM      5  C   UNL     1     -39.330  20.663 -29.456  1.00  0.00     0.053 C 
BRANCH   5   6
ATOM      6  C   UNL     1     -39.715  19.759 -28.325  1.00  0.00     0.041 C 
ATOM      7  O   UNL     1     -40.929  19.576 -28.045  1.00  0.00    -0.550 OA
ATOM      8  O   UNL     1     -38.734  19.090 -27.604  1.00  0.00    -0.550 OA
ENDBRANCH   5   6
ENDBRANCH   4   5
ENDBRANCH   3   4
ENDBRANCH   2   3
ENDBRANCH   1   2
BRANCH   1   9
ATOM      9  C   UNL     1     -35.558  19.953 -28.794  1.00  0.00     0.000 C 
BRANCH   9  10
ATOM     10  C   UNL     1     -35.379  18.438 -28.587  1.00  0.00    -0.000 C 
BRANCH  10  11
ATOM     11  C   UNL     1     -34.984  17.706 -29.879  1.00  0.00    -0.000 C 
BRANCH  11  12
ATOM     12  C   UNL     1     -35.873  16.481 -30.158  1.00  0.00    -0.000 C 
BRANCH  12  13
ATOM     13  C   UNL     1     -37.295  16.646 -29.601  1.00  0.00    -0.003 C 
ATOM     14  C   UNL     1     -38.257  17.275 -30.609  1.00  0.00     0.004 C 
ENDBRANCH  12  13
ENDBRANCH  11  12
ENDBRANCH  10  11
ENDBRANCH   9  10
ENDBRANCH   1   9
TORSDOF 10
ENDMDL
MODEL 3
REMARK VINA RESULT:    -3.976      2.220      4.701
REMARK INTER + INTRA:          -7.963
REMARK INTER:                  -6.699
REMARK INTRA:                  -1.264
REMARK UNBOUND:                -1.662
REMARK SMILES CCCCCCCCCCCC(=O)[O-]
REMARK SMILES IDX 7 1 8 2 9 3 10 4 11 5 12 6 13 7 14 8 6 9 5 10 4 11 3 12 2 13
REMARK SMILES IDX 1 14
REMARK H PARENT
REMARK Flexibility Score: inf
ROOT
ATOM      1  C   UNL     1     -35.681  20.428 -28.097  1.00  0.00     0.000 C 
ENDROOT
BRANCH   1   2
ATOM      2  C   UNL     1     -35.989  18.932 -27.936  1.00  0.00     0.000 C 
BRANCH   2   3
ATOM      3  C   UNL     1     -35.284  18.108 -29.024  1.00  0.00     0.000 C 
BRANCH   3   4
ATOM      4  C   UNL     1     -36.259  17.241 -29.843  1.00  0.00     0.006 C 
BRANCH   4   5
ATOM      5  C   UNL     1     -37.744  17.508 -29.547  1.00  0.00     0.053 C 
BRANCH   5   6
ATOM      6  C   UNL     1     -38.531  17.753 -30.798  1.00  0.00     0.041 C 
ATOM      7  O   UNL     1     -39.292  16.860 -31.253  1.00  0.00    -0.550 OA
ATOM      8  O   UNL     1     -38.449  18.982 -31.441  1.00  0.00    -0.550 OA
ENDBRANCH   5   6
ENDBRANCH   4   5
ENDBRANCH   3   4
ENDBRANCH   2   3
ENDBRANCH   1   2
BRANCH   1   9
ATOM      9  C   UNL     1     -35.697  20.882 -29.565  1.00  0.00     0.000 C 
BRANCH   9  10
ATOM     10  C   UNL     1     -36.956  21.694 -29.919  1.00  0.00    -0.000 C 
BRANCH  10  11
ATOM     11  C   UNL     1     -37.426  22.590 -28.763  1.00  0.00    -0.000 C 
BRANCH  11  12
ATOM     12  C   UNL     1     -38.944  22.493 -28.522  1.00  0.00    -0.000 C 
BRANCH  12  13
ATOM     13  C   UNL     1     -39.604  21.392 -29.364  1.00  0.00    -0.003 C 
ATOM     14  C   UNL     1     -40.081  20.207 -28.523  1.00  0.00     0.004 C 
ENDBRANCH  12  13
ENDBRANCH  11  12
ENDBRANCH  10  11
ENDBRANCH   9  10
ENDBRANCH   1   9
TORSDOF 10
ENDMDL
MODEL 4
REMARK VINA RESULT:    -3.960      3.199      5.345
REMARK INTER + INTRA:          -7.937
REMARK INTER:                  -6.408
REMARK INTRA:                  -1.529
REMARK UNBOUND:                -1.662
REMARK SMILES CCCCCCCCCCCC(=O)[O-]
REMARK SMILES IDX 7 1 8 2 9 3 10 4 11 5 12 6 13 7 14 8 6 9 5 10 4 11 3 12 2 13
REMARK SMILES IDX 1 14
REMARK H PARENT
REMARK Flexibility Score: inf
ROOT
ATOM      1  C   UNL     1     -34.977  20.315 -28.865  1.00  0.00     0.000 C 
ENDROOT
BRANCH   1   2
ATOM      2  C   UNL     1     -35.020  18.990 -28.089  1.00  0.00     0.000 C 
BRANCH   2   3
ATOM      3  C   UNL     1     -36.333  18.858 -27.303  1.00  0.00     0.000 C 
BRANCH   3   4
ATOM      4  C   UNL     1     -37.201  17.679 -27.782  1.00  0.00     0.006 C 
BRANCH   4   5
ATOM      5  C   UNL     1     -37.236  17.498 -29.308  1.00  0.00     0.053 C 
BRANCH   5   6
ATOM      6  C   UNL     1     -36.690  16.169 -29.730  1.00  0.00     0.041 C 
ATOM      7  O   UNL     1     -35.663  16.106 -30.456  1.00  0.00    -0.550 OA
ATOM      8  O   UNL     1     -37.296  14.998 -29.291  1.00  0.00    -0.550 OA
ENDBRANCH   5   6
ENDBRANCH   4   5
ENDBRANCH   3   4
ENDBRANCH   2   3
ENDBRANCH   1   2
BRANCH   1   9
ATOM      9  C   UNL     1     -35.816  21.418 -28.200  1.00  0.00     0.000 C 
BRANCH   9  10
ATOM     10  C   UNL     1     -36.820  22.062 -29.173  1.00  0.00    -0.000 C 
BRANCH  10  11
ATOM     11  C   UNL     1     -37.261  21.103 -30.290  1.00  0.00    -0.000 C 
BRANCH  11  12
ATOM     12  C   UNL     1     -38.763  20.771 -30.224  1.00  0.00    -0.000 C 
BRANCH  12  13
ATOM     13  C   UNL     1     -39.335  20.912 -28.806  1.00  0.00    -0.003 C 
ATOM     14  C   UNL     1     -40.206  19.724 -28.396  1.00  0.00     0.004 C 
ENDBRANCH  12  13
ENDBRANCH  11  12
ENDBRANCH  10  11
ENDBRANCH   9  10
ENDBRANCH   1   9
TORSDOF 10
ENDMDL
MODEL 5
REMARK VINA RESULT:    -3.947      1.302      2.578
REMARK INTER + INTRA:          -7.916
REMARK INTER:                  -6.356
REMARK INTRA:                  -1.559
REMARK UNBOUND:                -1.662
REMARK SMILES CCCCCCCCCCCC(=O)[O-]
REMARK SMILES IDX 7 1 8 2 9 3 10 4 11 5 12 6 13 7 14 8 6 9 5 10 4 11 3 12 2 13
REMARK SMILES IDX 1 14
REMARK H PARENT
REMARK Flexibility Score: inf
ROOT
ATOM      1  C   UNL     1     -36.770  17.522 -29.620  1.00  0.00     0.000 C 
ENDROOT
BRANCH   1   2
ATOM      2  C   UNL     1     -36.988  17.719 -28.113  1.00  0.00     0.000 C 
BRANCH   2   3
ATOM      3  C   UNL     1     -37.850  18.961 -27.841  1.00  0.00     0.000 C 
BRANCH   3   4
ATOM      4  C   UNL     1     -38.833  19.269 -28.987  1.00  0.00     0.006 C 
BRANCH   4   5
ATOM      5  C   UNL     1     -39.969  20.233 -28.604  1.00  0.00     0.053 C 
BRANCH   5   6
ATOM      6  C   UNL     1     -39.759  21.602 -29.172  1.00  0.00     0.041 C 
ATOM      7  O   UNL     1     -40.285  21.920 -30.270  1.00  0.00    -0.550 OA
ATOM      8  O   UNL     1     -39.011  22.539 -28.469  1.00  0.00    -0.550 OA
ENDBRANCH   5   6
ENDBRANCH   4   5
ENDBRANCH   3   4
ENDBRANCH   2   3
ENDBRANCH   1   2
BRANCH   1   9
ATOM      9  C   UNL     1     -35.282  17.526 -30.007  1.00  0.00     0.000 C 
BRANCH   9  10
ATOM     10  C   UNL     1     -34.507  18.691 -29.365  1.00  0.00    -0.000 C 
BRANCH  10  11
ATOM     11  C   UNL     1     -34.536  19.965 -30.223  1.00  0.00    -0.000 C 
BRANCH  11  12
ATOM     12  C   UNL     1     -35.315  21.111 -29.552  1.00  0.00    -0.000 C 
BRANCH  12  13
ATOM     13  C   UNL     1     -36.281  21.811 -30.520  1.00  0.00    -0.003 C 
ATOM     14  C   UNL     1     -36.892  20.855 -31.545  1.00  0.00     0.004 C 
ENDBRANCH  12  13
ENDBRANCH  11  12
ENDBRANCH  10  11
ENDBRANCH   9  10
ENDBRANCH   1   9
TORSDOF 10
ENDMDL
MODEL 6
REMARK VINA RESULT:    -3.904      1.283      3.083
REMARK INTER + INTRA:          -7.848
REMARK INTER:                  -6.421
REMARK INTRA:                  -1.428
REMARK UNBOUND:                -1.662
REMARK SMILES CCCCCCCCCCCC(=O)[O-]
REMARK SMILES IDX 7 1 8 2 9 3 10 4 11 5 12 6 13 7 14 8 6 9 5 10 4 11 3 12 2 13
REMARK SMILES IDX 1 14
REMARK H PARENT
REMARK Flexibility Score: inf
ROOT
ATOM      1  C   UNL     1     -34.740  20.673 -29.909  1.00  0.00     0.000 C 
ENDROOT
BRANCH   1   2
ATOM      2  C   UNL     1     -35.754  21.715 -30.403  1.00  0.00     0.000 C 
BRANCH   2   3
ATOM      3  C   UNL     1     -36.629  21.138 -31.526  1.00  0.00     0.000 C 
BRANCH   3   4
ATOM      4  C   UNL     1     -38.094  20.934 -31.098  1.00  0.00     0.006 C 
BRANCH   4   5
ATOM      5  C   UNL     1     -38.372  21.256 -29.620  1.00  0.00     0.053 C 
BRANCH   5   6
ATOM      6  C   UNL     1     -39.833  21.201 -29.298  1.00  0.00     0.041 C 
ATOM      7  O   UNL     1     -40.298  20.244 -28.625  1.00  0.00    -0.550 OA
ATOM      8  O   UNL     1     -40.676  22.225 -29.712  1.00  0.00    -0.550 OA
ENDBRANCH   5   6
ENDBRANCH   4   5
ENDBRANCH   3   4
ENDBRANCH   2   3
ENDBRANCH   1   2
BRANCH   1   9
ATOM      9  C   UNL     1     -35.052  20.170 -28.490  1.00  0.00     0.000 C 
BRANCH   9  10
ATOM     10  C   UNL     1     -35.296  18.651 -28.442  1.00  0.00    -0.000 C 
BRANCH  10  11
ATOM     11  C   UNL     1     -35.287  18.006 -29.838  1.00  0.00    -0.000 C 
BRANCH  11  12
ATOM     12  C   UNL     1     -36.406  16.963 -30.012  1.00  0.00    -0.000 C 
BRANCH  12  13
ATOM     13  C   UNL     1     -37.792  17.523 -29.662  1.00  0.00    -0.003 C 
ATOM     14  C   UNL     1     -38.781  17.432 -30.824  1.00  0.00     0.004 C 
ENDBRANCH  12  13
ENDBRANCH  11  12
ENDBRANCH  10  11
ENDBRANCH   9  10
ENDBRANCH   1   9
TORSDOF 10
ENDMDL
MODEL 7
REMARK VINA RESULT:    -3.879      2.087      2.622
REMARK INTER + INTRA:          -7.809
REMARK INTER:                  -6.176
REMARK INTRA:                  -1.633
REMARK UNBOUND:                -1.662
REMARK SMILES CCCCCCCCCCCC(=O)[O-]
REMARK SMILES IDX 7 1 8 2 9 3 10 4 11 5 12 6 13 7 14 8 6 9 5 10 4 11 3 12 2 13
REMARK SMILES IDX 1 14
REMARK H PARENT
REMARK Flexibility Score: inf
ROOT
ATOM      1  C   UNL     1     -38.619  18.485 -30.238  1.00  0.00     0.000 C 
ENDROOT
BRANCH   1   2
ATOM      2  C   UNL     1     -38.006  19.458 -31.256  1.00  0.00     0.000 C 
BRANCH   2   3
ATOM      3  C   UNL     1     -38.261  20.916 -30.843  1.00  0.00     0.000 C 
BRANCH   3   4
ATOM      4  C   UNL     1     -36.997  21.617 -30.311  1.00  0.00     0.006 C 
BRANCH   4   5
ATOM      5  C   UNL     1     -37.205  22.382 -28.993  1.00  0.00     0.053 C 
BRANCH   5   6
ATOM      6  C   UNL     1     -35.915  22.895 -28.431  1.00  0.00     0.041 C 
ATOM      7  O   UNL     1     -35.921  23.706 -27.469  1.00  0.00    -0.550 OA
ATOM      8  O   UNL     1     -34.705  22.449 -28.949  1.00  0.00    -0.550 OA
ENDBRANCH   5   6
ENDBRANCH   4   5
ENDBRANCH   3   4
ENDBRANCH   2   3
ENDBRANCH   1   2
BRANCH   1   9
ATOM      9  C   UNL     1     -39.185  19.201 -29.002  1.00  0.00     0.000 C 
BRANCH   9  10
ATOM     10  C   UNL     1     -38.336  18.961 -27.740  1.00  0.00    -0.000 C 
BRANCH  10  11
ATOM     11  C   UNL     1     -37.052  18.169 -28.033  1.00  0.00    -0.000 C 
BRANCH  11  12
ATOM     12  C   UNL     1     -35.782  19.026 -27.879  1.00  0.00    -0.000 C 
BRANCH  12  13
ATOM     13  C   UNL     1     -34.801  18.838 -29.046  1.00  0.00    -0.003 C 
ATOM     14  C   UNL     1     -35.058  17.554 -29.836  1.00  0.00     0.004 C 
ENDBRANCH  12  13
ENDBRANCH  11  12
ENDBRANCH  10  11
ENDBRANCH   9  10
ENDBRANCH   1   9
TORSDOF 10
ENDMDL
MODEL 8
REMARK VINA RESULT:    -3.702      1.100      2.607
REMARK INTER + INTRA:          -7.528
REMARK INTER:                  -6.209
REMARK INTRA:                  -1.319
REMARK UNBOUND:                -1.662
REMARK SMILES CCCCCCCCCCCC(=O)[O-]
REMARK SMILES IDX 7 1 8 2 9 3 10 4 11 5 12 6 13 7 14 8 6 9 5 10 4 11 3 12 2 13
REMARK SMILES IDX 1 14
REMARK H PARENT
REMARK Flexibility Score: inf
ROOT
ATOM      1  C   UNL     1     -35.968  20.346 -30.610  1.00  0.00     0.000 C 
ENDROOT
BRANCH   1   2
ATOM      2  C   UNL     1     -36.898  21.236 -31.447  1.00  0.00     0.000 C 
BRANCH   2   3
ATOM      3  C   UNL     1     -38.365  20.814 -31.270  1.00  0.00     0.000 C 
BRANCH   3   4
ATOM      4  C   UNL     1     -38.621  20.085 -29.938  1.00  0.00     0.006 C 
BRANCH   4   5
ATOM      5  C   UNL     1     -39.702  20.736 -29.058  1.00  0.00     0.053 C 
BRANCH   5   6
ATOM      6  C   UNL     1     -39.484  22.209 -28.897  1.00  0.00     0.041 C 
ATOM      7  O   UNL     1     -38.370  22.645 -28.505  1.00  0.00    -0.550 OA
ATOM      8  O   UNL     1     -40.500  23.101 -29.215  1.00  0.00    -0.550 OA
ENDBRANCH   5   6
ENDBRANCH   4   5
ENDBRANCH   3   4
ENDBRANCH   2   3
ENDBRANCH   1   2
BRANCH   1   9
ATOM      9  C   UNL     1     -35.251  21.123 -29.494  1.00  0.00     0.000 C 
BRANCH   9  10
ATOM     10  C   UNL     1     -35.506  20.523 -28.100  1.00  0.00    -0.000 C 
BRANCH  10  11
ATOM     11  C   UNL     1     -35.384  18.991 -28.083  1.00  0.00    -0.000 C 
BRANCH  11  12
ATOM     12  C   UNL     1     -36.610  18.308 -27.451  1.00  0.00    -0.000 C 
BRANCH  12  13
ATOM     13  C   UNL     1     -37.187  17.196 -28.340  1.00  0.00    -0.003 C 
ATOM     14  C   UNL     1     -36.404  17.008 -29.640  1.00  0.00     0.004 C 
ENDBRANCH  12  13
ENDBRANCH  11  12
ENDBRANCH  10  11
ENDBRANCH   9  10
ENDBRANCH   1   9
TORSDOF 10
ENDMDL
MODEL 9
REMARK VINA RESULT:    -3.700      2.484      3.899
REMARK INTER + INTRA:          -7.524
REMARK INTER:                  -5.996
REMARK INTRA:                  -1.528
REMARK UNBOUND:                -1.662
REMARK SMILES CCCCCCCCCCCC(=O)[O-]
REMARK SMILES IDX 7 1 8 2 9 3 10 4 11 5 12 6 13 7 14 8 6 9 5 10 4 11 3 12 2 13
REMARK SMILES IDX 1 14
REMARK H PARENT
REMARK Flexibility Score: inf
ROOT
ATOM      1  C   UNL     1     -35.177  17.887 -29.211  1.00  0.00     0.000 C 
ENDROOT
BRANCH   1   2
ATOM      2  C   UNL     1     -35.600  18.644 -27.944  1.00  0.00     0.000 C 
BRANCH   2   3
ATOM      3  C   UNL     1     -37.096  18.441 -27.658  1.00  0.00     0.000 C 
BRANCH   3   4
ATOM      4  C   UNL     1     -37.977  19.550 -28.262  1.00  0.00     0.006 C 
BRANCH   4   5
ATOM      5  C   UNL     1     -39.101  19.037 -29.178  1.00  0.00     0.053 C 
BRANCH   5   6
ATOM      6  C   UNL     1     -38.577  18.559 -30.497  1.00  0.00     0.041 C 
ATOM      7  O   UNL     1     -38.302  19.384 -31.407  1.00  0.00    -0.550 OA
ATOM      8  O   UNL     1     -38.359  17.203 -30.708  1.00  0.00    -0.550 OA
ENDBRANCH   5   6
ENDBRANCH   4   5
ENDBRANCH   3   4
ENDBRANCH   2   3
ENDBRANCH   1   2
BRANCH   1   9
ATOM      9  C   UNL     1     -34.770  18.829 -30.356  1.00  0.00     0.000 C 
BRANCH   9  10
ATOM     10  C   UNL     1     -34.634  20.292 -29.896  1.00  0.00    -0.000 C 
BRANCH  10  11
ATOM     11  C   UNL     1     -35.584  21.239 -30.647  1.00  0.00    -0.000 C 
BRANCH  11  12
ATOM     12  C   UNL     1     -36.105  22.380 -29.755  1.00  0.00    -0.000 C 
BRANCH  12  13
ATOM     13  C   UNL     1     -35.480  22.363 -28.352  1.00  0.00    -0.003 C 
ATOM     14  C   UNL     1     -35.820  23.610 -27.536  1.00  0.00     0.004 C 
ENDBRANCH  12  13
ENDBRANCH  11  12
ENDBRANCH  10  11
ENDBRANCH   9  10
ENDBRANCH   1   9
TORSDOF 10
ENDMDL
