MODEL 1
REMARK VINA RESULT:    -3.382      0.000      0.000
REMARK INTER + INTRA:          -5.502
REMARK INTER:                  -4.963
REMARK INTRA:                  -0.539
REMARK UNBOUND:                -0.539
REMARK SMILES O=C([O-])CCCCCCCC(=O)[O-]
REMARK SMILES IDX 7 1 6 2 5 3 4 4 2 5 1 6 3 7 8 8 9 9 10 10 11 11 12 12 13 13
REMARK H PARENT
REMARK Flexibility Score: inf
ROOT
ATOM      1  C   UNL     1      32.377  11.429  22.207  1.00  0.00     0.000 C 
ENDROOT
BRANCH   1   2
ATOM      2  C   UNL     1      31.824  10.411  23.217  1.00  0.00     0.000 C 
BRANCH   2   3
ATOM      3  C   UNL     1      31.293   9.135  22.542  1.00  0.00     0.006 C 
BRANCH   3   4
ATOM      4  C   UNL     1      32.270   8.582  21.497  1.00  0.00     0.053 C 
BRANCH   4   5
ATOM      5  C   UNL     1      31.784   7.292  20.910  1.00  0.00     0.041 C 
ATOM      6  O   UNL     1      31.462   7.231  19.694  1.00  0.00    -0.550 OA
ATOM      7  O   UNL     1      31.656   6.166  21.714  1.00  0.00    -0.550 OA
ENDBRANCH   4   5
ENDBRANCH   3   4
ENDBRANCH   2   3
ENDBRANCH   1   2
BRANCH   1   8
ATOM      8  C   UNL     1      33.653  12.124  22.706  1.00  0.00     0.000 C 
BRANCH   8   9
ATOM      9  C   UNL     1      34.579  11.127  23.419  1.00  0.00     0.006 C 
BRANCH   9  10
ATOM     10  C   UNL     1      35.581  10.475  22.459  1.00  0.00     0.053 C 
BRANCH  10  11
ATOM     11  C   UNL     1      36.978  10.523  22.996  1.00  0.00     0.041 C 
ATOM     12  O   UNL     1      37.660  11.578  22.898  1.00  0.00    -0.550 OA
ATOM     13  O   UNL     1      37.517   9.413  23.635  1.00  0.00    -0.550 OA
ENDBRANCH  10  11
ENDBRANCH   9  10
ENDBRANCH   8   9
ENDBRANCH   1   8
TORSDOF 8
ENDMDL
MODEL 2
REMARK VINA RESULT:    -3.283      1.037      5.575
REMARK INTER + INTRA:          -5.358
REMARK INTER:                  -4.956
REMARK INTRA:                  -0.401
REMARK UNBOUND:                -0.539
REMARK SMILES O=C([O-])CCCCCCCC(=O)[O-]
REMARK SMILES IDX 7 1 6 2 5 3 4 4 2 5 1 6 3 7 8 8 9 9 10 10 11 11 12 12 13 13
REMARK H PARENT
REMARK Flexibility Score: inf
ROOT
ATOM      1  C   UNL     1      32.325   9.895  22.336  1.00  0.00     0.000 C 
ENDROOT
BRANCH   1   2
ATOM      2  C   UNL     1      32.760  10.914  23.400  1.00  0.00     0.000 C 
BRANCH   2   3
ATOM      3  C   UNL     1      34.195  11.423  23.182  1.00  0.00     0.006 C 
BRANCH   3   4
ATOM      4  C   UNL     1      35.089  10.369  22.515  1.00  0.00     0.053 C 
BRANCH   4   5
ATOM      5  C   UNL     1      36.534  10.572  22.853  1.00  0.00     0.041 C 
ATOM      6  O   UNL     1      37.097  11.669  22.596  1.00  0.00    -0.550 OA
ATOM      7  O   UNL     1      37.269   9.537  23.419  1.00  0.00    -0.550 OA
ENDBRANCH   4   5
ENDBRANCH   3   4
ENDBRANCH   2   3
ENDBRANCH   1   2
BRANCH   1   8
ATOM      8  C   UNL     1      31.066   9.114  22.743  1.00  0.00     0.000 C 
BRANCH   8   9
ATOM      9  C   UNL     1      30.924   7.830  21.913  1.00  0.00     0.006 C 
BRANCH   9  10
ATOM     10  C   UNL     1      32.168   7.547  21.062  1.00  0.00     0.053 C 
BRANCH  10  11
ATOM     11  C   UNL     1      32.418   6.078  20.911  1.00  0.00     0.041 C 
ATOM     12  O   UNL     1      32.101   5.283  21.836  1.00  0.00    -0.550 OA
ATOM     13  O   UNL     1      32.969   5.582  19.737  1.00  0.00    -0.550 OA
ENDBRANCH  10  11
ENDBRANCH   9  10
ENDBRANCH   8   9
ENDBRANCH   1   8
TORSDOF 8
ENDMDL
MODEL 3
REMARK VINA RESULT:    -3.252      1.146      5.147
REMARK INTER + INTRA:          -5.312
REMARK INTER:                  -4.784
REMARK INTRA:                  -0.528
REMARK UNBOUND:                -0.539
REMARK SMILES O=C([O-])CCCCCCCC(=O)[O-]
REMARK SMILES IDX 7 1 6 2 5 3 4 4 2 5 1 6 3 7 8 8 9 9 10 10 11 11 12 12 13 13
REMARK H PARENT
REMARK Flexibility Score: inf
ROOT
ATOM      1  C   UNL     1      33.444  11.993  22.605  1.00  0.00     0.000 C 
ENDROOT
BRANCH   1   2
ATOM      2  C   UNL     1      34.459  11.114  23.351  1.00  0.00     0.000 C 
BRANCH   2   3
ATOM      3  C   UNL     1      35.799  10.989  22.603  1.00  0.00     0.006 C 
BRANCH   3   4
ATOM      4  C   UNL     1      35.991   9.598  21.987  1.00  0.00     0.053 C 
BRANCH   4   5
ATOM      5  C   UNL     1      37.193   8.902  22.550  1.00  0.00     0.041 C 
ATOM      6  O   UNL     1      37.723   9.316  23.614  1.00  0.00    -0.550 OA
ATOM      7  O   UNL     1      37.748   7.819  21.880  1.00  0.00    -0.550 OA
ENDBRANCH   4   5
ENDBRANCH   3   4
ENDBRANCH   2   3
ENDBRANCH   1   2
BRANCH   1   8
ATOM      8  C   UNL     1      32.019  11.421  22.652  1.00  0.00     0.000 C 
BRANCH   8   9
ATOM      9  C   UNL     1      32.013  10.009  23.255  1.00  0.00     0.006 C 
BRANCH   9  10
ATOM     10  C   UNL     1      31.027   9.076  22.540  1.00  0.00     0.053 C 
BRANCH  10  11
ATOM     11  C   UNL     1      31.729   8.108  21.640  1.00  0.00     0.041 C 
ATOM     12  O   UNL     1      31.301   6.929  21.518  1.00  0.00    -0.550 OA
ATOM     13  O   UNL     1      32.838   8.515  20.908  1.00  0.00    -0.550 OA
ENDBRANCH  10  11
ENDBRANCH   9  10
ENDBRANCH   8   9
ENDBRANCH   1   8
TORSDOF 8
ENDMDL
MODEL 4
REMARK VINA RESULT:    -3.232      1.119      1.706
REMARK INTER + INTRA:          -5.283
REMARK INTER:                  -4.845
REMARK INTRA:                  -0.438
REMARK UNBOUND:                -0.539
REMARK SMILES O=C([O-])CCCCCCCC(=O)[O-]
REMARK SMILES IDX 7 1 6 2 5 3 4 4 2 5 1 6 3 7 8 8 9 9 10 10 11 11 12 12 13 13
REMARK H PARENT
REMARK Flexibility Score: inf
ROOT
ATOM      1  C   UNL     1      32.020  10.752  23.394  1.00  0.00     0.000 C 
ENDROOT
BRANCH   1   2
ATOM      2  C   UNL     1      31.238   9.508  22.944  1.00  0.00     0.000 C 
BRANCH   2   3
ATOM      3  C   UNL     1      31.943   8.743  21.811  1.00  0.00     0.006 C 
BRANCH   3   4
ATOM      4  C   UNL     1      31.239   7.421  21.478  1.00  0.00     0.053 C 
BRANCH   4   5
ATOM      5  C   UNL     1      32.220   6.335  21.155  1.00  0.00     0.041 C 
ATOM      6  O   UNL     1      32.089   5.191  21.666  1.00  0.00    -0.550 OA
ATOM      7  O   UNL     1      33.298   6.597  20.318  1.00  0.00    -0.550 OA
ENDBRANCH   4   5
ENDBRANCH   3   4
ENDBRANCH   2   3
ENDBRANCH   1   2
BRANCH   1   8
ATOM      8  C   UNL     1      32.558  11.572  22.211  1.00  0.00     0.000 C 
BRANCH   8   9
ATOM      9  C   UNL     1      33.966  12.108  22.509  1.00  0.00     0.006 C 
BRANCH   9  10
ATOM     10  C   UNL     1      34.833  11.083  23.252  1.00  0.00     0.053 C 
BRANCH  10  11
ATOM     11  C   UNL     1      36.094  10.776  22.505  1.00  0.00     0.041 C 
ATOM     12  O   UNL     1      37.206  10.815  23.096  1.00  0.00    -0.550 OA
ATOM     13  O   UNL     1      36.040  10.413  21.165  1.00  0.00    -0.550 OA
ENDBRANCH  10  11
ENDBRANCH   9  10
ENDBRANCH   8   9
ENDBRANCH   1   8
TORSDOF 8
ENDMDL
MODEL 5
REMARK VINA RESULT:    -3.175      1.151      5.372
REMARK INTER + INTRA:          -5.198
REMARK INTER:                  -4.759
REMARK INTRA:                  -0.440
REMARK UNBOUND:                -0.539
REMARK SMILES O=C([O-])CCCCCCCC(=O)[O-]
REMARK SMILES IDX 7 1 6 2 5 3 4 4 2 5 1 6 3 7 8 8 9 9 10 10 11 11 12 12 13 13
REMARK H PARENT
REMARK Flexibility Score: inf
ROOT
ATOM      1  C   UNL     1      32.476  10.094  22.270  1.00  0.00     0.000 C 
ENDROOT
BRANCH   1   2
ATOM      2  C   UNL     1      33.239  10.877  23.349  1.00  0.00     0.000 C 
BRANCH   2   3
ATOM      3  C   UNL     1      34.702  11.150  22.960  1.00  0.00     0.006 C 
BRANCH   3   4
ATOM      4  C   UNL     1      35.217  10.158  21.910  1.00  0.00     0.053 C 
BRANCH   4   5
ATOM      5  C   UNL     1      36.406   9.391  22.406  1.00  0.00     0.041 C 
ATOM      6  O   UNL     1      36.586   8.198  22.045  1.00  0.00    -0.550 OA
ATOM      7  O   UNL     1      37.295   9.984  23.294  1.00  0.00    -0.550 OA
ENDBRANCH   4   5
ENDBRANCH   3   4
ENDBRANCH   2   3
ENDBRANCH   1   2
BRANCH   1   8
ATOM      8  C   UNL     1      31.200   9.429  22.811  1.00  0.00     0.000 C 
BRANCH   8   9
ATOM      9  C   UNL     1      30.896   8.127  22.056  1.00  0.00     0.006 C 
BRANCH   9  10
ATOM     10  C   UNL     1      32.049   7.706  21.137  1.00  0.00     0.053 C 
BRANCH  10  11
ATOM     11  C   UNL     1      31.986   6.249  20.796  1.00  0.00     0.041 C 
ATOM     12  O   UNL     1      31.869   5.883  19.597  1.00  0.00    -0.550 OA
ATOM     13  O   UNL     1      32.091   5.294  21.800  1.00  0.00    -0.550 OA
ENDBRANCH  10  11
ENDBRANCH   9  10
ENDBRANCH   8   9
ENDBRANCH   1   8
TORSDOF 8
ENDMDL
MODEL 6
REMARK VINA RESULT:    -3.032      2.744      4.570
REMARK INTER + INTRA:          -4.988
REMARK INTER:                  -4.386
REMARK INTRA:                  -0.603
REMARK UNBOUND:                -0.539
REMARK SMILES O=C([O-])CCCCCCCC(=O)[O-]
REMARK SMILES IDX 7 1 6 2 5 3 4 4 2 5 1 6 3 7 8 8 9 9 10 10 11 11 12 12 13 13
REMARK H PARENT
REMARK Flexibility Score: inf
ROOT
ATOM      1  C   UNL     1      36.131   9.910  21.898  1.00  0.00     0.000 C 
ENDROOT
BRANCH   1   2
ATOM      2  C   UNL     1      35.859  10.764  23.146  1.00  0.00     0.000 C 
BRANCH   2   3
ATOM      3  C   UNL     1      34.388  11.202  23.255  1.00  0.00     0.006 C 
BRANCH   3   4
ATOM      4  C   UNL     1      33.446  10.263  22.491  1.00  0.00     0.053 C 
BRANCH   4   5
ATOM      5  C   UNL     1      32.026  10.408  22.947  1.00  0.00     0.041 C 
ATOM      6  O   UNL     1      31.626  11.497  23.437  1.00  0.00    -0.550 OA
ATOM      7  O   UNL     1      31.154   9.330  22.863  1.00  0.00    -0.550 OA
ENDBRANCH   4   5
ENDBRANCH   3   4
ENDBRANCH   2   3
ENDBRANCH   1   2
BRANCH   1   8
ATOM      8  C   UNL     1      36.979   8.666  22.206  1.00  0.00     0.000 C 
BRANCH   8   9
ATOM      9  C   UNL     1      36.332   7.402  21.620  1.00  0.00     0.006 C 
BRANCH   9  10
ATOM     10  C   UNL     1      35.363   7.723  20.474  1.00  0.00     0.053 C 
BRANCH  10  11
ATOM     11  C   UNL     1      34.103   6.919  20.570  1.00  0.00     0.041 C 
ATOM     12  O   UNL     1      32.983   7.481  20.442  1.00  0.00    -0.550 OA
ATOM     13  O   UNL     1      34.166   5.546  20.766  1.00  0.00    -0.550 OA
ENDBRANCH  10  11
ENDBRANCH   9  10
ENDBRANCH   8   9
ENDBRANCH   1   8
TORSDOF 8
ENDMDL
MODEL 7
REMARK VINA RESULT:    -3.027      2.679      3.756
REMARK INTER + INTRA:          -4.981
REMARK INTER:                  -4.454
REMARK INTRA:                  -0.527
REMARK UNBOUND:                -0.539
REMARK SMILES O=C([O-])CCCCCCCC(=O)[O-]
REMARK SMILES IDX 7 1 6 2 5 3 4 4 2 5 1 6 3 7 8 8 9 9 10 10 11 11 12 12 13 13
REMARK H PARENT
REMARK Flexibility Score: inf
ROOT
ATOM      1  C   UNL     1      36.447  11.681  22.877  1.00  0.00     0.000 C 
ENDROOT
BRANCH   1   2
ATOM      2  C   UNL     1      34.997  11.408  23.304  1.00  0.00     0.000 C 
BRANCH   2   3
ATOM      3  C   UNL     1      34.047  11.246  22.103  1.00  0.00     0.006 C 
BRANCH   3   4
ATOM      4  C   UNL     1      33.223   9.955  22.187  1.00  0.00     0.053 C 
BRANCH   4   5
ATOM      5  C   UNL     1      31.874  10.195  22.794  1.00  0.00     0.041 C 
ATOM      6  O   UNL     1      31.563  11.340  23.214  1.00  0.00    -0.550 OA
ATOM      7  O   UNL     1      30.974   9.145  22.926  1.00  0.00    -0.550 OA
ENDBRANCH   4   5
ENDBRANCH   3   4
ENDBRANCH   2   3
ENDBRANCH   1   2
BRANCH   1   8
ATOM      8  C   UNL     1      37.010  10.585  21.959  1.00  0.00     0.000 C 
BRANCH   8   9
ATOM      9  C   UNL     1      37.376   9.329  22.763  1.00  0.00     0.006 C 
BRANCH   9  10
ATOM     10  C   UNL     1      36.809   8.050  22.134  1.00  0.00     0.053 C 
BRANCH  10  11
ATOM     11  C   UNL     1      37.389   6.818  22.758  1.00  0.00     0.041 C 
ATOM     12  O   UNL     1      37.728   6.822  23.971  1.00  0.00    -0.550 OA
ATOM     13  O   UNL     1      37.523   5.655  22.010  1.00  0.00    -0.550 OA
ENDBRANCH  10  11
ENDBRANCH   9  10
ENDBRANCH   8   9
ENDBRANCH   1   8
TORSDOF 8
ENDMDL
MODEL 8
REMARK VINA RESULT:    -2.965      2.273      3.501
REMARK INTER + INTRA:          -4.891
REMARK INTER:                  -4.661
REMARK INTRA:                  -0.229
REMARK UNBOUND:                -0.539
REMARK SMILES O=C([O-])CCCCCCCC(=O)[O-]
REMARK SMILES IDX 7 1 6 2 5 3 4 4 2 5 1 6 3 7 8 8 9 9 10 10 11 11 12 12 13 13
REMARK H PARENT
REMARK Flexibility Score: inf
ROOT
ATOM      1  C   UNL     1      32.047   8.705  21.770  1.00  0.00     0.000 C 
ENDROOT
BRANCH   1   2
ATOM      2  C   UNL     1      31.409   7.360  21.388  1.00  0.00     0.000 C 
BRANCH   2   3
ATOM      3  C   UNL     1      32.451   6.310  20.962  1.00  0.00     0.006 C 
BRANCH   3   4
ATOM      4  C   UNL     1      32.147   4.924  21.544  1.00  0.00     0.053 C 
BRANCH   4   5
ATOM      5  C   UNL     1      33.234   3.940  21.232  1.00  0.00     0.041 C 
ATOM      6  O   UNL     1      33.029   2.705  21.367  1.00  0.00    -0.550 OA
ATOM      7  O   UNL     1      34.485   4.390  20.825  1.00  0.00    -0.550 OA
ENDBRANCH   4   5
ENDBRANCH   3   4
ENDBRANCH   2   3
ENDBRANCH   1   2
BRANCH   1   8
ATOM      8  C   UNL     1      31.247   9.455  22.845  1.00  0.00     0.000 C 
BRANCH   8   9
ATOM      9  C   UNL     1      32.063  10.620  23.425  1.00  0.00     0.006 C 
BRANCH   9  10
ATOM     10  C   UNL     1      32.727  11.465  22.330  1.00  0.00     0.053 C 
BRANCH  10  11
ATOM     11  C   UNL     1      34.219  11.468  22.458  1.00  0.00     0.041 C 
ATOM     12  O   UNL     1      34.758  11.401  23.595  1.00  0.00    -0.550 OA
ATOM     13  O   UNL     1      35.016  11.512  21.321  1.00  0.00    -0.550 OA
ENDBRANCH  10  11
ENDBRANCH   9  10
ENDBRANCH   8   9
ENDBRANCH   1   8
TORSDOF 8
ENDMDL
MODEL 9
REMARK VINA RESULT:    -2.948      2.874      5.120
REMARK INTER + INTRA:          -4.865
REMARK INTER:                  -4.443
REMARK INTRA:                  -0.422
REMARK UNBOUND:                -0.539
REMARK SMILES O=C([O-])CCCCCCCC(=O)[O-]
REMARK SMILES IDX 7 1 6 2 5 3 4 4 2 5 1 6 3 7 8 8 9 9 10 10 11 11 12 12 13 13
REMARK H PARENT
REMARK Flexibility Score: inf
ROOT
ATOM      1  C   UNL     1      36.628  10.862  22.340  1.00  0.00     0.000 C 
ENDROOT
BRANCH   1   2
ATOM      2  C   UNL     1      37.783  10.176  23.084  1.00  0.00     0.000 C 
BRANCH   2   3
ATOM      3  C   UNL     1      37.552   8.666  23.276  1.00  0.00     0.006 C 
BRANCH   3   4
ATOM      4  C   UNL     1      36.920   8.016  22.039  1.00  0.00     0.053 C 
BRANCH   4   5
ATOM      5  C   UNL     1      36.968   6.520  22.112  1.00  0.00     0.041 C 
ATOM      6  O   UNL     1      37.904   5.946  22.729  1.00  0.00    -0.550 OA
ATOM      7  O   UNL     1      35.999   5.759  21.468  1.00  0.00    -0.550 OA
ENDBRANCH   4   5
ENDBRANCH   3   4
ENDBRANCH   2   3
ENDBRANCH   1   2
BRANCH   1   8
ATOM      8  C   UNL     1      35.381  11.041  23.219  1.00  0.00     0.000 C 
BRANCH   8   9
ATOM      9  C   UNL     1      34.128  11.261  22.358  1.00  0.00     0.006 C 
BRANCH   9  10
ATOM     10  C   UNL     1      33.274   9.992  22.241  1.00  0.00     0.053 C 
BRANCH  10  11
ATOM     11  C   UNL     1      31.930  10.165  22.880  1.00  0.00     0.041 C 
ATOM     12  O   UNL     1      31.094   9.223  22.861  1.00  0.00    -0.550 OA
ATOM     13  O   UNL     1      31.613  11.354  23.524  1.00  0.00    -0.550 OA
ENDBRANCH  10  11
ENDBRANCH   9  10
ENDBRANCH   8   9
ENDBRANCH   1   8
TORSDOF 8
ENDMDL
