MODEL 1
REMARK VINA RESULT:    -4.342      0.000      0.000
REMARK INTER + INTRA:          -6.826
REMARK INTER:                  -6.119
REMARK INTRA:                  -0.707
REMARK UNBOUND:                -0.707
REMARK SMILES CCCCCCCCC(=O)[O-]
REMARK SMILES IDX 6 1 7 2 8 3 9 4 10 5 11 6 5 7 4 8 3 9 2 10 1 11
REMARK H PARENT
REMARK Flexibility Score: inf
ROOT
ATOM      1  C   UNL     1      -1.272 -24.294   1.692  1.00  0.00     0.000 C 
ENDROOT
BRANCH   1   2
ATOM      2  C   UNL     1      -1.016 -24.991   0.344  1.00  0.00     0.006 C 
BRANCH   2   3
ATOM      3  C   UNL     1      -2.260 -25.729  -0.171  1.00  0.00     0.053 C 
BRANCH   3   4
ATOM      4  C   UNL     1      -2.823 -25.077  -1.396  1.00  0.00     0.041 C 
ATOM      5  O   UNL     1      -2.416 -23.940  -1.753  1.00  0.00    -0.550 OA
ATOM      6  O   UNL     1      -3.822 -25.711  -2.124  1.00  0.00    -0.550 OA
ENDBRANCH   3   4
ENDBRANCH   2   3
ENDBRANCH   1   2
BRANCH   1   7
ATOM      7  C   UNL     1      -0.496 -24.940   2.851  1.00  0.00     0.000 C 
BRANCH   7   8
ATOM      8  C   UNL     1      -1.379 -25.863   3.709  1.00  0.00    -0.000 C 
BRANCH   8   9
ATOM      9  C   UNL     1      -0.791 -27.276   3.852  1.00  0.00    -0.000 C 
BRANCH   9  10
ATOM     10  C   UNL     1       0.162 -27.640   2.703  1.00  0.00    -0.003 C 
ATOM     11  C   UNL     1      -0.536 -28.517   1.668  1.00  0.00     0.004 C 
ENDBRANCH   9  10
ENDBRANCH   8   9
ENDBRANCH   7   8
ENDBRANCH   1   7
TORSDOF 7
ENDMDL
MODEL 2
REMARK VINA RESULT:    -4.330      6.034      7.781
REMARK INTER + INTRA:          -6.809
REMARK INTER:                  -6.545
REMARK INTRA:                  -0.264
REMARK UNBOUND:                -0.707
REMARK SMILES CCCCCCCCC(=O)[O-]
REMARK SMILES IDX 6 1 7 2 8 3 9 4 10 5 11 6 5 7 4 8 3 9 2 10 1 11
REMARK H PARENT
REMARK Flexibility Score: inf
ROOT
ATOM      1  C   UNL     1       0.495 -26.837   8.208  1.00  0.00     0.000 C 
ENDROOT
BRANCH   1   2
ATOM      2  C   UNL     1      -0.546 -27.279   7.165  1.00  0.00     0.006 C 
BRANCH   2   3
ATOM      3  C   UNL     1      -0.068 -27.029   5.728  1.00  0.00     0.053 C 
BRANCH   3   4
ATOM      4  C   UNL     1      -0.166 -28.266   4.889  1.00  0.00     0.041 C 
ATOM      5  O   UNL     1      -0.009 -29.400   5.412  1.00  0.00    -0.550 OA
ATOM      6  O   UNL     1      -0.396 -28.162   3.523  1.00  0.00    -0.550 OA
ENDBRANCH   3   4
ENDBRANCH   2   3
ENDBRANCH   1   2
BRANCH   1   7
ATOM      7  C   UNL     1      -0.130 -26.528   9.578  1.00  0.00     0.000 C 
BRANCH   7   8
ATOM      8  C   UNL     1      -1.649 -26.767   9.600  1.00  0.00    -0.000 C 
BRANCH   8   9
ATOM      9  C   UNL     1      -2.358 -25.954  10.696  1.00  0.00    -0.000 C 
BRANCH   9  10
ATOM     10  C   UNL     1      -3.790 -25.557  10.306  1.00  0.00    -0.003 C 
ATOM     11  C   UNL     1      -4.117 -24.144  10.780  1.00  0.00     0.004 C 
ENDBRANCH   9  10
ENDBRANCH   8   9
ENDBRANCH   7   8
ENDBRANCH   1   7
TORSDOF 7
ENDMDL
MODEL 3
REMARK VINA RESULT:    -4.254      7.201      8.816
REMARK INTER + INTRA:          -6.702
REMARK INTER:                  -6.416
REMARK INTRA:                  -0.285
REMARK UNBOUND:                -0.707
REMARK SMILES CCCCCCCCC(=O)[O-]
REMARK SMILES IDX 6 1 7 2 8 3 9 4 10 5 11 6 5 7 4 8 3 9 2 10 1 11
REMARK H PARENT
REMARK Flexibility Score: inf
ROOT
ATOM      1  C   UNL     1      -0.740 -26.824  10.206  1.00  0.00     0.000 C 
ENDROOT
BRANCH   1   2
ATOM      2  C   UNL     1      -2.216 -26.502   9.911  1.00  0.00     0.006 C 
BRANCH   2   3
ATOM      3  C   UNL     1      -2.783 -25.454  10.879  1.00  0.00     0.053 C 
BRANCH   3   4
ATOM      4  C   UNL     1      -4.213 -25.132  10.570  1.00  0.00     0.041 C 
ATOM      5  O   UNL     1      -4.703 -24.026  10.918  1.00  0.00    -0.550 OA
ATOM      6  O   UNL     1      -5.014 -26.069   9.927  1.00  0.00    -0.550 OA
ENDBRANCH   3   4
ENDBRANCH   2   3
ENDBRANCH   1   2
BRANCH   1   7
ATOM      7  C   UNL     1       0.163 -26.650   8.974  1.00  0.00     0.000 C 
BRANCH   7   8
ATOM      8  C   UNL     1      -0.508 -27.135   7.678  1.00  0.00    -0.000 C 
BRANCH   8   9
ATOM      9  C   UNL     1      -0.453 -28.664   7.522  1.00  0.00    -0.000 C 
BRANCH   9  10
ATOM     10  C   UNL     1      -0.163 -29.102   6.079  1.00  0.00    -0.003 C 
ATOM     11  C   UNL     1      -0.345 -27.940   5.106  1.00  0.00     0.004 C 
ENDBRANCH   9  10
ENDBRANCH   8   9
ENDBRANCH   7   8
ENDBRANCH   1   7
TORSDOF 7
ENDMDL
MODEL 4
REMARK VINA RESULT:    -4.245      0.939      1.331
REMARK INTER + INTRA:          -6.689
REMARK INTER:                  -6.019
REMARK INTRA:                  -0.670
REMARK UNBOUND:                -0.707
REMARK SMILES CCCCCCCCC(=O)[O-]
REMARK SMILES IDX 6 1 7 2 8 3 9 4 10 5 11 6 5 7 4 8 3 9 2 10 1 11
REMARK H PARENT
REMARK Flexibility Score: inf
ROOT
ATOM      1  C   UNL     1      -1.255 -25.360   2.532  1.00  0.00     0.000 C 
ENDROOT
BRANCH   1   2
ATOM      2  C   UNL     1      -2.295 -25.898   1.534  1.00  0.00     0.006 C 
BRANCH   2   3
ATOM      3  C   UNL     1      -1.745 -25.960   0.102  1.00  0.00     0.053 C 
BRANCH   3   4
ATOM      4  C   UNL     1      -2.592 -25.175  -0.851  1.00  0.00     0.041 C 
ATOM      5  O   UNL     1      -2.481 -23.922  -0.915  1.00  0.00    -0.550 OA
ATOM      6  O   UNL     1      -3.529 -25.824  -1.645  1.00  0.00    -0.550 OA
ENDBRANCH   3   4
ENDBRANCH   2   3
ENDBRANCH   1   2
BRANCH   1   7
ATOM      7  C   UNL     1      -1.272 -26.114   3.872  1.00  0.00     0.000 C 
BRANCH   7   8
ATOM      8  C   UNL     1       0.075 -26.786   4.187  1.00  0.00    -0.000 C 
BRANCH   8   9
ATOM      9  C   UNL     1       0.904 -27.066   2.922  1.00  0.00    -0.000 C 
BRANCH   9  10
ATOM     10  C   UNL     1       0.996 -28.564   2.594  1.00  0.00    -0.003 C 
ATOM     11  C   UNL     1      -0.076 -28.972   1.588  1.00  0.00     0.004 C 
ENDBRANCH   9  10
ENDBRANCH   8   9
ENDBRANCH   7   8
ENDBRANCH   1   7
TORSDOF 7
ENDMDL
MODEL 5
REMARK VINA RESULT:    -4.151      1.610      2.576
REMARK INTER + INTRA:          -6.557
REMARK INTER:                  -6.191
REMARK INTRA:                  -0.366
REMARK UNBOUND:                -0.707
REMARK SMILES CCCCCCCCC(=O)[O-]
REMARK SMILES IDX 6 1 7 2 8 3 9 4 10 5 11 6 5 7 4 8 3 9 2 10 1 11
REMARK H PARENT
REMARK Flexibility Score: inf
ROOT
ATOM      1  C   UNL     1      -1.905 -27.619   1.699  1.00  0.00     0.000 C 
ENDROOT
BRANCH   1   2
ATOM      2  C   UNL     1      -2.292 -26.182   1.308  1.00  0.00     0.006 C 
BRANCH   2   3
ATOM      3  C   UNL     1      -1.503 -25.681   0.090  1.00  0.00     0.053 C 
BRANCH   3   4
ATOM      4  C   UNL     1      -2.394 -25.007  -0.908  1.00  0.00     0.041 C 
ATOM      5  O   UNL     1      -2.230 -23.789  -1.183  1.00  0.00    -0.550 OA
ATOM      6  O   UNL     1      -3.427 -25.716  -1.508  1.00  0.00    -0.550 OA
ENDBRANCH   3   4
ENDBRANCH   2   3
ENDBRANCH   1   2
BRANCH   1   7
ATOM      7  C   UNL     1      -0.403 -27.897   1.525  1.00  0.00     0.000 C 
BRANCH   7   8
ATOM      8  C   UNL     1      -0.085 -29.402   1.478  1.00  0.00    -0.000 C 
BRANCH   8   9
ATOM      9  C   UNL     1       0.808 -29.851   2.647  1.00  0.00    -0.000 C 
BRANCH   9  10
ATOM     10  C   UNL     1       0.889 -28.803   3.767  1.00  0.00    -0.003 C 
ATOM     11  C   UNL     1       0.147 -29.275   5.015  1.00  0.00     0.004 C 
ENDBRANCH   9  10
ENDBRANCH   8   9
ENDBRANCH   7   8
ENDBRANCH   1   7
TORSDOF 7
ENDMDL
MODEL 6
REMARK VINA RESULT:    -4.096      1.963      3.424
REMARK INTER + INTRA:          -6.479
REMARK INTER:                  -5.820
REMARK INTRA:                  -0.659
REMARK UNBOUND:                -0.707
REMARK SMILES CCCCCCCCC(=O)[O-]
REMARK SMILES IDX 6 1 7 2 8 3 9 4 10 5 11 6 5 7 4 8 3 9 2 10 1 11
REMARK H PARENT
REMARK Flexibility Score: inf
ROOT
ATOM      1  C   UNL     1      -0.132 -28.016   1.703  1.00  0.00     0.000 C 
ENDROOT
BRANCH   1   2
ATOM      2  C   UNL     1      -1.662 -27.852   1.736  1.00  0.00     0.006 C 
BRANCH   2   3
ATOM      3  C   UNL     1      -2.083 -26.444   2.180  1.00  0.00     0.053 C 
BRANCH   3   4
ATOM      4  C   UNL     1      -2.111 -25.486   1.030  1.00  0.00     0.041 C 
ATOM      5  O   UNL     1      -1.828 -24.272   1.208  1.00  0.00    -0.550 OA
ATOM      6  O   UNL     1      -2.483 -25.928  -0.234  1.00  0.00    -0.550 OA
ENDBRANCH   3   4
ENDBRANCH   2   3
ENDBRANCH   1   2
BRANCH   1   7
ATOM      7  C   UNL     1       0.306 -29.486   1.597  1.00  0.00     0.000 C 
BRANCH   7   8
ATOM      8  C   UNL     1       0.385 -30.177   2.970  1.00  0.00    -0.000 C 
BRANCH   8   9
ATOM      9  C   UNL     1       0.928 -29.247   4.067  1.00  0.00    -0.000 C 
BRANCH   9  10
ATOM     10  C   UNL     1      -0.019 -29.134   5.271  1.00  0.00    -0.003 C 
ATOM     11  C   UNL     1      -0.485 -27.695   5.470  1.00  0.00     0.004 C 
ENDBRANCH   9  10
ENDBRANCH   8   9
ENDBRANCH   7   8
ENDBRANCH   1   7
TORSDOF 7
ENDMDL
MODEL 7
REMARK VINA RESULT:    -4.037      1.355      2.140
REMARK INTER + INTRA:          -6.396
REMARK INTER:                  -6.053
REMARK INTRA:                  -0.343
REMARK UNBOUND:                -0.707
REMARK SMILES CCCCCCCCC(=O)[O-]
REMARK SMILES IDX 6 1 7 2 8 3 9 4 10 5 11 6 5 7 4 8 3 9 2 10 1 11
REMARK H PARENT
REMARK Flexibility Score: inf
ROOT
ATOM      1  C   UNL     1      -1.858 -27.111   1.970  1.00  0.00     0.000 C 
ENDROOT
BRANCH   1   2
ATOM      2  C   UNL     1      -1.639 -26.440   0.603  1.00  0.00     0.006 C 
BRANCH   2   3
ATOM      3  C   UNL     1      -2.718 -25.393   0.294  1.00  0.00     0.053 C 
BRANCH   3   4
ATOM      4  C   UNL     1      -2.834 -25.136  -1.177  1.00  0.00     0.041 C 
ATOM      5  O   UNL     1      -3.625 -25.819  -1.880  1.00  0.00    -0.550 OA
ATOM      6  O   UNL     1      -2.044 -24.163  -1.778  1.00  0.00    -0.550 OA
ENDBRANCH   3   4
ENDBRANCH   2   3
ENDBRANCH   1   2
BRANCH   1   7
ATOM      7  C   UNL     1      -1.561 -26.170   3.149  1.00  0.00     0.000 C 
BRANCH   7   8
ATOM      8  C   UNL     1      -0.701 -26.840   4.235  1.00  0.00    -0.000 C 
BRANCH   8   9
ATOM      9  C   UNL     1       0.339 -27.809   3.648  1.00  0.00    -0.000 C 
BRANCH   9  10
ATOM     10  C   UNL     1       0.324 -29.182   4.338  1.00  0.00    -0.003 C 
ATOM     11  C   UNL     1      -0.234 -29.078   5.755  1.00  0.00     0.004 C 
ENDBRANCH   9  10
ENDBRANCH   8   9
ENDBRANCH   7   8
ENDBRANCH   1   7
TORSDOF 7
ENDMDL
MODEL 8
REMARK VINA RESULT:    -4.002      2.128      2.737
REMARK INTER + INTRA:          -6.347
REMARK INTER:                  -5.919
REMARK INTRA:                  -0.428
REMARK UNBOUND:                -0.707
REMARK SMILES CCCCCCCCC(=O)[O-]
REMARK SMILES IDX 6 1 7 2 8 3 9 4 10 5 11 6 5 7 4 8 3 9 2 10 1 11
REMARK H PARENT
REMARK Flexibility Score: inf
ROOT
ATOM      1  C   UNL     1      -1.010 -26.928   1.251  1.00  0.00     0.000 C 
ENDROOT
BRANCH   1   2
ATOM      2  C   UNL     1      -1.983 -26.107   0.388  1.00  0.00     0.006 C 
BRANCH   2   3
ATOM      3  C   UNL     1      -1.260 -25.038  -0.443  1.00  0.00     0.053 C 
BRANCH   3   4
ATOM      4  C   UNL     1      -0.910 -23.838   0.382  1.00  0.00     0.041 C 
ATOM      5  O   UNL     1       0.117 -23.161   0.114  1.00  0.00    -0.550 OA
ATOM      6  O   UNL     1      -1.701 -23.487   1.469  1.00  0.00    -0.550 OA
ENDBRANCH   3   4
ENDBRANCH   2   3
ENDBRANCH   1   2
BRANCH   1   7
ATOM      7  C   UNL     1      -1.573 -27.243   2.647  1.00  0.00     0.000 C 
BRANCH   7   8
ATOM      8  C   UNL     1      -1.164 -26.195   3.697  1.00  0.00    -0.000 C 
BRANCH   8   9
ATOM      9  C   UNL     1      -0.532 -26.829   4.947  1.00  0.00    -0.000 C 
BRANCH   9  10
ATOM     10  C   UNL     1       0.050 -28.225   4.673  1.00  0.00    -0.003 C 
ATOM     11  C   UNL     1      -0.227 -29.172   5.838  1.00  0.00     0.004 C 
ENDBRANCH   9  10
ENDBRANCH   8   9
ENDBRANCH   7   8
ENDBRANCH   1   7
TORSDOF 7
ENDMDL
MODEL 9
REMARK VINA RESULT:    -3.976      2.081      3.371
REMARK INTER + INTRA:          -6.310
REMARK INTER:                  -5.715
REMARK INTRA:                  -0.595
REMARK UNBOUND:                -0.707
REMARK SMILES CCCCCCCCC(=O)[O-]
REMARK SMILES IDX 6 1 7 2 8 3 9 4 10 5 11 6 5 7 4 8 3 9 2 10 1 11
REMARK H PARENT
REMARK Flexibility Score: inf
ROOT
ATOM      1  C   UNL     1      -0.049 -26.853   4.637  1.00  0.00     0.000 C 
ENDROOT
BRANCH   1   2
ATOM      2  C   UNL     1      -1.243 -26.246   3.879  1.00  0.00     0.006 C 
BRANCH   2   3
ATOM      3  C   UNL     1      -0.841 -25.008   3.065  1.00  0.00     0.053 C 
BRANCH   3   4
ATOM      4  C   UNL     1      -1.588 -24.932   1.769  1.00  0.00     0.041 C 
ATOM      5  O   UNL     1      -1.564 -23.875   1.085  1.00  0.00    -0.550 OA
ATOM      6  O   UNL     1      -2.338 -26.017   1.334  1.00  0.00    -0.550 OA
ENDBRANCH   3   4
ENDBRANCH   2   3
ENDBRANCH   1   2
BRANCH   1   7
ATOM      7  C   UNL     1      -0.443 -28.072   5.488  1.00  0.00     0.000 C 
BRANCH   7   8
ATOM      8  C   UNL     1       0.246 -29.365   5.019  1.00  0.00    -0.000 C 
BRANCH   8   9
ATOM      9  C   UNL     1       1.136 -29.144   3.785  1.00  0.00    -0.000 C 
BRANCH   9  10
ATOM     10  C   UNL     1       0.654 -29.932   2.558  1.00  0.00    -0.003 C 
ATOM     11  C   UNL     1      -0.120 -29.033   1.598  1.00  0.00     0.004 C 
ENDBRANCH   9  10
ENDBRANCH   8   9
ENDBRANCH   7   8
ENDBRANCH   1   7
TORSDOF 7
ENDMDL
