MODEL 1
REMARK VINA RESULT:    -4.472      0.000      0.000
REMARK INTER + INTRA:          -9.401
REMARK INTER:                  -8.394
REMARK INTRA:                  -1.007
REMARK UNBOUND:                -1.007
REMARK SMILES O=C([O-])CCCCCCCCCCCCCCC(=O)[O-]
REMARK SMILES IDX 10 1 9 2 8 3 7 4 6 5 5 6 4 7 2 8 1 9 3 10 11 11 12 12 13 13
REMARK SMILES IDX 14 14 15 15 16 16 17 17 18 18 19 19 20 20
REMARK H PARENT
REMARK Flexibility Score: inf
ROOT
ATOM      1  C   UNL     1     -24.877 -12.304  32.137  1.00  0.00     0.000 C 
ENDROOT
BRANCH   1   2
ATOM      2  C   UNL     1     -23.343 -12.406  32.133  1.00  0.00     0.000 C 
BRANCH   2   3
ATOM      3  C   UNL     1     -22.847 -13.848  31.942  1.00  0.00     0.000 C 
BRANCH   3   4
ATOM      4  C   UNL     1     -21.961 -14.283  33.117  1.00  0.00     0.000 C 
BRANCH   4   5
ATOM      5  C   UNL     1     -21.498 -13.070  33.936  1.00  0.00     0.000 C 
BRANCH   5   6
ATOM      6  C   UNL     1     -21.774 -13.218  35.443  1.00  0.00     0.006 C 
BRANCH   6   7
ATOM      7  C   UNL     1     -22.878 -12.285  35.972  1.00  0.00     0.053 C 
BRANCH   7   8
ATOM      8  C   UNL     1     -22.988 -12.304  37.466  1.00  0.00     0.041 C 
ATOM      9  O   UNL     1     -23.383 -13.340  38.062  1.00  0.00    -0.550 OA
ATOM     10  O   UNL     1     -22.683 -11.164  38.199  1.00  0.00    -0.550 OA
ENDBRANCH   7   8
ENDBRANCH   6   7
ENDBRANCH   5   6
ENDBRANCH   4   5
ENDBRANCH   3   4
ENDBRANCH   2   3
ENDBRANCH   1   2
BRANCH   1  11
ATOM     11  C   UNL     1     -25.415 -11.518  33.343  1.00  0.00     0.000 C 
BRANCH  11  12
ATOM     12  C   UNL     1     -26.951 -11.502  33.342  1.00  0.00     0.000 C 
BRANCH  12  13
ATOM     13  C   UNL     1     -27.548 -11.558  34.758  1.00  0.00     0.000 C 
BRANCH  13  14
ATOM     14  C   UNL     1     -28.182 -10.222  35.184  1.00  0.00     0.000 C 
BRANCH  14  15
ATOM     15  C   UNL     1     -28.764  -9.429  34.001  1.00  0.00     0.000 C 
BRANCH  15  16
ATOM     16  C   UNL     1     -30.087  -8.691  34.287  1.00  0.00     0.006 C 
BRANCH  16  17
ATOM     17  C   UNL     1     -30.956  -8.450  33.038  1.00  0.00     0.053 C 
BRANCH  17  18
ATOM     18  C   UNL     1     -32.416  -8.353  33.361  1.00  0.00     0.041 C 
ATOM     19  O   UNL     1     -33.145  -9.379  33.329  1.00  0.00    -0.550 OA
ATOM     20  O   UNL     1     -32.983  -7.119  33.657  1.00  0.00    -0.550 OA
ENDBRANCH  17  18
ENDBRANCH  16  17
ENDBRANCH  15  16
ENDBRANCH  14  15
ENDBRANCH  13  14
ENDBRANCH  12  13
ENDBRANCH  11  12
ENDBRANCH   1  11
TORSDOF 15
ENDMDL
MODEL 2
REMARK VINA RESULT:    -4.105      6.231      8.487
REMARK INTER + INTRA:          -8.711
REMARK INTER:                  -6.387
REMARK INTRA:                  -2.324
REMARK UNBOUND:                -1.007
REMARK SMILES O=C([O-])CCCCCCCCCCCCCCC(=O)[O-]
REMARK SMILES IDX 10 1 9 2 8 3 7 4 6 5 5 6 4 7 2 8 1 9 3 10 11 11 12 12 13 13
REMARK SMILES IDX 14 14 15 15 16 16 17 17 18 18 19 19 20 20
REMARK H PARENT
REMARK Flexibility Score: inf
ROOT
ATOM      1  C   UNL     1     -20.550 -11.282  40.293  1.00  0.00     0.000 C 
ENDROOT
BRANCH   1   2
ATOM      2  C   UNL     1     -19.555 -11.439  39.132  1.00  0.00     0.000 C 
BRANCH   2   3
ATOM      3  C   UNL     1     -19.286 -12.909  38.778  1.00  0.00     0.000 C 
BRANCH   3   4
ATOM      4  C   UNL     1     -19.450 -13.809  40.009  1.00  0.00     0.000 C 
BRANCH   4   5
ATOM      5  C   UNL     1     -20.199 -15.101  39.651  1.00  0.00     0.000 C 
BRANCH   5   6
ATOM      6  C   UNL     1     -21.097 -15.614  40.791  1.00  0.00     0.006 C 
BRANCH   6   7
ATOM      7  C   UNL     1     -20.874 -14.897  42.135  1.00  0.00     0.053 C 
BRANCH   7   8
ATOM      8  C   UNL     1     -22.134 -14.762  42.936  1.00  0.00     0.041 C 
ATOM      9  O   UNL     1     -22.095 -14.812  44.193  1.00  0.00    -0.550 OA
ATOM     10  O   UNL     1     -23.354 -14.613  42.291  1.00  0.00    -0.550 OA
ENDBRANCH   7   8
ENDBRANCH   6   7
ENDBRANCH   5   6
ENDBRANCH   4   5
ENDBRANCH   3   4
ENDBRANCH   2   3
ENDBRANCH   1   2
BRANCH   1  11
ATOM     11  C   UNL     1     -21.947 -10.850  39.822  1.00  0.00     0.000 C 
BRANCH  11  12
ATOM     12  C   UNL     1     -22.993 -11.925  40.156  1.00  0.00     0.000 C 
BRANCH  12  13
ATOM     13  C   UNL     1     -23.104 -13.005  39.068  1.00  0.00     0.000 C 
BRANCH  13  14
ATOM     14  C   UNL     1     -23.814 -12.496  37.801  1.00  0.00     0.000 C 
BRANCH  14  15
ATOM     15  C   UNL     1     -22.860 -12.319  36.608  1.00  0.00     0.000 C 
BRANCH  15  16
ATOM     16  C   UNL     1     -21.860 -13.472  36.384  1.00  0.00     0.006 C 
BRANCH  16  17
ATOM     17  C   UNL     1     -20.809 -13.190  35.294  1.00  0.00     0.053 C 
BRANCH  17  18
ATOM     18  C   UNL     1     -21.265 -13.614  33.930  1.00  0.00     0.041 C 
ATOM     19  O   UNL     1     -20.595 -14.448  33.265  1.00  0.00    -0.550 OA
ATOM     20  O   UNL     1     -22.410 -13.055  33.373  1.00  0.00    -0.550 OA
ENDBRANCH  17  18
ENDBRANCH  16  17
ENDBRANCH  15  16
ENDBRANCH  14  15
ENDBRANCH  13  14
ENDBRANCH  12  13
ENDBRANCH  11  12
ENDBRANCH   1  11
TORSDOF 15
ENDMDL
MODEL 3
REMARK VINA RESULT:    -4.083      3.026      5.594
REMARK INTER + INTRA:          -8.670
REMARK INTER:                  -8.081
REMARK INTRA:                  -0.590
REMARK UNBOUND:                -1.007
REMARK SMILES O=C([O-])CCCCCCCCCCCCCCC(=O)[O-]
REMARK SMILES IDX 10 1 9 2 8 3 7 4 6 5 5 6 4 7 2 8 1 9 3 10 11 11 12 12 13 13
REMARK SMILES IDX 14 14 15 15 16 16 17 17 18 18 19 19 20 20
REMARK H PARENT
REMARK Flexibility Score: inf
ROOT
ATOM      1  C   UNL     1     -30.080  -8.993  34.136  1.00  0.00     0.000 C 
ENDROOT
BRANCH   1   2
ATOM      2  C   UNL     1     -28.577  -9.170  33.865  1.00  0.00     0.000 C 
BRANCH   2   3
ATOM      3  C   UNL     1     -28.010 -10.455  34.488  1.00  0.00     0.000 C 
BRANCH   3   4
ATOM      4  C   UNL     1     -27.538 -11.429  33.401  1.00  0.00     0.000 C 
BRANCH   4   5
ATOM      5  C   UNL     1     -26.005 -11.492  33.346  1.00  0.00     0.000 C 
BRANCH   5   6
ATOM      6  C   UNL     1     -25.357 -11.646  34.734  1.00  0.00     0.006 C 
BRANCH   6   7
ATOM      7  C   UNL     1     -23.818 -11.675  34.706  1.00  0.00     0.053 C 
BRANCH   7   8
ATOM      8  C   UNL     1     -23.223 -12.158  35.994  1.00  0.00     0.041 C 
ATOM      9  O   UNL     1     -21.991 -12.398  36.075  1.00  0.00    -0.550 OA
ATOM     10  O   UNL     1     -24.039 -12.373  37.098  1.00  0.00    -0.550 OA
ENDBRANCH   7   8
ENDBRANCH   6   7
ENDBRANCH   5   6
ENDBRANCH   4   5
ENDBRANCH   3   4
ENDBRANCH   2   3
ENDBRANCH   1   2
BRANCH   1  11
ATOM     11  C   UNL     1     -30.727  -7.942  33.222  1.00  0.00     0.000 C 
BRANCH  11  12
ATOM     12  C   UNL     1     -31.946  -8.529  32.494  1.00  0.00     0.000 C 
BRANCH  12  13
ATOM     13  C   UNL     1     -33.096  -8.887  33.449  1.00  0.00     0.000 C 
BRANCH  13  14
ATOM     14  C   UNL     1     -34.171  -7.789  33.517  1.00  0.00     0.000 C 
BRANCH  14  15
ATOM     15  C   UNL     1     -34.708  -7.388  32.133  1.00  0.00     0.000 C 
BRANCH  15  16
ATOM     16  C   UNL     1     -36.241  -7.257  32.030  1.00  0.00     0.006 C 
BRANCH  16  17
ATOM     17  C   UNL     1     -36.934  -6.918  33.363  1.00  0.00     0.053 C 
BRANCH  17  18
ATOM     18  C   UNL     1     -38.417  -7.136  33.315  1.00  0.00     0.041 C 
ATOM     19  O   UNL     1     -39.077  -7.258  34.380  1.00  0.00    -0.550 OA
ATOM     20  O   UNL     1     -39.064  -7.247  32.090  1.00  0.00    -0.550 OA
ENDBRANCH  17  18
ENDBRANCH  16  17
ENDBRANCH  15  16
ENDBRANCH  14  15
ENDBRANCH  13  14
ENDBRANCH  12  13
ENDBRANCH  11  12
ENDBRANCH   1  11
TORSDOF 15
ENDMDL
MODEL 4
REMARK VINA RESULT:    -3.990      3.282      7.782
REMARK INTER + INTRA:          -8.496
REMARK INTER:                  -7.095
REMARK INTRA:                  -1.401
REMARK UNBOUND:                -1.007
REMARK SMILES O=C([O-])CCCCCCCCCCCCCCC(=O)[O-]
REMARK SMILES IDX 10 1 9 2 8 3 7 4 6 5 5 6 4 7 2 8 1 9 3 10 11 11 12 12 13 13
REMARK SMILES IDX 14 14 15 15 16 16 17 17 18 18 19 19 20 20
REMARK H PARENT
REMARK Flexibility Score: inf
ROOT
ATOM      1  C   UNL     1     -21.378 -13.287  36.066  1.00  0.00     0.000 C 
ENDROOT
BRANCH   1   2
ATOM      2  C   UNL     1     -22.093 -12.930  34.752  1.00  0.00     0.000 C 
BRANCH   2   3
ATOM      3  C   UNL     1     -21.541 -13.708  33.548  1.00  0.00     0.000 C 
BRANCH   3   4
ATOM      4  C   UNL     1     -22.610 -13.861  32.458  1.00  0.00     0.000 C 
BRANCH   4   5
ATOM      5  C   UNL     1     -23.191 -12.497  32.061  1.00  0.00     0.000 C 
BRANCH   5   6
ATOM      6  C   UNL     1     -24.716 -12.413  32.246  1.00  0.00     0.006 C 
BRANCH   6   7
ATOM      7  C   UNL     1     -25.168 -11.321  33.233  1.00  0.00     0.053 C 
BRANCH   7   8
ATOM      8  C   UNL     1     -26.554 -11.548  33.755  1.00  0.00     0.041 C 
ATOM      9  O   UNL     1     -27.522 -11.665  32.959  1.00  0.00    -0.550 OA
ATOM     10  O   UNL     1     -26.780 -11.598  35.124  1.00  0.00    -0.550 OA
ENDBRANCH   7   8
ENDBRANCH   6   7
ENDBRANCH   5   6
ENDBRANCH   4   5
ENDBRANCH   3   4
ENDBRANCH   2   3
ENDBRANCH   1   2
BRANCH   1  11
ATOM     11  C   UNL     1     -19.861 -13.454  35.888  1.00  0.00     0.000 C 
BRANCH  11  12
ATOM     12  C   UNL     1     -19.098 -12.729  37.007  1.00  0.00     0.000 C 
BRANCH  12  13
ATOM     13  C   UNL     1     -18.957 -13.579  38.280  1.00  0.00     0.000 C 
BRANCH  13  14
ATOM     14  C   UNL     1     -19.730 -12.988  39.473  1.00  0.00     0.000 C 
BRANCH  14  15
ATOM     15  C   UNL     1     -20.253 -11.567  39.205  1.00  0.00     0.000 C 
BRANCH  15  16
ATOM     16  C   UNL     1     -21.561 -11.196  39.931  1.00  0.00     0.006 C 
BRANCH  16  17
ATOM     17  C   UNL     1     -22.788 -11.095  39.005  1.00  0.00     0.053 C 
BRANCH  17  18
ATOM     18  C   UNL     1     -23.517 -12.398  38.869  1.00  0.00     0.041 C 
ATOM     19  O   UNL     1     -23.264 -13.353  39.649  1.00  0.00    -0.550 OA
ATOM     20  O   UNL     1     -24.447 -12.572  37.851  1.00  0.00    -0.550 OA
ENDBRANCH  17  18
ENDBRANCH  16  17
ENDBRANCH  15  16
ENDBRANCH  14  15
ENDBRANCH  13  14
ENDBRANCH  12  13
ENDBRANCH  11  12
ENDBRANCH   1  11
TORSDOF 15
ENDMDL
MODEL 5
REMARK VINA RESULT:    -3.819      6.953     12.154
REMARK INTER + INTRA:          -8.174
REMARK INTER:                  -6.178
REMARK INTRA:                  -1.996
REMARK UNBOUND:                -1.007
REMARK SMILES O=C([O-])CCCCCCCCCCCCCCC(=O)[O-]
REMARK SMILES IDX 10 1 9 2 8 3 7 4 6 5 5 6 4 7 2 8 1 9 3 10 11 11 12 12 13 13
REMARK SMILES IDX 14 14 15 15 16 16 17 17 18 18 19 19 20 20
REMARK H PARENT
REMARK Flexibility Score: inf
ROOT
ATOM      1  C   UNL     1     -22.983 -13.978  41.922  1.00  0.00     0.000 C 
ENDROOT
BRANCH   1   2
ATOM      2  C   UNL     1     -21.896 -14.761  41.168  1.00  0.00     0.000 C 
BRANCH   2   3
ATOM      3  C   UNL     1     -20.656 -13.907  40.862  1.00  0.00     0.000 C 
BRANCH   3   4
ATOM      4  C   UNL     1     -20.883 -12.445  41.267  1.00  0.00     0.000 C 
BRANCH   4   5
ATOM      5  C   UNL     1     -20.878 -11.526  40.037  1.00  0.00     0.000 C 
BRANCH   5   6
ATOM      6  C   UNL     1     -22.292 -11.133  39.571  1.00  0.00     0.006 C 
BRANCH   6   7
ATOM      7  C   UNL     1     -22.629 -11.592  38.141  1.00  0.00     0.053 C 
BRANCH   7   8
ATOM      8  C   UNL     1     -22.980 -13.047  38.067  1.00  0.00     0.041 C 
ATOM      9  O   UNL     1     -22.173 -13.870  37.561  1.00  0.00    -0.550 OA
ATOM     10  O   UNL     1     -24.213 -13.489  38.528  1.00  0.00    -0.550 OA
ENDBRANCH   7   8
ENDBRANCH   6   7
ENDBRANCH   5   6
ENDBRANCH   4   5
ENDBRANCH   3   4
ENDBRANCH   2   3
ENDBRANCH   1   2
BRANCH   1  11
ATOM     11  C   UNL     1     -23.437 -14.682  43.209  1.00  0.00     0.000 C 
BRANCH  11  12
ATOM     12  C   UNL     1     -22.571 -15.920  43.488  1.00  0.00     0.000 C 
BRANCH  12  13
ATOM     13  C   UNL     1     -21.755 -15.795  44.786  1.00  0.00     0.000 C 
BRANCH  13  14
ATOM     14  C   UNL     1     -20.278 -15.453  44.525  1.00  0.00     0.000 C 
BRANCH  14  15
ATOM     15  C   UNL     1     -19.985 -13.947  44.616  1.00  0.00     0.000 C 
BRANCH  15  16
ATOM     16  C   UNL     1     -19.455 -13.457  45.979  1.00  0.00     0.006 C 
BRANCH  16  17
ATOM     17  C   UNL     1     -20.558 -13.067  46.980  1.00  0.00     0.053 C 
BRANCH  17  18
ATOM     18  C   UNL     1     -20.256 -11.788  47.702  1.00  0.00     0.041 C 
ATOM     19  O   UNL     1     -19.114 -11.591  48.197  1.00  0.00    -0.550 OA
ATOM     20  O   UNL     1     -21.248 -10.830  47.866  1.00  0.00    -0.550 OA
ENDBRANCH  17  18
ENDBRANCH  16  17
ENDBRANCH  15  16
ENDBRANCH  14  15
ENDBRANCH  13  14
ENDBRANCH  12  13
ENDBRANCH  11  12
ENDBRANCH   1  11
TORSDOF 15
ENDMDL
MODEL 6
REMARK VINA RESULT:    -3.806      6.942     11.222
REMARK INTER + INTRA:          -8.151
REMARK INTER:                  -6.665
REMARK INTRA:                  -1.486
REMARK UNBOUND:                -1.007
REMARK SMILES O=C([O-])CCCCCCCCCCCCCCC(=O)[O-]
REMARK SMILES IDX 10 1 9 2 8 3 7 4 6 5 5 6 4 7 2 8 1 9 3 10 11 11 12 12 13 13
REMARK SMILES IDX 14 14 15 15 16 16 17 17 18 18 19 19 20 20
REMARK H PARENT
REMARK Flexibility Score: inf
ROOT
ATOM      1  C   UNL     1     -22.962 -13.988  41.883  1.00  0.00     0.000 C 
ENDROOT
BRANCH   1   2
ATOM      2  C   UNL     1     -21.831 -14.753  41.178  1.00  0.00     0.000 C 
BRANCH   2   3
ATOM      3  C   UNL     1     -20.697 -13.831  40.705  1.00  0.00     0.000 C 
BRANCH   3   4
ATOM      4  C   UNL     1     -20.902 -12.401  41.223  1.00  0.00     0.000 C 
BRANCH   4   5
ATOM      5  C   UNL     1     -20.946 -11.396  40.062  1.00  0.00     0.000 C 
BRANCH   5   6
ATOM      6  C   UNL     1     -22.373 -11.118  39.558  1.00  0.00     0.006 C 
BRANCH   6   7
ATOM      7  C   UNL     1     -22.634 -11.601  38.120  1.00  0.00     0.053 C 
BRANCH   7   8
ATOM      8  C   UNL     1     -23.047 -13.040  38.057  1.00  0.00     0.041 C 
ATOM      9  O   UNL     1     -24.150 -13.407  38.540  1.00  0.00    -0.550 OA
ATOM     10  O   UNL     1     -22.197 -13.982  37.492  1.00  0.00    -0.550 OA
ENDBRANCH   7   8
ENDBRANCH   6   7
ENDBRANCH   5   6
ENDBRANCH   4   5
ENDBRANCH   3   4
ENDBRANCH   2   3
ENDBRANCH   1   2
BRANCH   1  11
ATOM     11  C   UNL     1     -23.393 -14.649  43.201  1.00  0.00     0.000 C 
BRANCH  11  12
ATOM     12  C   UNL     1     -22.508 -15.864  43.517  1.00  0.00     0.000 C 
BRANCH  12  13
ATOM     13  C   UNL     1     -21.561 -15.619  44.703  1.00  0.00     0.000 C 
BRANCH  13  14
ATOM     14  C   UNL     1     -22.296 -15.620  46.055  1.00  0.00     0.000 C 
BRANCH  14  15
ATOM     15  C   UNL     1     -22.247 -14.257  46.766  1.00  0.00     0.000 C 
BRANCH  15  16
ATOM     16  C   UNL     1     -23.336 -14.028  47.834  1.00  0.00     0.006 C 
BRANCH  16  17
ATOM     17  C   UNL     1     -24.186 -12.765  47.605  1.00  0.00     0.053 C 
BRANCH  17  18
ATOM     18  C   UNL     1     -25.499 -13.065  46.946  1.00  0.00     0.041 C 
ATOM     19  O   UNL     1     -26.371 -13.747  47.547  1.00  0.00    -0.550 OA
ATOM     20  O   UNL     1     -25.744 -12.627  45.650  1.00  0.00    -0.550 OA
ENDBRANCH  17  18
ENDBRANCH  16  17
ENDBRANCH  15  16
ENDBRANCH  14  15
ENDBRANCH  13  14
ENDBRANCH  12  13
ENDBRANCH  11  12
ENDBRANCH   1  11
TORSDOF 15
ENDMDL
MODEL 7
REMARK VINA RESULT:    -3.748      6.737     10.835
REMARK INTER + INTRA:          -8.041
REMARK INTER:                  -6.325
REMARK INTRA:                  -1.717
REMARK UNBOUND:                -1.007
REMARK SMILES O=C([O-])CCCCCCCCCCCCCCC(=O)[O-]
REMARK SMILES IDX 10 1 9 2 8 3 7 4 6 5 5 6 4 7 2 8 1 9 3 10 11 11 12 12 13 13
REMARK SMILES IDX 14 14 15 15 16 16 17 17 18 18 19 19 20 20
REMARK H PARENT
REMARK Flexibility Score: inf
ROOT
ATOM      1  C   UNL     1     -22.902 -13.851  41.940  1.00  0.00     0.000 C 
ENDROOT
BRANCH   1   2
ATOM      2  C   UNL     1     -23.413 -14.676  43.132  1.00  0.00     0.000 C 
BRANCH   2   3
ATOM      3  C   UNL     1     -22.493 -15.859  43.471  1.00  0.00     0.000 C 
BRANCH   3   4
ATOM      4  C   UNL     1     -21.461 -15.464  44.535  1.00  0.00     0.000 C 
BRANCH   4   5
ATOM      5  C   UNL     1     -22.020 -15.674  45.949  1.00  0.00     0.000 C 
BRANCH   5   6
ATOM      6  C   UNL     1     -22.150 -14.365  46.748  1.00  0.00     0.006 C 
BRANCH   6   7
ATOM      7  C   UNL     1     -23.605 -13.927  46.997  1.00  0.00     0.053 C 
BRANCH   7   8
ATOM      8  C   UNL     1     -24.149 -14.436  48.297  1.00  0.00     0.041 C 
ATOM      9  O   UNL     1     -25.387 -14.404  48.524  1.00  0.00    -0.550 OA
ATOM     10  O   UNL     1     -23.284 -14.915  49.272  1.00  0.00    -0.550 OA
ENDBRANCH   7   8
ENDBRANCH   6   7
ENDBRANCH   5   6
ENDBRANCH   4   5
ENDBRANCH   3   4
ENDBRANCH   2   3
ENDBRANCH   1   2
BRANCH   1  11
ATOM     11  C   UNL     1     -22.021 -14.672  40.985  1.00  0.00     0.000 C 
BRANCH  11  12
ATOM     12  C   UNL     1     -20.737 -13.906  40.634  1.00  0.00     0.000 C 
BRANCH  12  13
ATOM     13  C   UNL     1     -20.472 -12.722  41.577  1.00  0.00     0.000 C 
BRANCH  13  14
ATOM     14  C   UNL     1     -20.354 -11.384  40.826  1.00  0.00     0.000 C 
BRANCH  14  15
ATOM     15  C   UNL     1     -21.010 -11.416  39.436  1.00  0.00     0.000 C 
BRANCH  15  16
ATOM     16  C   UNL     1     -22.489 -10.982  39.392  1.00  0.00     0.006 C 
BRANCH  16  17
ATOM     17  C   UNL     1     -23.426 -12.007  38.726  1.00  0.00     0.053 C 
BRANCH  17  18
ATOM     18  C   UNL     1     -22.883 -12.528  37.429  1.00  0.00     0.041 C 
ATOM     19  O   UNL     1     -22.964 -11.834  36.381  1.00  0.00    -0.550 OA
ATOM     20  O   UNL     1     -22.323 -13.798  37.368  1.00  0.00    -0.550 OA
ENDBRANCH  17  18
ENDBRANCH  16  17
ENDBRANCH  15  16
ENDBRANCH  14  15
ENDBRANCH  13  14
ENDBRANCH  12  13
ENDBRANCH  11  12
ENDBRANCH   1  11
TORSDOF 15
ENDMDL
MODEL 8
REMARK VINA RESULT:    -3.720      7.013     10.758
REMARK INTER + INTRA:          -7.989
REMARK INTER:                  -6.249
REMARK INTRA:                  -1.740
REMARK UNBOUND:                -1.007
REMARK SMILES O=C([O-])CCCCCCCCCCCCCCC(=O)[O-]
REMARK SMILES IDX 10 1 9 2 8 3 7 4 6 5 5 6 4 7 2 8 1 9 3 10 11 11 12 12 13 13
REMARK SMILES IDX 14 14 15 15 16 16 17 17 18 18 19 19 20 20
REMARK H PARENT
REMARK Flexibility Score: inf
ROOT
ATOM      1  C   UNL     1     -23.082 -13.956  41.936  1.00  0.00     0.000 C 
ENDROOT
BRANCH   1   2
ATOM      2  C   UNL     1     -23.483 -14.696  43.223  1.00  0.00     0.000 C 
BRANCH   2   3
ATOM      3  C   UNL     1     -22.525 -15.847  43.566  1.00  0.00     0.000 C 
BRANCH   3   4
ATOM      4  C   UNL     1     -22.005 -15.718  45.003  1.00  0.00     0.000 C 
BRANCH   4   5
ATOM      5  C   UNL     1     -20.953 -14.605  45.110  1.00  0.00     0.000 C 
BRANCH   5   6
ATOM      6  C   UNL     1     -20.271 -14.549  46.489  1.00  0.00     0.006 C 
BRANCH   6   7
ATOM      7  C   UNL     1     -21.249 -14.371  47.664  1.00  0.00     0.053 C 
BRANCH   7   8
ATOM      8  C   UNL     1     -21.963 -13.053  47.630  1.00  0.00     0.041 C 
ATOM      9  O   UNL     1     -21.312 -11.976  47.655  1.00  0.00    -0.550 OA
ATOM     10  O   UNL     1     -23.351 -13.016  47.602  1.00  0.00    -0.550 OA
ENDBRANCH   7   8
ENDBRANCH   6   7
ENDBRANCH   5   6
ENDBRANCH   4   5
ENDBRANCH   3   4
ENDBRANCH   2   3
ENDBRANCH   1   2
BRANCH   1  11
ATOM     11  C   UNL     1     -21.669 -14.322  41.457  1.00  0.00     0.000 C 
BRANCH  11  12
ATOM     12  C   UNL     1     -20.713 -13.130  41.615  1.00  0.00     0.000 C 
BRANCH  12  13
ATOM     13  C   UNL     1     -19.839 -12.899  40.371  1.00  0.00     0.000 C 
BRANCH  13  14
ATOM     14  C   UNL     1     -20.182 -11.587  39.644  1.00  0.00     0.000 C 
BRANCH  14  15
ATOM     15  C   UNL     1     -21.520 -10.981  40.098  1.00  0.00     0.000 C 
BRANCH  15  16
ATOM     16  C   UNL     1     -22.659 -11.039  39.061  1.00  0.00     0.006 C 
BRANCH  16  17
ATOM     17  C   UNL     1     -22.397 -12.008  37.893  1.00  0.00     0.053 C 
BRANCH  17  18
ATOM     18  C   UNL     1     -23.004 -13.360  38.119  1.00  0.00     0.041 C 
ATOM     19  O   UNL     1     -24.183 -13.465  38.548  1.00  0.00    -0.550 OA
ATOM     20  O   UNL     1     -22.251 -14.507  37.895  1.00  0.00    -0.550 OA
ENDBRANCH  17  18
ENDBRANCH  16  17
ENDBRANCH  15  16
ENDBRANCH  14  15
ENDBRANCH  13  14
ENDBRANCH  12  13
ENDBRANCH  11  12
ENDBRANCH   1  11
TORSDOF 15
ENDMDL
MODEL 9
REMARK VINA RESULT:    -3.710      7.680     11.018
REMARK INTER + INTRA:          -7.971
REMARK INTER:                  -6.528
REMARK INTRA:                  -1.442
REMARK UNBOUND:                -1.007
REMARK SMILES O=C([O-])CCCCCCCCCCCCCCC(=O)[O-]
REMARK SMILES IDX 10 1 9 2 8 3 7 4 6 5 5 6 4 7 2 8 1 9 3 10 11 11 12 12 13 13
REMARK SMILES IDX 14 14 15 15 16 16 17 17 18 18 19 19 20 20
REMARK H PARENT
REMARK Flexibility Score: inf
ROOT
ATOM      1  C   UNL     1     -22.089 -15.367  43.400  1.00  0.00     0.000 C 
ENDROOT
BRANCH   1   2
ATOM      2  C   UNL     1     -23.276 -14.614  42.776  1.00  0.00     0.000 C 
BRANCH   2   3
ATOM      3  C   UNL     1     -22.995 -14.157  41.337  1.00  0.00     0.000 C 
BRANCH   3   4
ATOM      4  C   UNL     1     -21.673 -14.741  40.823  1.00  0.00     0.000 C 
BRANCH   4   5
ATOM      5  C   UNL     1     -20.700 -13.626  40.415  1.00  0.00     0.000 C 
BRANCH   5   6
ATOM      6  C   UNL     1     -21.112 -12.241  40.945  1.00  0.00     0.006 C 
BRANCH   6   7
ATOM      7  C   UNL     1     -21.194 -11.153  39.858  1.00  0.00     0.053 C 
BRANCH   7   8
ATOM      8  C   UNL     1     -22.580 -10.977  39.317  1.00  0.00     0.041 C 
ATOM      9  O   UNL     1     -22.944 -11.600  38.286  1.00  0.00    -0.550 OA
ATOM     10  O   UNL     1     -23.460 -10.098  39.935  1.00  0.00    -0.550 OA
ENDBRANCH   7   8
ENDBRANCH   6   7
ENDBRANCH   5   6
ENDBRANCH   4   5
ENDBRANCH   3   4
ENDBRANCH   2   3
ENDBRANCH   1   2
BRANCH   1  11
ATOM     11  C   UNL     1     -22.317 -15.711  44.880  1.00  0.00     0.000 C 
BRANCH  11  12
ATOM     12  C   UNL     1     -21.222 -15.091  45.760  1.00  0.00     0.000 C 
BRANCH  12  13
ATOM     13  C   UNL     1     -21.761 -14.003  46.703  1.00  0.00     0.000 C 
BRANCH  13  14
ATOM     14  C   UNL     1     -23.186 -14.306  47.200  1.00  0.00     0.000 C 
BRANCH  14  15
ATOM     15  C   UNL     1     -23.875 -13.082  47.828  1.00  0.00     0.000 C 
BRANCH  15  16
ATOM     16  C   UNL     1     -25.050 -12.498  47.018  1.00  0.00     0.006 C 
BRANCH  16  17
ATOM     17  C   UNL     1     -25.273 -13.176  45.654  1.00  0.00     0.053 C 
BRANCH  17  18
ATOM     18  C   UNL     1     -26.377 -12.537  44.865  1.00  0.00     0.041 C 
ATOM     19  O   UNL     1     -27.365 -13.220  44.487  1.00  0.00    -0.550 OA
ATOM     20  O   UNL     1     -26.295 -11.196  44.512  1.00  0.00    -0.550 OA
ENDBRANCH  17  18
ENDBRANCH  16  17
ENDBRANCH  15  16
ENDBRANCH  14  15
ENDBRANCH  13  14
ENDBRANCH  12  13
ENDBRANCH  11  12
ENDBRANCH   1  11
TORSDOF 15
ENDMDL
