MODEL 1
REMARK VINA RESULT:    -4.331      0.000      0.000
REMARK INTER + INTRA:          -5.042
REMARK INTER:                  -4.964
REMARK INTRA:                  -0.077
REMARK UNBOUND:                -0.077
REMARK SMILES COc1cc(C=O)ccc1O
REMARK SMILES IDX 3 1 10 2 9 3 8 4 5 5 4 6 2 7 1 8 11 9 6 11 7 12
REMARK H PARENT 11 10
REMARK Flexibility Score: inf
ROOT
ATOM      1  C   UNL     1     255.063 -23.614  43.297  1.00  0.00     0.161 A 
ATOM      2  C   UNL     1     255.871 -22.637  42.686  1.00  0.00     0.157 A 
ATOM      3  C   UNL     1     257.035 -23.014  42.011  1.00  0.00     0.051 A 
ATOM      4  C   UNL     1     257.407 -24.357  41.937  1.00  0.00     0.015 A 
ATOM      5  C   UNL     1     256.614 -25.345  42.541  1.00  0.00     0.018 A 
ATOM      6  C   UNL     1     255.445 -24.969  43.220  1.00  0.00     0.062 A 
ENDROOT
BRANCH   1   7
ATOM      7  O   UNL     1     253.899 -23.207  43.970  1.00  0.00    -0.493 OA
ATOM      8  C   UNL     1     252.585 -23.283  43.429  1.00  0.00     0.278 C 
ENDBRANCH   1   7
BRANCH   2   9
ATOM      9  O   UNL     1     255.531 -21.285  42.740  1.00  0.00    -0.504 OA
ATOM     10  H   UNL     1     254.694 -20.920  42.301  1.00  0.00     0.293 HD
ENDBRANCH   2   9
BRANCH   5  11
ATOM     11  C   UNL     1     256.991 -26.769  42.473  1.00  0.00     0.260 C 
ATOM     12  O   UNL     1     258.195 -27.117  42.332  1.00  0.00    -0.298 OA
ENDBRANCH   5  11
TORSDOF 3
ENDMDL
MODEL 2
REMARK VINA RESULT:    -4.194     17.489     18.127
REMARK INTER + INTRA:          -4.884
REMARK INTER:                  -4.827
REMARK INTRA:                  -0.058
REMARK UNBOUND:                -0.077
REMARK SMILES COc1cc(C=O)ccc1O
REMARK SMILES IDX 3 1 10 2 9 3 8 4 5 5 4 6 2 7 1 8 11 9 6 11 7 12
REMARK H PARENT 11 10
REMARK Flexibility Score: inf
ROOT
ATOM      1  C   UNL     1     260.289 -27.831  60.700  1.00  0.00     0.161 A 
ATOM      2  C   UNL     1     258.897 -27.814  60.905  1.00  0.00     0.157 A 
ATOM      3  C   UNL     1     258.033 -28.215  59.882  1.00  0.00     0.051 A 
ATOM      4  C   UNL     1     258.540 -28.634  58.651  1.00  0.00     0.015 A 
ATOM      5  C   UNL     1     259.926 -28.656  58.428  1.00  0.00     0.018 A 
ATOM      6  C   UNL     1     260.795 -28.254  59.454  1.00  0.00     0.062 A 
ENDROOT
BRANCH   1   7
ATOM      7  O   UNL     1     261.133 -27.422  61.745  1.00  0.00    -0.493 OA
ATOM      8  C   UNL     1     262.436 -26.878  61.566  1.00  0.00     0.278 C 
ENDBRANCH   1   7
BRANCH   2   9
ATOM      9  O   UNL     1     258.354 -27.402  62.122  1.00  0.00    -0.504 OA
ATOM     10  H   UNL     1     257.923 -26.493  62.241  1.00  0.00     0.293 HD
ENDBRANCH   2   9
BRANCH   5  11
ATOM     11  C   UNL     1     260.481 -29.095  57.134  1.00  0.00     0.260 C 
ATOM     12  O   UNL     1     259.758 -29.155  56.103  1.00  0.00    -0.298 OA
ENDBRANCH   5  11
TORSDOF 3
ENDMDL
MODEL 3
REMARK VINA RESULT:    -4.130      8.873     10.115
REMARK INTER + INTRA:          -4.811
REMARK INTER:                  -4.737
REMARK INTRA:                  -0.073
REMARK UNBOUND:                -0.077
REMARK SMILES COc1cc(C=O)ccc1O
REMARK SMILES IDX 3 1 10 2 9 3 8 4 5 5 4 6 2 7 1 8 11 9 6 11 7 12
REMARK H PARENT 11 10
REMARK Flexibility Score: inf
ROOT
ATOM      1  C   UNL     1     253.160 -24.437  51.155  1.00  0.00     0.161 A 
ATOM      2  C   UNL     1     253.331 -25.714  50.591  1.00  0.00     0.157 A 
ATOM      3  C   UNL     1     253.772 -26.777  51.385  1.00  0.00     0.051 A 
ATOM      4  C   UNL     1     254.046 -26.582  52.739  1.00  0.00     0.015 A 
ATOM      5  C   UNL     1     253.881 -25.315  53.319  1.00  0.00     0.018 A 
ATOM      6  C   UNL     1     253.439 -24.247  52.524  1.00  0.00     0.062 A 
ENDROOT
BRANCH   1   7
ATOM      7  O   UNL     1     252.716 -23.388  50.334  1.00  0.00    -0.493 OA
ATOM      8  C   UNL     1     253.554 -22.365  49.805  1.00  0.00     0.278 C 
ENDBRANCH   1   7
BRANCH   2   9
ATOM      9  O   UNL     1     253.068 -25.947  49.241  1.00  0.00    -0.504 OA
ATOM     10  H   UNL     1     253.326 -25.286  48.518  1.00  0.00     0.293 HD
ENDBRANCH   2   9
BRANCH   5  11
ATOM     11  C   UNL     1     254.165 -25.089  54.749  1.00  0.00     0.260 C 
ATOM     12  O   UNL     1     253.255 -24.735  55.545  1.00  0.00    -0.298 OA
ENDBRANCH   5  11
TORSDOF 3
ENDMDL
MODEL 4
REMARK VINA RESULT:    -4.104     17.318     18.205
REMARK INTER + INTRA:          -4.781
REMARK INTER:                  -4.708
REMARK INTRA:                  -0.073
REMARK UNBOUND:                -0.077
REMARK SMILES COc1cc(C=O)ccc1O
REMARK SMILES IDX 3 1 10 2 9 3 8 4 5 5 4 6 2 7 1 8 11 9 6 11 7 12
REMARK H PARENT 11 10
REMARK Flexibility Score: inf
ROOT
ATOM      1  C   UNL     1     261.692 -27.604  58.964  1.00  0.00     0.161 A 
ATOM      2  C   UNL     1     261.455 -28.720  58.141  1.00  0.00     0.157 A 
ATOM      3  C   UNL     1     260.221 -29.376  58.188  1.00  0.00     0.051 A 
ATOM      4  C   UNL     1     259.217 -28.933  59.050  1.00  0.00     0.015 A 
ATOM      5  C   UNL     1     259.436 -27.821  59.879  1.00  0.00     0.018 A 
ATOM      6  C   UNL     1     260.674 -27.162  59.833  1.00  0.00     0.062 A 
ENDROOT
BRANCH   1   7
ATOM      7  O   UNL     1     262.941 -26.965  58.896  1.00  0.00    -0.493 OA
ATOM      8  C   UNL     1     263.997 -27.151  59.832  1.00  0.00     0.278 C 
ENDBRANCH   1   7
BRANCH   2   9
ATOM      9  O   UNL     1     262.435 -29.192  57.267  1.00  0.00    -0.504 OA
ATOM     10  H   UNL     1     263.300 -28.692  57.104  1.00  0.00     0.293 HD
ENDBRANCH   2   9
BRANCH   5  11
ATOM     11  C   UNL     1     258.387 -27.338  60.797  1.00  0.00     0.260 C 
ATOM     12  O   UNL     1     258.564 -27.340  62.045  1.00  0.00    -0.298 OA
ENDBRANCH   5  11
TORSDOF 3
ENDMDL
MODEL 5
REMARK VINA RESULT:    -4.064      1.394      3.824
REMARK INTER + INTRA:          -4.735
REMARK INTER:                  -4.662
REMARK INTRA:                  -0.073
REMARK UNBOUND:                -0.077
REMARK SMILES COc1cc(C=O)ccc1O
REMARK SMILES IDX 3 1 10 2 9 3 8 4 5 5 4 6 2 7 1 8 11 9 6 11 7 12
REMARK H PARENT 11 10
REMARK Flexibility Score: inf
ROOT
ATOM      1  C   UNL     1     255.107 -24.500  43.318  1.00  0.00     0.161 A 
ATOM      2  C   UNL     1     256.289 -25.090  42.835  1.00  0.00     0.157 A 
ATOM      3  C   UNL     1     257.213 -24.323  42.119  1.00  0.00     0.051 A 
ATOM      4  C   UNL     1     256.972 -22.971  41.875  1.00  0.00     0.015 A 
ATOM      5  C   UNL     1     255.798 -22.365  42.348  1.00  0.00     0.018 A 
ATOM      6  C   UNL     1     254.869 -23.133  43.067  1.00  0.00     0.062 A 
ENDROOT
BRANCH   1   7
ATOM      7  O   UNL     1     254.196 -25.293  44.034  1.00  0.00    -0.493 OA
ATOM      8  C   UNL     1     253.965 -25.194  45.435  1.00  0.00     0.278 C 
ENDBRANCH   1   7
BRANCH   2   9
ATOM      9  O   UNL     1     256.564 -26.439  43.059  1.00  0.00    -0.504 OA
ATOM     10  H   UNL     1     257.296 -26.744  43.690  1.00  0.00     0.293 HD
ENDBRANCH   2   9
BRANCH   5  11
ATOM     11  C   UNL     1     255.525 -20.937  42.100  1.00  0.00     0.260 C 
ATOM     12  O   UNL     1     254.869 -20.247  42.926  1.00  0.00    -0.298 OA
ENDBRANCH   5  11
TORSDOF 3
ENDMDL
MODEL 6
REMARK VINA RESULT:    -3.974      7.338      8.227
REMARK INTER + INTRA:          -4.632
REMARK INTER:                  -4.559
REMARK INTRA:                  -0.073
REMARK UNBOUND:                -0.077
REMARK SMILES COc1cc(C=O)ccc1O
REMARK SMILES IDX 3 1 10 2 9 3 8 4 5 5 4 6 2 7 1 8 11 9 6 11 7 12
REMARK H PARENT 11 10
REMARK Flexibility Score: inf
ROOT
ATOM      1  C   UNL     1     253.244 -24.472  49.603  1.00  0.00     0.161 A 
ATOM      2  C   UNL     1     254.031 -23.879  50.607  1.00  0.00     0.157 A 
ATOM      3  C   UNL     1     254.455 -24.635  51.703  1.00  0.00     0.051 A 
ATOM      4  C   UNL     1     254.103 -25.981  51.812  1.00  0.00     0.015 A 
ATOM      5  C   UNL     1     253.319 -26.590  50.820  1.00  0.00     0.018 A 
ATOM      6  C   UNL     1     252.891 -25.832  49.719  1.00  0.00     0.062 A 
ENDROOT
BRANCH   1   7
ATOM      7  O   UNL     1     252.832 -23.688  48.513  1.00  0.00    -0.493 OA
ATOM      8  C   UNL     1     251.534 -23.122  48.369  1.00  0.00     0.278 C 
ENDBRANCH   1   7
BRANCH   2   9
ATOM      9  O   UNL     1     254.402 -22.536  50.532  1.00  0.00    -0.504 OA
ATOM     10  H   UNL     1     255.237 -22.180  50.981  1.00  0.00     0.293 HD
ENDBRANCH   2   9
BRANCH   5  11
ATOM     11  C   UNL     1     252.936 -28.011  50.919  1.00  0.00     0.260 C 
ATOM     12  O   UNL     1     253.571 -28.900  50.289  1.00  0.00    -0.298 OA
ENDBRANCH   5  11
TORSDOF 3
ENDMDL
MODEL 7
REMARK VINA RESULT:    -3.943     14.438     15.143
REMARK INTER + INTRA:          -4.597
REMARK INTER:                  -4.541
REMARK INTRA:                  -0.056
REMARK UNBOUND:                -0.077
REMARK SMILES COc1cc(C=O)ccc1O
REMARK SMILES IDX 3 1 10 2 9 3 8 4 5 5 4 6 2 7 1 8 11 9 6 11 7 12
REMARK H PARENT 11 10
REMARK Flexibility Score: inf
ROOT
ATOM      1  C   UNL     1     259.867 -28.257  55.573  1.00  0.00     0.161 A 
ATOM      2  C   UNL     1     260.945 -27.362  55.449  1.00  0.00     0.157 A 
ATOM      3  C   UNL     1     261.387 -26.640  56.561  1.00  0.00     0.051 A 
ATOM      4  C   UNL     1     260.766 -26.799  57.801  1.00  0.00     0.015 A 
ATOM      5  C   UNL     1     259.688 -27.687  57.943  1.00  0.00     0.018 A 
ATOM      6  C   UNL     1     259.243 -28.412  56.827  1.00  0.00     0.062 A 
ENDROOT
BRANCH   1   7
ATOM      7  O   UNL     1     259.444 -28.969  54.439  1.00  0.00    -0.493 OA
ATOM      8  C   UNL     1     258.101 -29.372  54.192  1.00  0.00     0.278 C 
ENDBRANCH   1   7
BRANCH   2   9
ATOM      9  O   UNL     1     261.591 -27.177  54.227  1.00  0.00    -0.504 OA
ATOM     10  H   UNL     1     262.402 -26.576  54.129  1.00  0.00     0.293 HD
ENDBRANCH   2   9
BRANCH   5  11
ATOM     11  C   UNL     1     259.018 -27.868  59.244  1.00  0.00     0.260 C 
ATOM     12  O   UNL     1     258.061 -28.677  59.376  1.00  0.00    -0.298 OA
ENDBRANCH   5  11
TORSDOF 3
ENDMDL
MODEL 8
REMARK VINA RESULT:    -3.917     15.882     16.756
REMARK INTER + INTRA:          -4.567
REMARK INTER:                  -4.515
REMARK INTRA:                  -0.052
REMARK UNBOUND:                -0.077
REMARK SMILES COc1cc(C=O)ccc1O
REMARK SMILES IDX 3 1 10 2 9 3 8 4 5 5 4 6 2 7 1 8 11 9 6 11 7 12
REMARK H PARENT 11 10
REMARK Flexibility Score: inf
ROOT
ATOM      1  C   UNL     1     262.087 -28.534  57.289  1.00  0.00     0.161 A 
ATOM      2  C   UNL     1     261.833 -27.482  56.390  1.00  0.00     0.157 A 
ATOM      3  C   UNL     1     260.609 -26.808  56.429  1.00  0.00     0.051 A 
ATOM      4  C   UNL     1     259.631 -27.169  57.356  1.00  0.00     0.015 A 
ATOM      5  C   UNL     1     259.866 -28.216  58.260  1.00  0.00     0.018 A 
ATOM      6  C   UNL     1     261.094 -28.895  58.223  1.00  0.00     0.062 A 
ENDROOT
BRANCH   1   7
ATOM      7  O   UNL     1     263.324 -29.195  57.227  1.00  0.00    -0.493 OA
ATOM      8  C   UNL     1     264.498 -28.779  57.916  1.00  0.00     0.278 C 
ENDBRANCH   1   7
BRANCH   2   9
ATOM      9  O   UNL     1     262.786 -27.093  55.449  1.00  0.00    -0.504 OA
ATOM     10  H   UNL     1     262.628 -27.178  54.452  1.00  0.00     0.293 HD
ENDBRANCH   2   9
BRANCH   5  11
ATOM     11  C   UNL     1     258.845 -28.613  59.247  1.00  0.00     0.260 C 
ATOM     12  O   UNL     1     259.172 -29.113  60.357  1.00  0.00    -0.298 OA
ENDBRANCH   5  11
TORSDOF 3
ENDMDL
MODEL 9
REMARK VINA RESULT:    -3.852     17.902     18.528
REMARK INTER + INTRA:          -4.492
REMARK INTER:                  -4.419
REMARK INTRA:                  -0.072
REMARK UNBOUND:                -0.077
REMARK SMILES COc1cc(C=O)ccc1O
REMARK SMILES IDX 3 1 10 2 9 3 8 4 5 5 4 6 2 7 1 8 11 9 6 11 7 12
REMARK H PARENT 11 10
REMARK Flexibility Score: inf
ROOT
ATOM      1  C   UNL     1     259.908 -27.729  59.197  1.00  0.00     0.161 A 
ATOM      2  C   UNL     1     258.968 -28.352  60.037  1.00  0.00     0.157 A 
ATOM      3  C   UNL     1     259.266 -28.564  61.386  1.00  0.00     0.051 A 
ATOM      4  C   UNL     1     260.494 -28.162  61.911  1.00  0.00     0.015 A 
ATOM      5  C   UNL     1     261.445 -27.538  61.088  1.00  0.00     0.018 A 
ATOM      6  C   UNL     1     261.148 -27.325  59.733  1.00  0.00     0.062 A 
ENDROOT
BRANCH   1   7
ATOM      7  O   UNL     1     259.582 -27.529  57.845  1.00  0.00    -0.493 OA
ATOM      8  C   UNL     1     259.930 -28.418  56.790  1.00  0.00     0.278 C 
ENDBRANCH   1   7
BRANCH   2   9
ATOM      9  O   UNL     1     257.729 -28.769  59.548  1.00  0.00    -0.504 OA
ATOM     10  H   UNL     1     256.902 -28.806  60.132  1.00  0.00     0.293 HD
ENDBRANCH   2   9
BRANCH   5  11
ATOM     11  C   UNL     1     262.749 -27.106  61.624  1.00  0.00     0.260 C 
ATOM     12  O   UNL     1     263.792 -27.155  60.918  1.00  0.00    -0.298 OA
ENDBRANCH   5  11
TORSDOF 3
ENDMDL
