MODEL 1
REMARK VINA RESULT:    -5.167      0.000      0.000
REMARK INTER + INTRA:          -6.360
REMARK INTER:                  -6.073
REMARK INTRA:                  -0.287
REMARK UNBOUND:                -0.287
REMARK SMILES O=c1cc(-c2ccc(O)c(O)c2)oc2cc(O)cc(O)c12
REMARK SMILES IDX 4 1 3 2 2 3 1 4 21 5 19 6 18 7 16 8 15 9 14 10 13 11 5 12
REMARK SMILES IDX 6 13 7 14 8 15 12 16 10 17 9 18 11 20 20 22 17 24
REMARK H PARENT 9 19 11 21 20 23 17 25
REMARK Flexibility Score: inf
ROOT
ATOM      1  C   UNL     1      75.349  90.171  11.342  1.00  0.00     0.138 A 
ATOM      2  C   UNL     1      75.800  90.975  12.401  1.00  0.00     0.100 A 
ATOM      3  C   UNL     1      74.973  91.981  12.901  1.00  0.00     0.197 A 
ATOM      4  O   UNL     1      75.386  92.697  13.854  1.00  0.00    -0.289 OA
ATOM      5  C   UNL     1      73.695  92.174  12.339  1.00  0.00     0.107 A 
ATOM      6  C   UNL     1      72.795  93.171  12.784  1.00  0.00     0.134 A 
ATOM      7  C   UNL     1      71.537  93.294  12.174  1.00  0.00     0.093 A 
ATOM      8  C   UNL     1      71.165  92.441  11.129  1.00  0.00     0.123 A 
ATOM      9  C   UNL     1      72.050  91.456  10.686  1.00  0.00     0.094 A 
ATOM     10  C   UNL     1      73.308  91.317  11.280  1.00  0.00     0.146 A 
ATOM     11  O   UNL     1      74.133  90.373  10.839  1.00  0.00    -0.456 OA
ENDROOT
BRANCH   1  12
ATOM     12  C   UNL     1      76.185  89.085  10.771  1.00  0.00     0.021 A 
ATOM     13  C   UNL     1      75.566  87.935  10.254  1.00  0.00     0.016 A 
ATOM     14  C   UNL     1      76.331  86.902   9.705  1.00  0.00     0.051 A 
ATOM     15  C   UNL     1      77.723  87.003   9.652  1.00  0.00     0.157 A 
ATOM     16  C   UNL     1      77.589  89.189  10.704  1.00  0.00     0.062 A 
ATOM     17  C   UNL     1      78.357  88.153  10.150  1.00  0.00     0.158 A 
BRANCH  15  18
ATOM     18  O   UNL     1      78.459  85.955   9.100  1.00  0.00    -0.504 OA
ATOM     19  H   UNL     1      79.334  86.110   8.613  1.00  0.00     0.293 HD
ENDBRANCH  15  18
BRANCH  17  20
ATOM     20  O   UNL     1      79.745  88.265  10.090  1.00  0.00    -0.504 OA
ATOM     21  H   UNL     1      80.214  89.149  10.251  1.00  0.00     0.293 HD
ENDBRANCH  17  20
ENDBRANCH   1  12
BRANCH   6  22
ATOM     22  O   UNL     1      73.138  94.034  13.824  1.00  0.00    -0.507 OA
ATOM     23  H   UNL     1      73.792  94.797  13.690  1.00  0.00     0.293 HD
ENDBRANCH   6  22
BRANCH   8  24
ATOM     24  O   UNL     1      69.916  92.563  10.523  1.00  0.00    -0.508 OA
ATOM     25  H   UNL     1      69.345  91.750  10.321  1.00  0.00     0.293 HD
ENDBRANCH   8  24
TORSDOF 5
ENDMDL
MODEL 2
REMARK VINA RESULT:    -5.148      1.740      2.627
REMARK INTER + INTRA:          -6.338
REMARK INTER:                  -6.041
REMARK INTRA:                  -0.297
REMARK UNBOUND:                -0.287
REMARK SMILES O=c1cc(-c2ccc(O)c(O)c2)oc2cc(O)cc(O)c12
REMARK SMILES IDX 4 1 3 2 2 3 1 4 21 5 19 6 18 7 16 8 15 9 14 10 13 11 5 12
REMARK SMILES IDX 6 13 7 14 8 15 12 16 10 17 9 18 11 20 20 22 17 24
REMARK H PARENT 9 19 11 21 20 23 17 25
REMARK Flexibility Score: inf
ROOT
ATOM      1  C   UNL     1      75.024  88.759  11.035  1.00  0.00     0.138 A 
ATOM      2  C   UNL     1      73.951  87.978  11.494  1.00  0.00     0.100 A 
ATOM      3  C   UNL     1      72.881  88.594  12.142  1.00  0.00     0.197 A 
ATOM      4  O   UNL     1      71.921  87.885  12.549  1.00  0.00    -0.289 OA
ATOM      5  C   UNL     1      72.889  89.992  12.324  1.00  0.00     0.107 A 
ATOM      6  C   UNL     1      71.846  90.695  12.972  1.00  0.00     0.134 A 
ATOM      7  C   UNL     1      71.928  92.090  13.108  1.00  0.00     0.093 A 
ATOM      8  C   UNL     1      73.032  92.791  12.609  1.00  0.00     0.123 A 
ATOM      9  C   UNL     1      74.064  92.101  11.970  1.00  0.00     0.094 A 
ATOM     10  C   UNL     1      74.002  90.712  11.825  1.00  0.00     0.146 A 
ATOM     11  O   UNL     1      74.998  90.078  11.214  1.00  0.00    -0.456 OA
ENDROOT
BRANCH   1  12
ATOM     12  C   UNL     1      76.189  88.158  10.336  1.00  0.00     0.021 A 
ATOM     13  C   UNL     1      75.979  87.135   9.396  1.00  0.00     0.016 A 
ATOM     14  C   UNL     1      77.057  86.558   8.721  1.00  0.00     0.051 A 
ATOM     15  C   UNL     1      78.361  86.999   8.962  1.00  0.00     0.157 A 
ATOM     16  C   UNL     1      77.504  88.608  10.567  1.00  0.00     0.062 A 
ATOM     17  C   UNL     1      78.587  88.030   9.887  1.00  0.00     0.158 A 
BRANCH  15  18
ATOM     18  O   UNL     1      79.417  86.402   8.274  1.00  0.00    -0.504 OA
ATOM     19  H   UNL     1      79.734  86.744   7.375  1.00  0.00     0.293 HD
ENDBRANCH  15  18
BRANCH  17  20
ATOM     20  O   UNL     1      79.884  88.483  10.124  1.00  0.00    -0.504 OA
ATOM     21  H   UNL     1      80.073  89.238  10.773  1.00  0.00     0.293 HD
ENDBRANCH  17  20
ENDBRANCH   1  12
BRANCH   6  22
ATOM     22  O   UNL     1      70.734  90.023  13.477  1.00  0.00    -0.507 OA
ATOM     23  H   UNL     1      70.017  90.502  14.009  1.00  0.00     0.293 HD
ENDBRANCH   6  22
BRANCH   8  24
ATOM     24  O   UNL     1      73.114  94.175  12.744  1.00  0.00    -0.508 OA
ATOM     25  H   UNL     1      72.287  94.742  12.891  1.00  0.00     0.293 HD
ENDBRANCH   8  24
TORSDOF 5
ENDMDL
MODEL 3
REMARK VINA RESULT:    -4.998     11.162     14.685
REMARK INTER + INTRA:          -6.161
REMARK INTER:                  -5.897
REMARK INTRA:                  -0.264
REMARK UNBOUND:                -0.287
REMARK SMILES O=c1cc(-c2ccc(O)c(O)c2)oc2cc(O)cc(O)c12
REMARK SMILES IDX 4 1 3 2 2 3 1 4 21 5 19 6 18 7 16 8 15 9 14 10 13 11 5 12
REMARK SMILES IDX 6 13 7 14 8 15 12 16 10 17 9 18 11 20 20 22 17 24
REMARK H PARENT 9 19 11 21 20 23 17 25
REMARK Flexibility Score: inf
ROOT
ATOM      1  C   UNL     1      68.132 101.415   7.034  1.00  0.00     0.138 A 
ATOM      2  C   UNL     1      69.017 100.332   6.915  1.00  0.00     0.100 A 
ATOM      3  C   UNL     1      69.765  99.932   8.023  1.00  0.00     0.197 A 
ATOM      4  O   UNL     1      70.557  98.957   7.908  1.00  0.00    -0.289 OA
ATOM      5  C   UNL     1      69.619 100.619   9.246  1.00  0.00     0.107 A 
ATOM      6  C   UNL     1      70.339 100.280  10.415  1.00  0.00     0.134 A 
ATOM      7  C   UNL     1      70.132 101.011  11.595  1.00  0.00     0.093 A 
ATOM      8  C   UNL     1      69.219 102.071  11.626  1.00  0.00     0.123 A 
ATOM      9  C   UNL     1      68.506 102.410  10.474  1.00  0.00     0.094 A 
ATOM     10  C   UNL     1      68.700 101.694   9.288  1.00  0.00     0.146 A 
ATOM     11  O   UNL     1      68.009 102.037   8.204  1.00  0.00    -0.456 OA
ENDROOT
BRANCH   1  12
ATOM     12  C   UNL     1      67.309 101.883   5.889  1.00  0.00     0.021 A 
ATOM     13  C   UNL     1      65.941 101.567   5.846  1.00  0.00     0.016 A 
ATOM     14  C   UNL     1      65.144 102.002   4.784  1.00  0.00     0.051 A 
ATOM     15  C   UNL     1      65.695 102.768   3.753  1.00  0.00     0.157 A 
ATOM     16  C   UNL     1      67.858 102.667   4.854  1.00  0.00     0.062 A 
ATOM     17  C   UNL     1      67.057 103.106   3.789  1.00  0.00     0.158 A 
BRANCH  15  18
ATOM     18  O   UNL     1      64.875 103.185   2.705  1.00  0.00    -0.504 OA
ATOM     19  H   UNL     1      65.203 103.224   1.748  1.00  0.00     0.293 HD
ENDBRANCH  15  18
BRANCH  17  20
ATOM     20  O   UNL     1      67.611 103.879   2.770  1.00  0.00    -0.504 OA
ATOM     21  H   UNL     1      68.397 104.496   2.938  1.00  0.00     0.293 HD
ENDBRANCH  17  20
ENDBRANCH   1  12
BRANCH   6  22
ATOM     22  O   UNL     1      71.254  99.227  10.415  1.00  0.00    -0.507 OA
ATOM     23  H   UNL     1      70.984  98.285  10.674  1.00  0.00     0.293 HD
ENDBRANCH   6  22
BRANCH   8  24
ATOM     24  O   UNL     1      69.013 102.797  12.797  1.00  0.00    -0.508 OA
ATOM     25  H   UNL     1      68.434 103.629  12.809  1.00  0.00     0.293 HD
ENDBRANCH   8  24
TORSDOF 5
ENDMDL
MODEL 4
REMARK VINA RESULT:    -4.943      1.716      7.144
REMARK INTER + INTRA:          -6.097
REMARK INTER:                  -5.810
REMARK INTRA:                  -0.287
REMARK UNBOUND:                -0.287
REMARK SMILES O=c1cc(-c2ccc(O)c(O)c2)oc2cc(O)cc(O)c12
REMARK SMILES IDX 4 1 3 2 2 3 1 4 21 5 19 6 18 7 16 8 15 9 14 10 13 11 5 12
REMARK SMILES IDX 6 13 7 14 8 15 12 16 10 17 9 18 11 20 20 22 17 24
REMARK H PARENT 9 19 11 21 20 23 17 25
REMARK Flexibility Score: inf
ROOT
ATOM      1  C   UNL     1      75.542  89.498  11.352  1.00  0.00     0.138 A 
ATOM      2  C   UNL     1      76.256  88.940  12.425  1.00  0.00     0.100 A 
ATOM      3  C   UNL     1      77.199  87.943  12.177  1.00  0.00     0.197 A 
ATOM      4  O   UNL     1      77.837  87.449  13.147  1.00  0.00    -0.289 OA
ATOM      5  C   UNL     1      77.426  87.513  10.855  1.00  0.00     0.107 A 
ATOM      6  C   UNL     1      78.363  86.507  10.517  1.00  0.00     0.134 A 
ATOM      7  C   UNL     1      78.533  86.139   9.173  1.00  0.00     0.093 A 
ATOM      8  C   UNL     1      77.785  86.757   8.164  1.00  0.00     0.123 A 
ATOM      9  C   UNL     1      76.859  87.750   8.493  1.00  0.00     0.094 A 
ATOM     10  C   UNL     1      76.674  88.130   9.826  1.00  0.00     0.146 A 
ATOM     11  O   UNL     1      75.786  89.077  10.113  1.00  0.00    -0.456 OA
ENDROOT
BRANCH   1  12
ATOM     12  C   UNL     1      74.527  90.563  11.555  1.00  0.00     0.021 A 
ATOM     13  C   UNL     1      74.864  91.706  12.300  1.00  0.00     0.016 A 
ATOM     14  C   UNL     1      73.929  92.725  12.500  1.00  0.00     0.051 A 
ATOM     15  C   UNL     1      72.648  92.628  11.951  1.00  0.00     0.157 A 
ATOM     16  C   UNL     1      73.238  90.475  10.993  1.00  0.00     0.062 A 
ATOM     17  C   UNL     1      72.300  91.500  11.191  1.00  0.00     0.158 A 
BRANCH  15  18
ATOM     18  O   UNL     1      71.736  93.660  12.169  1.00  0.00    -0.504 OA
ATOM     19  H   UNL     1      70.845  93.503  12.625  1.00  0.00     0.293 HD
ENDBRANCH  15  18
BRANCH  17  20
ATOM     20  O   UNL     1      71.027  91.401  10.632  1.00  0.00    -0.504 OA
ATOM     21  H   UNL     1      70.376  92.177  10.653  1.00  0.00     0.293 HD
ENDBRANCH  17  20
ENDBRANCH   1  12
BRANCH   6  22
ATOM     22  O   UNL     1      79.123  85.875  11.501  1.00  0.00    -0.507 OA
ATOM     23  H   UNL     1      80.079  86.149  11.695  1.00  0.00     0.293 HD
ENDBRANCH   6  22
BRANCH   8  24
ATOM     24  O   UNL     1      77.954  86.393   6.831  1.00  0.00    -0.508 OA
ATOM     25  H   UNL     1      77.165  86.319   6.198  1.00  0.00     0.293 HD
ENDBRANCH   8  24
TORSDOF 5
ENDMDL
MODEL 5
REMARK VINA RESULT:    -4.892     11.020     14.536
REMARK INTER + INTRA:          -6.036
REMARK INTER:                  -5.772
REMARK INTRA:                  -0.265
REMARK UNBOUND:                -0.287
REMARK SMILES O=c1cc(-c2ccc(O)c(O)c2)oc2cc(O)cc(O)c12
REMARK SMILES IDX 4 1 3 2 2 3 1 4 21 5 19 6 18 7 16 8 15 9 14 10 13 11 5 12
REMARK SMILES IDX 6 13 7 14 8 15 12 16 10 17 9 18 11 20 20 22 17 24
REMARK H PARENT 9 19 11 21 20 23 17 25
REMARK Flexibility Score: inf
ROOT
ATOM      1  C   UNL     1      81.128  87.317  -0.018  1.00  0.00     0.138 A 
ATOM      2  C   UNL     1      80.992  86.352  -1.029  1.00  0.00     0.100 A 
ATOM      3  C   UNL     1      81.029  86.749  -2.366  1.00  0.00     0.197 A 
ATOM      4  O   UNL     1      80.908  85.875  -3.268  1.00  0.00    -0.289 OA
ATOM      5  C   UNL     1      81.204  88.111  -2.684  1.00  0.00     0.107 A 
ATOM      6  C   UNL     1      81.251  88.597  -4.012  1.00  0.00     0.134 A 
ATOM      7  C   UNL     1      81.434  89.969  -4.243  1.00  0.00     0.093 A 
ATOM      8  C   UNL     1      81.572  90.861  -3.173  1.00  0.00     0.123 A 
ATOM      9  C   UNL     1      81.526  90.385  -1.861  1.00  0.00     0.094 A 
ATOM     10  C   UNL     1      81.343  89.022  -1.609  1.00  0.00     0.146 A 
ATOM     11  O   UNL     1      81.302  88.595  -0.351  1.00  0.00    -0.456 OA
ENDROOT
BRANCH   1  12
ATOM     12  C   UNL     1      81.099  86.953   1.421  1.00  0.00     0.021 A 
ATOM     13  C   UNL     1      82.284  87.014   2.174  1.00  0.00     0.016 A 
ATOM     14  C   UNL     1      82.282  86.683   3.531  1.00  0.00     0.051 A 
ATOM     15  C   UNL     1      81.097  86.299   4.164  1.00  0.00     0.157 A 
ATOM     16  C   UNL     1      79.904  86.577   2.066  1.00  0.00     0.062 A 
ATOM     17  C   UNL     1      79.901  86.248   3.430  1.00  0.00     0.158 A 
BRANCH  15  18
ATOM     18  O   UNL     1      81.126  85.973   5.519  1.00  0.00    -0.504 OA
ATOM     19  H   UNL     1      80.995  85.024   5.847  1.00  0.00     0.293 HD
ENDBRANCH  15  18
BRANCH  17  20
ATOM     20  O   UNL     1      78.713  85.875   4.057  1.00  0.00    -0.504 OA
ATOM     21  H   UNL     1      77.964  85.418   3.550  1.00  0.00     0.293 HD
ENDBRANCH  17  20
ENDBRANCH   1  12
BRANCH   6  22
ATOM     22  O   UNL     1      81.118  87.732  -5.098  1.00  0.00    -0.507 OA
ATOM     23  H   UNL     1      81.907  87.488  -5.685  1.00  0.00     0.293 HD
ENDBRANCH   6  22
BRANCH   8  24
ATOM     24  O   UNL     1      81.755  92.222  -3.402  1.00  0.00    -0.508 OA
ATOM     25  H   UNL     1      81.036  92.786  -3.843  1.00  0.00     0.293 HD
ENDBRANCH   8  24
TORSDOF 5
ENDMDL
MODEL 6
REMARK VINA RESULT:    -4.793     10.099     14.272
REMARK INTER + INTRA:          -5.921
REMARK INTER:                  -5.657
REMARK INTRA:                  -0.263
REMARK UNBOUND:                -0.287
REMARK SMILES O=c1cc(-c2ccc(O)c(O)c2)oc2cc(O)cc(O)c12
REMARK SMILES IDX 4 1 3 2 2 3 1 4 21 5 19 6 18 7 16 8 15 9 14 10 13 11 5 12
REMARK SMILES IDX 6 13 7 14 8 15 12 16 10 17 9 18 11 20 20 22 17 24
REMARK H PARENT 9 19 11 21 20 23 17 25
REMARK Flexibility Score: inf
ROOT
ATOM      1  C   UNL     1      67.919 101.314   7.217  1.00  0.00     0.138 A 
ATOM      2  C   UNL     1      68.225 102.155   8.299  1.00  0.00     0.100 A 
ATOM      3  C   UNL     1      68.940 101.647   9.383  1.00  0.00     0.197 A 
ATOM      4  O   UNL     1      69.212 102.410  10.350  1.00  0.00    -0.289 OA
ATOM      5  C   UNL     1      69.348 100.298   9.377  1.00  0.00     0.107 A 
ATOM      6  C   UNL     1      70.075  99.703  10.435  1.00  0.00     0.134 A 
ATOM      7  C   UNL     1      70.449  98.353  10.348  1.00  0.00     0.093 A 
ATOM      8  C   UNL     1      70.110  97.590   9.225  1.00  0.00     0.123 A 
ATOM      9  C   UNL     1      69.393  98.173   8.178  1.00  0.00     0.094 A 
ATOM     10  C   UNL     1      69.010  99.516   8.246  1.00  0.00     0.146 A 
ATOM     11  O   UNL     1      68.327 100.047   7.236  1.00  0.00    -0.456 OA
ENDROOT
BRANCH   1  12
ATOM     12  C   UNL     1      67.162 101.801   6.036  1.00  0.00     0.021 A 
ATOM     13  C   UNL     1      65.784 101.542   5.942  1.00  0.00     0.016 A 
ATOM     14  C   UNL     1      65.049 101.995   4.844  1.00  0.00     0.051 A 
ATOM     15  C   UNL     1      65.671 102.724   3.828  1.00  0.00     0.157 A 
ATOM     16  C   UNL     1      67.783 102.548   5.015  1.00  0.00     0.062 A 
ATOM     17  C   UNL     1      67.044 103.006   3.913  1.00  0.00     0.158 A 
BRANCH  15  18
ATOM     18  O   UNL     1      64.911 103.162   2.744  1.00  0.00    -0.504 OA
ATOM     19  H   UNL     1      64.583 104.117   2.667  1.00  0.00     0.293 HD
ENDBRANCH  15  18
BRANCH  17  20
ATOM     20  O   UNL     1      67.669 103.742   2.909  1.00  0.00    -0.504 OA
ATOM     21  H   UNL     1      68.380 104.433   3.120  1.00  0.00     0.293 HD
ENDBRANCH  17  20
ENDBRANCH   1  12
BRANCH   6  22
ATOM     22  O   UNL     1      70.427 100.439  11.566  1.00  0.00    -0.507 OA
ATOM     23  H   UNL     1      71.266 101.006  11.594  1.00  0.00     0.293 HD
ENDBRANCH   6  22
BRANCH   8  24
ATOM     24  O   UNL     1      70.481  96.250   9.138  1.00  0.00    -0.508 OA
ATOM     25  H   UNL     1      70.712  95.711   9.965  1.00  0.00     0.293 HD
ENDBRANCH   8  24
TORSDOF 5
ENDMDL
MODEL 7
REMARK VINA RESULT:    -4.778      1.609      6.857
REMARK INTER + INTRA:          -5.903
REMARK INTER:                  -5.615
REMARK INTRA:                  -0.288
REMARK UNBOUND:                -0.287
REMARK SMILES O=c1cc(-c2ccc(O)c(O)c2)oc2cc(O)cc(O)c12
REMARK SMILES IDX 4 1 3 2 2 3 1 4 21 5 19 6 18 7 16 8 15 9 14 10 13 11 5 12
REMARK SMILES IDX 6 13 7 14 8 15 12 16 10 17 9 18 11 20 20 22 17 24
REMARK H PARENT 9 19 11 21 20 23 17 25
REMARK Flexibility Score: inf
ROOT
ATOM      1  C   UNL     1      74.659  90.592  12.198  1.00  0.00     0.138 A 
ATOM      2  C   UNL     1      75.496  90.428  13.313  1.00  0.00     0.100 A 
ATOM      3  C   UNL     1      76.492  89.451  13.286  1.00  0.00     0.197 A 
ATOM      4  O   UNL     1      77.241  89.312  14.291  1.00  0.00    -0.289 OA
ATOM      5  C   UNL     1      76.646  88.646  12.139  1.00  0.00     0.107 A 
ATOM      6  C   UNL     1      77.628  87.633  12.030  1.00  0.00     0.134 A 
ATOM      7  C   UNL     1      77.719  86.878  10.850  1.00  0.00     0.093 A 
ATOM      8  C   UNL     1      76.848  87.117   9.781  1.00  0.00     0.123 A 
ATOM      9  C   UNL     1      75.877  88.116   9.885  1.00  0.00     0.094 A 
ATOM     10  C   UNL     1      75.769  88.878  11.052  1.00  0.00     0.146 A 
ATOM     11  O   UNL     1      74.835  89.822  11.126  1.00  0.00    -0.456 OA
ENDROOT
BRANCH   1  12
ATOM     12  C   UNL     1      73.584  91.616  12.169  1.00  0.00     0.021 A 
ATOM     13  C   UNL     1      72.422  91.379  11.414  1.00  0.00     0.016 A 
ATOM     14  C   UNL     1      71.394  92.324  11.377  1.00  0.00     0.051 A 
ATOM     15  C   UNL     1      71.500  93.514  12.101  1.00  0.00     0.157 A 
ATOM     16  C   UNL     1      73.681  92.812  12.908  1.00  0.00     0.062 A 
ATOM     17  C   UNL     1      72.646  93.760  12.873  1.00  0.00     0.158 A 
BRANCH  15  18
ATOM     18  O   UNL     1      70.457  94.439  12.043  1.00  0.00    -0.504 OA
ATOM     19  H   UNL     1      70.063  94.859  12.876  1.00  0.00     0.293 HD
ENDBRANCH  15  18
BRANCH  17  20
ATOM     20  O   UNL     1      72.754  94.940  13.606  1.00  0.00    -0.504 OA
ATOM     21  H   UNL     1      73.427  95.040  14.357  1.00  0.00     0.293 HD
ENDBRANCH  17  20
ENDBRANCH   1  12
BRANCH   6  22
ATOM     22  O   UNL     1      78.510  87.373  13.078  1.00  0.00    -0.507 OA
ATOM     23  H   UNL     1      79.377  87.887  13.186  1.00  0.00     0.293 HD
ENDBRANCH   6  22
BRANCH   8  24
ATOM     24  O   UNL     1      76.938  86.368   8.610  1.00  0.00    -0.508 OA
ATOM     25  H   UNL     1      76.689  86.762   7.710  1.00  0.00     0.293 HD
ENDBRANCH   8  24
TORSDOF 5
ENDMDL
MODEL 8
REMARK VINA RESULT:    -4.745      1.758      7.215
REMARK INTER + INTRA:          -5.864
REMARK INTER:                  -5.577
REMARK INTRA:                  -0.287
REMARK UNBOUND:                -0.287
REMARK SMILES O=c1cc(-c2ccc(O)c(O)c2)oc2cc(O)cc(O)c12
REMARK SMILES IDX 4 1 3 2 2 3 1 4 21 5 19 6 18 7 16 8 15 9 14 10 13 11 5 12
REMARK SMILES IDX 6 13 7 14 8 15 12 16 10 17 9 18 11 20 20 22 17 24
REMARK H PARENT 9 19 11 21 20 23 17 25
REMARK Flexibility Score: inf
ROOT
ATOM      1  C   UNL     1      73.404  90.587  11.731  1.00  0.00     0.138 A 
ATOM      2  C   UNL     1      72.831  89.319  11.920  1.00  0.00     0.100 A 
ATOM      3  C   UNL     1      73.619  88.179  11.760  1.00  0.00     0.197 A 
ATOM      4  O   UNL     1      73.097  87.044  11.933  1.00  0.00    -0.289 OA
ATOM      5  C   UNL     1      74.979  88.316  11.416  1.00  0.00     0.107 A 
ATOM      6  C   UNL     1      75.847  87.213  11.234  1.00  0.00     0.134 A 
ATOM      7  C   UNL     1      77.191  87.436  10.897  1.00  0.00     0.093 A 
ATOM      8  C   UNL     1      77.681  88.737  10.739  1.00  0.00     0.123 A 
ATOM      9  C   UNL     1      76.828  89.828  10.918  1.00  0.00     0.094 A 
ATOM     10  C   UNL     1      75.485  89.628  11.253  1.00  0.00     0.146 A 
ATOM     11  O   UNL     1      74.694  90.684  11.416  1.00  0.00    -0.456 OA
ENDROOT
BRANCH   1  12
ATOM     12  C   UNL     1      72.614  91.835  11.889  1.00  0.00     0.021 A 
ATOM     13  C   UNL     1      71.381  91.961  11.227  1.00  0.00     0.016 A 
ATOM     14  C   UNL     1      70.616  93.122  11.365  1.00  0.00     0.051 A 
ATOM     15  C   UNL     1      71.060  94.171  12.175  1.00  0.00     0.157 A 
ATOM     16  C   UNL     1      73.052  92.889  12.715  1.00  0.00     0.062 A 
ATOM     17  C   UNL     1      72.282  94.054  12.856  1.00  0.00     0.158 A 
BRANCH  15  18
ATOM     18  O   UNL     1      70.276  95.317  12.292  1.00  0.00    -0.504 OA
ATOM     19  H   UNL     1      69.871  95.605  13.174  1.00  0.00     0.293 HD
ENDBRANCH  15  18
BRANCH  17  20
ATOM     20  O   UNL     1      72.726  95.091  13.674  1.00  0.00    -0.504 OA
ATOM     21  H   UNL     1      73.651  95.083  14.088  1.00  0.00     0.293 HD
ENDBRANCH  17  20
ENDBRANCH   1  12
BRANCH   6  22
ATOM     22  O   UNL     1      75.387  85.906  11.385  1.00  0.00    -0.507 OA
ATOM     23  H   UNL     1      75.264  85.288  10.591  1.00  0.00     0.293 HD
ENDBRANCH   6  22
BRANCH   8  24
ATOM     24  O   UNL     1      79.016  88.958  10.405  1.00  0.00    -0.508 OA
ATOM     25  H   UNL     1      79.701  88.213  10.445  1.00  0.00     0.293 HD
ENDBRANCH   8  24
TORSDOF 5
ENDMDL
MODEL 9
REMARK VINA RESULT:    -4.741      1.876      7.223
REMARK INTER + INTRA:          -5.859
REMARK INTER:                  -5.545
REMARK INTRA:                  -0.313
REMARK UNBOUND:                -0.287
REMARK SMILES O=c1cc(-c2ccc(O)c(O)c2)oc2cc(O)cc(O)c12
REMARK SMILES IDX 4 1 3 2 2 3 1 4 21 5 19 6 18 7 16 8 15 9 14 10 13 11 5 12
REMARK SMILES IDX 6 13 7 14 8 15 12 16 10 17 9 18 11 20 20 22 17 24
REMARK H PARENT 9 19 11 21 20 23 17 25
REMARK Flexibility Score: inf
ROOT
ATOM      1  C   UNL     1      73.035  92.509  12.390  1.00  0.00     0.138 A 
ATOM      2  C   UNL     1      73.804  92.693  13.551  1.00  0.00     0.100 A 
ATOM      3  C   UNL     1      74.950  91.922  13.744  1.00  0.00     0.197 A 
ATOM      4  O   UNL     1      75.636  92.095  14.789  1.00  0.00    -0.289 OA
ATOM      5  C   UNL     1      75.323  90.973  12.772  1.00  0.00     0.107 A 
ATOM      6  C   UNL     1      76.469  90.150  12.890  1.00  0.00     0.134 A 
ATOM      7  C   UNL     1      76.773  89.233  11.873  1.00  0.00     0.093 A 
ATOM      8  C   UNL     1      75.955  89.124  10.742  1.00  0.00     0.123 A 
ATOM      9  C   UNL     1      74.824  89.933  10.621  1.00  0.00     0.094 A 
ATOM     10  C   UNL     1      74.502  90.853  11.625  1.00  0.00     0.146 A 
ATOM     11  O   UNL     1      73.419  91.611  11.486  1.00  0.00    -0.456 OA
ENDROOT
BRANCH   1  12
ATOM     12  C   UNL     1      71.807  93.302  12.131  1.00  0.00     0.021 A 
ATOM     13  C   UNL     1      71.604  94.510  12.820  1.00  0.00     0.016 A 
ATOM     14  C   UNL     1      70.460  95.277  12.589  1.00  0.00     0.051 A 
ATOM     15  C   UNL     1      69.505  94.861  11.658  1.00  0.00     0.157 A 
ATOM     16  C   UNL     1      70.847  92.892  11.183  1.00  0.00     0.062 A 
ATOM     17  C   UNL     1      69.700  93.665  10.949  1.00  0.00     0.158 A 
BRANCH  15  18
ATOM     18  O   UNL     1      68.373  95.647  11.450  1.00  0.00    -0.504 OA
ATOM     19  H   UNL     1      68.003  96.259  12.167  1.00  0.00     0.293 HD
ENDBRANCH  15  18
BRANCH  17  20
ATOM     20  O   UNL     1      68.756  93.249  10.011  1.00  0.00    -0.504 OA
ATOM     21  H   UNL     1      68.941  93.294   9.015  1.00  0.00     0.293 HD
ENDBRANCH  17  20
ENDBRANCH   1  12
BRANCH   6  22
ATOM     22  O   UNL     1      77.302  90.238  14.005  1.00  0.00    -0.507 OA
ATOM     23  H   UNL     1      77.096  89.744  14.865  1.00  0.00     0.293 HD
ENDBRANCH   6  22
BRANCH   8  24
ATOM     24  O   UNL     1      76.258  88.213   9.732  1.00  0.00    -0.508 OA
ATOM     25  H   UNL     1      76.637  88.517   8.843  1.00  0.00     0.293 HD
ENDBRANCH   8  24
TORSDOF 5
ENDMDL
