MODEL 1
REMARK VINA RESULT:    -3.053      0.000      0.000
REMARK INTER + INTRA:          -3.673
REMARK INTER:                  -3.588
REMARK INTRA:                  -0.085
REMARK UNBOUND:                -0.085
REMARK SMILES O=C([O-])CCC(=O)[O-]
REMARK SMILES IDX 4 1 2 2 1 3 3 4 5 5 6 6 7 7 8 8
REMARK H PARENT
REMARK Flexibility Score: inf
ROOT
ATOM      1  C   UNL     1       9.442 -31.068 -15.741  1.00  0.00     0.059 C 
ENDROOT
BRANCH   1   2
ATOM      2  C   UNL     1       9.233 -32.520 -16.035  1.00  0.00     0.042 C 
ATOM      3  O   UNL     1       9.475 -32.975 -17.183  1.00  0.00    -0.550 OA
ATOM      4  O   UNL     1       8.819 -33.381 -15.026  1.00  0.00    -0.550 OA
ENDBRANCH   1   2
BRANCH   1   5
ATOM      5  C   UNL     1       9.563 -30.271 -17.042  1.00  0.00     0.059 C 
BRANCH   5   6
ATOM      6  C   UNL     1       8.302 -29.513 -17.310  1.00  0.00     0.042 C 
ATOM      7  O   UNL     1       7.634 -29.032 -16.356  1.00  0.00    -0.550 OA
ATOM      8  O   UNL     1       7.888 -29.292 -18.618  1.00  0.00    -0.550 OA
ENDBRANCH   5   6
ENDBRANCH   1   5
TORSDOF 3
ENDMDL
MODEL 2
REMARK VINA RESULT:    -3.036      0.232      3.997
REMARK INTER + INTRA:          -3.653
REMARK INTER:                  -3.567
REMARK INTRA:                  -0.086
REMARK UNBOUND:                -0.085
REMARK SMILES O=C([O-])CCC(=O)[O-]
REMARK SMILES IDX 4 1 2 2 1 3 3 4 5 5 6 6 7 7 8 8
REMARK H PARENT
REMARK Flexibility Score: inf
ROOT
ATOM      1  C   UNL     1       9.684 -30.265 -17.026  1.00  0.00     0.059 C 
ENDROOT
BRANCH   1   2
ATOM      2  C   UNL     1       8.474 -29.530 -17.510  1.00  0.00     0.042 C 
ATOM      3  O   UNL     1       7.748 -28.901 -16.696  1.00  0.00    -0.550 OA
ATOM      4  O   UNL     1       8.176 -29.498 -18.866  1.00  0.00    -0.550 OA
ENDBRANCH   1   2
BRANCH   1   5
ATOM      5  C   UNL     1       9.362 -31.044 -15.750  1.00  0.00     0.059 C 
BRANCH   5   6
ATOM      6  C   UNL     1       9.227 -32.504 -16.048  1.00  0.00     0.042 C 
ATOM      7  O   UNL     1       9.467 -32.941 -17.205  1.00  0.00    -0.550 OA
ATOM      8  O   UNL     1       8.886 -33.392 -15.035  1.00  0.00    -0.550 OA
ENDBRANCH   5   6
ENDBRANCH   1   5
TORSDOF 3
ENDMDL
MODEL 3
REMARK VINA RESULT:    -2.889      1.541      2.546
REMARK INTER + INTRA:          -3.481
REMARK INTER:                  -3.445
REMARK INTRA:                  -0.036
REMARK UNBOUND:                -0.085
REMARK SMILES O=C([O-])CCC(=O)[O-]
REMARK SMILES IDX 4 1 2 2 1 3 3 4 5 5 6 6 7 7 8 8
REMARK H PARENT
REMARK Flexibility Score: inf
ROOT
ATOM      1  C   UNL     1       9.090 -29.930 -17.546  1.00  0.00     0.059 C 
ENDROOT
BRANCH   1   2
ATOM      2  C   UNL     1       9.144 -30.500 -16.164  1.00  0.00     0.042 C 
ATOM      3  O   UNL     1       8.762 -29.814 -15.180  1.00  0.00    -0.550 OA
ATOM      4  O   UNL     1       9.571 -31.808 -15.968  1.00  0.00    -0.550 OA
ENDBRANCH   1   2
BRANCH   1   5
ATOM      5  C   UNL     1       7.763 -29.204 -17.773  1.00  0.00     0.059 C 
BRANCH   5   6
ATOM      6  C   UNL     1       7.516 -29.011 -19.236  1.00  0.00     0.042 C 
ATOM      7  O   UNL     1       6.609 -28.229 -19.629  1.00  0.00    -0.550 OA
ATOM      8  O   UNL     1       8.319 -29.656 -20.168  1.00  0.00    -0.550 OA
ENDBRANCH   5   6
ENDBRANCH   1   5
TORSDOF 3
ENDMDL
MODEL 4
REMARK VINA RESULT:    -2.860      1.466      4.041
REMARK INTER + INTRA:          -3.447
REMARK INTER:                  -3.410
REMARK INTRA:                  -0.037
REMARK UNBOUND:                -0.085
REMARK SMILES O=C([O-])CCC(=O)[O-]
REMARK SMILES IDX 4 1 2 2 1 3 3 4 5 5 6 6 7 7 8 8
REMARK H PARENT
REMARK Flexibility Score: inf
ROOT
ATOM      1  C   UNL     1       7.899 -29.223 -17.596  1.00  0.00     0.059 C 
ENDROOT
BRANCH   1   2
ATOM      2  C   UNL     1       7.595 -29.108 -19.057  1.00  0.00     0.042 C 
ATOM      3  O   UNL     1       6.605 -28.436 -19.447  1.00  0.00    -0.550 OA
ATOM      4  O   UNL     1       8.434 -29.703 -19.990  1.00  0.00    -0.550 OA
ENDBRANCH   1   2
BRANCH   1   5
ATOM      5  C   UNL     1       9.205 -29.989 -17.380  1.00  0.00     0.059 C 
BRANCH   5   6
ATOM      6  C   UNL     1       9.223 -30.621 -16.024  1.00  0.00     0.042 C 
ATOM      7  O   UNL     1       8.893 -29.954 -15.008  1.00  0.00    -0.550 OA
ATOM      8  O   UNL     1       9.556 -31.963 -15.887  1.00  0.00    -0.550 OA
ENDBRANCH   5   6
ENDBRANCH   1   5
TORSDOF 3
ENDMDL
MODEL 5
REMARK VINA RESULT:    -2.834      1.494      4.133
REMARK INTER + INTRA:          -3.416
REMARK INTER:                  -3.380
REMARK INTRA:                  -0.036
REMARK UNBOUND:                -0.085
REMARK SMILES O=C([O-])CCC(=O)[O-]
REMARK SMILES IDX 4 1 2 2 1 3 3 4 5 5 6 6 7 7 8 8
REMARK H PARENT
REMARK Flexibility Score: inf
ROOT
ATOM      1  C   UNL     1       7.923 -29.223 -17.627  1.00  0.00     0.059 C 
ENDROOT
BRANCH   1   2
ATOM      2  C   UNL     1       7.625 -29.095 -19.088  1.00  0.00     0.042 C 
ATOM      3  O   UNL     1       6.651 -28.399 -19.476  1.00  0.00    -0.550 OA
ATOM      4  O   UNL     1       8.452 -29.704 -20.023  1.00  0.00    -0.550 OA
ENDBRANCH   1   2
BRANCH   1   5
ATOM      5  C   UNL     1       9.231 -29.988 -17.414  1.00  0.00     0.059 C 
BRANCH   5   6
ATOM      6  C   UNL     1       9.234 -30.658 -16.077  1.00  0.00     0.042 C 
ATOM      7  O   UNL     1       9.595 -31.860 -15.970  1.00  0.00    -0.550 OA
ATOM      8  O   UNL     1       8.886 -29.941 -14.939  1.00  0.00    -0.550 OA
ENDBRANCH   5   6
ENDBRANCH   1   5
TORSDOF 3
ENDMDL
MODEL 6
REMARK VINA RESULT:    -2.831      1.483      2.288
REMARK INTER + INTRA:          -3.413
REMARK INTER:                  -3.377
REMARK INTRA:                  -0.036
REMARK UNBOUND:                -0.085
REMARK SMILES O=C([O-])CCC(=O)[O-]
REMARK SMILES IDX 4 1 2 2 1 3 3 4 5 5 6 6 7 7 8 8
REMARK H PARENT
REMARK Flexibility Score: inf
ROOT
ATOM      1  C   UNL     1       9.223 -29.985 -17.400  1.00  0.00     0.059 C 
ENDROOT
BRANCH   1   2
ATOM      2  C   UNL     1       9.261 -30.691 -16.081  1.00  0.00     0.042 C 
ATOM      3  O   UNL     1       9.613 -31.898 -16.019  1.00  0.00    -0.550 OA
ATOM      4  O   UNL     1       8.954 -30.002 -14.915  1.00  0.00    -0.550 OA
ENDBRANCH   1   2
BRANCH   1   5
ATOM      5  C   UNL     1       7.903 -29.230 -17.565  1.00  0.00     0.059 C 
BRANCH   5   6
ATOM      6  C   UNL     1       7.576 -29.058 -19.014  1.00  0.00     0.042 C 
ATOM      7  O   UNL     1       6.607 -28.333 -19.365  1.00  0.00    -0.550 OA
ATOM      8  O   UNL     1       8.370 -29.659 -19.983  1.00  0.00    -0.550 OA
ENDBRANCH   5   6
ENDBRANCH   1   5
TORSDOF 3
ENDMDL
MODEL 7
REMARK VINA RESULT:    -1.815      1.920      2.618
REMARK INTER + INTRA:          -2.218
REMARK INTER:                  -2.366
REMARK INTRA:                   0.148
REMARK UNBOUND:                -0.085
REMARK SMILES O=C([O-])CCC(=O)[O-]
REMARK SMILES IDX 4 1 2 2 1 3 3 4 5 5 6 6 7 7 8 8
REMARK H PARENT
REMARK Flexibility Score: inf
ROOT
ATOM      1  C   UNL     1       9.177 -30.879 -16.781  1.00  0.00     0.059 C 
ENDROOT
BRANCH   1   2
ATOM      2  C   UNL     1       8.922 -30.275 -15.437  1.00  0.00     0.042 C 
ATOM      3  O   UNL     1       9.519 -30.717 -14.420  1.00  0.00    -0.550 OA
ATOM      4  O   UNL     1       8.062 -29.191 -15.313  1.00  0.00    -0.550 OA
ENDBRANCH   1   2
BRANCH   1   5
ATOM      5  C   UNL     1       9.537 -29.792 -17.796  1.00  0.00     0.059 C 
BRANCH   5   6
ATOM      6  C   UNL     1       8.364 -29.485 -18.673  1.00  0.00     0.042 C 
ATOM      7  O   UNL     1       8.421 -29.708 -19.911  1.00  0.00    -0.550 OA
ATOM      8  O   UNL     1       7.188 -29.000 -18.116  1.00  0.00    -0.550 OA
ENDBRANCH   5   6
ENDBRANCH   1   5
TORSDOF 3
ENDMDL
MODEL 8
REMARK VINA RESULT:    -1.398      2.799      4.736
REMARK INTER + INTRA:          -1.729
REMARK INTER:                  -1.616
REMARK INTRA:                  -0.113
REMARK UNBOUND:                -0.085
REMARK SMILES O=C([O-])CCC(=O)[O-]
REMARK SMILES IDX 4 1 2 2 1 3 3 4 5 5 6 6 7 7 8 8
REMARK H PARENT
REMARK Flexibility Score: inf
ROOT
ATOM      1  C   UNL     1       6.727 -28.195 -19.160  1.00  0.00     0.059 C 
ENDROOT
BRANCH   1   2
ATOM      2  C   UNL     1       6.905 -28.827 -20.504  1.00  0.00     0.042 C 
ATOM      3  O   UNL     1       7.859 -29.622 -20.709  1.00  0.00    -0.550 OA
ATOM      4  O   UNL     1       5.988 -28.576 -21.517  1.00  0.00    -0.550 OA
ENDBRANCH   1   2
BRANCH   1   5
ATOM      5  C   UNL     1       6.653 -29.267 -18.070  1.00  0.00     0.059 C 
BRANCH   5   6
ATOM      6  C   UNL     1       7.851 -29.189 -17.178  1.00  0.00     0.042 C 
ATOM      7  O   UNL     1       7.730 -28.803 -15.985  1.00  0.00    -0.550 OA
ATOM      8  O   UNL     1       9.095 -29.591 -17.647  1.00  0.00    -0.550 OA
ENDBRANCH   5   6
ENDBRANCH   1   5
TORSDOF 3
ENDMDL
MODEL 9
REMARK VINA RESULT:    -1.159      2.081      3.227
REMARK INTER + INTRA:          -1.448
REMARK INTER:                  -1.680
REMARK INTRA:                   0.232
REMARK UNBOUND:                -0.085
REMARK SMILES O=C([O-])CCC(=O)[O-]
REMARK SMILES IDX 4 1 2 2 1 3 3 4 5 5 6 6 7 7 8 8
REMARK H PARENT
REMARK Flexibility Score: inf
ROOT
ATOM      1  C   UNL     1       9.209 -31.181 -17.186  1.00  0.00     0.059 C 
ENDROOT
BRANCH   1   2
ATOM      2  C   UNL     1       9.416 -30.001 -18.081  1.00  0.00     0.042 C 
ATOM      3  O   UNL     1      10.448 -29.289 -17.962  1.00  0.00    -0.550 OA
ATOM      4  O   UNL     1       8.494 -29.715 -19.080  1.00  0.00    -0.550 OA
ENDBRANCH   1   2
BRANCH   1   5
ATOM      5  C   UNL     1       9.731 -30.884 -15.779  1.00  0.00     0.059 C 
BRANCH   5   6
ATOM      6  C   UNL     1       8.740 -30.064 -15.015  1.00  0.00     0.042 C 
ATOM      7  O   UNL     1       8.676 -30.152 -13.760  1.00  0.00    -0.550 OA
ATOM      8  O   UNL     1       7.919 -29.165 -15.684  1.00  0.00    -0.550 OA
ENDBRANCH   5   6
ENDBRANCH   1   5
TORSDOF 3
ENDMDL
