MODEL 1
REMARK VINA RESULT:    -4.286      0.000      0.000
REMARK INTER + INTRA:          -5.775
REMARK INTER:                  -5.288
REMARK INTRA:                  -0.487
REMARK UNBOUND:                -0.487
REMARK SMILES C=CC[C@@H](C)C(=O)CC
REMARK SMILES IDX 4 1 5 2 6 3 7 4 8 5 9 6 3 7 2 8 1 9
REMARK H PARENT
REMARK Flexibility Score: inf
ROOT
ATOM      1  C   UNL     1     -12.418 -17.373  31.145  1.00  0.00     0.057 C 
ATOM      2  C   UNL     1     -13.220 -18.594  31.620  1.00  0.00     0.016 C 
ENDROOT
BRANCH   1   3
ATOM      3  C   UNL     1     -12.720 -17.067  29.692  1.00  0.00     0.135 C 
ATOM      4  O   UNL     1     -13.379 -17.866  29.043  1.00  0.00    -0.299 OA
BRANCH   3   5
ATOM      5  C   UNL     1     -12.210 -15.821  29.012  1.00  0.00     0.072 C 
ATOM      6  C   UNL     1     -13.351 -15.052  28.355  1.00  0.00     0.012 C 
ENDBRANCH   3   5
ENDBRANCH   1   3
BRANCH   1   7
ATOM      7  C   UNL     1     -12.678 -16.133  32.027  1.00  0.00     0.038 C 
BRANCH   7   8
ATOM      8  C   UNL     1     -14.148 -15.897  32.260  1.00  0.00    -0.034 C 
ATOM      9  C   UNL     1     -14.746 -14.762  31.889  1.00  0.00     0.004 C 
ENDBRANCH   7   8
ENDBRANCH   1   7
TORSDOF 4
ENDMDL
MODEL 2
REMARK VINA RESULT:    -4.219      1.016      2.919
REMARK INTER + INTRA:          -5.693
REMARK INTER:                  -5.506
REMARK INTRA:                  -0.187
REMARK UNBOUND:                -0.487
REMARK SMILES C=CC[C@@H](C)C(=O)CC
REMARK SMILES IDX 4 1 5 2 6 3 7 4 8 5 9 6 3 7 2 8 1 9
REMARK H PARENT
REMARK Flexibility Score: inf
ROOT
ATOM      1  C   UNL     1     -13.242 -16.657  30.089  1.00  0.00     0.057 C 
ATOM      2  C   UNL     1     -12.289 -15.930  29.128  1.00  0.00     0.016 C 
ENDROOT
BRANCH   1   3
ATOM      3  C   UNL     1     -12.839 -18.110  30.242  1.00  0.00     0.135 C 
ATOM      4  O   UNL     1     -12.318 -18.684  29.297  1.00  0.00    -0.299 OA
BRANCH   3   5
ATOM      5  C   UNL     1     -13.086 -18.881  31.516  1.00  0.00     0.072 C 
ATOM      6  C   UNL     1     -12.600 -20.321  31.384  1.00  0.00     0.012 C 
ENDBRANCH   3   5
ENDBRANCH   1   3
BRANCH   1   7
ATOM      7  C   UNL     1     -13.313 -15.965  31.467  1.00  0.00     0.038 C 
BRANCH   7   8
ATOM      8  C   UNL     1     -14.466 -15.001  31.562  1.00  0.00    -0.034 C 
ATOM      9  C   UNL     1     -15.305 -15.007  32.601  1.00  0.00     0.004 C 
ENDBRANCH   7   8
ENDBRANCH   1   7
TORSDOF 4
ENDMDL
MODEL 3
REMARK VINA RESULT:    -4.168      1.608      2.980
REMARK INTER + INTRA:          -5.630
REMARK INTER:                  -5.358
REMARK INTRA:                  -0.273
REMARK UNBOUND:                -0.487
REMARK SMILES C=CC[C@@H](C)C(=O)CC
REMARK SMILES IDX 4 1 5 2 6 3 7 4 8 5 9 6 3 7 2 8 1 9
REMARK H PARENT
REMARK Flexibility Score: inf
ROOT
ATOM      1  C   UNL     1     -13.317 -16.648  30.992  1.00  0.00     0.057 C 
ATOM      2  C   UNL     1     -14.059 -15.472  31.644  1.00  0.00     0.016 C 
ENDROOT
BRANCH   1   3
ATOM      3  C   UNL     1     -11.935 -16.223  30.539  1.00  0.00     0.135 C 
ATOM      4  O   UNL     1     -11.038 -16.145  31.366  1.00  0.00    -0.299 OA
BRANCH   3   5
ATOM      5  C   UNL     1     -11.635 -15.867  29.103  1.00  0.00     0.072 C 
ATOM      6  C   UNL     1     -12.904 -15.899  28.257  1.00  0.00     0.012 C 
ENDBRANCH   3   5
ENDBRANCH   1   3
BRANCH   1   7
ATOM      7  C   UNL     1     -13.229 -17.869  31.933  1.00  0.00     0.038 C 
BRANCH   7   8
ATOM      8  C   UNL     1     -13.231 -19.172  31.177  1.00  0.00    -0.034 C 
ATOM      9  C   UNL     1     -12.495 -20.216  31.571  1.00  0.00     0.004 C 
ENDBRANCH   7   8
ENDBRANCH   1   7
TORSDOF 4
ENDMDL
MODEL 4
REMARK VINA RESULT:    -4.164      1.622      4.218
REMARK INTER + INTRA:          -5.625
REMARK INTER:                  -5.439
REMARK INTRA:                  -0.185
REMARK UNBOUND:                -0.487
REMARK SMILES C=CC[C@@H](C)C(=O)CC
REMARK SMILES IDX 4 1 5 2 6 3 7 4 8 5 9 6 3 7 2 8 1 9
REMARK H PARENT
REMARK Flexibility Score: inf
ROOT
ATOM      1  C   UNL     1     -12.172 -15.817  29.097  1.00  0.00     0.057 C 
ATOM      2  C   UNL     1     -13.278 -15.092  28.316  1.00  0.00     0.016 C 
ENDROOT
BRANCH   1   3
ATOM      3  C   UNL     1     -12.766 -16.648  30.216  1.00  0.00     0.135 C 
ATOM      4  O   UNL     1     -13.223 -17.752  29.957  1.00  0.00    -0.299 OA
BRANCH   3   5
ATOM      5  C   UNL     1     -12.837 -16.147  31.638  1.00  0.00     0.072 C 
ATOM      6  C   UNL     1     -14.205 -15.540  31.934  1.00  0.00     0.012 C 
ENDBRANCH   3   5
ENDBRANCH   1   3
BRANCH   1   7
ATOM      7  C   UNL     1     -11.293 -16.693  28.178  1.00  0.00     0.038 C 
BRANCH   7   8
ATOM      8  C   UNL     1     -11.985 -17.032  26.883  1.00  0.00    -0.034 C 
ATOM      9  C   UNL     1     -11.300 -17.328  25.776  1.00  0.00     0.004 C 
ENDBRANCH   7   8
ENDBRANCH   1   7
TORSDOF 4
ENDMDL
MODEL 5
REMARK VINA RESULT:    -4.130      1.761      2.756
REMARK INTER + INTRA:          -5.583
REMARK INTER:                  -5.375
REMARK INTRA:                  -0.208
REMARK UNBOUND:                -0.487
REMARK SMILES C=CC[C@@H](C)C(=O)CC
REMARK SMILES IDX 4 1 5 2 6 3 7 4 8 5 9 6 3 7 2 8 1 9
REMARK H PARENT
REMARK Flexibility Score: inf
ROOT
ATOM      1  C   UNL     1     -12.502 -15.807  28.921  1.00  0.00     0.057 C 
ATOM      2  C   UNL     1     -11.007 -15.909  29.257  1.00  0.00     0.016 C 
ENDROOT
BRANCH   1   3
ATOM      3  C   UNL     1     -12.903 -16.887  27.937  1.00  0.00     0.135 C 
ATOM      4  O   UNL     1     -13.353 -17.941  28.363  1.00  0.00    -0.299 OA
BRANCH   3   5
ATOM      5  C   UNL     1     -12.739 -16.716  26.446  1.00  0.00     0.072 C 
ATOM      6  C   UNL     1     -11.438 -17.350  25.964  1.00  0.00     0.012 C 
ENDBRANCH   3   5
ENDBRANCH   1   3
BRANCH   1   7
ATOM      7  C   UNL     1     -13.385 -15.870  30.186  1.00  0.00     0.038 C 
BRANCH   7   8
ATOM      8  C   UNL     1     -12.662 -16.486  31.355  1.00  0.00    -0.034 C 
ATOM      9  C   UNL     1     -13.179 -17.506  32.045  1.00  0.00     0.004 C 
ENDBRANCH   7   8
ENDBRANCH   1   7
TORSDOF 4
ENDMDL
MODEL 6
REMARK VINA RESULT:    -4.067      1.372      3.688
REMARK INTER + INTRA:          -5.505
REMARK INTER:                  -5.215
REMARK INTRA:                  -0.290
REMARK UNBOUND:                -0.487
REMARK SMILES C=CC[C@@H](C)C(=O)CC
REMARK SMILES IDX 4 1 5 2 6 3 7 4 8 5 9 6 3 7 2 8 1 9
REMARK H PARENT
REMARK Flexibility Score: inf
ROOT
ATOM      1  C   UNL     1     -12.166 -16.352  30.437  1.00  0.00     0.057 C 
ATOM      2  C   UNL     1     -13.554 -15.868  30.879  1.00  0.00     0.016 C 
ENDROOT
BRANCH   1   3
ATOM      3  C   UNL     1     -12.076 -17.863  30.517  1.00  0.00     0.135 C 
ATOM      4  O   UNL     1     -11.288 -18.450  29.791  1.00  0.00    -0.299 OA
BRANCH   3   5
ATOM      5  C   UNL     1     -12.950 -18.670  31.446  1.00  0.00     0.072 C 
ATOM      6  C   UNL     1     -12.723 -20.165  31.246  1.00  0.00     0.012 C 
ENDBRANCH   3   5
ENDBRANCH   1   3
BRANCH   1   7
ATOM      7  C   UNL     1     -11.807 -15.862  29.017  1.00  0.00     0.038 C 
BRANCH   7   8
ATOM      8  C   UNL     1     -13.025 -15.699  28.146  1.00  0.00    -0.034 C 
ATOM      9  C   UNL     1     -13.261 -16.505  27.108  1.00  0.00     0.004 C 
ENDBRANCH   7   8
ENDBRANCH   1   7
TORSDOF 4
ENDMDL
MODEL 7
REMARK VINA RESULT:    -4.058      1.807      3.635
REMARK INTER + INTRA:          -5.494
REMARK INTER:                  -5.053
REMARK INTRA:                  -0.441
REMARK UNBOUND:                -0.487
REMARK SMILES C=CC[C@@H](C)C(=O)CC
REMARK SMILES IDX 4 1 5 2 6 3 7 4 8 5 9 6 3 7 2 8 1 9
REMARK H PARENT
REMARK Flexibility Score: inf
ROOT
ATOM      1  C   UNL     1     -13.193 -18.451  28.984  1.00  0.00     0.057 C 
ATOM      2  C   UNL     1     -13.940 -19.672  28.427  1.00  0.00     0.016 C 
ENDROOT
BRANCH   1   3
ATOM      3  C   UNL     1     -12.424 -18.821  30.236  1.00  0.00     0.135 C 
ATOM      4  O   UNL     1     -11.283 -19.246  30.128  1.00  0.00    -0.299 OA
BRANCH   3   5
ATOM      5  C   UNL     1     -13.030 -18.706  31.613  1.00  0.00     0.072 C 
ATOM      6  C   UNL     1     -13.292 -17.248  31.975  1.00  0.00     0.012 C 
ENDBRANCH   3   5
ENDBRANCH   1   3
BRANCH   1   7
ATOM      7  C   UNL     1     -12.251 -17.821  27.935  1.00  0.00     0.038 C 
BRANCH   7   8
ATOM      8  C   UNL     1     -11.965 -16.371  28.223  1.00  0.00    -0.034 C 
ATOM      9  C   UNL     1     -12.934 -15.515  28.559  1.00  0.00     0.004 C 
ENDBRANCH   7   8
ENDBRANCH   1   7
TORSDOF 4
ENDMDL
MODEL 8
REMARK VINA RESULT:    -4.019      2.144      4.358
REMARK INTER + INTRA:          -5.447
REMARK INTER:                  -5.063
REMARK INTRA:                  -0.384
REMARK UNBOUND:                -0.487
REMARK SMILES C=CC[C@@H](C)C(=O)CC
REMARK SMILES IDX 4 1 5 2 6 3 7 4 8 5 9 6 3 7 2 8 1 9
REMARK H PARENT
REMARK Flexibility Score: inf
ROOT
ATOM      1  C   UNL     1     -11.931 -16.862  28.818  1.00  0.00     0.057 C 
ATOM      2  C   UNL     1     -10.906 -15.864  29.378  1.00  0.00     0.016 C 
ENDROOT
BRANCH   1   3
ATOM      3  C   UNL     1     -12.804 -17.410  29.928  1.00  0.00     0.135 C 
ATOM      4  O   UNL     1     -13.476 -16.635  30.593  1.00  0.00    -0.299 OA
BRANCH   3   5
ATOM      5  C   UNL     1     -12.850 -18.882  30.260  1.00  0.00     0.072 C 
ATOM      6  C   UNL     1     -13.268 -19.702  29.043  1.00  0.00     0.012 C 
ENDBRANCH   3   5
ENDBRANCH   1   3
BRANCH   1   7
ATOM      7  C   UNL     1     -12.798 -16.237  27.704  1.00  0.00     0.038 C 
BRANCH   7   8
ATOM      8  C   UNL     1     -12.591 -16.913  26.374  1.00  0.00    -0.034 C 
ATOM      9  C   UNL     1     -11.394 -17.366  25.993  1.00  0.00     0.004 C 
ENDBRANCH   7   8
ENDBRANCH   1   7
TORSDOF 4
ENDMDL
MODEL 9
REMARK VINA RESULT:    -3.976      1.730      3.085
REMARK INTER + INTRA:          -5.393
REMARK INTER:                  -4.913
REMARK INTRA:                  -0.479
REMARK UNBOUND:                -0.487
REMARK SMILES C=CC[C@@H](C)C(=O)CC
REMARK SMILES IDX 4 1 5 2 6 3 7 4 8 5 9 6 3 7 2 8 1 9
REMARK H PARENT
REMARK Flexibility Score: inf
ROOT
ATOM      1  C   UNL     1     -12.200 -16.000  28.675  1.00  0.00     0.057 C 
ATOM      2  C   UNL     1     -10.755 -15.737  29.126  1.00  0.00     0.016 C 
ENDROOT
BRANCH   1   3
ATOM      3  C   UNL     1     -12.309 -17.348  27.990  1.00  0.00     0.135 C 
ATOM      4  O   UNL     1     -11.472 -17.658  27.154  1.00  0.00    -0.299 OA
BRANCH   3   5
ATOM      5  C   UNL     1     -13.433 -18.310  28.287  1.00  0.00     0.072 C 
ATOM      6  C   UNL     1     -12.909 -19.565  28.976  1.00  0.00     0.012 C 
ENDBRANCH   3   5
ENDBRANCH   1   3
BRANCH   1   7
ATOM      7  C   UNL     1     -13.198 -15.906  29.850  1.00  0.00     0.038 C 
BRANCH   7   8
ATOM      8  C   UNL     1     -12.545 -16.195  31.177  1.00  0.00    -0.034 C 
ATOM      9  C   UNL     1     -13.004 -17.146  31.994  1.00  0.00     0.004 C 
ENDBRANCH   7   8
ENDBRANCH   1   7
TORSDOF 4
ENDMDL
