MODEL 1
REMARK VINA RESULT:    -6.432      0.000      0.000
REMARK INTER + INTRA:          -9.568
REMARK INTER:                  -8.501
REMARK INTRA:                  -1.068
REMARK UNBOUND:                -1.068
REMARK SMILES CC[C@H](C=C[C@H](C)[C@@H]1CC[C@H]2[C@H]3CC=C4C[C@H](O)CC[C@]4(C)[C@@H]3CC[C@]21C)C(C)C
REMARK SMILES IDX 6 1 7 2 5 3 4 4 3 5 2 6 1 7 28 8 29 9 30 10 8 11 9 12 26 13
REMARK SMILES IDX 10 14 11 15 25 16 27 17 12 18 24 19 23 20 13 21 21 22 14 23
REMARK SMILES IDX 15 24 20 25 22 26 16 27 19 28 17 29 18 30
REMARK H PARENT 18 31
REMARK Flexibility Score: inf
ROOT
ATOM      1  C   UNL     1      -5.736  -5.608   1.486  1.00  0.00     0.012 C 
ATOM      2  C   UNL     1      -6.389  -6.205   2.745  1.00  0.00     0.012 C 
ENDROOT
BRANCH   1   3
ATOM      3  C   UNL     1      -6.704  -4.690   0.760  1.00  0.00    -0.028 C 
ATOM      4  C   UNL     1      -7.796  -5.128   0.111  1.00  0.00    -0.027 C 
BRANCH   4   5
ATOM      5  C   UNL     1      -8.749  -4.239  -0.670  1.00  0.00     0.014 C 
BRANCH   5   6
ATOM      6  C   UNL     1      -8.425  -4.151  -2.191  1.00  0.00     0.004 C 
ATOM      7  C   UNL     1      -7.672  -5.321  -2.828  1.00  0.00     0.004 C 
ENDBRANCH   5   6
BRANCH   5   8
ATOM      8  C   UNL     1     -10.245  -4.375  -0.232  1.00  0.00    -0.011 C 
ATOM      9  C   UNL     1     -11.190  -4.538  -1.433  1.00  0.00     0.008 C 
ATOM     10  C   UNL     1     -10.533  -5.438   0.842  1.00  0.00     0.008 C 
ENDBRANCH   5   8
ENDBRANCH   4   5
ENDBRANCH   1   3
BRANCH   1  11
ATOM     11  C   UNL     1      -4.329  -4.997   1.800  1.00  0.00     0.002 C 
ATOM     12  C   UNL     1      -4.220  -3.477   1.726  1.00  0.00     0.005 C 
ATOM     13  C   UNL     1      -3.090  -5.547   1.008  1.00  0.00    -0.026 C 
ATOM     14  C   UNL     1      -2.727  -3.217   1.780  1.00  0.00     0.005 C 
ATOM     15  C   UNL     1      -2.116  -4.325   0.916  1.00  0.00    -0.001 C 
ATOM     16  C   UNL     1      -2.444  -6.757   1.756  1.00  0.00     0.007 C 
ATOM     17  C   UNL     1      -3.446  -6.005  -0.427  1.00  0.00     0.012 C 
ATOM     18  C   UNL     1      -0.643  -4.682   1.241  1.00  0.00     0.000 C 
ATOM     19  C   UNL     1      -1.601  -6.345   2.975  1.00  0.00     0.005 C 
ATOM     20  C   UNL     1      -0.455  -5.347   2.626  1.00  0.00     0.003 C 
ATOM     21  C   UNL     1       0.291  -3.469   1.151  1.00  0.00     0.031 C 
ATOM     22  C   UNL     1       1.011  -5.912   2.789  1.00  0.00    -0.008 C 
ATOM     23  C   UNL     1       1.711  -3.880   1.415  1.00  0.00    -0.027 C 
ATOM     24  C   UNL     1       2.051  -4.954   2.171  1.00  0.00    -0.065 C 
ATOM     25  C   UNL     1       1.187  -7.298   2.086  1.00  0.00     0.014 C 
ATOM     26  C   UNL     1       1.300  -6.049   4.308  1.00  0.00     0.016 C 
ATOM     27  C   UNL     1       3.500  -5.394   2.179  1.00  0.00     0.063 C 
ATOM     28  C   UNL     1       2.649  -7.798   2.041  1.00  0.00     0.033 C 
ATOM     29  C   UNL     1       3.638  -6.756   1.476  1.00  0.00     0.118 C 
BRANCH  29  30
ATOM     30  O   UNL     1       3.507  -6.628   0.081  1.00  0.00    -0.393 OA
ATOM     31  H   UNL     1       3.749  -5.700  -0.170  1.00  0.00     0.210 HD
ENDBRANCH  29  30
ENDBRANCH   1  11
TORSDOF 6
ENDMDL
MODEL 2
REMARK VINA RESULT:    -6.234      3.003      8.738
REMARK INTER + INTRA:          -9.306
REMARK INTER:                  -8.683
REMARK INTRA:                  -0.623
REMARK UNBOUND:                -1.068
REMARK SMILES CC[C@H](C=C[C@H](C)[C@@H]1CC[C@H]2[C@H]3CC=C4C[C@H](O)CC[C@]4(C)[C@@H]3CC[C@]21C)C(C)C
REMARK SMILES IDX 6 1 7 2 5 3 4 4 3 5 2 6 1 7 28 8 29 9 30 10 8 11 9 12 26 13
REMARK SMILES IDX 10 14 11 15 25 16 27 17 12 18 24 19 23 20 13 21 21 22 14 23
REMARK SMILES IDX 15 24 20 25 22 26 16 27 19 28 17 29 18 30
REMARK H PARENT 18 31
REMARK Flexibility Score: inf
ROOT
ATOM      1  C   UNL     1      -3.256  -6.509   3.777  1.00  0.00     0.012 C 
ATOM      2  C   UNL     1      -3.063  -8.017   4.015  1.00  0.00     0.012 C 
ENDROOT
BRANCH   1   3
ATOM      3  C   UNL     1      -2.181  -5.967   2.850  1.00  0.00    -0.028 C 
ATOM      4  C   UNL     1      -1.988  -4.656   2.626  1.00  0.00    -0.027 C 
BRANCH   4   5
ATOM      5  C   UNL     1      -0.959  -4.090   1.663  1.00  0.00     0.014 C 
BRANCH   5   6
ATOM      6  C   UNL     1      -0.380  -5.141   0.669  1.00  0.00     0.004 C 
ATOM      7  C   UNL     1       1.111  -5.469   0.766  1.00  0.00     0.004 C 
ENDBRANCH   5   6
BRANCH   5   8
ATOM      8  C   UNL     1      -1.316  -2.667   1.119  1.00  0.00    -0.011 C 
ATOM      9  C   UNL     1      -0.895  -2.482  -0.348  1.00  0.00     0.008 C 
ATOM     10  C   UNL     1      -2.770  -2.215   1.334  1.00  0.00     0.008 C 
ENDBRANCH   5   8
ENDBRANCH   4   5
ENDBRANCH   1   3
BRANCH   1  11
ATOM     11  C   UNL     1      -4.731  -6.172   3.373  1.00  0.00     0.002 C 
ATOM     12  C   UNL     1      -5.800  -6.451   4.426  1.00  0.00     0.005 C 
ATOM     13  C   UNL     1      -5.290  -6.774   2.036  1.00  0.00    -0.026 C 
ATOM     14  C   UNL     1      -7.104  -6.313   3.664  1.00  0.00     0.005 C 
ATOM     15  C   UNL     1      -6.821  -6.959   2.304  1.00  0.00    -0.001 C 
ATOM     16  C   UNL     1      -5.015  -5.812   0.835  1.00  0.00     0.007 C 
ATOM     17  C   UNL     1      -4.677  -8.155   1.694  1.00  0.00     0.012 C 
ATOM     18  C   UNL     1      -7.716  -6.468   1.138  1.00  0.00     0.000 C 
ATOM     19  C   UNL     1      -5.961  -4.600   0.794  1.00  0.00     0.005 C 
ATOM     20  C   UNL     1      -7.469  -4.992   0.743  1.00  0.00     0.003 C 
ATOM     21  C   UNL     1      -9.211  -6.652   1.426  1.00  0.00     0.031 C 
ATOM     22  C   UNL     1      -8.219  -4.632  -0.600  1.00  0.00    -0.008 C 
ATOM     23  C   UNL     1     -10.030  -6.219   0.243  1.00  0.00    -0.027 C 
ATOM     24  C   UNL     1      -9.613  -5.293  -0.657  1.00  0.00    -0.065 C 
ATOM     25  C   UNL     1      -7.429  -5.115  -1.861  1.00  0.00     0.014 C 
ATOM     26  C   UNL     1      -8.397  -3.090  -0.645  1.00  0.00     0.016 C 
ATOM     27  C   UNL     1     -10.426  -5.104  -1.919  1.00  0.00     0.063 C 
ATOM     28  C   UNL     1      -8.213  -4.970  -3.186  1.00  0.00     0.033 C 
ATOM     29  C   UNL     1      -9.624  -5.594  -3.137  1.00  0.00     0.118 C 
BRANCH  29  30
ATOM     30  O   UNL     1      -9.564  -6.999  -3.181  1.00  0.00    -0.393 OA
ATOM     31  H   UNL     1      -9.106  -7.317  -2.362  1.00  0.00     0.210 HD
ENDBRANCH  29  30
ENDBRANCH   1  11
TORSDOF 6
ENDMDL
MODEL 3
REMARK VINA RESULT:    -6.048      3.257      9.406
REMARK INTER + INTRA:          -9.060
REMARK INTER:                  -8.073
REMARK INTRA:                  -0.987
REMARK UNBOUND:                -1.068
REMARK SMILES CC[C@H](C=C[C@H](C)[C@@H]1CC[C@H]2[C@H]3CC=C4C[C@H](O)CC[C@]4(C)[C@@H]3CC[C@]21C)C(C)C
REMARK SMILES IDX 6 1 7 2 5 3 4 4 3 5 2 6 1 7 28 8 29 9 30 10 8 11 9 12 26 13
REMARK SMILES IDX 10 14 11 15 25 16 27 17 12 18 24 19 23 20 13 21 21 22 14 23
REMARK SMILES IDX 15 24 20 25 22 26 16 27 19 28 17 29 18 30
REMARK H PARENT 18 31
REMARK Flexibility Score: inf
ROOT
ATOM      1  C   UNL     1      -3.055  -6.767   1.898  1.00  0.00     0.012 C 
ATOM      2  C   UNL     1      -2.587  -8.151   2.380  1.00  0.00     0.012 C 
ENDROOT
BRANCH   1   3
ATOM      3  C   UNL     1      -1.873  -5.915   1.471  1.00  0.00    -0.028 C 
ATOM      4  C   UNL     1      -1.639  -4.680   1.948  1.00  0.00    -0.027 C 
BRANCH   4   5
ATOM      5  C   UNL     1      -0.497  -3.785   1.497  1.00  0.00     0.014 C 
BRANCH   5   6
ATOM      6  C   UNL     1       0.746  -4.566   0.975  1.00  0.00     0.004 C 
ATOM      7  C   UNL     1       2.008  -4.559   1.840  1.00  0.00     0.004 C 
ENDBRANCH   5   6
BRANCH   5   8
ATOM      8  C   UNL     1      -0.961  -2.512   0.715  1.00  0.00    -0.011 C 
ATOM      9  C   UNL     1      -0.903  -2.712  -0.808  1.00  0.00     0.008 C 
ATOM     10  C   UNL     1      -2.315  -1.922   1.141  1.00  0.00     0.008 C 
ENDBRANCH   5   8
ENDBRANCH   4   5
ENDBRANCH   1   3
BRANCH   1  11
ATOM     11  C   UNL     1      -4.219  -6.881   0.857  1.00  0.00     0.002 C 
ATOM     12  C   UNL     1      -3.811  -6.896  -0.613  1.00  0.00     0.005 C 
ATOM     13  C   UNL     1      -5.404  -5.857   0.955  1.00  0.00    -0.026 C 
ATOM     14  C   UNL     1      -5.121  -6.716  -1.355  1.00  0.00     0.005 C 
ATOM     15  C   UNL     1      -5.893  -5.687  -0.523  1.00  0.00    -0.001 C 
ATOM     16  C   UNL     1      -6.534  -6.401   1.888  1.00  0.00     0.007 C 
ATOM     17  C   UNL     1      -4.963  -4.473   1.492  1.00  0.00     0.012 C 
ATOM     18  C   UNL     1      -7.435  -5.735  -0.674  1.00  0.00     0.000 C 
ATOM     19  C   UNL     1      -7.402  -7.486   1.229  1.00  0.00     0.005 C 
ATOM     20  C   UNL     1      -8.077  -7.020  -0.096  1.00  0.00     0.003 C 
ATOM     21  C   UNL     1      -7.889  -5.574  -2.129  1.00  0.00     0.031 C 
ATOM     22  C   UNL     1      -9.651  -6.895  -0.050  1.00  0.00    -0.008 C 
ATOM     23  C   UNL     1      -9.389  -5.566  -2.212  1.00  0.00    -0.027 C 
ATOM     24  C   UNL     1     -10.192  -6.178  -1.306  1.00  0.00    -0.065 C 
ATOM     25  C   UNL     1     -10.138  -6.078   1.192  1.00  0.00     0.014 C 
ATOM     26  C   UNL     1     -10.239  -8.331  -0.004  1.00  0.00     0.016 C 
ATOM     27  C   UNL     1     -11.681  -5.913  -1.373  1.00  0.00     0.063 C 
ATOM     28  C   UNL     1     -11.650  -5.754   1.175  1.00  0.00     0.033 C 
ATOM     29  C   UNL     1     -12.125  -5.105  -0.142  1.00  0.00     0.118 C 
BRANCH  29  30
ATOM     30  O   UNL     1     -11.709  -3.764  -0.231  1.00  0.00    -0.393 OA
ATOM     31  H   UNL     1     -11.008  -3.701  -0.930  1.00  0.00     0.210 HD
ENDBRANCH  29  30
ENDBRANCH   1  11
TORSDOF 6
ENDMDL
MODEL 4
REMARK VINA RESULT:    -5.581      4.364     10.344
REMARK INTER + INTRA:          -8.443
REMARK INTER:                  -7.482
REMARK INTRA:                  -0.961
REMARK UNBOUND:                -1.068
REMARK SMILES CC[C@H](C=C[C@H](C)[C@@H]1CC[C@H]2[C@H]3CC=C4C[C@H](O)CC[C@]4(C)[C@@H]3CC[C@]21C)C(C)C
REMARK SMILES IDX 6 1 7 2 5 3 4 4 3 5 2 6 1 7 28 8 29 9 30 10 8 11 9 12 26 13
REMARK SMILES IDX 10 14 11 15 25 16 27 17 12 18 24 19 23 20 13 21 21 22 14 23
REMARK SMILES IDX 15 24 20 25 22 26 16 27 19 28 17 29 18 30
REMARK H PARENT 18 31
REMARK Flexibility Score: inf
ROOT
ATOM      1  C   UNL     1      -7.770  -5.679   0.883  1.00  0.00     0.012 C 
ATOM      2  C   UNL     1      -8.618  -6.635   1.741  1.00  0.00     0.012 C 
ENDROOT
BRANCH   1   3
ATOM      3  C   UNL     1      -6.457  -5.355   1.574  1.00  0.00    -0.028 C 
ATOM      4  C   UNL     1      -5.610  -4.402   1.146  1.00  0.00    -0.027 C 
BRANCH   4   5
ATOM      5  C   UNL     1      -4.266  -4.095   1.784  1.00  0.00     0.014 C 
BRANCH   5   6
ATOM      6  C   UNL     1      -3.233  -5.255   1.665  1.00  0.00     0.004 C 
ATOM      7  C   UNL     1      -2.910  -5.782   0.266  1.00  0.00     0.004 C 
ENDBRANCH   5   6
BRANCH   5   8
ATOM      8  C   UNL     1      -3.773  -2.629   1.546  1.00  0.00    -0.011 C 
ATOM      9  C   UNL     1      -4.322  -1.654   2.600  1.00  0.00     0.008 C 
ATOM     10  C   UNL     1      -2.256  -2.454   1.373  1.00  0.00     0.008 C 
ENDBRANCH   5   8
ENDBRANCH   4   5
ENDBRANCH   1   3
BRANCH   1  11
ATOM     11  C   UNL     1      -7.652  -6.181  -0.595  1.00  0.00     0.002 C 
ATOM     12  C   UNL     1      -6.250  -6.543  -1.076  1.00  0.00     0.005 C 
ATOM     13  C   UNL     1      -8.271  -5.292  -1.732  1.00  0.00    -0.026 C 
ATOM     14  C   UNL     1      -6.410  -6.699  -2.576  1.00  0.00     0.005 C 
ATOM     15  C   UNL     1      -7.364  -5.569  -2.977  1.00  0.00    -0.001 C 
ATOM     16  C   UNL     1      -9.762  -5.680  -1.992  1.00  0.00     0.007 C 
ATOM     17  C   UNL     1      -8.219  -3.779  -1.408  1.00  0.00     0.012 C 
ATOM     18  C   UNL     1      -8.164  -5.810  -4.283  1.00  0.00     0.000 C 
ATOM     19  C   UNL     1      -9.924  -6.983  -2.794  1.00  0.00     0.005 C 
ATOM     20  C   UNL     1      -9.201  -6.954  -4.175  1.00  0.00     0.003 C 
ATOM     21  C   UNL     1      -7.257  -6.086  -5.487  1.00  0.00     0.031 C 
ATOM     22  C   UNL     1     -10.149  -6.981  -5.439  1.00  0.00    -0.008 C 
ATOM     23  C   UNL     1      -8.077  -6.251  -6.735  1.00  0.00    -0.027 C 
ATOM     24  C   UNL     1      -9.364  -6.679  -6.733  1.00  0.00    -0.065 C 
ATOM     25  C   UNL     1     -11.293  -5.917  -5.336  1.00  0.00     0.014 C 
ATOM     26  C   UNL     1     -10.758  -8.405  -5.545  1.00  0.00     0.016 C 
ATOM     27  C   UNL     1     -10.150  -6.593  -8.024  1.00  0.00     0.063 C 
ATOM     28  C   UNL     1     -12.123  -5.763  -6.631  1.00  0.00     0.033 C 
ATOM     29  C   UNL     1     -11.260  -5.536  -7.891  1.00  0.00     0.118 C 
BRANCH  29  30
ATOM     30  O   UNL     1     -10.735  -4.232  -7.924  1.00  0.00    -0.393 OA
ATOM     31  H   UNL     1     -11.044  -3.793  -8.758  1.00  0.00     0.210 HD
ENDBRANCH  29  30
ENDBRANCH   1  11
TORSDOF 6
ENDMDL
MODEL 5
REMARK VINA RESULT:    -5.469      3.120      9.947
REMARK INTER + INTRA:          -8.295
REMARK INTER:                  -7.270
REMARK INTRA:                  -1.025
REMARK UNBOUND:                -1.068
REMARK SMILES CC[C@H](C=C[C@H](C)[C@@H]1CC[C@H]2[C@H]3CC=C4C[C@H](O)CC[C@]4(C)[C@@H]3CC[C@]21C)C(C)C
REMARK SMILES IDX 6 1 7 2 5 3 4 4 3 5 2 6 1 7 28 8 29 9 30 10 8 11 9 12 26 13
REMARK SMILES IDX 10 14 11 15 25 16 27 17 12 18 24 19 23 20 13 21 21 22 14 23
REMARK SMILES IDX 15 24 20 25 22 26 16 27 19 28 17 29 18 30
REMARK H PARENT 18 31
REMARK Flexibility Score: inf
ROOT
ATOM      1  C   UNL     1      -3.722  -4.023   1.473  1.00  0.00     0.012 C 
ATOM      2  C   UNL     1      -3.767  -2.495   1.641  1.00  0.00     0.012 C 
ENDROOT
BRANCH   1   3
ATOM      3  C   UNL     1      -2.560  -4.618   2.250  1.00  0.00    -0.028 C 
ATOM      4  C   UNL     1      -1.300  -4.659   1.783  1.00  0.00    -0.027 C 
BRANCH   4   5
ATOM      5  C   UNL     1      -0.131  -5.297   2.514  1.00  0.00     0.014 C 
BRANCH   5   6
ATOM      6  C   UNL     1      -0.524  -6.541   3.364  1.00  0.00     0.004 C 
ATOM      7  C   UNL     1       0.360  -6.894   4.562  1.00  0.00     0.004 C 
ENDBRANCH   5   6
BRANCH   5   8
ATOM      8  C   UNL     1       1.186  -5.354   1.672  1.00  0.00    -0.011 C 
ATOM      9  C   UNL     1       0.919  -5.694   0.197  1.00  0.00     0.008 C 
ATOM     10  C   UNL     1       2.113  -4.133   1.796  1.00  0.00     0.008 C 
ENDBRANCH   5   8
ENDBRANCH   4   5
ENDBRANCH   1   3
BRANCH   1  11
ATOM     11  C   UNL     1      -5.120  -4.675   1.742  1.00  0.00     0.002 C 
ATOM     12  C   UNL     1      -5.222  -5.573   2.971  1.00  0.00     0.005 C 
ATOM     13  C   UNL     1      -5.800  -5.478   0.577  1.00  0.00    -0.026 C 
ATOM     14  C   UNL     1      -6.558  -6.269   2.802  1.00  0.00     0.005 C 
ATOM     15  C   UNL     1      -6.639  -6.581   1.304  1.00  0.00    -0.001 C 
ATOM     16  C   UNL     1      -6.694  -4.540  -0.297  1.00  0.00     0.007 C 
ATOM     17  C   UNL     1      -4.776  -6.170  -0.356  1.00  0.00     0.012 C 
ATOM     18  C   UNL     1      -8.073  -6.742   0.737  1.00  0.00     0.000 C 
ATOM     19  C   UNL     1      -8.036  -4.183   0.365  1.00  0.00     0.005 C 
ATOM     20  C   UNL     1      -8.894  -5.429   0.739  1.00  0.00     0.003 C 
ATOM     21  C   UNL     1      -8.878  -7.822   1.469  1.00  0.00     0.031 C 
ATOM     22  C   UNL     1     -10.237  -5.599  -0.075  1.00  0.00    -0.008 C 
ATOM     23  C   UNL     1     -10.234  -7.979   0.843  1.00  0.00    -0.027 C 
ATOM     24  C   UNL     1     -10.869  -6.985   0.174  1.00  0.00    -0.065 C 
ATOM     25  C   UNL     1     -10.007  -5.469  -1.617  1.00  0.00     0.014 C 
ATOM     26  C   UNL     1     -11.226  -4.505   0.408  1.00  0.00     0.016 C 
ATOM     27  C   UNL     1     -12.125  -7.330  -0.599  1.00  0.00     0.063 C 
ATOM     28  C   UNL     1     -11.247  -5.828  -2.468  1.00  0.00     0.033 C 
ATOM     29  C   UNL     1     -11.864  -7.196  -2.109  1.00  0.00     0.118 C 
BRANCH  29  30
ATOM     30  O   UNL     1     -11.073  -8.256  -2.589  1.00  0.00    -0.393 OA
ATOM     31  H   UNL     1     -10.956  -8.139  -3.566  1.00  0.00     0.210 HD
ENDBRANCH  29  30
ENDBRANCH   1  11
TORSDOF 6
ENDMDL
MODEL 6
REMARK VINA RESULT:    -5.432      2.156      4.341
REMARK INTER + INTRA:          -8.247
REMARK INTER:                  -7.029
REMARK INTRA:                  -1.218
REMARK UNBOUND:                -1.068
REMARK SMILES CC[C@H](C=C[C@H](C)[C@@H]1CC[C@H]2[C@H]3CC=C4C[C@H](O)CC[C@]4(C)[C@@H]3CC[C@]21C)C(C)C
REMARK SMILES IDX 6 1 7 2 5 3 4 4 3 5 2 6 1 7 28 8 29 9 30 10 8 11 9 12 26 13
REMARK SMILES IDX 10 14 11 15 25 16 27 17 12 18 24 19 23 20 13 21 21 22 14 23
REMARK SMILES IDX 15 24 20 25 22 26 16 27 19 28 17 29 18 30
REMARK H PARENT 18 31
REMARK Flexibility Score: inf
ROOT
ATOM      1  C   UNL     1      -2.129  -6.975   0.366  1.00  0.00     0.012 C 
ATOM      2  C   UNL     1      -2.286  -8.494   0.176  1.00  0.00     0.012 C 
ENDROOT
BRANCH   1   3
ATOM      3  C   UNL     1      -3.367  -6.380   1.013  1.00  0.00    -0.028 C 
ATOM      4  C   UNL     1      -3.921  -5.219   0.625  1.00  0.00    -0.027 C 
BRANCH   4   5
ATOM      5  C   UNL     1      -5.125  -4.574   1.291  1.00  0.00     0.014 C 
BRANCH   5   6
ATOM      6  C   UNL     1      -4.960  -3.046   1.547  1.00  0.00     0.004 C 
ATOM      7  C   UNL     1      -3.539  -2.482   1.605  1.00  0.00     0.004 C 
ENDBRANCH   5   6
BRANCH   5   8
ATOM      8  C   UNL     1      -6.499  -5.097   0.756  1.00  0.00    -0.011 C 
ATOM      9  C   UNL     1      -7.286  -5.866   1.830  1.00  0.00     0.008 C 
ATOM     10  C   UNL     1      -7.390  -4.052   0.065  1.00  0.00     0.008 C 
ENDBRANCH   5   8
ENDBRANCH   4   5
ENDBRANCH   1   3
BRANCH   1  11
ATOM     11  C   UNL     1      -0.767  -6.617   1.052  1.00  0.00     0.002 C 
ATOM     12  C   UNL     1      -0.851  -6.059   2.470  1.00  0.00     0.005 C 
ATOM     13  C   UNL     1       0.222  -5.670   0.285  1.00  0.00    -0.026 C 
ATOM     14  C   UNL     1       0.550  -5.546   2.741  1.00  0.00     0.005 C 
ATOM     15  C   UNL     1       0.983  -4.905   1.418  1.00  0.00    -0.001 C 
ATOM     16  C   UNL     1       1.193  -6.495  -0.621  1.00  0.00     0.007 C 
ATOM     17  C   UNL     1      -0.504  -4.635  -0.609  1.00  0.00     0.012 C 
ATOM     18  C   UNL     1       2.515  -4.826   1.191  1.00  0.00     0.000 C 
ATOM     19  C   UNL     1       2.318  -7.191   0.163  1.00  0.00     0.005 C 
ATOM     20  C   UNL     1       3.188  -6.208   1.004  1.00  0.00     0.003 C 
ATOM     21  C   UNL     1       3.240  -4.079   2.317  1.00  0.00     0.031 C 
ATOM     22  C   UNL     1       4.686  -6.048   0.527  1.00  0.00    -0.008 C 
ATOM     23  C   UNL     1       4.708  -3.978   2.018  1.00  0.00    -0.027 C 
ATOM     24  C   UNL     1       5.377  -4.868   1.243  1.00  0.00    -0.065 C 
ATOM     25  C   UNL     1       4.786  -5.776  -1.010  1.00  0.00     0.014 C 
ATOM     26  C   UNL     1       5.438  -7.358   0.884  1.00  0.00     0.016 C 
ATOM     27  C   UNL     1       6.798  -4.539   0.836  1.00  0.00     0.063 C 
ATOM     28  C   UNL     1       6.210  -5.412  -1.490  1.00  0.00     0.033 C 
ATOM     29  C   UNL     1       6.860  -4.272  -0.678  1.00  0.00     0.118 C 
BRANCH  29  30
ATOM     30  O   UNL     1       6.296  -3.025  -1.003  1.00  0.00    -0.393 OA
ATOM     31  H   UNL     1       6.758  -2.327  -0.471  1.00  0.00     0.210 HD
ENDBRANCH  29  30
ENDBRANCH   1  11
TORSDOF 6
ENDMDL
MODEL 7
REMARK VINA RESULT:    -5.423      2.534      4.454
REMARK INTER + INTRA:          -8.235
REMARK INTER:                  -7.876
REMARK INTRA:                  -0.359
REMARK UNBOUND:                -1.068
REMARK SMILES CC[C@H](C=C[C@H](C)[C@@H]1CC[C@H]2[C@H]3CC=C4C[C@H](O)CC[C@]4(C)[C@@H]3CC[C@]21C)C(C)C
REMARK SMILES IDX 6 1 7 2 5 3 4 4 3 5 2 6 1 7 28 8 29 9 30 10 8 11 9 12 26 13
REMARK SMILES IDX 10 14 11 15 25 16 27 17 12 18 24 19 23 20 13 21 21 22 14 23
REMARK SMILES IDX 15 24 20 25 22 26 16 27 19 28 17 29 18 30
REMARK H PARENT 18 31
REMARK Flexibility Score: inf
ROOT
ATOM      1  C   UNL     1      -8.480  -7.965  -0.337  1.00  0.00     0.012 C 
ATOM      2  C   UNL     1      -9.156  -9.094   0.460  1.00  0.00     0.012 C 
ENDROOT
BRANCH   1   3
ATOM      3  C   UNL     1      -9.517  -7.098  -1.030  1.00  0.00    -0.028 C 
ATOM      4  C   UNL     1     -10.829  -7.136  -0.739  1.00  0.00    -0.027 C 
BRANCH   4   5
ATOM      5  C   UNL     1     -11.893  -6.321  -1.455  1.00  0.00     0.014 C 
BRANCH   5   6
ATOM      6  C   UNL     1     -11.855  -4.801  -1.117  1.00  0.00     0.004 C 
ATOM      7  C   UNL     1     -11.378  -4.392   0.278  1.00  0.00     0.004 C 
ENDBRANCH   5   6
BRANCH   5   8
ATOM      8  C   UNL     1     -12.125  -6.750  -2.942  1.00  0.00    -0.011 C 
ATOM      9  C   UNL     1     -11.183  -6.018  -3.911  1.00  0.00     0.008 C 
ATOM     10  C   UNL     1     -12.121  -8.264  -3.210  1.00  0.00     0.008 C 
ENDBRANCH   5   8
ENDBRANCH   4   5
ENDBRANCH   1   3
BRANCH   1  11
ATOM     11  C   UNL     1      -7.426  -7.198   0.530  1.00  0.00     0.002 C 
ATOM     12  C   UNL     1      -7.938  -6.580   1.828  1.00  0.00     0.005 C 
ATOM     13  C   UNL     1      -6.573  -6.076  -0.162  1.00  0.00    -0.026 C 
ATOM     14  C   UNL     1      -6.801  -5.684   2.277  1.00  0.00     0.005 C 
ATOM     15  C   UNL     1      -6.281  -5.049   0.982  1.00  0.00    -0.001 C 
ATOM     16  C   UNL     1      -5.260  -6.670  -0.767  1.00  0.00     0.007 C 
ATOM     17  C   UNL     1      -7.338  -5.350  -1.296  1.00  0.00     0.012 C 
ATOM     18  C   UNL     1      -4.807  -4.572   1.024  1.00  0.00     0.000 C 
ATOM     19  C   UNL     1      -4.181  -6.970   0.287  1.00  0.00     0.005 C 
ATOM     20  C   UNL     1      -3.782  -5.726   1.137  1.00  0.00     0.003 C 
ATOM     21  C   UNL     1      -4.543  -3.572   2.157  1.00  0.00     0.031 C 
ATOM     22  C   UNL     1      -2.308  -5.199   0.920  1.00  0.00    -0.008 C 
ATOM     23  C   UNL     1      -3.119  -3.096   2.115  1.00  0.00    -0.027 C 
ATOM     24  C   UNL     1      -2.102  -3.825   1.591  1.00  0.00    -0.065 C 
ATOM     25  C   UNL     1      -1.966  -5.026  -0.597  1.00  0.00     0.014 C 
ATOM     26  C   UNL     1      -1.338  -6.222   1.568  1.00  0.00     0.016 C 
ATOM     27  C   UNL     1      -0.759  -3.150   1.406  1.00  0.00     0.063 C 
ATOM     28  C   UNL     1      -0.614  -4.323  -0.858  1.00  0.00     0.033 C 
ATOM     29  C   UNL     1      -0.456  -2.991  -0.094  1.00  0.00     0.118 C 
BRANCH  29  30
ATOM     30  O   UNL     1      -1.238  -1.974  -0.670  1.00  0.00    -0.393 OA
ATOM     31  H   UNL     1      -1.582  -1.395   0.058  1.00  0.00     0.210 HD
ENDBRANCH  29  30
ENDBRANCH   1  11
TORSDOF 6
ENDMDL
MODEL 8
REMARK VINA RESULT:    -5.413      2.850      9.662
REMARK INTER + INTRA:          -8.221
REMARK INTER:                  -7.057
REMARK INTRA:                  -1.164
REMARK UNBOUND:                -1.068
REMARK SMILES CC[C@H](C=C[C@H](C)[C@@H]1CC[C@H]2[C@H]3CC=C4C[C@H](O)CC[C@]4(C)[C@@H]3CC[C@]21C)C(C)C
REMARK SMILES IDX 6 1 7 2 5 3 4 4 3 5 2 6 1 7 28 8 29 9 30 10 8 11 9 12 26 13
REMARK SMILES IDX 10 14 11 15 25 16 27 17 12 18 24 19 23 20 13 21 21 22 14 23
REMARK SMILES IDX 15 24 20 25 22 26 16 27 19 28 17 29 18 30
REMARK H PARENT 18 31
REMARK Flexibility Score: inf
ROOT
ATOM      1  C   UNL     1       2.449  -5.810   1.462  1.00  0.00     0.012 C 
ATOM      2  C   UNL     1       2.975  -6.615   0.261  1.00  0.00     0.012 C 
ENDROOT
BRANCH   1   3
ATOM      3  C   UNL     1       3.508  -4.848   1.973  1.00  0.00    -0.028 C 
ATOM      4  C   UNL     1       3.927  -4.818   3.250  1.00  0.00    -0.027 C 
BRANCH   4   5
ATOM      5  C   UNL     1       4.942  -3.831   3.799  1.00  0.00     0.014 C 
BRANCH   5   6
ATOM      6  C   UNL     1       4.332  -2.453   4.193  1.00  0.00     0.004 C 
ATOM      7  C   UNL     1       4.640  -1.909   5.590  1.00  0.00     0.004 C 
ENDBRANCH   5   6
BRANCH   5   8
ATOM      8  C   UNL     1       6.002  -4.477   4.751  1.00  0.00    -0.011 C 
ATOM      9  C   UNL     1       5.616  -5.906   5.166  1.00  0.00     0.008 C 
ATOM     10  C   UNL     1       7.460  -4.421   4.265  1.00  0.00     0.008 C 
ENDBRANCH   5   8
ENDBRANCH   4   5
ENDBRANCH   1   3
BRANCH   1  11
ATOM     11  C   UNL     1       1.048  -5.178   1.164  1.00  0.00     0.002 C 
ATOM     12  C   UNL     1       0.989  -3.654   1.119  1.00  0.00     0.005 C 
ATOM     13  C   UNL     1      -0.169  -5.620   2.053  1.00  0.00    -0.026 C 
ATOM     14  C   UNL     1      -0.496  -3.348   1.111  1.00  0.00     0.005 C 
ATOM     15  C   UNL     1      -1.099  -4.362   2.090  1.00  0.00    -0.001 C 
ATOM     16  C   UNL     1      -0.886  -6.864   1.435  1.00  0.00     0.007 C 
ATOM     17  C   UNL     1       0.242  -5.975   3.503  1.00  0.00     0.012 C 
ATOM     18  C   UNL     1      -2.596  -4.693   1.862  1.00  0.00     0.000 C 
ATOM     19  C   UNL     1      -1.774  -6.520   0.227  1.00  0.00     0.005 C 
ATOM     20  C   UNL     1      -2.870  -5.459   0.545  1.00  0.00     0.003 C 
ATOM     21  C   UNL     1      -3.487  -3.445   1.895  1.00  0.00     0.031 C 
ATOM     22  C   UNL     1      -4.359  -5.985   0.494  1.00  0.00    -0.008 C 
ATOM     23  C   UNL     1      -4.930  -3.827   1.730  1.00  0.00    -0.027 C 
ATOM     24  C   UNL     1      -5.339  -4.945   1.080  1.00  0.00    -0.065 C 
ATOM     25  C   UNL     1      -4.543  -7.304   1.315  1.00  0.00     0.014 C 
ATOM     26  C   UNL     1      -4.725  -6.231  -0.994  1.00  0.00     0.016 C 
ATOM     27  C   UNL     1      -6.799  -5.335   1.172  1.00  0.00     0.063 C 
ATOM     28  C   UNL     1      -6.016  -7.748   1.466  1.00  0.00     0.033 C 
ATOM     29  C   UNL     1      -6.944  -6.631   1.989  1.00  0.00     0.118 C 
BRANCH  29  30
ATOM     30  O   UNL     1      -6.743  -6.398   3.362  1.00  0.00    -0.393 OA
ATOM     31  H   UNL     1      -7.546  -6.711   3.851  1.00  0.00     0.210 HD
ENDBRANCH  29  30
ENDBRANCH   1  11
TORSDOF 6
ENDMDL
MODEL 9
REMARK VINA RESULT:    -5.304     10.507     14.797
REMARK INTER + INTRA:          -8.077
REMARK INTER:                  -7.008
REMARK INTRA:                  -1.069
REMARK UNBOUND:                -1.068
REMARK SMILES CC[C@H](C=C[C@H](C)[C@@H]1CC[C@H]2[C@H]3CC=C4C[C@H](O)CC[C@]4(C)[C@@H]3CC[C@]21C)C(C)C
REMARK SMILES IDX 6 1 7 2 5 3 4 4 3 5 2 6 1 7 28 8 29 9 30 10 8 11 9 12 26 13
REMARK SMILES IDX 10 14 11 15 25 16 27 17 12 18 24 19 23 20 13 21 21 22 14 23
REMARK SMILES IDX 15 24 20 25 22 26 16 27 19 28 17 29 18 30
REMARK H PARENT 18 31
REMARK Flexibility Score: inf
ROOT
ATOM      1  C   UNL     1       4.937   0.195  -6.168  1.00  0.00     0.012 C 
ATOM      2  C   UNL     1       5.614   0.133  -7.548  1.00  0.00     0.012 C 
ENDROOT
BRANCH   1   3
ATOM      3  C   UNL     1       5.870  -0.318  -5.085  1.00  0.00    -0.028 C 
ATOM      4  C   UNL     1       5.507  -1.228  -4.164  1.00  0.00    -0.027 C 
BRANCH   4   5
ATOM      5  C   UNL     1       6.402  -1.716  -3.038  1.00  0.00     0.014 C 
BRANCH   5   6
ATOM      6  C   UNL     1       6.537  -0.708  -1.858  1.00  0.00     0.004 C 
ATOM      7  C   UNL     1       7.890  -0.022  -1.658  1.00  0.00     0.004 C 
ENDBRANCH   5   6
BRANCH   5   8
ATOM      8  C   UNL     1       6.228  -3.235  -2.704  1.00  0.00    -0.011 C 
ATOM      9  C   UNL     1       7.130  -4.128  -3.571  1.00  0.00     0.008 C 
ATOM     10  C   UNL     1       6.346  -3.612  -1.218  1.00  0.00     0.008 C 
ENDBRANCH   5   8
ENDBRANCH   4   5
ENDBRANCH   1   3
BRANCH   1  11
ATOM     11  C   UNL     1       4.297   1.599  -5.901  1.00  0.00     0.002 C 
ATOM     12  C   UNL     1       4.513   2.188  -4.510  1.00  0.00     0.005 C 
ATOM     13  C   UNL     1       2.768   1.786  -6.204  1.00  0.00    -0.026 C 
ATOM     14  C   UNL     1       3.559   3.365  -4.462  1.00  0.00     0.005 C 
ATOM     15  C   UNL     1       2.297   2.862  -5.170  1.00  0.00    -0.001 C 
ATOM     16  C   UNL     1       2.546   2.253  -7.679  1.00  0.00     0.007 C 
ATOM     17  C   UNL     1       1.946   0.493  -5.983  1.00  0.00     0.012 C 
ATOM     18  C   UNL     1       1.400   3.965  -5.789  1.00  0.00     0.000 C 
ATOM     19  C   UNL     1       2.869   3.740  -7.906  1.00  0.00     0.005 C 
ATOM     20  C   UNL     1       2.054   4.698  -6.986  1.00  0.00     0.003 C 
ATOM     21  C   UNL     1       0.957   5.011  -4.759  1.00  0.00     0.031 C 
ATOM     22  C   UNL     1       1.006   5.621  -7.725  1.00  0.00    -0.008 C 
ATOM     23  C   UNL     1       0.044   6.019  -5.396  1.00  0.00    -0.027 C 
ATOM     24  C   UNL     1       0.073   6.326  -6.717  1.00  0.00    -0.065 C 
ATOM     25  C   UNL     1       0.095   4.808  -8.703  1.00  0.00     0.014 C 
ATOM     26  C   UNL     1       1.797   6.700  -8.511  1.00  0.00     0.016 C 
ATOM     27  C   UNL     1      -1.038   7.188  -7.277  1.00  0.00     0.063 C 
ATOM     28  C   UNL     1      -1.075   5.626  -9.296  1.00  0.00     0.033 C 
ATOM     29  C   UNL     1      -1.916   6.358  -8.229  1.00  0.00     0.118 C 
BRANCH  29  30
ATOM     30  O   UNL     1      -2.737   5.462  -7.520  1.00  0.00    -0.393 OA
ATOM     31  H   UNL     1      -3.334   5.988  -6.930  1.00  0.00     0.210 HD
ENDBRANCH  29  30
ENDBRANCH   1  11
TORSDOF 6
ENDMDL
