MODEL 1
REMARK VINA RESULT:    -3.767      0.000      0.000
REMARK INTER + INTRA:          -5.409
REMARK INTER:                  -4.758
REMARK INTRA:                  -0.651
REMARK UNBOUND:                -0.651
REMARK SMILES CC(C)=CCCC(C)=CCO
REMARK SMILES IDX 7 1 9 2 8 3 6 4 5 5 4 6 1 7 2 8 3 9 10 10 11 11
REMARK H PARENT 11 12
REMARK Flexibility Score: inf
ROOT
ATOM      1  C   UNL     1      43.466   8.493   4.954  1.00  0.00    -0.075 C 
ATOM      2  C   UNL     1      44.789   8.334   4.729  1.00  0.00    -0.000 C 
ATOM      3  C   UNL     1      42.808   9.848   4.850  1.00  0.00     0.039 C 
ENDROOT
BRANCH   1   4
ATOM      4  C   UNL     1      42.625   7.287   5.320  1.00  0.00     0.034 C 
BRANCH   4   5
ATOM      5  C   UNL     1      42.228   6.469   4.084  1.00  0.00     0.032 C 
BRANCH   5   6
ATOM      6  C   UNL     1      40.891   6.906   3.530  1.00  0.00    -0.028 C 
ATOM      7  C   UNL     1      41.900   8.123   1.587  1.00  0.00     0.039 C 
ATOM      8  C   UNL     1      40.730   7.672   2.429  1.00  0.00    -0.080 C 
ATOM      9  C   UNL     1      39.332   8.069   2.030  1.00  0.00     0.039 C 
ENDBRANCH   5   6
ENDBRANCH   4   5
ENDBRANCH   1   4
BRANCH   2  10
ATOM     10  C   UNL     1      45.708   9.472   4.366  1.00  0.00     0.183 C 
BRANCH  10  11
ATOM     11  O   UNL     1      46.903   9.383   5.092  1.00  0.00    -0.392 OA
ATOM     12  H   UNL     1      46.667   9.019   5.984  1.00  0.00     0.210 HD
ENDBRANCH  10  11
ENDBRANCH   2  10
TORSDOF 5
ENDMDL
MODEL 2
REMARK VINA RESULT:    -3.746      1.346      1.602
REMARK INTER + INTRA:          -5.382
REMARK INTER:                  -5.047
REMARK INTRA:                  -0.335
REMARK UNBOUND:                -0.651
REMARK SMILES CC(C)=CCCC(C)=CCO
REMARK SMILES IDX 7 1 9 2 8 3 6 4 5 5 4 6 1 7 2 8 3 9 10 10 11 11
REMARK H PARENT 11 12
REMARK Flexibility Score: inf
ROOT
ATOM      1  C   UNL     1      43.442   8.487   4.935  1.00  0.00    -0.075 C 
ATOM      2  C   UNL     1      44.763   8.314   4.714  1.00  0.00    -0.000 C 
ATOM      3  C   UNL     1      42.800   9.851   4.842  1.00  0.00     0.039 C 
ENDROOT
BRANCH   1   4
ATOM      4  C   UNL     1      42.585   7.287   5.284  1.00  0.00     0.034 C 
BRANCH   4   5
ATOM      5  C   UNL     1      42.652   6.200   4.202  1.00  0.00     0.032 C 
BRANCH   5   6
ATOM      6  C   UNL     1      41.911   6.610   2.951  1.00  0.00    -0.028 C 
ATOM      7  C   UNL     1      41.926   4.302   1.978  1.00  0.00     0.039 C 
ATOM      8  C   UNL     1      41.605   5.777   1.932  1.00  0.00    -0.080 C 
ATOM      9  C   UNL     1      40.905   6.347   0.725  1.00  0.00     0.039 C 
ENDBRANCH   5   6
ENDBRANCH   4   5
ENDBRANCH   1   4
BRANCH   2  10
ATOM     10  C   UNL     1      45.697   9.445   4.368  1.00  0.00     0.183 C 
BRANCH  10  11
ATOM     11  O   UNL     1      46.879   9.347   5.114  1.00  0.00    -0.392 OA
ATOM     12  H   UNL     1      47.544   8.891   4.535  1.00  0.00     0.210 HD
ENDBRANCH  10  11
ENDBRANCH   2  10
TORSDOF 5
ENDMDL
MODEL 3
REMARK VINA RESULT:    -3.677      2.790      4.682
REMARK INTER + INTRA:          -5.294
REMARK INTER:                  -4.825
REMARK INTRA:                  -0.470
REMARK UNBOUND:                -0.651
REMARK SMILES CC(C)=CCCC(C)=CCO
REMARK SMILES IDX 7 1 9 2 8 3 6 4 5 5 4 6 1 7 2 8 3 9 10 10 11 11
REMARK H PARENT 11 12
REMARK Flexibility Score: inf
ROOT
ATOM      1  C   UNL     1      42.415   6.778   3.777  1.00  0.00    -0.075 C 
ATOM      2  C   UNL     1      42.506   5.432   3.719  1.00  0.00    -0.000 C 
ATOM      3  C   UNL     1      41.894   7.582   2.609  1.00  0.00     0.039 C 
ENDROOT
BRANCH   1   4
ATOM      4  C   UNL     1      42.844   7.498   5.039  1.00  0.00     0.034 C 
BRANCH   4   5
ATOM      5  C   UNL     1      44.187   8.219   4.860  1.00  0.00     0.032 C 
BRANCH   5   6
ATOM      6  C   UNL     1      44.039   9.718   4.984  1.00  0.00    -0.028 C 
ATOM      7  C   UNL     1      44.800  10.160   2.639  1.00  0.00     0.039 C 
ATOM      8  C   UNL     1      44.338  10.602   4.008  1.00  0.00    -0.080 C 
ATOM      9  C   UNL     1      44.185  12.073   4.301  1.00  0.00     0.039 C 
ENDBRANCH   5   6
ENDBRANCH   4   5
ENDBRANCH   1   4
BRANCH   2  10
ATOM     10  C   UNL     1      42.111   4.628   2.507  1.00  0.00     0.183 C 
BRANCH  10  11
ATOM     11  O   UNL     1      42.732   3.373   2.531  1.00  0.00    -0.392 OA
ATOM     12  H   UNL     1      42.491   2.919   1.683  1.00  0.00     0.210 HD
ENDBRANCH  10  11
ENDBRANCH   2  10
TORSDOF 5
ENDMDL
MODEL 4
REMARK VINA RESULT:    -3.632      2.711      4.398
REMARK INTER + INTRA:          -5.238
REMARK INTER:                  -4.561
REMARK INTRA:                  -0.677
REMARK UNBOUND:                -0.651
REMARK SMILES CC(C)=CCCC(C)=CCO
REMARK SMILES IDX 7 1 9 2 8 3 6 4 5 5 4 6 1 7 2 8 3 9 10 10 11 11
REMARK H PARENT 11 12
REMARK Flexibility Score: inf
ROOT
ATOM      1  C   UNL     1      44.108   8.399   4.920  1.00  0.00    -0.075 C 
ATOM      2  C   UNL     1      43.479   7.463   4.177  1.00  0.00    -0.000 C 
ATOM      3  C   UNL     1      43.587   8.805   6.279  1.00  0.00     0.039 C 
ENDROOT
BRANCH   1   4
ATOM      4  C   UNL     1      45.360   9.058   4.380  1.00  0.00     0.034 C 
BRANCH   4   5
ATOM      5  C   UNL     1      45.053  10.000   3.207  1.00  0.00     0.032 C 
BRANCH   5   6
ATOM      6  C   UNL     1      44.634  11.370   3.685  1.00  0.00    -0.028 C 
ATOM      7  C   UNL     1      42.217  11.012   3.135  1.00  0.00     0.039 C 
ATOM      8  C   UNL     1      43.372  11.849   3.632  1.00  0.00    -0.080 C 
ATOM      9  C   UNL     1      43.119  13.259   4.101  1.00  0.00     0.039 C 
ENDBRANCH   5   6
ENDBRANCH   4   5
ENDBRANCH   1   4
BRANCH   2  10
ATOM     10  C   UNL     1      42.225   6.757   4.624  1.00  0.00     0.183 C 
BRANCH  10  11
ATOM     11  O   UNL     1      42.346   5.376   4.424  1.00  0.00    -0.392 OA
ATOM     12  H   UNL     1      42.910   5.253   3.617  1.00  0.00     0.210 HD
ENDBRANCH  10  11
ENDBRANCH   2  10
TORSDOF 5
ENDMDL
MODEL 5
REMARK VINA RESULT:    -3.603      2.006      2.866
REMARK INTER + INTRA:          -5.201
REMARK INTER:                  -4.572
REMARK INTRA:                  -0.629
REMARK UNBOUND:                -0.651
REMARK SMILES CC(C)=CCCC(C)=CCO
REMARK SMILES IDX 7 1 9 2 8 3 6 4 5 5 4 6 1 7 2 8 3 9 10 10 11 11
REMARK H PARENT 11 12
REMARK Flexibility Score: inf
ROOT
ATOM      1  C   UNL     1      44.124   9.687   4.231  1.00  0.00    -0.075 C 
ATOM      2  C   UNL     1      43.143  10.546   4.585  1.00  0.00    -0.000 C 
ATOM      3  C   UNL     1      45.015   9.958   3.042  1.00  0.00     0.039 C 
ENDROOT
BRANCH   1   4
ATOM      4  C   UNL     1      44.335   8.426   5.042  1.00  0.00     0.034 C 
BRANCH   4   5
ATOM      5  C   UNL     1      43.020   7.671   5.281  1.00  0.00     0.032 C 
BRANCH   5   6
ATOM      6  C   UNL     1      42.802   6.588   4.250  1.00  0.00    -0.028 C 
ATOM      7  C   UNL     1      41.044   7.877   3.016  1.00  0.00     0.039 C 
ATOM      8  C   UNL     1      41.899   6.653   3.247  1.00  0.00    -0.080 C 
ATOM      9  C   UNL     1      41.763   5.468   2.326  1.00  0.00     0.039 C 
ENDBRANCH   5   6
ENDBRANCH   4   5
ENDBRANCH   1   4
BRANCH   2  10
ATOM     10  C   UNL     1      42.852  11.822   3.838  1.00  0.00     0.183 C 
BRANCH  10  11
ATOM     11  O   UNL     1      43.069  12.931   4.665  1.00  0.00    -0.392 OA
ATOM     12  H   UNL     1      42.868  13.736   4.121  1.00  0.00     0.210 HD
ENDBRANCH  10  11
ENDBRANCH   2  10
TORSDOF 5
ENDMDL
MODEL 6
REMARK VINA RESULT:    -3.572      1.367      2.214
REMARK INTER + INTRA:          -5.163
REMARK INTER:                  -4.632
REMARK INTRA:                  -0.530
REMARK UNBOUND:                -0.651
REMARK SMILES CC(C)=CCCC(C)=CCO
REMARK SMILES IDX 7 1 9 2 8 3 6 4 5 5 4 6 1 7 2 8 3 9 10 10 11 11
REMARK H PARENT 11 12
REMARK Flexibility Score: inf
ROOT
ATOM      1  C   UNL     1      43.391   8.741   4.244  1.00  0.00    -0.075 C 
ATOM      2  C   UNL     1      44.681   9.137   4.212  1.00  0.00    -0.000 C 
ATOM      3  C   UNL     1      42.921   7.664   5.194  1.00  0.00     0.039 C 
ENDROOT
BRANCH   1   4
ATOM      4  C   UNL     1      42.392   9.389   3.307  1.00  0.00     0.034 C 
BRANCH   4   5
ATOM      5  C   UNL     1      41.252   8.431   2.934  1.00  0.00     0.032 C 
BRANCH   5   6
ATOM      6  C   UNL     1      41.464   7.814   1.571  1.00  0.00    -0.028 C 
ATOM      7  C   UNL     1      41.700   5.489   2.471  1.00  0.00     0.039 C 
ATOM      8  C   UNL     1      41.695   6.501   1.351  1.00  0.00    -0.080 C 
ATOM      9  C   UNL     1      41.939   6.044  -0.065  1.00  0.00     0.039 C 
ENDBRANCH   5   6
ENDBRANCH   4   5
ENDBRANCH   1   4
BRANCH   2  10
ATOM     10  C   UNL     1      45.749   8.548   5.100  1.00  0.00     0.183 C 
BRANCH  10  11
ATOM     11  O   UNL     1      46.890   9.360   5.093  1.00  0.00    -0.392 OA
ATOM     12  H   UNL     1      47.061   9.619   6.035  1.00  0.00     0.210 HD
ENDBRANCH  10  11
ENDBRANCH   2  10
TORSDOF 5
ENDMDL
MODEL 7
REMARK VINA RESULT:    -3.549      2.586      3.075
REMARK INTER + INTRA:          -5.134
REMARK INTER:                  -4.649
REMARK INTRA:                  -0.485
REMARK UNBOUND:                -0.651
REMARK SMILES CC(C)=CCCC(C)=CCO
REMARK SMILES IDX 7 1 9 2 8 3 6 4 5 5 4 6 1 7 2 8 3 9 10 10 11 11
REMARK H PARENT 11 12
REMARK Flexibility Score: inf
ROOT
ATOM      1  C   UNL     1      42.819   8.173   4.609  1.00  0.00    -0.075 C 
ATOM      2  C   UNL     1      42.057   8.983   3.842  1.00  0.00    -0.000 C 
ATOM      3  C   UNL     1      43.677   8.723   5.723  1.00  0.00     0.039 C 
ENDROOT
BRANCH   1   4
ATOM      4  C   UNL     1      42.814   6.682   4.345  1.00  0.00     0.034 C 
BRANCH   4   5
ATOM      5  C   UNL     1      41.495   6.215   3.712  1.00  0.00     0.032 C 
BRANCH   5   6
ATOM      6  C   UNL     1      41.731   5.234   2.588  1.00  0.00    -0.028 C 
ATOM      7  C   UNL     1      41.475   6.963   0.794  1.00  0.00     0.039 C 
ATOM      8  C   UNL     1      41.695   5.548   1.274  1.00  0.00    -0.080 C 
ATOM      9  C   UNL     1      41.900   4.445   0.268  1.00  0.00     0.039 C 
ENDBRANCH   5   6
ENDBRANCH   4   5
ENDBRANCH   1   4
BRANCH   2  10
ATOM     10  C   UNL     1      41.999  10.478   4.023  1.00  0.00     0.183 C 
BRANCH  10  11
ATOM     11  O   UNL     1      40.856  10.838   4.748  1.00  0.00    -0.392 OA
ATOM     12  H   UNL     1      40.952  10.433   5.649  1.00  0.00     0.210 HD
ENDBRANCH  10  11
ENDBRANCH   2  10
TORSDOF 5
ENDMDL
MODEL 8
REMARK VINA RESULT:    -3.544      2.433      4.071
REMARK INTER + INTRA:          -5.127
REMARK INTER:                  -4.655
REMARK INTRA:                  -0.471
REMARK UNBOUND:                -0.651
REMARK SMILES CC(C)=CCCC(C)=CCO
REMARK SMILES IDX 7 1 9 2 8 3 6 4 5 5 4 6 1 7 2 8 3 9 10 10 11 11
REMARK H PARENT 11 12
REMARK Flexibility Score: inf
ROOT
ATOM      1  C   UNL     1      43.436   8.756   3.981  1.00  0.00    -0.075 C 
ATOM      2  C   UNL     1      44.680   9.240   4.186  1.00  0.00    -0.000 C 
ATOM      3  C   UNL     1      42.963   7.490   4.655  1.00  0.00     0.039 C 
ENDROOT
BRANCH   1   4
ATOM      4  C   UNL     1      42.494   9.499   3.056  1.00  0.00     0.034 C 
BRANCH   4   5
ATOM      5  C   UNL     1      43.166  10.719   2.412  1.00  0.00     0.032 C 
BRANCH   5   6
ATOM      6  C   UNL     1      42.385  11.987   2.667  1.00  0.00    -0.028 C 
ATOM      7  C   UNL     1      43.957  12.804   4.437  1.00  0.00     0.039 C 
ATOM      8  C   UNL     1      42.711  12.917   3.592  1.00  0.00    -0.080 C 
ATOM      9  C   UNL     1      41.802  14.106   3.763  1.00  0.00     0.039 C 
ENDBRANCH   5   6
ENDBRANCH   4   5
ENDBRANCH   1   4
BRANCH   2  10
ATOM     10  C   UNL     1      45.690   8.570   5.083  1.00  0.00     0.183 C 
BRANCH  10  11
ATOM     11  O   UNL     1      46.885   9.301   5.101  1.00  0.00    -0.392 OA
ATOM     12  H   UNL     1      47.575   8.708   5.496  1.00  0.00     0.210 HD
ENDBRANCH  10  11
ENDBRANCH   2  10
TORSDOF 5
ENDMDL
MODEL 9
REMARK VINA RESULT:    -3.484      3.220      5.163
REMARK INTER + INTRA:          -5.051
REMARK INTER:                  -4.355
REMARK INTRA:                  -0.696
REMARK UNBOUND:                -0.651
REMARK SMILES CC(C)=CCCC(C)=CCO
REMARK SMILES IDX 7 1 9 2 8 3 6 4 5 5 4 6 1 7 2 8 3 9 10 10 11 11
REMARK H PARENT 11 12
REMARK Flexibility Score: inf
ROOT
ATOM      1  C   UNL     1      42.863  12.206   2.876  1.00  0.00    -0.075 C 
ATOM      2  C   UNL     1      41.644  11.635   2.756  1.00  0.00    -0.000 C 
ATOM      3  C   UNL     1      43.175  13.165   3.999  1.00  0.00     0.039 C 
ENDROOT
BRANCH   1   4
ATOM      4  C   UNL     1      43.938  11.877   1.861  1.00  0.00     0.034 C 
BRANCH   4   5
ATOM      5  C   UNL     1      44.227  10.371   1.797  1.00  0.00     0.032 C 
BRANCH   5   6
ATOM      6  C   UNL     1      45.058   9.910   2.972  1.00  0.00    -0.028 C 
ATOM      7  C   UNL     1      43.203   8.560   3.976  1.00  0.00     0.039 C 
ATOM      8  C   UNL     1      44.604   9.123   3.972  1.00  0.00    -0.080 C 
ATOM      9  C   UNL     1      45.542   8.790   5.104  1.00  0.00     0.039 C 
ENDBRANCH   5   6
ENDBRANCH   4   5
ENDBRANCH   1   4
BRANCH   2  10
ATOM     10  C   UNL     1      40.509  11.903   3.710  1.00  0.00     0.183 C 
BRANCH  10  11
ATOM     11  O   UNL     1      40.527  10.977   4.761  1.00  0.00    -0.392 OA
ATOM     12  H   UNL     1      40.680  11.494   5.594  1.00  0.00     0.210 HD
ENDBRANCH  10  11
ENDBRANCH   2  10
TORSDOF 5
ENDMDL
