MODEL 1
REMARK VINA RESULT:    -4.238      0.000      0.000
REMARK INTER + INTRA:         -12.236
REMARK INTER:                  -9.688
REMARK INTRA:                  -2.548
REMARK UNBOUND:                -2.548
REMARK SMILES CCCCCCCCCCCCCCCCCCCCCCCC(=O)[O-]
REMARK SMILES IDX 13 1 14 2 15 3 16 4 17 5 18 6 19 7 20 8 21 9 22 10 23 11
REMARK SMILES IDX 24 12 25 13 26 14 12 15 11 16 10 17 9 18 8 19 7 20 6 21 5 22
REMARK SMILES IDX 4 23 3 24 2 25 1 26
REMARK H PARENT
REMARK Flexibility Score: inf
ROOT
ATOM      1  C   UNL     1      -0.379  -8.899 -14.385  1.00  0.00     0.000 C 
ENDROOT
BRANCH   1   2
ATOM      2  C   UNL     1       0.663  -8.841 -13.260  1.00  0.00     0.000 C 
BRANCH   2   3
ATOM      3  C   UNL     1       0.470  -7.586 -12.394  1.00  0.00     0.000 C 
BRANCH   3   4
ATOM      4  C   UNL     1      -0.528  -6.587 -13.004  1.00  0.00     0.000 C 
BRANCH   4   5
ATOM      5  C   UNL     1      -1.087  -5.549 -12.013  1.00  0.00     0.000 C 
BRANCH   5   6
ATOM      6  C   UNL     1      -1.900  -4.443 -12.708  1.00  0.00     0.000 C 
BRANCH   6   7
ATOM      7  C   UNL     1      -2.149  -4.743 -14.195  1.00  0.00     0.000 C 
BRANCH   7   8
ATOM      8  C   UNL     1      -2.527  -3.487 -14.997  1.00  0.00     0.000 C 
BRANCH   8   9
ATOM      9  C   UNL     1      -3.589  -3.760 -16.077  1.00  0.00     0.000 C 
BRANCH   9  10
ATOM     10  C   UNL     1      -3.788  -5.258 -16.396  1.00  0.00     0.006 C 
BRANCH  10  11
ATOM     11  C   UNL     1      -3.383  -5.616 -17.835  1.00  0.00     0.053 C 
BRANCH  11  12
ATOM     12  C   UNL     1      -4.571  -5.673 -18.751  1.00  0.00     0.041 C 
ATOM     13  O   UNL     1      -5.411  -6.608 -18.657  1.00  0.00    -0.550 OA
ATOM     14  O   UNL     1      -4.699  -4.734 -19.769  1.00  0.00    -0.550 OA
ENDBRANCH  11  12
ENDBRANCH  10  11
ENDBRANCH   9  10
ENDBRANCH   8   9
ENDBRANCH   7   8
ENDBRANCH   6   7
ENDBRANCH   5   6
ENDBRANCH   4   5
ENDBRANCH   3   4
ENDBRANCH   2   3
ENDBRANCH   1   2
BRANCH   1  15
ATOM     15  C   UNL     1      -0.904 -10.330 -14.573  1.00  0.00     0.000 C 
BRANCH  15  16
ATOM     16  C   UNL     1      -1.995 -10.431 -15.654  1.00  0.00     0.000 C 
BRANCH  16  17
ATOM     17  C   UNL     1      -2.585  -9.084 -16.117  1.00  0.00     0.000 C 
BRANCH  17  18
ATOM     18  C   UNL     1      -4.044  -9.141 -16.602  1.00  0.00    -0.000 C 
BRANCH  18  19
ATOM     19  C   UNL     1      -4.661 -10.546 -16.469  1.00  0.00    -0.000 C 
BRANCH  19  20
ATOM     20  C   UNL     1      -5.057 -11.150 -17.825  1.00  0.00    -0.000 C 
BRANCH  20  21
ATOM     21  C   UNL     1      -5.065 -12.689 -17.806  1.00  0.00    -0.000 C 
BRANCH  21  22
ATOM     22  C   UNL     1      -4.245 -13.269 -16.643  1.00  0.00    -0.000 C 
BRANCH  22  23
ATOM     23  C   UNL     1      -2.934 -13.925 -17.110  1.00  0.00    -0.000 C 
BRANCH  23  24
ATOM     24  C   UNL     1      -1.922 -14.118 -15.966  1.00  0.00    -0.000 C 
BRANCH  24  25
ATOM     25  C   UNL     1      -2.438 -13.709 -14.575  1.00  0.00    -0.003 C 
ATOM     26  C   UNL     1      -2.418 -14.858 -13.567  1.00  0.00     0.004 C 
ENDBRANCH  24  25
ENDBRANCH  23  24
ENDBRANCH  22  23
ENDBRANCH  21  22
ENDBRANCH  20  21
ENDBRANCH  19  20
ENDBRANCH  18  19
ENDBRANCH  17  18
ENDBRANCH  16  17
ENDBRANCH  15  16
ENDBRANCH   1  15
TORSDOF 22
ENDMDL
MODEL 2
REMARK VINA RESULT:    -4.154     15.571     16.781
REMARK INTER + INTRA:         -12.045
REMARK INTER:                  -8.552
REMARK INTRA:                  -3.493
REMARK UNBOUND:                -2.548
REMARK SMILES CCCCCCCCCCCCCCCCCCCCCCCC(=O)[O-]
REMARK SMILES IDX 13 1 14 2 15 3 16 4 17 5 18 6 19 7 20 8 21 9 22 10 23 11
REMARK SMILES IDX 24 12 25 13 26 14 12 15 11 16 10 17 9 18 8 19 7 20 6 21 5 22
REMARK SMILES IDX 4 23 3 24 2 25 1 26
REMARK H PARENT
REMARK Flexibility Score: inf
ROOT
ATOM      1  C   UNL     1      12.992 -11.042 -24.199  1.00  0.00     0.000 C 
ENDROOT
BRANCH   1   2
ATOM      2  C   UNL     1      13.614 -11.784 -23.009  1.00  0.00     0.000 C 
BRANCH   2   3
ATOM      3  C   UNL     1      12.620 -11.883 -21.841  1.00  0.00     0.000 C 
BRANCH   3   4
ATOM      4  C   UNL     1      11.213 -11.382 -22.209  1.00  0.00     0.000 C 
BRANCH   4   5
ATOM      5  C   UNL     1      10.699 -10.213 -21.348  1.00  0.00     0.000 C 
BRANCH   5   6
ATOM      6  C   UNL     1      10.701  -8.874 -22.105  1.00  0.00     0.000 C 
BRANCH   6   7
ATOM      7  C   UNL     1      11.418  -7.760 -21.326  1.00  0.00     0.000 C 
BRANCH   7   8
ATOM      8  C   UNL     1      12.242  -6.836 -22.237  1.00  0.00     0.000 C 
BRANCH   8   9
ATOM      9  C   UNL     1      11.368  -5.906 -23.099  1.00  0.00     0.000 C 
BRANCH   9  10
ATOM     10  C   UNL     1      11.929  -4.475 -23.244  1.00  0.00     0.006 C 
BRANCH  10  11
ATOM     11  C   UNL     1      12.286  -3.839 -21.891  1.00  0.00     0.053 C 
BRANCH  11  12
ATOM     12  C   UNL     1      11.290  -2.792 -21.487  1.00  0.00     0.041 C 
ATOM     13  O   UNL     1      10.474  -2.322 -22.325  1.00  0.00    -0.550 OA
ATOM     14  O   UNL     1      11.326  -2.271 -20.198  1.00  0.00    -0.550 OA
ENDBRANCH  11  12
ENDBRANCH  10  11
ENDBRANCH   9  10
ENDBRANCH   8   9
ENDBRANCH   7   8
ENDBRANCH   6   7
ENDBRANCH   5   6
ENDBRANCH   4   5
ENDBRANCH   3   4
ENDBRANCH   2   3
ENDBRANCH   1   2
BRANCH   1  15
ATOM     15  C   UNL     1      13.579  -9.629 -24.333  1.00  0.00     0.000 C 
BRANCH  15  16
ATOM     16  C   UNL     1      13.169  -8.931 -25.641  1.00  0.00     0.000 C 
BRANCH  16  17
ATOM     17  C   UNL     1      11.728  -8.381 -25.665  1.00  0.00     0.000 C 
BRANCH  17  18
ATOM     18  C   UNL     1      10.710  -9.250 -26.425  1.00  0.00    -0.000 C 
BRANCH  18  19
ATOM     19  C   UNL     1       9.647  -9.868 -25.499  1.00  0.00    -0.000 C 
BRANCH  19  20
ATOM     20  C   UNL     1       9.631 -11.403 -25.554  1.00  0.00    -0.000 C 
BRANCH  20  21
ATOM     21  C   UNL     1      10.091 -11.949 -26.918  1.00  0.00    -0.000 C 
BRANCH  21  22
ATOM     22  C   UNL     1      11.259 -12.939 -26.793  1.00  0.00    -0.000 C 
BRANCH  22  23
ATOM     23  C   UNL     1      11.045 -14.218 -27.621  1.00  0.00    -0.000 C 
BRANCH  23  24
ATOM     24  C   UNL     1       9.580 -14.693 -27.618  1.00  0.00    -0.000 C 
BRANCH  24  25
ATOM     25  C   UNL     1       9.214 -15.643 -26.464  1.00  0.00    -0.003 C 
ATOM     26  C   UNL     1       8.246 -15.020 -25.458  1.00  0.00     0.004 C 
ENDBRANCH  24  25
ENDBRANCH  23  24
ENDBRANCH  22  23
ENDBRANCH  21  22
ENDBRANCH  20  21
ENDBRANCH  19  20
ENDBRANCH  18  19
ENDBRANCH  17  18
ENDBRANCH  16  17
ENDBRANCH  15  16
ENDBRANCH   1  15
TORSDOF 22
ENDMDL
MODEL 3
REMARK VINA RESULT:    -4.108     10.840     12.951
REMARK INTER + INTRA:         -11.940
REMARK INTER:                  -8.847
REMARK INTRA:                  -3.093
REMARK UNBOUND:                -2.548
REMARK SMILES CCCCCCCCCCCCCCCCCCCCCCCC(=O)[O-]
REMARK SMILES IDX 13 1 14 2 15 3 16 4 17 5 18 6 19 7 20 8 21 9 22 10 23 11
REMARK SMILES IDX 24 12 25 13 26 14 12 15 11 16 10 17 9 18 8 19 7 20 6 21 5 22
REMARK SMILES IDX 4 23 3 24 2 25 1 26
REMARK H PARENT
REMARK Flexibility Score: inf
ROOT
ATOM      1  C   UNL     1      -2.306  -3.784 -27.254  1.00  0.00     0.000 C 
ENDROOT
BRANCH   1   2
ATOM      2  C   UNL     1      -3.455  -4.196 -26.325  1.00  0.00     0.000 C 
BRANCH   2   3
ATOM      3  C   UNL     1      -4.817  -3.860 -26.953  1.00  0.00     0.000 C 
BRANCH   3   4
ATOM      4  C   UNL     1      -5.230  -2.394 -26.739  1.00  0.00     0.000 C 
BRANCH   4   5
ATOM      5  C   UNL     1      -4.880  -1.821 -25.353  1.00  0.00     0.000 C 
BRANCH   5   6
ATOM      6  C   UNL     1      -4.823  -0.284 -25.344  1.00  0.00     0.000 C 
BRANCH   6   7
ATOM      7  C   UNL     1      -3.468   0.250 -24.853  1.00  0.00     0.000 C 
BRANCH   7   8
ATOM      8  C   UNL     1      -2.283  -0.592 -25.354  1.00  0.00     0.000 C 
BRANCH   8   9
ATOM      9  C   UNL     1      -1.236   0.239 -26.119  1.00  0.00     0.000 C 
BRANCH   9  10
ATOM     10  C   UNL     1      -0.835  -0.361 -27.484  1.00  0.00     0.006 C 
BRANCH  10  11
ATOM     11  C   UNL     1      -1.967  -0.282 -28.520  1.00  0.00     0.053 C 
BRANCH  11  12
ATOM     12  C   UNL     1      -1.588   0.568 -29.697  1.00  0.00     0.041 C 
ATOM     13  O   UNL     1      -2.264   0.533 -30.761  1.00  0.00    -0.550 OA
ATOM     14  O   UNL     1      -0.429   1.336 -29.645  1.00  0.00    -0.550 OA
ENDBRANCH  11  12
ENDBRANCH  10  11
ENDBRANCH   9  10
ENDBRANCH   8   9
ENDBRANCH   7   8
ENDBRANCH   6   7
ENDBRANCH   5   6
ENDBRANCH   4   5
ENDBRANCH   3   4
ENDBRANCH   2   3
ENDBRANCH   1   2
BRANCH   1  15
ATOM     15  C   UNL     1      -1.240  -4.886 -27.330  1.00  0.00     0.000 C 
BRANCH  15  16
ATOM     16  C   UNL     1       0.013  -4.455 -28.113  1.00  0.00     0.000 C 
BRANCH  16  17
ATOM     17  C   UNL     1       0.775  -5.600 -28.811  1.00  0.00     0.000 C 
BRANCH  17  18
ATOM     18  C   UNL     1       0.684  -6.968 -28.111  1.00  0.00    -0.000 C 
BRANCH  18  19
ATOM     19  C   UNL     1      -0.115  -8.002 -28.925  1.00  0.00    -0.000 C 
BRANCH  19  20
ATOM     20  C   UNL     1      -1.133  -8.771 -28.071  1.00  0.00    -0.000 C 
BRANCH  20  21
ATOM     21  C   UNL     1      -1.000  -8.458 -26.569  1.00  0.00    -0.000 C 
BRANCH  21  22
ATOM     22  C   UNL     1      -2.263  -8.829 -25.776  1.00  0.00    -0.000 C 
BRANCH  22  23
ATOM     23  C   UNL     1      -3.517  -8.916 -26.664  1.00  0.00    -0.000 C 
BRANCH  23  24
ATOM     24  C   UNL     1      -4.574  -7.855 -26.308  1.00  0.00    -0.000 C 
BRANCH  24  25
ATOM     25  C   UNL     1      -4.681  -7.530 -24.807  1.00  0.00    -0.003 C 
ATOM     26  C   UNL     1      -5.801  -6.540 -24.487  1.00  0.00     0.004 C 
ENDBRANCH  24  25
ENDBRANCH  23  24
ENDBRANCH  22  23
ENDBRANCH  21  22
ENDBRANCH  20  21
ENDBRANCH  19  20
ENDBRANCH  18  19
ENDBRANCH  17  18
ENDBRANCH  16  17
ENDBRANCH  15  16
ENDBRANCH   1  15
TORSDOF 22
ENDMDL
MODEL 4
REMARK VINA RESULT:    -4.102     11.213     13.290
REMARK INTER + INTRA:         -11.927
REMARK INTER:                  -8.551
REMARK INTRA:                  -3.376
REMARK UNBOUND:                -2.548
REMARK SMILES CCCCCCCCCCCCCCCCCCCCCCCC(=O)[O-]
REMARK SMILES IDX 13 1 14 2 15 3 16 4 17 5 18 6 19 7 20 8 21 9 22 10 23 11
REMARK SMILES IDX 24 12 25 13 26 14 12 15 11 16 10 17 9 18 8 19 7 20 6 21 5 22
REMARK SMILES IDX 4 23 3 24 2 25 1 26
REMARK H PARENT
REMARK Flexibility Score: inf
ROOT
ATOM      1  C   UNL     1      -3.317  -0.552 -23.798  1.00  0.00     0.000 C 
ENDROOT
BRANCH   1   2
ATOM      2  C   UNL     1      -1.858  -0.102 -23.940  1.00  0.00     0.000 C 
BRANCH   2   3
ATOM      3  C   UNL     1      -1.460   0.018 -25.420  1.00  0.00     0.000 C 
BRANCH   3   4
ATOM      4  C   UNL     1      -1.386  -1.343 -26.132  1.00  0.00     0.000 C 
BRANCH   4   5
ATOM      5  C   UNL     1      -1.625  -1.289 -27.652  1.00  0.00     0.000 C 
BRANCH   5   6
ATOM      6  C   UNL     1      -0.958  -2.457 -28.399  1.00  0.00     0.000 C 
BRANCH   6   7
ATOM      7  C   UNL     1      -1.105  -3.792 -27.653  1.00  0.00     0.000 C 
BRANCH   7   8
ATOM      8  C   UNL     1      -0.044  -4.823 -28.071  1.00  0.00     0.000 C 
BRANCH   8   9
ATOM      9  C   UNL     1      -0.380  -6.253 -27.609  1.00  0.00     0.000 C 
BRANCH   9  10
ATOM     10  C   UNL     1      -0.105  -7.337 -28.673  1.00  0.00     0.006 C 
BRANCH  10  11
ATOM     11  C   UNL     1       1.192  -8.116 -28.404  1.00  0.00     0.053 C 
BRANCH  11  12
ATOM     12  C   UNL     1       2.138  -8.042 -29.566  1.00  0.00     0.041 C 
ATOM     13  O   UNL     1       2.547  -9.092 -30.131  1.00  0.00    -0.550 OA
ATOM     14  O   UNL     1       2.638  -6.808 -29.968  1.00  0.00    -0.550 OA
ENDBRANCH  11  12
ENDBRANCH  10  11
ENDBRANCH   9  10
ENDBRANCH   8   9
ENDBRANCH   7   8
ENDBRANCH   6   7
ENDBRANCH   5   6
ENDBRANCH   4   5
ENDBRANCH   3   4
ENDBRANCH   2   3
ENDBRANCH   1   2
BRANCH   1  15
ATOM     15  C   UNL     1      -4.265   0.424 -24.510  1.00  0.00     0.000 C 
BRANCH  15  16
ATOM     16  C   UNL     1      -5.066  -0.239 -25.644  1.00  0.00     0.000 C 
BRANCH  16  17
ATOM     17  C   UNL     1      -5.088  -1.780 -25.618  1.00  0.00     0.000 C 
BRANCH  17  18
ATOM     18  C   UNL     1      -5.035  -2.459 -26.997  1.00  0.00    -0.000 C 
BRANCH  18  19
ATOM     19  C   UNL     1      -4.711  -3.962 -26.910  1.00  0.00    -0.000 C 
BRANCH  19  20
ATOM     20  C   UNL     1      -4.172  -4.373 -25.532  1.00  0.00    -0.000 C 
BRANCH  20  21
ATOM     21  C   UNL     1      -3.484  -5.750 -25.553  1.00  0.00    -0.000 C 
BRANCH  21  22
ATOM     22  C   UNL     1      -3.965  -6.631 -26.716  1.00  0.00    -0.000 C 
BRANCH  22  23
ATOM     23  C   UNL     1      -4.113  -8.110 -26.318  1.00  0.00    -0.000 C 
BRANCH  23  24
ATOM     24  C   UNL     1      -2.807  -8.908 -26.487  1.00  0.00    -0.000 C 
BRANCH  24  25
ATOM     25  C   UNL     1      -2.963 -10.246 -27.231  1.00  0.00    -0.003 C 
ATOM     26  C   UNL     1      -2.163 -10.304 -28.533  1.00  0.00     0.004 C 
ENDBRANCH  24  25
ENDBRANCH  23  24
ENDBRANCH  22  23
ENDBRANCH  21  22
ENDBRANCH  20  21
ENDBRANCH  19  20
ENDBRANCH  18  19
ENDBRANCH  17  18
ENDBRANCH  16  17
ENDBRANCH  15  16
ENDBRANCH   1  15
TORSDOF 22
ENDMDL
MODEL 5
REMARK VINA RESULT:    -4.077      3.500      8.149
REMARK INTER + INTRA:         -11.870
REMARK INTER:                  -7.757
REMARK INTRA:                  -4.113
REMARK UNBOUND:                -2.548
REMARK SMILES CCCCCCCCCCCCCCCCCCCCCCCC(=O)[O-]
REMARK SMILES IDX 13 1 14 2 15 3 16 4 17 5 18 6 19 7 20 8 21 9 22 10 23 11
REMARK SMILES IDX 24 12 25 13 26 14 12 15 11 16 10 17 9 18 8 19 7 20 6 21 5 22
REMARK SMILES IDX 4 23 3 24 2 25 1 26
REMARK H PARENT
REMARK Flexibility Score: inf
ROOT
ATOM      1  C   UNL     1      -1.496  -9.946 -18.032  1.00  0.00     0.000 C 
ENDROOT
BRANCH   1   2
ATOM      2  C   UNL     1      -2.012  -8.644 -17.405  1.00  0.00     0.000 C 
BRANCH   2   3
ATOM      3  C   UNL     1      -3.114  -8.929 -16.373  1.00  0.00     0.000 C 
BRANCH   3   4
ATOM      4  C   UNL     1      -4.531  -8.796 -16.958  1.00  0.00     0.000 C 
BRANCH   4   5
ATOM      5  C   UNL     1      -5.152 -10.117 -17.447  1.00  0.00     0.000 C 
BRANCH   5   6
ATOM      6  C   UNL     1      -5.171 -11.203 -16.358  1.00  0.00     0.000 C 
BRANCH   6   7
ATOM      7  C   UNL     1      -4.951 -12.613 -16.929  1.00  0.00     0.000 C 
BRANCH   7   8
ATOM      8  C   UNL     1      -3.625 -13.240 -16.465  1.00  0.00     0.000 C 
BRANCH   8   9
ATOM      9  C   UNL     1      -2.796 -12.299 -15.571  1.00  0.00     0.000 C 
BRANCH   9  10
ATOM     10  C   UNL     1      -2.017 -13.024 -14.452  1.00  0.00     0.006 C 
BRANCH  10  11
ATOM     11  C   UNL     1      -2.117 -14.554 -14.556  1.00  0.00     0.053 C 
BRANCH  11  12
ATOM     12  C   UNL     1      -2.098 -15.207 -13.205  1.00  0.00     0.041 C 
ATOM     13  O   UNL     1      -2.890 -14.833 -12.298  1.00  0.00    -0.550 OA
ATOM     14  O   UNL     1      -1.139 -16.174 -12.922  1.00  0.00    -0.550 OA
ENDBRANCH  11  12
ENDBRANCH  10  11
ENDBRANCH   9  10
ENDBRANCH   8   9
ENDBRANCH   7   8
ENDBRANCH   6   7
ENDBRANCH   5   6
ENDBRANCH   4   5
ENDBRANCH   3   4
ENDBRANCH   2   3
ENDBRANCH   1   2
BRANCH   1  15
ATOM     15  C   UNL     1       0.018 -10.093 -17.824  1.00  0.00     0.000 C 
BRANCH  15  16
ATOM     16  C   UNL     1       0.375 -11.061 -16.682  1.00  0.00     0.000 C 
BRANCH  16  17
ATOM     17  C   UNL     1       0.938 -10.395 -15.410  1.00  0.00     0.000 C 
BRANCH  17  18
ATOM     18  C   UNL     1      -0.118  -9.947 -14.385  1.00  0.00    -0.000 C 
BRANCH  18  19
ATOM     19  C   UNL     1       0.298  -8.680 -13.616  1.00  0.00    -0.000 C 
BRANCH  19  20
ATOM     20  C   UNL     1      -0.477  -7.432 -14.064  1.00  0.00    -0.000 C 
BRANCH  20  21
ATOM     21  C   UNL     1       0.146  -6.763 -15.303  1.00  0.00    -0.000 C 
BRANCH  21  22
ATOM     22  C   UNL     1      -0.636  -5.521 -15.757  1.00  0.00    -0.000 C 
BRANCH  22  23
ATOM     23  C   UNL     1      -2.011  -5.403 -15.077  1.00  0.00    -0.000 C 
BRANCH  23  24
ATOM     24  C   UNL     1      -3.138  -5.053 -16.066  1.00  0.00    -0.000 C 
BRANCH  24  25
ATOM     25  C   UNL     1      -2.717  -5.050 -17.546  1.00  0.00    -0.003 C 
ATOM     26  C   UNL     1      -3.841  -5.479 -18.490  1.00  0.00     0.004 C 
ENDBRANCH  24  25
ENDBRANCH  23  24
ENDBRANCH  22  23
ENDBRANCH  21  22
ENDBRANCH  20  21
ENDBRANCH  19  20
ENDBRANCH  18  19
ENDBRANCH  17  18
ENDBRANCH  16  17
ENDBRANCH  15  16
ENDBRANCH   1  15
TORSDOF 22
ENDMDL
MODEL 6
REMARK VINA RESULT:    -4.052     16.301     17.544
REMARK INTER + INTRA:         -11.812
REMARK INTER:                  -8.043
REMARK INTRA:                  -3.770
REMARK UNBOUND:                -2.548
REMARK SMILES CCCCCCCCCCCCCCCCCCCCCCCC(=O)[O-]
REMARK SMILES IDX 13 1 14 2 15 3 16 4 17 5 18 6 19 7 20 8 21 9 22 10 23 11
REMARK SMILES IDX 24 12 25 13 26 14 12 15 11 16 10 17 9 18 8 19 7 20 6 21 5 22
REMARK SMILES IDX 4 23 3 24 2 25 1 26
REMARK H PARENT
REMARK Flexibility Score: inf
ROOT
ATOM      1  C   UNL     1      10.244  -6.981 -24.737  1.00  0.00     0.000 C 
ENDROOT
BRANCH   1   2
ATOM      2  C   UNL     1      10.791  -6.085 -23.618  1.00  0.00     0.000 C 
BRANCH   2   3
ATOM      3  C   UNL     1      12.320  -6.197 -23.521  1.00  0.00     0.000 C 
BRANCH   3   4
ATOM      4  C   UNL     1      12.900  -5.440 -22.313  1.00  0.00     0.000 C 
BRANCH   4   5
ATOM      5  C   UNL     1      12.213  -4.098 -22.003  1.00  0.00     0.000 C 
BRANCH   5   6
ATOM      6  C   UNL     1      13.030  -2.887 -22.486  1.00  0.00     0.000 C 
BRANCH   6   7
ATOM      7  C   UNL     1      12.903  -2.659 -24.001  1.00  0.00     0.000 C 
BRANCH   7   8
ATOM      8  C   UNL     1      11.440  -2.568 -24.464  1.00  0.00     0.000 C 
BRANCH   8   9
ATOM      9  C   UNL     1      11.241  -3.026 -25.921  1.00  0.00     0.000 C 
BRANCH   9  10
ATOM     10  C   UNL     1      10.981  -1.871 -26.911  1.00  0.00     0.006 C 
BRANCH  10  11
ATOM     11  C   UNL     1      12.189  -0.933 -27.058  1.00  0.00     0.053 C 
BRANCH  11  12
ATOM     12  C   UNL     1      12.200  -0.240 -28.389  1.00  0.00     0.041 C 
ATOM     13  O   UNL     1      11.726   0.921 -28.514  1.00  0.00    -0.550 OA
ATOM     14  O   UNL     1      12.657  -0.920 -29.514  1.00  0.00    -0.550 OA
ENDBRANCH  11  12
ENDBRANCH  10  11
ENDBRANCH   9  10
ENDBRANCH   8   9
ENDBRANCH   7   8
ENDBRANCH   6   7
ENDBRANCH   5   6
ENDBRANCH   4   5
ENDBRANCH   3   4
ENDBRANCH   2   3
ENDBRANCH   1   2
BRANCH   1  15
ATOM     15  C   UNL     1      11.330  -7.280 -25.781  1.00  0.00     0.000 C 
BRANCH  15  16
ATOM     16  C   UNL     1      11.131  -8.636 -26.481  1.00  0.00     0.000 C 
BRANCH  16  17
ATOM     17  C   UNL     1      12.287  -9.642 -26.301  1.00  0.00     0.000 C 
BRANCH  17  18
ATOM     18  C   UNL     1      13.492  -9.116 -25.502  1.00  0.00    -0.000 C 
BRANCH  18  19
ATOM     19  C   UNL     1      13.540  -9.668 -24.065  1.00  0.00    -0.000 C 
BRANCH  19  20
ATOM     20  C   UNL     1      13.052 -11.121 -23.972  1.00  0.00    -0.000 C 
BRANCH  20  21
ATOM     21  C   UNL     1      12.006 -11.323 -22.861  1.00  0.00    -0.000 C 
BRANCH  21  22
ATOM     22  C   UNL     1      10.597 -10.888 -23.292  1.00  0.00    -0.000 C 
BRANCH  22  23
ATOM     23  C   UNL     1      10.060  -9.707 -22.463  1.00  0.00    -0.000 C 
BRANCH  23  24
ATOM     24  C   UNL     1      11.120  -9.110 -21.520  1.00  0.00    -0.000 C 
BRANCH  24  25
ATOM     25  C   UNL     1      10.553  -8.227 -20.393  1.00  0.00    -0.003 C 
ATOM     26  C   UNL     1       9.178  -7.644 -20.723  1.00  0.00     0.004 C 
ENDBRANCH  24  25
ENDBRANCH  23  24
ENDBRANCH  22  23
ENDBRANCH  21  22
ENDBRANCH  20  21
ENDBRANCH  19  20
ENDBRANCH  18  19
ENDBRANCH  17  18
ENDBRANCH  16  17
ENDBRANCH  15  16
ENDBRANCH   1  15
TORSDOF 22
ENDMDL
MODEL 7
REMARK VINA RESULT:    -4.017     10.241     13.675
REMARK INTER + INTRA:         -11.731
REMARK INTER:                  -8.604
REMARK INTRA:                  -3.127
REMARK UNBOUND:                -2.548
REMARK SMILES CCCCCCCCCCCCCCCCCCCCCCCC(=O)[O-]
REMARK SMILES IDX 13 1 14 2 15 3 16 4 17 5 18 6 19 7 20 8 21 9 22 10 23 11
REMARK SMILES IDX 24 12 25 13 26 14 12 15 11 16 10 17 9 18 8 19 7 20 6 21 5 22
REMARK SMILES IDX 4 23 3 24 2 25 1 26
REMARK H PARENT
REMARK Flexibility Score: inf
ROOT
ATOM      1  C   UNL     1      -0.870  -5.272 -27.411  1.00  0.00     0.000 C 
ENDROOT
BRANCH   1   2
ATOM      2  C   UNL     1       0.002  -6.215 -28.250  1.00  0.00     0.000 C 
BRANCH   2   3
ATOM      3  C   UNL     1      -0.505  -7.663 -28.158  1.00  0.00     0.000 C 
BRANCH   3   4
ATOM      4  C   UNL     1       0.406  -8.664 -28.889  1.00  0.00     0.000 C 
BRANCH   4   5
ATOM      5  C   UNL     1      -0.330  -9.853 -29.534  1.00  0.00     0.000 C 
BRANCH   5   6
ATOM      6  C   UNL     1      -1.801  -9.949 -29.096  1.00  0.00     0.000 C 
BRANCH   6   7
ATOM      7  C   UNL     1      -2.025 -11.024 -28.020  1.00  0.00     0.000 C 
BRANCH   7   8
ATOM      8  C   UNL     1      -2.547 -10.438 -26.698  1.00  0.00     0.000 C 
BRANCH   8   9
ATOM      9  C   UNL     1      -3.469  -9.222 -26.902  1.00  0.00     0.000 C 
BRANCH   9  10
ATOM     10  C   UNL     1      -3.390  -8.178 -25.767  1.00  0.00     0.006 C 
BRANCH  10  11
ATOM     11  C   UNL     1      -4.465  -7.087 -25.890  1.00  0.00     0.053 C 
BRANCH  11  12
ATOM     12  C   UNL     1      -5.031  -6.708 -24.553  1.00  0.00     0.041 C 
ATOM     13  O   UNL     1      -5.286  -7.590 -23.689  1.00  0.00    -0.550 OA
ATOM     14  O   UNL     1      -5.358  -5.380 -24.296  1.00  0.00    -0.550 OA
ENDBRANCH  11  12
ENDBRANCH  10  11
ENDBRANCH   9  10
ENDBRANCH   8   9
ENDBRANCH   7   8
ENDBRANCH   6   7
ENDBRANCH   5   6
ENDBRANCH   4   5
ENDBRANCH   3   4
ENDBRANCH   2   3
ENDBRANCH   1   2
BRANCH   1  15
ATOM     15  C   UNL     1      -0.841  -3.846 -27.980  1.00  0.00     0.000 C 
BRANCH  15  16
ATOM     16  C   UNL     1      -2.033  -2.991 -27.517  1.00  0.00     0.000 C 
BRANCH  16  17
ATOM     17  C   UNL     1      -3.063  -3.726 -26.634  1.00  0.00     0.000 C 
BRANCH  17  18
ATOM     18  C   UNL     1      -4.506  -3.717 -27.167  1.00  0.00    -0.000 C 
BRANCH  18  19
ATOM     19  C   UNL     1      -5.267  -2.429 -26.802  1.00  0.00    -0.000 C 
BRANCH  19  20
ATOM     20  C   UNL     1      -4.969  -1.949 -25.374  1.00  0.00    -0.000 C 
BRANCH  20  21
ATOM     21  C   UNL     1      -5.048  -0.417 -25.238  1.00  0.00    -0.000 C 
BRANCH  21  22
ATOM     22  C   UNL     1      -3.824   0.175 -24.522  1.00  0.00    -0.000 C 
BRANCH  22  23
ATOM     23  C   UNL     1      -2.498  -0.193 -25.210  1.00  0.00    -0.000 C 
BRANCH  23  24
ATOM     24  C   UNL     1      -1.555  -0.998 -24.299  1.00  0.00    -0.000 C 
BRANCH  24  25
ATOM     25  C   UNL     1      -0.142  -1.218 -24.868  1.00  0.00    -0.003 C 
ATOM     26  C   UNL     1       0.381  -2.637 -24.644  1.00  0.00     0.004 C 
ENDBRANCH  24  25
ENDBRANCH  23  24
ENDBRANCH  22  23
ENDBRANCH  21  22
ENDBRANCH  20  21
ENDBRANCH  19  20
ENDBRANCH  18  19
ENDBRANCH  17  18
ENDBRANCH  16  17
ENDBRANCH  15  16
ENDBRANCH   1  15
TORSDOF 22
ENDMDL
MODEL 8
REMARK VINA RESULT:    -4.002     15.070     16.434
REMARK INTER + INTRA:         -11.698
REMARK INTER:                  -7.588
REMARK INTRA:                  -4.110
REMARK UNBOUND:                -2.548
REMARK SMILES CCCCCCCCCCCCCCCCCCCCCCCC(=O)[O-]
REMARK SMILES IDX 13 1 14 2 15 3 16 4 17 5 18 6 19 7 20 8 21 9 22 10 23 11
REMARK SMILES IDX 24 12 25 13 26 14 12 15 11 16 10 17 9 18 8 19 7 20 6 21 5 22
REMARK SMILES IDX 4 23 3 24 2 25 1 26
REMARK H PARENT
REMARK Flexibility Score: inf
ROOT
ATOM      1  C   UNL     1      10.153  -9.055 -21.627  1.00  0.00     0.000 C 
ENDROOT
BRANCH   1   2
ATOM      2  C   UNL     1      10.664  -8.036 -20.601  1.00  0.00     0.000 C 
BRANCH   2   3
ATOM      3  C   UNL     1      11.716  -7.105 -21.224  1.00  0.00     0.000 C 
BRANCH   3   4
ATOM      4  C   UNL     1      12.411  -6.207 -20.187  1.00  0.00     0.000 C 
BRANCH   4   5
ATOM      5  C   UNL     1      13.670  -5.485 -20.700  1.00  0.00     0.000 C 
BRANCH   5   6
ATOM      6  C   UNL     1      13.760  -5.468 -22.235  1.00  0.00     0.000 C 
BRANCH   6   7
ATOM      7  C   UNL     1      13.363  -4.109 -22.833  1.00  0.00     0.000 C 
BRANCH   7   8
ATOM      8  C   UNL     1      12.009  -4.155 -23.560  1.00  0.00     0.000 C 
BRANCH   8   9
ATOM      9  C   UNL     1      10.950  -3.241 -22.917  1.00  0.00     0.000 C 
BRANCH   9  10
ATOM     10  C   UNL     1      11.453  -2.477 -21.673  1.00  0.00     0.006 C 
BRANCH  10  11
ATOM     11  C   UNL     1      10.838  -3.003 -20.366  1.00  0.00     0.053 C 
BRANCH  11  12
ATOM     12  C   UNL     1       9.403  -3.402 -20.546  1.00  0.00     0.041 C 
ATOM     13  O   UNL     1       8.498  -2.529 -20.637  1.00  0.00    -0.550 OA
ATOM     14  O   UNL     1       9.056  -4.750 -20.525  1.00  0.00    -0.550 OA
ENDBRANCH  11  12
ENDBRANCH  10  11
ENDBRANCH   9  10
ENDBRANCH   8   9
ENDBRANCH   7   8
ENDBRANCH   6   7
ENDBRANCH   5   6
ENDBRANCH   4   5
ENDBRANCH   3   4
ENDBRANCH   2   3
ENDBRANCH   1   2
BRANCH   1  15
ATOM     15  C   UNL     1      10.696 -10.459 -21.324  1.00  0.00     0.000 C 
BRANCH  15  16
ATOM     16  C   UNL     1      11.117 -11.225 -22.590  1.00  0.00     0.000 C 
BRANCH  16  17
ATOM     17  C   UNL     1      12.615 -11.582 -22.673  1.00  0.00     0.000 C 
BRANCH  17  18
ATOM     18  C   UNL     1      13.367 -10.973 -23.869  1.00  0.00    -0.000 C 
BRANCH  18  19
ATOM     19  C   UNL     1      13.454  -9.438 -23.798  1.00  0.00    -0.000 C 
BRANCH  19  20
ATOM     20  C   UNL     1      13.027  -8.758 -25.108  1.00  0.00    -0.000 C 
BRANCH  20  21
ATOM     21  C   UNL     1      12.035  -7.603 -24.878  1.00  0.00    -0.000 C 
BRANCH  21  22
ATOM     22  C   UNL     1      10.708  -7.809 -25.624  1.00  0.00    -0.000 C 
BRANCH  22  23
ATOM     23  C   UNL     1      10.042  -9.156 -25.291  1.00  0.00    -0.000 C 
BRANCH  23  24
ATOM     24  C   UNL     1      10.074 -10.144 -26.470  1.00  0.00    -0.000 C 
BRANCH  24  25
ATOM     25  C   UNL     1      10.117 -11.629 -26.064  1.00  0.00    -0.003 C 
ATOM     26  C   UNL     1      11.320 -12.373 -26.644  1.00  0.00     0.004 C 
ENDBRANCH  24  25
ENDBRANCH  23  24
ENDBRANCH  22  23
ENDBRANCH  21  22
ENDBRANCH  20  21
ENDBRANCH  19  20
ENDBRANCH  18  19
ENDBRANCH  17  18
ENDBRANCH  16  17
ENDBRANCH  15  16
ENDBRANCH   1  15
TORSDOF 22
ENDMDL
MODEL 9
REMARK VINA RESULT:    -3.986      8.845     11.861
REMARK INTER + INTRA:         -11.660
REMARK INTER:                  -7.650
REMARK INTRA:                  -4.010
REMARK UNBOUND:                -2.548
REMARK SMILES CCCCCCCCCCCCCCCCCCCCCCCC(=O)[O-]
REMARK SMILES IDX 13 1 14 2 15 3 16 4 17 5 18 6 19 7 20 8 21 9 22 10 23 11
REMARK SMILES IDX 24 12 25 13 26 14 12 15 11 16 10 17 9 18 8 19 7 20 6 21 5 22
REMARK SMILES IDX 4 23 3 24 2 25 1 26
REMARK H PARENT
REMARK Flexibility Score: inf
ROOT
ATOM      1  C   UNL     1      -4.936  -7.860 -22.797  1.00  0.00     0.000 C 
ENDROOT
BRANCH   1   2
ATOM      2  C   UNL     1      -5.520  -6.489 -23.162  1.00  0.00     0.000 C 
BRANCH   2   3
ATOM      3  C   UNL     1      -4.534  -5.362 -22.818  1.00  0.00     0.000 C 
BRANCH   3   4
ATOM      4  C   UNL     1      -4.089  -4.559 -24.053  1.00  0.00     0.000 C 
BRANCH   4   5
ATOM      5  C   UNL     1      -5.194  -4.320 -25.099  1.00  0.00     0.000 C 
BRANCH   5   6
ATOM      6  C   UNL     1      -4.640  -4.193 -26.528  1.00  0.00     0.000 C 
BRANCH   6   7
ATOM      7  C   UNL     1      -4.997  -2.847 -27.179  1.00  0.00     0.000 C 
BRANCH   7   8
ATOM      8  C   UNL     1      -4.270  -1.661 -26.522  1.00  0.00     0.000 C 
BRANCH   8   9
ATOM      9  C   UNL     1      -2.745  -1.855 -26.451  1.00  0.00     0.000 C 
BRANCH   9  10
ATOM     10  C   UNL     1      -2.065  -1.989 -27.830  1.00  0.00     0.006 C 
BRANCH  10  11
ATOM     11  C   UNL     1      -1.237  -3.277 -27.960  1.00  0.00     0.053 C 
BRANCH  11  12
ATOM     12  C   UNL     1       0.203  -3.054 -27.600  1.00  0.00     0.041 C 
ATOM     13  O   UNL     1       0.982  -2.463 -28.395  1.00  0.00    -0.550 OA
ATOM     14  O   UNL     1       0.704  -3.581 -26.413  1.00  0.00    -0.550 OA
ENDBRANCH  11  12
ENDBRANCH  10  11
ENDBRANCH   9  10
ENDBRANCH   8   9
ENDBRANCH   7   8
ENDBRANCH   6   7
ENDBRANCH   5   6
ENDBRANCH   4   5
ENDBRANCH   3   4
ENDBRANCH   2   3
ENDBRANCH   1   2
BRANCH   1  15
ATOM     15  C   UNL     1      -4.732  -8.721 -24.052  1.00  0.00     0.000 C 
BRANCH  15  16
ATOM     16  C   UNL     1      -5.310  -8.075 -25.323  1.00  0.00     0.000 C 
BRANCH  16  17
ATOM     17  C   UNL     1      -4.279  -7.768 -26.429  1.00  0.00     0.000 C 
BRANCH  17  18
ATOM     18  C   UNL     1      -2.821  -7.653 -25.950  1.00  0.00    -0.000 C 
BRANCH  18  19
ATOM     19  C   UNL     1      -1.991  -6.675 -26.801  1.00  0.00    -0.000 C 
BRANCH  19  20
ATOM     20  C   UNL     1      -0.478  -6.870 -26.622  1.00  0.00    -0.000 C 
BRANCH  20  21
ATOM     21  C   UNL     1       0.217  -7.322 -27.919  1.00  0.00    -0.000 C 
BRANCH  21  22
ATOM     22  C   UNL     1       0.142  -8.842 -28.129  1.00  0.00    -0.000 C 
BRANCH  22  23
ATOM     23  C   UNL     1      -0.722  -9.231 -29.341  1.00  0.00    -0.000 C 
BRANCH  23  24
ATOM     24  C   UNL     1      -2.009  -9.975 -28.942  1.00  0.00    -0.000 C 
BRANCH  24  25
ATOM     25  C   UNL     1      -1.914 -10.764 -27.624  1.00  0.00    -0.003 C 
ATOM     26  C   UNL     1      -3.265 -11.298 -27.147  1.00  0.00     0.004 C 
ENDBRANCH  24  25
ENDBRANCH  23  24
ENDBRANCH  22  23
ENDBRANCH  21  22
ENDBRANCH  20  21
ENDBRANCH  19  20
ENDBRANCH  18  19
ENDBRANCH  17  18
ENDBRANCH  16  17
ENDBRANCH  15  16
ENDBRANCH   1  15
TORSDOF 22
ENDMDL
