MODEL 1
REMARK VINA RESULT:    -7.910      0.000      0.000
REMARK INTER + INTRA:          -8.604
REMARK INTER:                  -8.604
REMARK INTRA:                   0.000
REMARK UNBOUND:                 0.000
REMARK SMILES Cc1cc(O)c2c(c1)C(=O)c1cc(O)cc(O)c1C2=O
REMARK SMILES IDX 1 1 2 2 8 3 7 4 6 5 4 6 3 7 19 8 20 9 18 10 11 11 9 12 10 13
REMARK SMILES IDX 12 14 13 15 15 16 16 17 5 18 17 20 14 22
REMARK H PARENT 5 19 17 21 14 23
REMARK Flexibility Score: inf
ROOT
ATOM      1  C   UNL     1      28.508  27.882 -17.728  1.00  0.00     0.044 C 
ATOM      2  C   UNL     1      28.843  26.469 -18.106  1.00  0.00    -0.047 A 
ATOM      3  C   UNL     1      29.832  25.769 -17.407  1.00  0.00     0.016 A 
ATOM      4  C   UNL     1      30.135  24.436 -17.736  1.00  0.00     0.038 A 
ATOM      5  C   UNL     1      29.433  23.793 -18.780  1.00  0.00     0.076 A 
ATOM      6  C   UNL     1      28.373  24.481 -19.427  1.00  0.00     0.127 A 
ATOM      7  C   UNL     1      28.106  25.812 -19.097  1.00  0.00     0.050 A 
ATOM      8  C   UNL     1      29.879  22.439 -19.196  1.00  0.00     0.201 C 
ATOM      9  O   UNL     1      29.727  22.069 -20.392  1.00  0.00    -0.288 OA
ATOM     10  C   UNL     1      30.668  21.601 -18.257  1.00  0.00     0.076 A 
ATOM     11  C   UNL     1      31.366  22.246 -17.212  1.00  0.00     0.041 A 
ATOM     12  C   UNL     1      31.179  23.699 -16.986  1.00  0.00     0.194 C 
ATOM     13  O   UNL     1      31.893  24.304 -16.138  1.00  0.00    -0.289 OA
ATOM     14  C   UNL     1      32.231  21.507 -16.387  1.00  0.00     0.059 A 
ATOM     15  C   UNL     1      32.396  20.134 -16.583  1.00  0.00     0.120 A 
ATOM     16  C   UNL     1      31.678  19.485 -17.588  1.00  0.00     0.093 A 
ATOM     17  C   UNL     1      30.795  20.195 -18.408  1.00  0.00     0.131 A 
ENDROOT
BRANCH   6  18
ATOM     18  O   UNL     1      27.544  23.871 -20.371  1.00  0.00    -0.507 OA
ATOM     19  H   UNL     1      27.232  24.325 -21.217  1.00  0.00     0.293 HD
ENDBRANCH   6  18
BRANCH  17  20
ATOM     20  O   UNL     1      30.044  19.463 -19.331  1.00  0.00    -0.507 OA
ATOM     21  H   UNL     1      30.232  18.498 -19.565  1.00  0.00     0.293 HD
ENDBRANCH  17  20
BRANCH  15  22
ATOM     22  O   UNL     1      33.262  19.399 -15.776  1.00  0.00    -0.508 OA
ATOM     23  H   UNL     1      33.397  19.627 -14.798  1.00  0.00     0.293 HD
ENDBRANCH  15  22
TORSDOF 3
ENDMDL
MODEL 2
REMARK VINA RESULT:    -7.834      1.706      5.111
REMARK INTER + INTRA:          -8.521
REMARK INTER:                  -8.521
REMARK INTRA:                   0.000
REMARK UNBOUND:                 0.000
REMARK SMILES Cc1cc(O)c2c(c1)C(=O)c1cc(O)cc(O)c1C2=O
REMARK SMILES IDX 1 1 2 2 8 3 7 4 6 5 4 6 3 7 19 8 20 9 18 10 11 11 9 12 10 13
REMARK SMILES IDX 12 14 13 15 15 16 16 17 5 18 17 20 14 22
REMARK H PARENT 5 19 17 21 14 23
REMARK Flexibility Score: inf
ROOT
ATOM      1  C   UNL     1      30.619  18.187 -19.696  1.00  0.00     0.044 C 
ATOM      2  C   UNL     1      30.233  19.622 -19.488  1.00  0.00    -0.047 A 
ATOM      3  C   UNL     1      30.853  20.380 -18.489  1.00  0.00     0.016 A 
ATOM      4  C   UNL     1      30.518  21.732 -18.303  1.00  0.00     0.038 A 
ATOM      5  C   UNL     1      29.546  22.336 -19.133  1.00  0.00     0.076 A 
ATOM      6  C   UNL     1      28.983  21.585 -20.198  1.00  0.00     0.127 A 
ATOM      7  C   UNL     1      29.317  20.236 -20.348  1.00  0.00     0.050 A 
ATOM      8  C   UNL     1      29.111  23.720 -18.813  1.00  0.00     0.201 C 
ATOM      9  O   UNL     1      27.938  24.088 -19.092  1.00  0.00    -0.288 OA
ATOM     10  C   UNL     1      29.991  24.601 -18.002  1.00  0.00     0.076 A 
ATOM     11  C   UNL     1      30.964  23.995 -17.176  1.00  0.00     0.041 A 
ATOM     12  C   UNL     1      31.185  22.531 -17.248  1.00  0.00     0.194 C 
ATOM     13  O   UNL     1      31.961  21.968 -16.426  1.00  0.00    -0.289 OA
ATOM     14  C   UNL     1      31.721  24.783 -16.293  1.00  0.00     0.059 A 
ATOM     15  C   UNL     1      31.530  26.165 -16.235  1.00  0.00     0.120 A 
ATOM     16  C   UNL     1      30.599  26.773 -17.078  1.00  0.00     0.093 A 
ATOM     17  C   UNL     1      29.848  26.013 -17.980  1.00  0.00     0.131 A 
ENDROOT
BRANCH   6  18
ATOM     18  O   UNL     1      28.123  22.147 -21.143  1.00  0.00    -0.507 OA
ATOM     19  H   UNL     1      27.934  21.730 -22.044  1.00  0.00     0.293 HD
ENDBRANCH   6  18
BRANCH  17  20
ATOM     20  O   UNL     1      29.003  26.701 -18.854  1.00  0.00    -0.507 OA
ATOM     21  H   UNL     1      28.489  27.533 -18.597  1.00  0.00     0.293 HD
ENDBRANCH  17  20
BRANCH  15  22
ATOM     22  O   UNL     1      32.270  26.949 -15.353  1.00  0.00    -0.508 OA
ATOM     23  H   UNL     1      32.004  27.048 -14.380  1.00  0.00     0.293 HD
ENDBRANCH  15  22
TORSDOF 3
ENDMDL
MODEL 3
REMARK VINA RESULT:    -7.512      1.648      6.212
REMARK INTER + INTRA:          -8.171
REMARK INTER:                  -8.171
REMARK INTRA:                   0.000
REMARK UNBOUND:                 0.000
REMARK SMILES Cc1cc(O)c2c(c1)C(=O)c1cc(O)cc(O)c1C2=O
REMARK SMILES IDX 1 1 2 2 8 3 7 4 6 5 4 6 3 7 19 8 20 9 18 10 11 11 9 12 10 13
REMARK SMILES IDX 12 14 13 15 15 16 16 17 5 18 17 20 14 22
REMARK H PARENT 5 19 17 21 14 23
REMARK Flexibility Score: inf
ROOT
ATOM      1  C   UNL     1      29.859  19.012 -19.766  1.00  0.00     0.044 C 
ATOM      2  C   UNL     1      30.167  20.302 -19.064  1.00  0.00    -0.047 A 
ATOM      3  C   UNL     1      29.543  21.488 -19.466  1.00  0.00     0.016 A 
ATOM      4  C   UNL     1      29.804  22.697 -18.797  1.00  0.00     0.038 A 
ATOM      5  C   UNL     1      30.702  22.716 -17.706  1.00  0.00     0.076 A 
ATOM      6  C   UNL     1      31.264  21.496 -17.251  1.00  0.00     0.127 A 
ATOM      7  C   UNL     1      31.006  20.311 -17.946  1.00  0.00     0.050 A 
ATOM      8  C   UNL     1      31.065  24.032 -17.120  1.00  0.00     0.201 C 
ATOM      9  O   UNL     1      32.201  24.193 -16.597  1.00  0.00    -0.288 OA
ATOM     10  C   UNL     1      30.168  25.201 -17.316  1.00  0.00     0.076 A 
ATOM     11  C   UNL     1      29.269  25.176 -18.405  1.00  0.00     0.041 A 
ATOM     12  C   UNL     1      29.134  23.948 -19.223  1.00  0.00     0.194 C 
ATOM     13  O   UNL     1      28.429  23.961 -20.271  1.00  0.00    -0.289 OA
ATOM     14  C   UNL     1      28.503  26.315 -18.706  1.00  0.00     0.059 A 
ATOM     15  C   UNL     1      28.612  27.469 -17.926  1.00  0.00     0.120 A 
ATOM     16  C   UNL     1      29.469  27.484 -16.824  1.00  0.00     0.093 A 
ATOM     17  C   UNL     1      30.226  26.356 -16.493  1.00  0.00     0.131 A 
ENDROOT
BRANCH   6  18
ATOM     18  O   UNL     1      32.049  21.411 -16.099  1.00  0.00    -0.507 OA
ATOM     19  H   UNL     1      31.772  21.789 -15.204  1.00  0.00     0.293 HD
ENDBRANCH   6  18
BRANCH  17  20
ATOM     20  O   UNL     1      30.991  26.415 -15.325  1.00  0.00    -0.507 OA
ATOM     21  H   UNL     1      30.593  26.517 -14.401  1.00  0.00     0.293 HD
ENDBRANCH  17  20
BRANCH  15  22
ATOM     22  O   UNL     1      27.864  28.604 -18.227  1.00  0.00    -0.508 OA
ATOM     23  H   UNL     1      28.267  29.532 -18.185  1.00  0.00     0.293 HD
ENDBRANCH  15  22
TORSDOF 3
ENDMDL
MODEL 4
REMARK VINA RESULT:    -7.461      1.672      2.857
REMARK INTER + INTRA:          -8.116
REMARK INTER:                  -8.116
REMARK INTRA:                   0.000
REMARK UNBOUND:                 0.000
REMARK SMILES Cc1cc(O)c2c(c1)C(=O)c1cc(O)cc(O)c1C2=O
REMARK SMILES IDX 1 1 2 2 8 3 7 4 6 5 4 6 3 7 19 8 20 9 18 10 11 11 9 12 10 13
REMARK SMILES IDX 12 14 13 15 15 16 16 17 5 18 17 20 14 22
REMARK H PARENT 5 19 17 21 14 23
REMARK Flexibility Score: inf
ROOT
ATOM      1  C   UNL     1      31.766  26.643 -15.047  1.00  0.00     0.044 C 
ATOM      2  C   UNL     1      31.080  25.822 -16.099  1.00  0.00    -0.047 A 
ATOM      3  C   UNL     1      31.504  24.514 -16.358  1.00  0.00     0.016 A 
ATOM      4  C   UNL     1      30.851  23.727 -17.322  1.00  0.00     0.038 A 
ATOM      5  C   UNL     1      29.755  24.259 -18.039  1.00  0.00     0.076 A 
ATOM      6  C   UNL     1      29.279  25.555 -17.712  1.00  0.00     0.127 A 
ATOM      7  C   UNL     1      29.958  26.326 -16.764  1.00  0.00     0.050 A 
ATOM      8  C   UNL     1      29.186  23.454 -19.150  1.00  0.00     0.201 C 
ATOM      9  O   UNL     1      28.660  24.035 -20.138  1.00  0.00    -0.288 OA
ATOM     10  C   UNL     1      29.405  21.985 -19.185  1.00  0.00     0.076 A 
ATOM     11  C   UNL     1      30.500  21.456 -18.466  1.00  0.00     0.041 A 
ATOM     12  C   UNL     1      31.300  22.340 -17.585  1.00  0.00     0.194 C 
ATOM     13  O   UNL     1      32.352  21.902 -17.040  1.00  0.00    -0.289 OA
ATOM     14  C   UNL     1      30.822  20.093 -18.584  1.00  0.00     0.059 A 
ATOM     15  C   UNL     1      30.058  19.253 -19.397  1.00  0.00     0.120 A 
ATOM     16  C   UNL     1      28.952  19.762 -20.078  1.00  0.00     0.093 A 
ATOM     17  C   UNL     1      28.599  21.110 -19.960  1.00  0.00     0.131 A 
ENDROOT
BRANCH   6  18
ATOM     18  O   UNL     1      28.121  26.097 -18.274  1.00  0.00    -0.507 OA
ATOM     19  H   UNL     1      27.635  26.896 -17.893  1.00  0.00     0.293 HD
ENDBRANCH   6  18
BRANCH  17  20
ATOM     20  O   UNL     1      27.428  21.527 -20.597  1.00  0.00    -0.507 OA
ATOM     21  H   UNL     1      26.602  20.949 -20.682  1.00  0.00     0.293 HD
ENDBRANCH  17  20
BRANCH  15  22
ATOM     22  O   UNL     1      30.381  17.904 -19.526  1.00  0.00    -0.508 OA
ATOM     23  H   UNL     1      31.303  17.605 -19.821  1.00  0.00     0.293 HD
ENDBRANCH  15  22
TORSDOF 3
ENDMDL
MODEL 5
REMARK VINA RESULT:    -7.068      1.464      5.517
REMARK INTER + INTRA:          -7.688
REMARK INTER:                  -7.688
REMARK INTRA:                   0.000
REMARK UNBOUND:                 0.000
REMARK SMILES Cc1cc(O)c2c(c1)C(=O)c1cc(O)cc(O)c1C2=O
REMARK SMILES IDX 1 1 2 2 8 3 7 4 6 5 4 6 3 7 19 8 20 9 18 10 11 11 9 12 10 13
REMARK SMILES IDX 12 14 13 15 15 16 16 17 5 18 17 20 14 22
REMARK H PARENT 5 19 17 21 14 23
REMARK Flexibility Score: inf
ROOT
ATOM      1  C   UNL     1      33.177  19.615 -16.119  1.00  0.00     0.044 C 
ATOM      2  C   UNL     1      32.127  20.299 -16.944  1.00  0.00    -0.047 A 
ATOM      3  C   UNL     1      31.854  21.657 -16.750  1.00  0.00     0.016 A 
ATOM      4  C   UNL     1      30.892  22.314 -17.537  1.00  0.00     0.038 A 
ATOM      5  C   UNL     1      30.193  21.598 -18.535  1.00  0.00     0.076 A 
ATOM      6  C   UNL     1      30.535  20.243 -18.782  1.00  0.00     0.127 A 
ATOM      7  C   UNL     1      31.480  19.607 -17.973  1.00  0.00     0.050 A 
ATOM      8  C   UNL     1      29.082  22.284 -19.244  1.00  0.00     0.201 C 
ATOM      9  O   UNL     1      28.105  21.615 -19.676  1.00  0.00    -0.288 OA
ATOM     10  C   UNL     1      29.034  23.769 -19.277  1.00  0.00     0.076 A 
ATOM     11  C   UNL     1      29.736  24.482 -18.279  1.00  0.00     0.041 A 
ATOM     12  C   UNL     1      30.613  23.754 -17.331  1.00  0.00     0.194 C 
ATOM     13  O   UNL     1      31.142  24.368 -16.363  1.00  0.00    -0.289 OA
ATOM     14  C   UNL     1      29.604  25.878 -18.193  1.00  0.00     0.059 A 
ATOM     15  C   UNL     1      28.794  26.571 -19.097  1.00  0.00     0.120 A 
ATOM     16  C   UNL     1      28.131  25.875 -20.108  1.00  0.00     0.093 A 
ATOM     17  C   UNL     1      28.262  24.489 -20.227  1.00  0.00     0.131 A 
ENDROOT
BRANCH   6  18
ATOM     18  O   UNL     1      29.991  19.509 -19.838  1.00  0.00    -0.507 OA
ATOM     19  H   UNL     1      29.696  18.546 -19.756  1.00  0.00     0.293 HD
ENDBRANCH   6  18
BRANCH  17  20
ATOM     20  O   UNL     1      27.643  23.874 -21.318  1.00  0.00    -0.507 OA
ATOM     21  H   UNL     1      26.695  24.074 -21.608  1.00  0.00     0.293 HD
ENDBRANCH  17  20
BRANCH  15  22
ATOM     22  O   UNL     1      28.651  27.953 -19.007  1.00  0.00    -0.508 OA
ATOM     23  H   UNL     1      28.535  28.529 -19.832  1.00  0.00     0.293 HD
ENDBRANCH  15  22
TORSDOF 3
ENDMDL
MODEL 6
REMARK VINA RESULT:    -6.944      1.668      3.861
REMARK INTER + INTRA:          -7.553
REMARK INTER:                  -7.553
REMARK INTRA:                   0.000
REMARK UNBOUND:                 0.000
REMARK SMILES Cc1cc(O)c2c(c1)C(=O)c1cc(O)cc(O)c1C2=O
REMARK SMILES IDX 1 1 2 2 8 3 7 4 6 5 4 6 3 7 19 8 20 9 18 10 11 11 9 12 10 13
REMARK SMILES IDX 12 14 13 15 15 16 16 17 5 18 17 20 14 22
REMARK H PARENT 5 19 17 21 14 23
REMARK Flexibility Score: inf
ROOT
ATOM      1  C   UNL     1      28.425  29.179 -16.862  1.00  0.00     0.044 C 
ATOM      2  C   UNL     1      29.064  27.824 -16.953  1.00  0.00    -0.047 A 
ATOM      3  C   UNL     1      28.504  26.836 -17.771  1.00  0.00     0.016 A 
ATOM      4  C   UNL     1      29.110  25.573 -17.885  1.00  0.00     0.038 A 
ATOM      5  C   UNL     1      30.297  25.295 -17.169  1.00  0.00     0.076 A 
ATOM      6  C   UNL     1      30.904  26.329 -16.410  1.00  0.00     0.127 A 
ATOM      7  C   UNL     1      30.271  27.570 -16.295  1.00  0.00     0.050 A 
ATOM      8  C   UNL     1      30.825  23.907 -17.198  1.00  0.00     0.201 C 
ATOM      9  O   UNL     1      31.468  23.461 -16.209  1.00  0.00    -0.288 OA
ATOM     10  C   UNL     1      30.438  22.992 -18.302  1.00  0.00     0.076 A 
ATOM     11  C   UNL     1      29.252  23.274 -19.018  1.00  0.00     0.041 A 
ATOM     12  C   UNL     1      28.516  24.534 -18.758  1.00  0.00     0.194 C 
ATOM     13  O   UNL     1      27.393  24.732 -19.301  1.00  0.00    -0.289 OA
ATOM     14  C   UNL     1      28.780  22.361 -19.976  1.00  0.00     0.059 A 
ATOM     15  C   UNL     1      29.481  21.182 -20.238  1.00  0.00     0.120 A 
ATOM     16  C   UNL     1      30.674  20.919 -19.563  1.00  0.00     0.093 A 
ATOM     17  C   UNL     1      31.176  21.821 -18.620  1.00  0.00     0.131 A 
ENDROOT
BRANCH   6  18
ATOM     18  O   UNL     1      32.145  26.177 -15.788  1.00  0.00    -0.507 OA
ATOM     19  H   UNL     1      32.261  26.071 -14.790  1.00  0.00     0.293 HD
ENDBRANCH   6  18
BRANCH  17  20
ATOM     20  O   UNL     1      32.419  21.535 -18.053  1.00  0.00    -0.507 OA
ATOM     21  H   UNL     1      32.839  22.088 -17.317  1.00  0.00     0.293 HD
ENDBRANCH  17  20
BRANCH  15  22
ATOM     22  O   UNL     1      29.010  20.269 -21.178  1.00  0.00    -0.508 OA
ATOM     23  H   UNL     1      28.290  20.519 -21.846  1.00  0.00     0.293 HD
ENDBRANCH  15  22
TORSDOF 3
ENDMDL
MODEL 7
REMARK VINA RESULT:    -6.941      2.514      4.200
REMARK INTER + INTRA:          -7.550
REMARK INTER:                  -7.550
REMARK INTRA:                   0.000
REMARK UNBOUND:                 0.000
REMARK SMILES Cc1cc(O)c2c(c1)C(=O)c1cc(O)cc(O)c1C2=O
REMARK SMILES IDX 1 1 2 2 8 3 7 4 6 5 4 6 3 7 19 8 20 9 18 10 11 11 9 12 10 13
REMARK SMILES IDX 12 14 13 15 15 16 16 17 5 18 17 20 14 22
REMARK H PARENT 5 19 17 21 14 23
REMARK Flexibility Score: inf
ROOT
ATOM      1  C   UNL     1      32.151  29.027 -13.886  1.00  0.00     0.044 C 
ATOM      2  C   UNL     1      31.396  28.341 -14.987  1.00  0.00    -0.047 A 
ATOM      3  C   UNL     1      31.727  27.033 -15.357  1.00  0.00     0.016 A 
ATOM      4  C   UNL     1      31.009  26.371 -16.368  1.00  0.00     0.038 A 
ATOM      5  C   UNL     1      29.941  27.030 -17.018  1.00  0.00     0.076 A 
ATOM      6  C   UNL     1      29.557  28.323 -16.579  1.00  0.00     0.127 A 
ATOM      7  C   UNL     1      30.300  28.969 -15.587  1.00  0.00     0.050 A 
ATOM      8  C   UNL     1      29.303  26.357 -18.178  1.00  0.00     0.201 C 
ATOM      9  O   UNL     1      28.802  27.048 -19.106  1.00  0.00    -0.288 OA
ATOM     10  C   UNL     1      29.422  24.884 -18.335  1.00  0.00     0.076 A 
ATOM     11  C   UNL     1      30.490  24.228 -17.681  1.00  0.00     0.041 A 
ATOM     12  C   UNL     1      31.361  24.983 -16.749  1.00  0.00     0.194 C 
ATOM     13  O   UNL     1      32.388  24.435 -16.262  1.00  0.00    -0.289 OA
ATOM     14  C   UNL     1      30.718  22.861 -17.914  1.00  0.00     0.059 A 
ATOM     15  C   UNL     1      29.888  22.140 -18.776  1.00  0.00     0.120 A 
ATOM     16  C   UNL     1      28.809  22.775 -19.392  1.00  0.00     0.093 A 
ATOM     17  C   UNL     1      28.548  24.129 -19.160  1.00  0.00     0.131 A 
ENDROOT
BRANCH   6  18
ATOM     18  O   UNL     1      28.430  28.983 -17.073  1.00  0.00    -0.507 OA
ATOM     19  H   UNL     1      27.487  28.778 -16.776  1.00  0.00     0.293 HD
ENDBRANCH   6  18
BRANCH  17  20
ATOM     20  O   UNL     1      27.399  24.672 -19.738  1.00  0.00    -0.507 OA
ATOM     21  H   UNL     1      27.230  24.692 -20.735  1.00  0.00     0.293 HD
ENDBRANCH  17  20
BRANCH  15  22
ATOM     22  O   UNL     1      30.118  20.788 -19.019  1.00  0.00    -0.508 OA
ATOM     23  H   UNL     1      29.446  20.079 -18.750  1.00  0.00     0.293 HD
ENDBRANCH  15  22
TORSDOF 3
ENDMDL
MODEL 8
REMARK VINA RESULT:    -6.873      1.646      5.646
REMARK INTER + INTRA:          -7.476
REMARK INTER:                  -7.476
REMARK INTRA:                   0.000
REMARK UNBOUND:                 0.000
REMARK SMILES Cc1cc(O)c2c(c1)C(=O)c1cc(O)cc(O)c1C2=O
REMARK SMILES IDX 1 1 2 2 8 3 7 4 6 5 4 6 3 7 19 8 20 9 18 10 11 11 9 12 10 13
REMARK SMILES IDX 12 14 13 15 15 16 16 17 5 18 17 20 14 22
REMARK H PARENT 5 19 17 21 14 23
REMARK Flexibility Score: inf
ROOT
ATOM      1  C   UNL     1      32.935  20.216 -16.478  1.00  0.00     0.044 C 
ATOM      2  C   UNL     1      31.958  21.148 -17.132  1.00  0.00    -0.047 A 
ATOM      3  C   UNL     1      31.673  22.389 -16.552  1.00  0.00     0.016 A 
ATOM      4  C   UNL     1      30.780  23.281 -17.170  1.00  0.00     0.038 A 
ATOM      5  C   UNL     1      30.164  22.925 -18.392  1.00  0.00     0.076 A 
ATOM      6  C   UNL     1      30.523  21.703 -19.017  1.00  0.00     0.127 A 
ATOM      7  C   UNL     1      31.396  20.823 -18.371  1.00  0.00     0.050 A 
ATOM      8  C   UNL     1      29.118  23.826 -18.939  1.00  0.00     0.201 C 
ATOM      9  O   UNL     1      28.178  23.349 -19.631  1.00  0.00    -0.288 OA
ATOM     10  C   UNL     1      29.075  25.250 -18.516  1.00  0.00     0.076 A 
ATOM     11  C   UNL     1      29.695  25.603 -17.296  1.00  0.00     0.041 A 
ATOM     12  C   UNL     1      30.489  24.596 -16.554  1.00  0.00     0.194 C 
ATOM     13  O   UNL     1      30.938  24.868 -15.405  1.00  0.00    -0.289 OA
ATOM     14  C   UNL     1      29.559  26.909 -16.795  1.00  0.00     0.059 A 
ATOM     15  C   UNL     1      28.828  27.867 -17.502  1.00  0.00     0.120 A 
ATOM     16  C   UNL     1      28.249  27.534 -18.726  1.00  0.00     0.093 A 
ATOM     17  C   UNL     1      28.387  26.248 -19.256  1.00  0.00     0.131 A 
ENDROOT
BRANCH   6  18
ATOM     18  O   UNL     1      30.066  21.343 -20.286  1.00  0.00    -0.507 OA
ATOM     19  H   UNL     1      29.102  21.423 -20.577  1.00  0.00     0.293 HD
ENDBRANCH   6  18
BRANCH  17  20
ATOM     20  O   UNL     1      27.858  26.015 -20.528  1.00  0.00    -0.507 OA
ATOM     21  H   UNL     1      27.412  26.729 -21.087  1.00  0.00     0.293 HD
ENDBRANCH  17  20
BRANCH  15  22
ATOM     22  O   UNL     1      28.682  29.159 -17.003  1.00  0.00    -0.508 OA
ATOM     23  H   UNL     1      28.514  29.949 -17.615  1.00  0.00     0.293 HD
ENDBRANCH  15  22
TORSDOF 3
ENDMDL
