MODEL 1
REMARK VINA RESULT:    -3.081      0.000      0.000
REMARK INTER + INTRA:          -3.479
REMARK INTER:                  -3.351
REMARK INTRA:                  -0.127
REMARK UNBOUND:                -0.127
REMARK SMILES Cc1ccc(C(C)C)cc1O
REMARK SMILES IDX 1 1 2 2 10 3 9 4 5 5 4 6 3 7 11 8 6 10 7 11 8 12
REMARK H PARENT 11 9
REMARK Flexibility Score: inf
ROOT
ATOM      1  C   UNL     1     128.637 127.128 108.703  1.00  0.00     0.048 C 
ATOM      2  C   UNL     1     127.589 126.455 107.863  1.00  0.00    -0.009 A 
ATOM      3  C   UNL     1     127.956 125.478 106.920  1.00  0.00     0.118 A 
ATOM      4  C   UNL     1     126.972 124.854 106.140  1.00  0.00     0.050 A 
ATOM      5  C   UNL     1     125.615 125.195 106.289  1.00  0.00    -0.042 A 
ATOM      6  C   UNL     1     125.259 126.171 107.233  1.00  0.00     0.004 A 
ATOM      7  C   UNL     1     126.236 126.795 108.012  1.00  0.00     0.007 A 
ENDROOT
BRANCH   3   8
ATOM      8  O   UNL     1     129.298 125.131 106.761  1.00  0.00    -0.508 OA
ATOM      9  H   UNL     1     129.583 124.387 106.136  1.00  0.00     0.293 HD
ENDBRANCH   3   8
BRANCH   5  10
ATOM     10  C   UNL     1     124.542 124.525 105.449  1.00  0.00     0.013 C 
ATOM     11  C   UNL     1     123.193 125.236 105.607  1.00  0.00     0.012 C 
ATOM     12  C   UNL     1     124.424 123.034 105.791  1.00  0.00     0.012 C 
ENDBRANCH   5  10
TORSDOF 2
ENDMDL
MODEL 2
REMARK VINA RESULT:    -3.076      3.864      5.963
REMARK INTER + INTRA:          -3.473
REMARK INTER:                  -3.346
REMARK INTRA:                  -0.128
REMARK UNBOUND:                -0.127
REMARK SMILES Cc1ccc(C(C)C)cc1O
REMARK SMILES IDX 1 1 2 2 10 3 9 4 5 5 4 6 3 7 11 8 6 10 7 11 8 12
REMARK H PARENT 11 9
REMARK Flexibility Score: inf
ROOT
ATOM      1  C   UNL     1     120.344 121.903 108.727  1.00  0.00     0.048 C 
ATOM      2  C   UNL     1     121.399 122.551 107.877  1.00  0.00    -0.009 A 
ATOM      3  C   UNL     1     121.052 123.565 106.967  1.00  0.00     0.118 A 
ATOM      4  C   UNL     1     122.043 124.165 106.176  1.00  0.00     0.050 A 
ATOM      5  C   UNL     1     123.388 123.764 106.283  1.00  0.00    -0.042 A 
ATOM      6  C   UNL     1     123.724 122.750 107.195  1.00  0.00     0.004 A 
ATOM      7  C   UNL     1     122.740 122.150 107.984  1.00  0.00     0.007 A 
ENDROOT
BRANCH   3   8
ATOM      8  O   UNL     1     119.723 123.973 106.849  1.00  0.00    -0.508 OA
ATOM      9  H   UNL     1     119.135 124.107 107.663  1.00  0.00     0.293 HD
ENDBRANCH   3   8
BRANCH   5  10
ATOM     10  C   UNL     1     124.468 124.407 105.433  1.00  0.00     0.013 C 
ATOM     11  C   UNL     1     125.822 123.722 105.648  1.00  0.00     0.012 C 
ATOM     12  C   UNL     1     124.561 125.914 105.706  1.00  0.00     0.012 C 
ENDBRANCH   5  10
TORSDOF 2
ENDMDL
MODEL 3
REMARK VINA RESULT:    -3.068      3.062      4.217
REMARK INTER + INTRA:          -3.465
REMARK INTER:                  -3.337
REMARK INTRA:                  -0.128
REMARK UNBOUND:                -0.127
REMARK SMILES Cc1ccc(C(C)C)cc1O
REMARK SMILES IDX 1 1 2 2 10 3 9 4 5 5 4 6 3 7 11 8 6 10 7 11 8 12
REMARK H PARENT 11 9
REMARK Flexibility Score: inf
ROOT
ATOM      1  C   UNL     1     127.139 120.344 108.768  1.00  0.00     0.048 C 
ATOM      2  C   UNL     1     126.499 121.396 107.907  1.00  0.00    -0.009 A 
ATOM      3  C   UNL     1     125.529 121.038 106.954  1.00  0.00     0.118 A 
ATOM      4  C   UNL     1     124.935 122.025 106.154  1.00  0.00     0.050 A 
ATOM      5  C   UNL     1     125.301 123.377 106.292  1.00  0.00    -0.042 A 
ATOM      6  C   UNL     1     126.271 123.724 107.247  1.00  0.00     0.004 A 
ATOM      7  C   UNL     1     126.863 122.744 108.046  1.00  0.00     0.007 A 
ENDROOT
BRANCH   3   8
ATOM      8  O   UNL     1     125.156 119.702 106.805  1.00  0.00    -0.508 OA
ATOM      9  H   UNL     1     125.812 119.001 106.481  1.00  0.00     0.293 HD
ENDBRANCH   3   8
BRANCH   5  10
ATOM     10  C   UNL     1     124.664 124.453 105.432  1.00  0.00     0.013 C 
ATOM     11  C   UNL     1     125.349 125.808 105.645  1.00  0.00     0.012 C 
ATOM     12  C   UNL     1     123.156 124.549 105.693  1.00  0.00     0.012 C 
ENDBRANCH   5  10
TORSDOF 2
ENDMDL
MODEL 4
REMARK VINA RESULT:    -3.064      3.100      4.240
REMARK INTER + INTRA:          -3.461
REMARK INTER:                  -3.333
REMARK INTRA:                  -0.128
REMARK UNBOUND:                -0.127
REMARK SMILES Cc1ccc(C(C)C)cc1O
REMARK SMILES IDX 1 1 2 2 10 3 9 4 5 5 4 6 3 7 11 8 6 10 7 11 8 12
REMARK H PARENT 11 9
REMARK Flexibility Score: inf
ROOT
ATOM      1  C   UNL     1     121.888 128.692 108.780  1.00  0.00     0.048 C 
ATOM      2  C   UNL     1     122.513 127.622 107.930  1.00  0.00    -0.009 A 
ATOM      3  C   UNL     1     123.476 127.958 106.962  1.00  0.00     0.118 A 
ATOM      4  C   UNL     1     124.055 126.953 106.172  1.00  0.00     0.050 A 
ATOM      5  C   UNL     1     123.682 125.607 106.337  1.00  0.00    -0.042 A 
ATOM      6  C   UNL     1     122.720 125.281 107.307  1.00  0.00     0.004 A 
ATOM      7  C   UNL     1     122.142 126.279 108.095  1.00  0.00     0.007 A 
ENDROOT
BRANCH   3   8
ATOM      8  O   UNL     1     123.855 129.289 106.787  1.00  0.00    -0.508 OA
ATOM      9  H   UNL     1     123.178 130.010 106.572  1.00  0.00     0.293 HD
ENDBRANCH   3   8
BRANCH   5  10
ATOM     10  C   UNL     1     124.303 124.512 105.488  1.00  0.00     0.013 C 
ATOM     11  C   UNL     1     123.615 123.164 105.734  1.00  0.00     0.012 C 
ATOM     12  C   UNL     1     125.814 124.414 105.732  1.00  0.00     0.012 C 
ENDBRANCH   5  10
TORSDOF 2
ENDMDL
MODEL 5
REMARK VINA RESULT:    -3.033      3.824      5.784
REMARK INTER + INTRA:          -3.426
REMARK INTER:                  -3.299
REMARK INTRA:                  -0.128
REMARK UNBOUND:                -0.127
REMARK SMILES Cc1ccc(C(C)C)cc1O
REMARK SMILES IDX 1 1 2 2 10 3 9 4 5 5 4 6 3 7 11 8 6 10 7 11 8 12
REMARK H PARENT 11 9
REMARK Flexibility Score: inf
ROOT
ATOM      1  C   UNL     1     119.457 124.656 108.778  1.00  0.00     0.048 C 
ATOM      2  C   UNL     1     120.693 124.622 107.924  1.00  0.00    -0.009 A 
ATOM      3  C   UNL     1     120.853 123.622 106.948  1.00  0.00     0.118 A 
ATOM      4  C   UNL     1     122.009 123.597 106.155  1.00  0.00     0.050 A 
ATOM      5  C   UNL     1     123.018 124.564 106.324  1.00  0.00    -0.042 A 
ATOM      6  C   UNL     1     122.848 125.558 107.301  1.00  0.00     0.004 A 
ATOM      7  C   UNL     1     121.698 125.587 108.093  1.00  0.00     0.007 A 
ENDROOT
BRANCH   3   8
ATOM      8  O   UNL     1     119.862 122.656 106.769  1.00  0.00    -0.508 OA
ATOM      9  H   UNL     1     120.065 121.667 106.847  1.00  0.00     0.293 HD
ENDBRANCH   3   8
BRANCH   5  10
ATOM     10  C   UNL     1     124.273 124.546 105.470  1.00  0.00     0.013 C 
ATOM     11  C   UNL     1     125.167 123.353 105.828  1.00  0.00     0.012 C 
ATOM     12  C   UNL     1     125.041 125.868 105.590  1.00  0.00     0.012 C 
ENDBRANCH   5  10
TORSDOF 2
ENDMDL
MODEL 6
REMARK VINA RESULT:    -3.031      1.448      1.872
REMARK INTER + INTRA:          -3.425
REMARK INTER:                  -3.297
REMARK INTRA:                  -0.127
REMARK UNBOUND:                -0.127
REMARK SMILES Cc1ccc(C(C)C)cc1O
REMARK SMILES IDX 1 1 2 2 10 3 9 4 5 5 4 6 3 7 11 8 6 10 7 11 8 12
REMARK H PARENT 11 9
REMARK Flexibility Score: inf
ROOT
ATOM      1  C   UNL     1     129.636 124.380 108.722  1.00  0.00     0.048 C 
ATOM      2  C   UNL     1     128.390 124.392 107.882  1.00  0.00    -0.009 A 
ATOM      3  C   UNL     1     128.200 125.390 106.910  1.00  0.00     0.118 A 
ATOM      4  C   UNL     1     127.034 125.394 106.130  1.00  0.00     0.050 A 
ATOM      5  C   UNL     1     126.047 124.408 106.309  1.00  0.00    -0.042 A 
ATOM      6  C   UNL     1     126.246 123.415 107.283  1.00  0.00     0.004 A 
ATOM      7  C   UNL     1     127.406 123.408 108.061  1.00  0.00     0.007 A 
ENDROOT
BRANCH   3   8
ATOM      8  O   UNL     1     129.170 126.374 106.722  1.00  0.00    -0.508 OA
ATOM      9  H   UNL     1     129.645 126.489 105.835  1.00  0.00     0.293 HD
ENDBRANCH   3   8
BRANCH   5  10
ATOM     10  C   UNL     1     124.782 124.404 105.470  1.00  0.00     0.013 C 
ATOM     11  C   UNL     1     123.901 125.617 105.792  1.00  0.00     0.012 C 
ATOM     12  C   UNL     1     124.005 123.094 105.650  1.00  0.00     0.012 C 
ENDBRANCH   5  10
TORSDOF 2
ENDMDL
MODEL 7
REMARK VINA RESULT:    -3.001      2.894      4.886
REMARK INTER + INTRA:          -3.392
REMARK INTER:                  -3.264
REMARK INTRA:                  -0.127
REMARK UNBOUND:                -0.127
REMARK SMILES Cc1ccc(C(C)C)cc1O
REMARK SMILES IDX 1 1 2 2 10 3 9 4 5 5 4 6 3 7 11 8 6 10 7 11 8 12
REMARK H PARENT 11 9
REMARK Flexibility Score: inf
ROOT
ATOM      1  C   UNL     1     124.373 119.478 108.798  1.00  0.00     0.048 C 
ATOM      2  C   UNL     1     124.372 120.704 107.929  1.00  0.00    -0.009 A 
ATOM      3  C   UNL     1     125.330 120.851 106.910  1.00  0.00     0.118 A 
ATOM      4  C   UNL     1     125.322 121.998 106.103  1.00  0.00     0.050 A 
ATOM      5  C   UNL     1     124.364 123.009 106.300  1.00  0.00    -0.042 A 
ATOM      6  C   UNL     1     123.411 122.852 107.320  1.00  0.00     0.004 A 
ATOM      7  C   UNL     1     123.415 121.711 108.126  1.00  0.00     0.007 A 
ENDROOT
BRANCH   3   8
ATOM      8  O   UNL     1     126.287 119.858 106.703  1.00  0.00    -0.508 OA
ATOM      9  H   UNL     1     127.249 120.085 106.483  1.00  0.00     0.293 HD
ENDBRANCH   3   8
BRANCH   5  10
ATOM     10  C   UNL     1     124.346 124.254 105.432  1.00  0.00     0.013 C 
ATOM     11  C   UNL     1     125.575 125.131 105.699  1.00  0.00     0.012 C 
ATOM     12  C   UNL     1     123.048 125.046 105.629  1.00  0.00     0.012 C 
ENDBRANCH   5  10
TORSDOF 2
ENDMDL
MODEL 8
REMARK VINA RESULT:    -2.967      2.834      3.528
REMARK INTER + INTRA:          -3.354
REMARK INTER:                  -3.227
REMARK INTRA:                  -0.127
REMARK UNBOUND:                -0.127
REMARK SMILES Cc1ccc(C(C)C)cc1O
REMARK SMILES IDX 1 1 2 2 10 3 9 4 5 5 4 6 3 7 11 8 6 10 7 11 8 12
REMARK H PARENT 11 9
REMARK Flexibility Score: inf
ROOT
ATOM      1  C   UNL     1     124.653 129.432 108.784  1.00  0.00     0.048 C 
ATOM      2  C   UNL     1     124.619 128.189 107.941  1.00  0.00    -0.009 A 
ATOM      3  C   UNL     1     123.771 128.115 106.822  1.00  0.00     0.118 A 
ATOM      4  C   UNL     1     123.744 126.951 106.040  1.00  0.00     0.050 A 
ATOM      5  C   UNL     1     124.559 125.851 106.362  1.00  0.00    -0.042 A 
ATOM      6  C   UNL     1     125.403 125.935 107.482  1.00  0.00     0.004 A 
ATOM      7  C   UNL     1     125.432 127.092 108.263  1.00  0.00     0.007 A 
ENDROOT
BRANCH   3   8
ATOM      8  O   UNL     1     122.957 129.198 106.490  1.00  0.00    -0.508 OA
ATOM      9  H   UNL     1     123.345 130.108 106.275  1.00  0.00     0.293 HD
ENDBRANCH   3   8
BRANCH   5  10
ATOM     10  C   UNL     1     124.539 124.587 105.522  1.00  0.00     0.013 C 
ATOM     11  C   UNL     1     123.362 123.684 105.910  1.00  0.00     0.012 C 
ATOM     12  C   UNL     1     125.871 123.833 105.625  1.00  0.00     0.012 C 
ENDBRANCH   5  10
TORSDOF 2
ENDMDL
MODEL 9
REMARK VINA RESULT:    -2.913      4.154      6.149
REMARK INTER + INTRA:          -3.296
REMARK INTER:                  -3.168
REMARK INTRA:                  -0.128
REMARK UNBOUND:                -0.127
REMARK SMILES Cc1ccc(C(C)C)cc1O
REMARK SMILES IDX 1 1 2 2 10 3 9 4 5 5 4 6 3 7 11 8 6 10 7 11 8 12
REMARK H PARENT 11 9
REMARK Flexibility Score: inf
ROOT
ATOM      1  C   UNL     1     119.092 122.364 108.078  1.00  0.00     0.048 C 
ATOM      2  C   UNL     1     120.481 122.715 107.626  1.00  0.00    -0.009 A 
ATOM      3  C   UNL     1     121.598 122.146 108.262  1.00  0.00     0.118 A 
ATOM      4  C   UNL     1     122.892 122.479 107.835  1.00  0.00     0.050 A 
ATOM      5  C   UNL     1     123.088 123.381 106.773  1.00  0.00    -0.042 A 
ATOM      6  C   UNL     1     121.965 123.944 106.144  1.00  0.00     0.004 A 
ATOM      7  C   UNL     1     120.675 123.614 106.567  1.00  0.00     0.007 A 
ENDROOT
BRANCH   3   8
ATOM      8  O   UNL     1     121.421 121.251 109.317  1.00  0.00    -0.508 OA
ATOM      9  H   UNL     1     120.917 120.381 109.196  1.00  0.00     0.293 HD
ENDBRANCH   3   8
BRANCH   5  10
ATOM     10  C   UNL     1     124.483 123.748 106.302  1.00  0.00     0.013 C 
ATOM     11  C   UNL     1     124.435 124.534 104.987  1.00  0.00     0.012 C 
ATOM     12  C   UNL     1     125.366 122.501 106.168  1.00  0.00     0.012 C 
ENDBRANCH   5  10
TORSDOF 2
ENDMDL
