MODEL 1
REMARK VINA RESULT:    -5.955      0.000      0.000
REMARK INTER + INTRA:          -9.050
REMARK INTER:                  -8.044
REMARK INTRA:                  -1.006
REMARK UNBOUND:                -1.006
REMARK SMILES CC(=O)CCC=C(C)CCC=C(C)C
REMARK SMILES IDX 7 1 6 2 8 3 9 4 10 5 11 6 13 7 12 8 14 9 5 10 4 11 2 12 3 13
REMARK SMILES IDX 1 14
REMARK H PARENT
REMARK Flexibility Score: inf
ROOT
ATOM      1  C   UNL     1      -8.423  32.769  21.009  1.00  0.00    -0.077 C 
ATOM      2  C   UNL     1      -8.617  33.766  21.902  1.00  0.00    -0.028 C 
ATOM      3  C   UNL     1      -7.231  32.749  20.081  1.00  0.00     0.039 C 
ENDROOT
BRANCH   1   4
ATOM      4  C   UNL     1      -9.438  31.650  20.925  1.00  0.00     0.034 C 
BRANCH   4   5
ATOM      5  C   UNL     1      -8.881  30.364  21.544  1.00  0.00     0.032 C 
BRANCH   5   6
ATOM      6  C   UNL     1      -8.915  30.436  23.051  1.00  0.00    -0.028 C 
ATOM      7  C   UNL     1      -6.505  29.800  23.295  1.00  0.00     0.039 C 
ATOM      8  C   UNL     1      -7.862  30.161  23.852  1.00  0.00    -0.080 C 
ATOM      9  C   UNL     1      -8.057  30.237  25.344  1.00  0.00     0.039 C 
ENDBRANCH   5   6
ENDBRANCH   4   5
ENDBRANCH   1   4
BRANCH   2  10
ATOM     10  C   UNL     1      -7.661  34.912  22.121  1.00  0.00     0.035 C 
BRANCH  10  11
ATOM     11  C   UNL     1      -7.114  34.894  23.551  1.00  0.00     0.079 C 
BRANCH  11  12
ATOM     12  C   UNL     1      -8.230  35.019  24.552  1.00  0.00     0.130 C 
ATOM     13  O   UNL     1      -8.878  36.054  24.610  1.00  0.00    -0.300 OA
ATOM     14  C   UNL     1      -8.536  33.895  25.494  1.00  0.00     0.087 C 
ENDBRANCH  11  12
ENDBRANCH  10  11
ENDBRANCH   2  10
TORSDOF 6
ENDMDL
MODEL 2
REMARK VINA RESULT:    -5.675      1.777      4.352
REMARK INTER + INTRA:          -8.672
REMARK INTER:                  -8.038
REMARK INTRA:                  -0.634
REMARK UNBOUND:                -1.006
REMARK SMILES CC(=O)CCC=C(C)CCC=C(C)C
REMARK SMILES IDX 7 1 6 2 8 3 9 4 10 5 11 6 13 7 12 8 14 9 5 10 4 11 2 12 3 13
REMARK SMILES IDX 1 14
REMARK H PARENT
REMARK Flexibility Score: inf
ROOT
ATOM      1  C   UNL     1      -8.337  32.548  21.610  1.00  0.00    -0.077 C 
ATOM      2  C   UNL     1      -7.508  31.515  21.886  1.00  0.00    -0.028 C 
ATOM      3  C   UNL     1      -9.840  32.395  21.642  1.00  0.00     0.039 C 
ENDROOT
BRANCH   1   4
ATOM      4  C   UNL     1      -7.743  33.889  21.242  1.00  0.00     0.034 C 
BRANCH   4   5
ATOM      5  C   UNL     1      -7.876  34.880  22.404  1.00  0.00     0.032 C 
BRANCH   5   6
ATOM      6  C   UNL     1      -7.865  34.157  23.728  1.00  0.00    -0.028 C 
ATOM      7  C   UNL     1      -9.039  36.013  24.932  1.00  0.00     0.039 C 
ATOM      8  C   UNL     1      -8.361  34.665  24.878  1.00  0.00    -0.080 C 
ATOM      9  C   UNL     1      -8.242  33.842  26.135  1.00  0.00     0.039 C 
ENDBRANCH   5   6
ENDBRANCH   4   5
ENDBRANCH   1   4
BRANCH   2  10
ATOM     10  C   UNL     1      -7.967  30.143  22.311  1.00  0.00     0.035 C 
BRANCH  10  11
ATOM     11  C   UNL     1      -7.333  29.751  23.649  1.00  0.00     0.079 C 
BRANCH  11  12
ATOM     12  C   UNL     1      -8.236  30.117  24.796  1.00  0.00     0.130 C 
ATOM     13  O   UNL     1      -9.377  30.494  24.572  1.00  0.00    -0.300 OA
ATOM     14  C   UNL     1      -7.739  30.047  26.207  1.00  0.00     0.087 C 
ENDBRANCH  11  12
ENDBRANCH  10  11
ENDBRANCH   2  10
TORSDOF 6
ENDMDL
MODEL 3
REMARK VINA RESULT:    -5.545      1.992      4.214
REMARK INTER + INTRA:          -8.496
REMARK INTER:                  -7.178
REMARK INTRA:                  -1.318
REMARK UNBOUND:                -1.006
REMARK SMILES CC(=O)CCC=C(C)CCC=C(C)C
REMARK SMILES IDX 7 1 6 2 8 3 9 4 10 5 11 6 13 7 12 8 14 9 5 10 4 11 2 12 3 13
REMARK SMILES IDX 1 14
REMARK H PARENT
REMARK Flexibility Score: inf
ROOT
ATOM      1  C   UNL     1      -8.129  34.966  24.767  1.00  0.00    -0.077 C 
ATOM      2  C   UNL     1      -7.451  34.486  23.699  1.00  0.00    -0.028 C 
ATOM      3  C   UNL     1      -9.183  36.040  24.626  1.00  0.00     0.039 C 
ENDROOT
BRANCH   1   4
ATOM      4  C   UNL     1      -7.810  34.425  26.144  1.00  0.00     0.034 C 
BRANCH   4   5
ATOM      5  C   UNL     1      -8.832  33.362  26.560  1.00  0.00     0.032 C 
BRANCH   5   6
ATOM      6  C   UNL     1      -8.386  31.989  26.121  1.00  0.00    -0.028 C 
ATOM      7  C   UNL     1     -10.099  31.841  24.300  1.00  0.00     0.039 C 
ATOM      8  C   UNL     1      -8.962  31.283  25.123  1.00  0.00    -0.080 C 
ATOM      9  C   UNL     1      -8.434  29.904  24.823  1.00  0.00     0.039 C 
ENDBRANCH   5   6
ENDBRANCH   4   5
ENDBRANCH   1   4
BRANCH   2  10
ATOM     10  C   UNL     1      -7.703  34.903  22.272  1.00  0.00     0.035 C 
BRANCH  10  11
ATOM     11  C   UNL     1      -8.562  33.862  21.549  1.00  0.00     0.079 C 
BRANCH  11  12
ATOM     12  C   UNL     1      -7.700  32.798  20.927  1.00  0.00     0.130 C 
ATOM     13  O   UNL     1      -7.066  33.047  19.912  1.00  0.00    -0.300 OA
ATOM     14  C   UNL     1      -7.634  31.426  21.527  1.00  0.00     0.087 C 
ENDBRANCH  11  12
ENDBRANCH  10  11
ENDBRANCH   2  10
TORSDOF 6
ENDMDL
MODEL 4
REMARK VINA RESULT:    -5.526      1.096      3.663
REMARK INTER + INTRA:          -8.470
REMARK INTER:                  -7.419
REMARK INTRA:                  -1.051
REMARK UNBOUND:                -1.006
REMARK SMILES CC(=O)CCC=C(C)CCC=C(C)C
REMARK SMILES IDX 7 1 6 2 8 3 9 4 10 5 11 6 13 7 12 8 14 9 5 10 4 11 2 12 3 13
REMARK SMILES IDX 1 14
REMARK H PARENT
REMARK Flexibility Score: inf
ROOT
ATOM      1  C   UNL     1      -8.671  30.805  24.695  1.00  0.00    -0.077 C 
ATOM      2  C   UNL     1      -8.166  31.937  25.234  1.00  0.00    -0.028 C 
ATOM      3  C   UNL     1     -10.115  30.403  24.890  1.00  0.00     0.039 C 
ENDROOT
BRANCH   1   4
ATOM      4  C   UNL     1      -7.761  29.906  23.887  1.00  0.00     0.034 C 
BRANCH   4   5
ATOM      5  C   UNL     1      -8.175  29.898  22.411  1.00  0.00     0.032 C 
BRANCH   5   6
ATOM      6  C   UNL     1      -7.551  31.058  21.675  1.00  0.00    -0.028 C 
ATOM      7  C   UNL     1      -9.719  32.294  21.460  1.00  0.00     0.039 C 
ATOM      8  C   UNL     1      -8.237  32.129  21.218  1.00  0.00    -0.080 C 
ATOM      9  C   UNL     1      -7.485  33.194  20.462  1.00  0.00     0.039 C 
ENDBRANCH   5   6
ENDBRANCH   4   5
ENDBRANCH   1   4
BRANCH   2  10
ATOM     10  C   UNL     1      -8.972  32.942  26.018  1.00  0.00     0.035 C 
BRANCH  10  11
ATOM     11  C   UNL     1      -8.212  34.266  26.142  1.00  0.00     0.079 C 
BRANCH  11  12
ATOM     12  C   UNL     1      -8.474  35.146  24.951  1.00  0.00     0.130 C 
ATOM     13  O   UNL     1      -9.316  36.030  25.024  1.00  0.00    -0.300 OA
ATOM     14  C   UNL     1      -7.729  34.932  23.668  1.00  0.00     0.087 C 
ENDBRANCH  11  12
ENDBRANCH  10  11
ENDBRANCH   2  10
TORSDOF 6
ENDMDL
MODEL 5
REMARK VINA RESULT:    -5.514      1.560      3.947
REMARK INTER + INTRA:          -8.455
REMARK INTER:                  -7.500
REMARK INTRA:                  -0.955
REMARK UNBOUND:                -1.006
REMARK SMILES CC(=O)CCC=C(C)CCC=C(C)C
REMARK SMILES IDX 7 1 6 2 8 3 9 4 10 5 11 6 13 7 12 8 14 9 5 10 4 11 2 12 3 13
REMARK SMILES IDX 1 14
REMARK H PARENT
REMARK Flexibility Score: inf
ROOT
ATOM      1  C   UNL     1      -8.341  30.467  23.113  1.00  0.00    -0.077 C 
ATOM      2  C   UNL     1      -9.375  30.506  23.984  1.00  0.00    -0.028 C 
ATOM      3  C   UNL     1      -6.905  30.411  23.581  1.00  0.00     0.039 C 
ENDROOT
BRANCH   1   4
ATOM      4  C   UNL     1      -8.629  30.497  21.628  1.00  0.00     0.034 C 
BRANCH   4   5
ATOM      5  C   UNL     1      -9.514  31.695  21.270  1.00  0.00     0.032 C 
BRANCH   5   6
ATOM      6  C   UNL     1      -8.956  32.968  21.858  1.00  0.00    -0.028 C 
ATOM      7  C   UNL     1      -7.296  33.282  20.009  1.00  0.00     0.039 C 
ATOM      8  C   UNL     1      -7.942  33.678  21.316  1.00  0.00    -0.080 C 
ATOM      9  C   UNL     1      -7.462  34.910  22.039  1.00  0.00     0.039 C 
ENDBRANCH   5   6
ENDBRANCH   4   5
ENDBRANCH   1   4
BRANCH   2  10
ATOM     10  C   UNL     1      -9.230  30.435  25.484  1.00  0.00     0.035 C 
BRANCH  10  11
ATOM     11  C   UNL     1      -9.759  31.714  26.139  1.00  0.00     0.079 C 
BRANCH  11  12
ATOM     12  C   UNL     1      -8.646  32.701  26.360  1.00  0.00     0.130 C 
ATOM     13  O   UNL     1      -7.856  32.529  27.277  1.00  0.00    -0.300 OA
ATOM     14  C   UNL     1      -8.512  33.906  25.480  1.00  0.00     0.087 C 
ENDBRANCH  11  12
ENDBRANCH  10  11
ENDBRANCH   2  10
TORSDOF 6
ENDMDL
MODEL 6
REMARK VINA RESULT:    -5.459      2.291      5.609
REMARK INTER + INTRA:          -8.380
REMARK INTER:                  -7.373
REMARK INTRA:                  -1.007
REMARK UNBOUND:                -1.006
REMARK SMILES CC(=O)CCC=C(C)CCC=C(C)C
REMARK SMILES IDX 7 1 6 2 8 3 9 4 10 5 11 6 13 7 12 8 14 9 5 10 4 11 2 12 3 13
REMARK SMILES IDX 1 14
REMARK H PARENT
REMARK Flexibility Score: inf
ROOT
ATOM      1  C   UNL     1      -9.050  30.670  25.790  1.00  0.00    -0.077 C 
ATOM      2  C   UNL     1      -9.590  30.106  24.685  1.00  0.00    -0.028 C 
ATOM      3  C   UNL     1      -7.860  30.062  26.495  1.00  0.00     0.039 C 
ENDROOT
BRANCH   1   4
ATOM      4  C   UNL     1      -9.665  31.936  26.344  1.00  0.00     0.034 C 
BRANCH   4   5
ATOM      5  C   UNL     1      -8.645  33.079  26.350  1.00  0.00     0.032 C 
BRANCH   5   6
ATOM      6  C   UNL     1      -8.261  33.462  24.942  1.00  0.00    -0.028 C 
ATOM      7  C   UNL     1      -8.784  35.887  25.288  1.00  0.00     0.039 C 
ATOM      8  C   UNL     1      -8.343  34.715  24.443  1.00  0.00    -0.080 C 
ATOM      9  C   UNL     1      -7.962  34.940  23.002  1.00  0.00     0.039 C 
ENDBRANCH   5   6
ENDBRANCH   4   5
ENDBRANCH   1   4
BRANCH   2  10
ATOM     10  C   UNL     1      -9.047  28.875  24.004  1.00  0.00     0.035 C 
BRANCH  10  11
ATOM     11  C   UNL     1      -8.653  29.187  22.557  1.00  0.00     0.079 C 
BRANCH  11  12
ATOM     12  C   UNL     1      -7.488  30.138  22.514  1.00  0.00     0.130 C 
ATOM     13  O   UNL     1      -6.452  29.854  23.097  1.00  0.00    -0.300 OA
ATOM     14  C   UNL     1      -7.597  31.441  21.782  1.00  0.00     0.087 C 
ENDBRANCH  11  12
ENDBRANCH  10  11
ENDBRANCH   2  10
TORSDOF 6
ENDMDL
MODEL 7
REMARK VINA RESULT:    -5.399      1.969      3.910
REMARK INTER + INTRA:          -8.299
REMARK INTER:                  -7.261
REMARK INTRA:                  -1.038
REMARK UNBOUND:                -1.006
REMARK SMILES CC(=O)CCC=C(C)CCC=C(C)C
REMARK SMILES IDX 7 1 6 2 8 3 9 4 10 5 11 6 13 7 12 8 14 9 5 10 4 11 2 12 3 13
REMARK SMILES IDX 1 14
REMARK H PARENT
REMARK Flexibility Score: inf
ROOT
ATOM      1  C   UNL     1      -8.225  29.914  23.330  1.00  0.00    -0.077 C 
ATOM      2  C   UNL     1      -8.966  30.633  22.456  1.00  0.00    -0.028 C 
ATOM      3  C   UNL     1      -6.732  29.751  23.164  1.00  0.00     0.039 C 
ENDROOT
BRANCH   1   4
ATOM      4  C   UNL     1      -8.912  29.243  24.498  1.00  0.00     0.034 C 
BRANCH   4   5
ATOM      5  C   UNL     1      -9.852  30.220  25.211  1.00  0.00     0.032 C 
BRANCH   5   6
ATOM      6  C   UNL     1      -9.172  30.844  26.404  1.00  0.00    -0.028 C 
ATOM      7  C   UNL     1      -8.748  33.014  25.228  1.00  0.00     0.039 C 
ATOM      8  C   UNL     1      -8.648  32.090  26.418  1.00  0.00    -0.080 C 
ATOM      9  C   UNL     1      -7.961  32.565  27.673  1.00  0.00     0.039 C 
ENDBRANCH   5   6
ENDBRANCH   4   5
ENDBRANCH   1   4
BRANCH   2  10
ATOM     10  C   UNL     1      -8.402  31.389  21.280  1.00  0.00     0.035 C 
BRANCH  10  11
ATOM     11  C   UNL     1      -8.954  32.817  21.241  1.00  0.00     0.079 C 
BRANCH  11  12
ATOM     12  C   UNL     1      -7.855  33.808  20.969  1.00  0.00     0.130 C 
ATOM     13  O   UNL     1      -7.175  33.696  19.959  1.00  0.00    -0.300 OA
ATOM     14  C   UNL     1      -7.572  34.915  21.938  1.00  0.00     0.087 C 
ENDBRANCH  11  12
ENDBRANCH  10  11
ENDBRANCH   2  10
TORSDOF 6
ENDMDL
MODEL 8
REMARK VINA RESULT:    -5.131      2.397      4.461
REMARK INTER + INTRA:          -7.937
REMARK INTER:                  -7.220
REMARK INTRA:                  -0.717
REMARK UNBOUND:                -1.006
REMARK SMILES CC(=O)CCC=C(C)CCC=C(C)C
REMARK SMILES IDX 7 1 6 2 8 3 9 4 10 5 11 6 13 7 12 8 14 9 5 10 4 11 2 12 3 13
REMARK SMILES IDX 1 14
REMARK H PARENT
REMARK Flexibility Score: inf
ROOT
ATOM      1  C   UNL     1      -7.725  34.109  22.919  1.00  0.00    -0.077 C 
ATOM      2  C   UNL     1      -7.831  32.761  22.958  1.00  0.00    -0.028 C 
ATOM      3  C   UNL     1      -7.581  34.861  21.616  1.00  0.00     0.039 C 
ENDROOT
BRANCH   1   4
ATOM      4  C   UNL     1      -7.734  34.885  24.218  1.00  0.00     0.034 C 
BRANCH   4   5
ATOM      5  C   UNL     1      -8.856  34.392  25.138  1.00  0.00     0.032 C 
BRANCH   5   6
ATOM      6  C   UNL     1      -8.289  33.806  26.407  1.00  0.00    -0.028 C 
ATOM      7  C   UNL     1      -9.949  31.932  26.471  1.00  0.00     0.039 C 
ATOM      8  C   UNL     1      -8.786  32.716  27.032  1.00  0.00    -0.080 C 
ATOM      9  C   UNL     1      -8.139  32.269  28.318  1.00  0.00     0.039 C 
ENDBRANCH   5   6
ENDBRANCH   4   5
ENDBRANCH   1   4
BRANCH   2  10
ATOM     10  C   UNL     1      -7.884  31.874  21.739  1.00  0.00     0.035 C 
BRANCH  10  11
ATOM     11  C   UNL     1      -8.365  30.469  22.114  1.00  0.00     0.079 C 
BRANCH  11  12
ATOM     12  C   UNL     1      -7.547  29.908  23.245  1.00  0.00     0.130 C 
ATOM     13  O   UNL     1      -6.358  29.680  23.078  1.00  0.00    -0.300 OA
ATOM     14  C   UNL     1      -8.184  29.604  24.566  1.00  0.00     0.087 C 
ENDBRANCH  11  12
ENDBRANCH  10  11
ENDBRANCH   2  10
TORSDOF 6
ENDMDL
MODEL 9
REMARK VINA RESULT:    -5.099     16.893     19.111
REMARK INTER + INTRA:          -7.893
REMARK INTER:                  -6.888
REMARK INTRA:                  -1.005
REMARK UNBOUND:                -1.006
REMARK SMILES CC(=O)CCC=C(C)CCC=C(C)C
REMARK SMILES IDX 7 1 6 2 8 3 9 4 10 5 11 6 13 7 12 8 14 9 5 10 4 11 2 12 3 13
REMARK SMILES IDX 1 14
REMARK H PARENT
REMARK Flexibility Score: inf
ROOT
ATOM      1  C   UNL     1      -2.100  46.925  10.662  1.00  0.00    -0.077 C 
ATOM      2  C   UNL     1      -1.852  46.375  11.873  1.00  0.00    -0.028 C 
ATOM      3  C   UNL     1      -1.696  48.343  10.332  1.00  0.00     0.039 C 
ENDROOT
BRANCH   1   4
ATOM      4  C   UNL     1      -2.816  46.102   9.614  1.00  0.00     0.034 C 
BRANCH   4   5
ATOM      5  C   UNL     1      -4.257  45.808  10.045  1.00  0.00     0.032 C 
BRANCH   5   6
ATOM      6  C   UNL     1      -5.159  46.975   9.728  1.00  0.00    -0.028 C 
ATOM      7  C   UNL     1      -5.277  47.735  12.112  1.00  0.00     0.039 C 
ATOM      8  C   UNL     1      -5.646  47.834  10.650  1.00  0.00    -0.080 C 
ATOM      9  C   UNL     1      -6.571  48.932  10.191  1.00  0.00     0.039 C 
ENDBRANCH   5   6
ENDBRANCH   4   5
ENDBRANCH   1   4
BRANCH   2  10
ATOM     10  C   UNL     1      -1.107  47.066  12.987  1.00  0.00     0.035 C 
BRANCH  10  11
ATOM     11  C   UNL     1      -0.978  46.145  14.204  1.00  0.00     0.079 C 
BRANCH  11  12
ATOM     12  C   UNL     1      -1.745  46.697  15.374  1.00  0.00     0.130 C 
ATOM     13  O   UNL     1      -1.144  47.228  16.297  1.00  0.00    -0.300 OA
ATOM     14  C   UNL     1      -3.238  46.578  15.429  1.00  0.00     0.087 C 
ENDBRANCH  11  12
ENDBRANCH  10  11
ENDBRANCH   2  10
TORSDOF 6
ENDMDL
