MODEL 1
REMARK VINA RESULT:    -3.138      0.000      0.000
REMARK INTER + INTRA:          -3.737
REMARK INTER:                  -3.689
REMARK INTRA:                  -0.048
REMARK UNBOUND:                -0.048
REMARK SMILES O=C([O-])CCC(=O)[O-]
REMARK SMILES IDX 4 1 2 2 1 3 3 4 5 5 6 6 7 7 8 8
REMARK H PARENT
REMARK Flexibility Score: inf
ROOT
ATOM      1  C   UNL     1      37.700  -7.601  10.655  1.00  0.00     0.059 C 
ENDROOT
BRANCH   1   2
ATOM      2  C   UNL     1      38.765  -6.908   9.866  1.00  0.00     0.042 C 
ATOM      3  O   UNL     1      38.480  -6.341   8.779  1.00  0.00    -0.550 OA
ATOM      4  O   UNL     1      40.082  -6.930  10.307  1.00  0.00    -0.550 OA
ENDBRANCH   1   2
BRANCH   1   5
ATOM      5  C   UNL     1      38.035  -7.573  12.148  1.00  0.00     0.059 C 
BRANCH   5   6
ATOM      6  C   UNL     1      36.927  -6.935  12.922  1.00  0.00     0.042 C 
ATOM      7  O   UNL     1      37.182  -6.248  13.946  1.00  0.00    -0.550 OA
ATOM      8  O   UNL     1      35.613  -7.058  12.485  1.00  0.00    -0.550 OA
ENDBRANCH   5   6
ENDBRANCH   1   5
TORSDOF 3
ENDMDL
MODEL 2
REMARK VINA RESULT:    -3.112      0.136      4.097
REMARK INTER + INTRA:          -3.706
REMARK INTER:                  -3.650
REMARK INTRA:                  -0.056
REMARK UNBOUND:                -0.048
REMARK SMILES O=C([O-])CCC(=O)[O-]
REMARK SMILES IDX 4 1 2 2 1 3 3 4 5 5 6 6 7 7 8 8
REMARK H PARENT
REMARK Flexibility Score: inf
ROOT
ATOM      1  C   UNL     1      37.896  -7.744  12.131  1.00  0.00     0.059 C 
ENDROOT
BRANCH   1   2
ATOM      2  C   UNL     1      36.883  -6.952  12.894  1.00  0.00     0.042 C 
ATOM      3  O   UNL     1      37.232  -6.276  13.898  1.00  0.00    -0.550 OA
ATOM      4  O   UNL     1      35.544  -6.998  12.527  1.00  0.00    -0.550 OA
ENDBRANCH   1   2
BRANCH   1   5
ATOM      5  C   UNL     1      37.633  -7.641  10.627  1.00  0.00     0.059 C 
BRANCH   5   6
ATOM      6  C   UNL     1      38.775  -6.963   9.940  1.00  0.00     0.042 C 
ATOM      7  O   UNL     1      38.581  -6.317   8.876  1.00  0.00    -0.550 OA
ATOM      8  O   UNL     1      40.046  -7.002  10.500  1.00  0.00    -0.550 OA
ENDBRANCH   5   6
ENDBRANCH   1   5
TORSDOF 3
ENDMDL
MODEL 3
REMARK VINA RESULT:    -3.103      0.172      1.158
REMARK INTER + INTRA:          -3.696
REMARK INTER:                  -3.649
REMARK INTRA:                  -0.047
REMARK UNBOUND:                -0.048
REMARK SMILES O=C([O-])CCC(=O)[O-]
REMARK SMILES IDX 4 1 2 2 1 3 3 4 5 5 6 6 7 7 8 8
REMARK H PARENT
REMARK Flexibility Score: inf
ROOT
ATOM      1  C   UNL     1      37.639  -7.608  10.778  1.00  0.00     0.059 C 
ENDROOT
BRANCH   1   2
ATOM      2  C   UNL     1      38.701  -6.963   9.944  1.00  0.00     0.042 C 
ATOM      3  O   UNL     1      39.905  -6.997  10.314  1.00  0.00    -0.550 OA
ATOM      4  O   UNL     1      38.355  -6.284   8.783  1.00  0.00    -0.550 OA
ENDBRANCH   1   2
BRANCH   1   5
ATOM      5  C   UNL     1      37.958  -7.449  12.266  1.00  0.00     0.059 C 
BRANCH   5   6
ATOM      6  C   UNL     1      36.780  -6.887  12.997  1.00  0.00     0.042 C 
ATOM      7  O   UNL     1      36.944  -6.252  14.072  1.00  0.00    -0.550 OA
ATOM      8  O   UNL     1      35.504  -7.021  12.465  1.00  0.00    -0.550 OA
ENDBRANCH   5   6
ENDBRANCH   1   5
TORSDOF 3
ENDMDL
MODEL 4
REMARK VINA RESULT:    -3.091      9.729     10.556
REMARK INTER + INTRA:          -3.681
REMARK INTER:                  -3.503
REMARK INTRA:                  -0.179
REMARK UNBOUND:                -0.048
REMARK SMILES O=C([O-])CCC(=O)[O-]
REMARK SMILES IDX 4 1 2 2 1 3 3 4 5 5 6 6 7 7 8 8
REMARK H PARENT
REMARK Flexibility Score: inf
ROOT
ATOM      1  C   UNL     1      41.513  -3.229   3.138  1.00  0.00     0.059 C 
ENDROOT
BRANCH   1   2
ATOM      2  C   UNL     1      42.113  -3.096   1.774  1.00  0.00     0.042 C 
ATOM      3  O   UNL     1      42.164  -1.970   1.211  1.00  0.00    -0.550 OA
ATOM      4  O   UNL     1      42.572  -4.223   1.104  1.00  0.00    -0.550 OA
ENDBRANCH   1   2
BRANCH   1   5
ATOM      5  C   UNL     1      40.273  -4.125   3.093  1.00  0.00     0.059 C 
BRANCH   5   6
ATOM      6  C   UNL     1      39.172  -3.456   2.333  1.00  0.00     0.042 C 
ATOM      7  O   UNL     1      38.600  -4.056   1.385  1.00  0.00    -0.550 OA
ATOM      8  O   UNL     1      38.743  -2.187   2.703  1.00  0.00    -0.550 OA
ENDBRANCH   5   6
ENDBRANCH   1   5
TORSDOF 3
ENDMDL
MODEL 5
REMARK VINA RESULT:    -3.078      0.665      1.760
REMARK INTER + INTRA:          -3.666
REMARK INTER:                  -3.592
REMARK INTRA:                  -0.074
REMARK UNBOUND:                -0.048
REMARK SMILES O=C([O-])CCC(=O)[O-]
REMARK SMILES IDX 4 1 2 2 1 3 3 4 5 5 6 6 7 7 8 8
REMARK H PARENT
REMARK Flexibility Score: inf
ROOT
ATOM      1  C   UNL     1      38.558  -7.745  11.526  1.00  0.00     0.059 C 
ENDROOT
BRANCH   1   2
ATOM      2  C   UNL     1      39.186  -7.109  10.326  1.00  0.00     0.042 C 
ATOM      3  O   UNL     1      40.434  -6.949  10.273  1.00  0.00    -0.550 OA
ATOM      4  O   UNL     1      38.388  -6.650   9.285  1.00  0.00    -0.550 OA
ENDBRANCH   1   2
BRANCH   1   5
ATOM      5  C   UNL     1      37.035  -7.763  11.386  1.00  0.00     0.059 C 
BRANCH   5   6
ATOM      6  C   UNL     1      36.395  -7.075  12.550  1.00  0.00     0.042 C 
ATOM      7  O   UNL     1      35.140  -6.993  12.626  1.00  0.00    -0.550 OA
ATOM      8  O   UNL     1      37.181  -6.566  13.576  1.00  0.00    -0.550 OA
ENDBRANCH   5   6
ENDBRANCH   1   5
TORSDOF 3
ENDMDL
MODEL 6
REMARK VINA RESULT:    -3.021      8.135      9.567
REMARK INTER + INTRA:          -3.599
REMARK INTER:                  -3.484
REMARK INTRA:                  -0.115
REMARK UNBOUND:                -0.048
REMARK SMILES O=C([O-])CCC(=O)[O-]
REMARK SMILES IDX 4 1 2 2 1 3 3 4 5 5 6 6 7 7 8 8
REMARK H PARENT
REMARK Flexibility Score: inf
ROOT
ATOM      1  C   UNL     1      34.641  -4.130  19.185  1.00  0.00     0.059 C 
ENDROOT
BRANCH   1   2
ATOM      2  C   UNL     1      34.732  -5.622  19.136  1.00  0.00     0.042 C 
ATOM      3  O   UNL     1      34.649  -6.297  20.196  1.00  0.00    -0.550 OA
ATOM      4  O   UNL     1      34.957  -6.266  17.925  1.00  0.00    -0.550 OA
ENDBRANCH   1   2
BRANCH   1   5
ATOM      5  C   UNL     1      35.099  -3.610  20.549  1.00  0.00     0.059 C 
BRANCH   5   6
ATOM      6  C   UNL     1      36.528  -3.173  20.489  1.00  0.00     0.042 C 
ATOM      7  O   UNL     1      37.454  -4.000  20.701  1.00  0.00    -0.550 OA
ATOM      8  O   UNL     1      36.840  -1.861  20.152  1.00  0.00    -0.550 OA
ENDBRANCH   5   6
ENDBRANCH   1   5
TORSDOF 3
ENDMDL
MODEL 7
REMARK VINA RESULT:    -3.010      1.411      2.004
REMARK INTER + INTRA:          -3.586
REMARK INTER:                  -3.551
REMARK INTRA:                  -0.035
REMARK UNBOUND:                -0.048
REMARK SMILES O=C([O-])CCC(=O)[O-]
REMARK SMILES IDX 4 1 2 2 1 3 3 4 5 5 6 6 7 7 8 8
REMARK H PARENT
REMARK Flexibility Score: inf
ROOT
ATOM      1  C   UNL     1      38.653  -6.659   9.483  1.00  0.00     0.059 C 
ENDROOT
BRANCH   1   2
ATOM      2  C   UNL     1      39.832  -6.884   8.590  1.00  0.00     0.042 C 
ATOM      3  O   UNL     1      39.748  -6.646   7.357  1.00  0.00    -0.550 OA
ATOM      4  O   UNL     1      41.010  -7.404   9.113  1.00  0.00    -0.550 OA
ENDBRANCH   1   2
BRANCH   1   5
ATOM      5  C   UNL     1      38.820  -7.429  10.794  1.00  0.00     0.059 C 
BRANCH   5   6
ATOM      6  C   UNL     1      37.555  -7.386  11.591  1.00  0.00     0.042 C 
ATOM      7  O   UNL     1      36.460  -7.710  11.059  1.00  0.00    -0.550 OA
ATOM      8  O   UNL     1      37.590  -7.035  12.934  1.00  0.00    -0.550 OA
ENDBRANCH   5   6
ENDBRANCH   1   5
TORSDOF 3
ENDMDL
MODEL 8
REMARK VINA RESULT:    -2.981      1.543      4.239
REMARK INTER + INTRA:          -3.552
REMARK INTER:                  -3.429
REMARK INTRA:                  -0.123
REMARK UNBOUND:                -0.048
REMARK SMILES O=C([O-])CCC(=O)[O-]
REMARK SMILES IDX 4 1 2 2 1 3 3 4 5 5 6 6 7 7 8 8
REMARK H PARENT
REMARK Flexibility Score: inf
ROOT
ATOM      1  C   UNL     1      37.946  -7.925   9.877  1.00  0.00     0.059 C 
ENDROOT
BRANCH   1   2
ATOM      2  C   UNL     1      37.514  -7.613  11.274  1.00  0.00     0.042 C 
ATOM      3  O   UNL     1      38.371  -7.365  12.163  1.00  0.00    -0.550 OA
ATOM      4  O   UNL     1      36.165  -7.642  11.608  1.00  0.00    -0.550 OA
ENDBRANCH   1   2
BRANCH   1   5
ATOM      5  C   UNL     1      38.365  -6.647   9.148  1.00  0.00     0.059 C 
BRANCH   5   6
ATOM      6  C   UNL     1      39.842  -6.639   8.913  1.00  0.00     0.042 C 
ATOM      7  O   UNL     1      40.630  -6.318   9.842  1.00  0.00    -0.550 OA
ATOM      8  O   UNL     1      40.352  -7.031   7.681  1.00  0.00    -0.550 OA
ENDBRANCH   5   6
ENDBRANCH   1   5
TORSDOF 3
ENDMDL
MODEL 9
REMARK VINA RESULT:    -2.931      8.600      9.735
REMARK INTER + INTRA:          -3.493
REMARK INTER:                  -3.422
REMARK INTRA:                  -0.071
REMARK UNBOUND:                -0.048
REMARK SMILES O=C([O-])CCC(=O)[O-]
REMARK SMILES IDX 4 1 2 2 1 3 3 4 5 5 6 6 7 7 8 8
REMARK H PARENT
REMARK Flexibility Score: inf
ROOT
ATOM      1  C   UNL     1      40.322  -3.308   3.327  1.00  0.00     0.059 C 
ENDROOT
BRANCH   1   2
ATOM      2  C   UNL     1      39.109  -2.938   2.535  1.00  0.00     0.042 C 
ATOM      3  O   UNL     1      38.743  -1.735   2.460  1.00  0.00    -0.550 OA
ATOM      4  O   UNL     1      38.354  -3.927   1.916  1.00  0.00    -0.550 OA
ENDBRANCH   1   2
BRANCH   1   5
ATOM      5  C   UNL     1      41.177  -4.317   2.558  1.00  0.00     0.059 C 
BRANCH   5   6
ATOM      6  C   UNL     1      41.000  -5.690   3.122  1.00  0.00     0.042 C 
ATOM      7  O   UNL     1      40.667  -5.842   4.328  1.00  0.00    -0.550 OA
ATOM      8  O   UNL     1      41.156  -6.803   2.306  1.00  0.00    -0.550 OA
ENDBRANCH   5   6
ENDBRANCH   1   5
TORSDOF 3
ENDMDL
