MODEL 1
REMARK VINA RESULT:    -4.590      0.000      0.000
REMARK INTER + INTRA:          -7.429
REMARK INTER:                  -6.736
REMARK INTRA:                  -0.693
REMARK UNBOUND:                -0.693
REMARK SMILES CCCOC(=O)c1ccccc1C(=O)OCCC
REMARK SMILES IDX 7 1 8 2 9 3 10 4 11 5 12 6 5 7 6 8 4 9 3 10 2 11 1 12 13 13
REMARK SMILES IDX 14 14 15 15 16 16 17 17 18 18
REMARK H PARENT
REMARK Flexibility Score: inf
ROOT
ATOM      1  C   UNL     1      28.019  27.282  28.932  1.00  0.00     0.074 A 
ATOM      2  C   UNL     1      29.023  26.314  29.099  1.00  0.00     0.016 A 
ATOM      3  C   UNL     1      28.718  25.057  29.622  1.00  0.00     0.001 A 
ATOM      4  C   UNL     1      27.408  24.753  29.987  1.00  0.00     0.001 A 
ATOM      5  C   UNL     1      26.403  25.711  29.853  1.00  0.00     0.016 A 
ATOM      6  C   UNL     1      26.690  26.994  29.345  1.00  0.00     0.074 A 
ENDROOT
BRANCH   1   7
ATOM      7  C   UNL     1      28.387  28.547  28.275  1.00  0.00     0.339 C 
ATOM      8  O   UNL     1      28.884  29.485  28.956  1.00  0.00    -0.246 OA
BRANCH   7   9
ATOM      9  O   UNL     1      28.145  28.709  26.906  1.00  0.00    -0.462 OA
BRANCH   9  10
ATOM     10  C   UNL     1      28.539  29.868  26.172  1.00  0.00     0.233 C 
BRANCH  10  11
ATOM     11  C   UNL     1      27.804  29.956  24.828  1.00  0.00     0.038 C 
ATOM     12  C   UNL     1      26.485  29.188  24.846  1.00  0.00     0.007 C 
ENDBRANCH  10  11
ENDBRANCH   9  10
ENDBRANCH   7   9
ENDBRANCH   1   7
BRANCH   6  13
ATOM     13  C   UNL     1      25.612  28.017  29.352  1.00  0.00     0.339 C 
ATOM     14  O   UNL     1      25.558  28.861  30.289  1.00  0.00    -0.246 OA
BRANCH  13  15
ATOM     15  O   UNL     1      24.704  28.098  28.286  1.00  0.00    -0.462 OA
BRANCH  15  16
ATOM     16  C   UNL     1      23.287  28.143  28.457  1.00  0.00     0.233 C 
BRANCH  16  17
ATOM     17  C   UNL     1      22.650  26.756  28.309  1.00  0.00     0.038 C 
ATOM     18  C   UNL     1      21.235  26.711  28.880  1.00  0.00     0.007 C 
ENDBRANCH  16  17
ENDBRANCH  15  16
ENDBRANCH  13  15
ENDBRANCH   6  13
TORSDOF 8
ENDMDL
MODEL 2
REMARK VINA RESULT:    -4.553      0.482      4.472
REMARK INTER + INTRA:          -7.376
REMARK INTER:                  -6.665
REMARK INTRA:                  -0.711
REMARK UNBOUND:                -0.693
REMARK SMILES CCCOC(=O)c1ccccc1C(=O)OCCC
REMARK SMILES IDX 7 1 8 2 9 3 10 4 11 5 12 6 5 7 6 8 4 9 3 10 2 11 1 12 13 13
REMARK SMILES IDX 14 14 15 15 16 16 17 17 18 18
REMARK H PARENT
REMARK Flexibility Score: inf
ROOT
ATOM      1  C   UNL     1      26.740  27.022  29.441  1.00  0.00     0.074 A 
ATOM      2  C   UNL     1      26.467  25.788  30.055  1.00  0.00     0.016 A 
ATOM      3  C   UNL     1      27.470  24.831  30.204  1.00  0.00     0.001 A 
ATOM      4  C   UNL     1      28.758  25.091  29.738  1.00  0.00     0.001 A 
ATOM      5  C   UNL     1      29.041  26.300  29.102  1.00  0.00     0.016 A 
ATOM      6  C   UNL     1      28.040  27.275  28.923  1.00  0.00     0.074 A 
ENDROOT
BRANCH   1   7
ATOM      7  C   UNL     1      25.667  28.028  29.413  1.00  0.00     0.339 C 
ATOM      8  O   UNL     1      25.611  28.910  30.314  1.00  0.00    -0.246 OA
BRANCH   7   9
ATOM      9  O   UNL     1      24.695  27.973  28.408  1.00  0.00    -0.462 OA
BRANCH   9  10
ATOM     10  C   UNL     1      23.328  28.320  28.619  1.00  0.00     0.233 C 
BRANCH  10  11
ATOM     11  C   UNL     1      22.384  27.317  27.944  1.00  0.00     0.038 C 
ATOM     12  C   UNL     1      21.280  26.846  28.888  1.00  0.00     0.007 C 
ENDBRANCH  10  11
ENDBRANCH   9  10
ENDBRANCH   7   9
ENDBRANCH   1   7
BRANCH   6  13
ATOM     13  C   UNL     1      28.362  28.483  28.120  1.00  0.00     0.339 C 
ATOM     14  O   UNL     1      28.714  29.545  28.702  1.00  0.00    -0.246 OA
BRANCH  13  15
ATOM     15  O   UNL     1      28.351  28.425  26.719  1.00  0.00    -0.462 OA
BRANCH  15  16
ATOM     16  C   UNL     1      27.189  28.112  25.950  1.00  0.00     0.233 C 
BRANCH  16  17
ATOM     17  C   UNL     1      26.834  29.236  24.969  1.00  0.00     0.038 C 
ATOM     18  C   UNL     1      27.993  30.209  24.768  1.00  0.00     0.007 C 
ENDBRANCH  16  17
ENDBRANCH  15  16
ENDBRANCH  13  15
ENDBRANCH   6  13
TORSDOF 8
ENDMDL
MODEL 3
REMARK VINA RESULT:    -4.309      2.165      4.920
REMARK INTER + INTRA:          -7.018
REMARK INTER:                  -5.725
REMARK INTRA:                  -1.293
REMARK UNBOUND:                -0.693
REMARK SMILES CCCOC(=O)c1ccccc1C(=O)OCCC
REMARK SMILES IDX 7 1 8 2 9 3 10 4 11 5 12 6 5 7 6 8 4 9 3 10 2 11 1 12 13 13
REMARK SMILES IDX 14 14 15 15 16 16 17 17 18 18
REMARK H PARENT
REMARK Flexibility Score: inf
ROOT
ATOM      1  C   UNL     1      26.465  27.035  27.591  1.00  0.00     0.074 A 
ATOM      2  C   UNL     1      27.478  27.753  26.934  1.00  0.00     0.016 A 
ATOM      3  C   UNL     1      28.320  27.119  26.020  1.00  0.00     0.001 A 
ATOM      4  C   UNL     1      28.164  25.760  25.754  1.00  0.00     0.001 A 
ATOM      5  C   UNL     1      27.180  25.025  26.416  1.00  0.00     0.016 A 
ATOM      6  C   UNL     1      26.330  25.639  27.357  1.00  0.00     0.074 A 
ENDROOT
BRANCH   1   7
ATOM      7  C   UNL     1      25.544  27.785  28.459  1.00  0.00     0.339 C 
ATOM      8  O   UNL     1      25.852  27.999  29.664  1.00  0.00    -0.246 OA
BRANCH   7   9
ATOM      9  O   UNL     1      24.315  28.220  27.949  1.00  0.00    -0.462 OA
BRANCH   9  10
ATOM     10  C   UNL     1      23.079  28.064  28.642  1.00  0.00     0.233 C 
BRANCH  10  11
ATOM     11  C   UNL     1      22.075  27.245  27.819  1.00  0.00     0.038 C 
ATOM     12  C   UNL     1      21.084  26.497  28.707  1.00  0.00     0.007 C 
ENDBRANCH  10  11
ENDBRANCH   9  10
ENDBRANCH   7   9
ENDBRANCH   1   7
BRANCH   6  13
ATOM     13  C   UNL     1      25.394  24.783  28.132  1.00  0.00     0.339 C 
ATOM     14  O   UNL     1      24.352  24.336  27.578  1.00  0.00    -0.246 OA
BRANCH  13  15
ATOM     15  O   UNL     1      25.702  24.406  29.447  1.00  0.00    -0.462 OA
BRANCH  15  16
ATOM     16  C   UNL     1      26.975  23.895  29.845  1.00  0.00     0.233 C 
BRANCH  16  17
ATOM     17  C   UNL     1      27.860  24.984  30.463  1.00  0.00     0.038 C 
ATOM     18  C   UNL     1      29.111  25.248  29.629  1.00  0.00     0.007 C 
ENDBRANCH  16  17
ENDBRANCH  15  16
ENDBRANCH  13  15
ENDBRANCH   6  13
TORSDOF 8
ENDMDL
MODEL 4
REMARK VINA RESULT:    -4.248      9.981     13.721
REMARK INTER + INTRA:          -6.928
REMARK INTER:                  -6.141
REMARK INTRA:                  -0.787
REMARK UNBOUND:                -0.693
REMARK SMILES CCCOC(=O)c1ccccc1C(=O)OCCC
REMARK SMILES IDX 7 1 8 2 9 3 10 4 11 5 12 6 5 7 6 8 4 9 3 10 2 11 1 12 13 13
REMARK SMILES IDX 14 14 15 15 16 16 17 17 18 18
REMARK H PARENT
REMARK Flexibility Score: inf
ROOT
ATOM      1  C   UNL     1      27.783  37.417  20.307  1.00  0.00     0.074 A 
ATOM      2  C   UNL     1      28.822  36.963  19.477  1.00  0.00     0.016 A 
ATOM      3  C   UNL     1      29.001  37.502  18.204  1.00  0.00     0.001 A 
ATOM      4  C   UNL     1      28.143  38.497  17.740  1.00  0.00     0.001 A 
ATOM      5  C   UNL     1      27.089  38.941  18.539  1.00  0.00     0.016 A 
ATOM      6  C   UNL     1      26.877  38.399  19.822  1.00  0.00     0.074 A 
ENDROOT
BRANCH   1   7
ATOM      7  C   UNL     1      27.716  36.885  21.677  1.00  0.00     0.339 C 
ATOM      8  O   UNL     1      27.919  37.652  22.658  1.00  0.00    -0.246 OA
BRANCH   7   9
ATOM      9  O   UNL     1      27.466  35.523  21.877  1.00  0.00    -0.462 OA
BRANCH   9  10
ATOM     10  C   UNL     1      27.788  34.835  23.085  1.00  0.00     0.233 C 
BRANCH  10  11
ATOM     11  C   UNL     1      28.609  33.569  22.807  1.00  0.00     0.038 C 
ATOM     12  C   UNL     1      28.834  33.351  21.314  1.00  0.00     0.007 C 
ENDBRANCH  10  11
ENDBRANCH   9  10
ENDBRANCH   7   9
ENDBRANCH   1   7
BRANCH   6  13
ATOM     13  C   UNL     1      25.662  38.809  20.573  1.00  0.00     0.339 C 
ATOM     14  O   UNL     1      24.738  37.973  20.771  1.00  0.00    -0.246 OA
BRANCH  13  15
ATOM     15  O   UNL     1      25.572  40.094  21.128  1.00  0.00    -0.462 OA
BRANCH  15  16
ATOM     16  C   UNL     1      26.705  40.923  21.389  1.00  0.00     0.233 C 
BRANCH  16  17
ATOM     17  C   UNL     1      26.515  42.339  20.833  1.00  0.00     0.038 C 
ATOM     18  C   UNL     1      27.149  42.503  19.454  1.00  0.00     0.007 C 
ENDBRANCH  16  17
ENDBRANCH  15  16
ENDBRANCH  13  15
ENDBRANCH   6  13
TORSDOF 8
ENDMDL
MODEL 5
REMARK VINA RESULT:    -4.144      1.842      4.641
REMARK INTER + INTRA:          -6.775
REMARK INTER:                  -5.680
REMARK INTRA:                  -1.096
REMARK UNBOUND:                -0.693
REMARK SMILES CCCOC(=O)c1ccccc1C(=O)OCCC
REMARK SMILES IDX 7 1 8 2 9 3 10 4 11 5 12 6 5 7 6 8 4 9 3 10 2 11 1 12 13 13
REMARK SMILES IDX 14 14 15 15 16 16 17 17 18 18
REMARK H PARENT
REMARK Flexibility Score: inf
ROOT
ATOM      1  C   UNL     1      26.664  26.148  28.108  1.00  0.00     0.074 A 
ATOM      2  C   UNL     1      26.095  24.951  27.643  1.00  0.00     0.016 A 
ATOM      3  C   UNL     1      26.609  24.310  26.516  1.00  0.00     0.001 A 
ATOM      4  C   UNL     1      27.695  24.859  25.836  1.00  0.00     0.001 A 
ATOM      5  C   UNL     1      28.256  26.061  26.267  1.00  0.00     0.016 A 
ATOM      6  C   UNL     1      27.743  26.736  27.392  1.00  0.00     0.074 A 
ENDROOT
BRANCH   1   7
ATOM      7  C   UNL     1      26.144  26.714  29.363  1.00  0.00     0.339 C 
ATOM      8  O   UNL     1      26.504  26.224  30.468  1.00  0.00    -0.246 OA
BRANCH   7   9
ATOM      9  O   UNL     1      25.224  27.767  29.316  1.00  0.00    -0.462 OA
BRANCH   9  10
ATOM     10  C   UNL     1      24.470  28.098  28.151  1.00  0.00     0.233 C 
BRANCH  10  11
ATOM     11  C   UNL     1      22.965  27.910  28.385  1.00  0.00     0.038 C 
ATOM     12  C   UNL     1      22.502  26.501  28.025  1.00  0.00     0.007 C 
ENDBRANCH  10  11
ENDBRANCH   9  10
ENDBRANCH   7   9
ENDBRANCH   1   7
BRANCH   6  13
ATOM     13  C   UNL     1      28.288  28.078  27.724  1.00  0.00     0.339 C 
ATOM     14  O   UNL     1      29.125  28.198  28.661  1.00  0.00    -0.246 OA
BRANCH  13  15
ATOM     15  O   UNL     1      27.938  29.196  26.953  1.00  0.00    -0.462 OA
BRANCH  15  16
ATOM     16  C   UNL     1      28.697  29.652  25.833  1.00  0.00     0.233 C 
BRANCH  16  17
ATOM     17  C   UNL     1      27.844  29.735  24.561  1.00  0.00     0.038 C 
ATOM     18  C   UNL     1      26.457  29.129  24.761  1.00  0.00     0.007 C 
ENDBRANCH  16  17
ENDBRANCH  15  16
ENDBRANCH  13  15
ENDBRANCH   6  13
TORSDOF 8
ENDMDL
MODEL 6
REMARK VINA RESULT:    -4.065      1.754      4.383
REMARK INTER + INTRA:          -6.659
REMARK INTER:                  -5.735
REMARK INTRA:                  -0.924
REMARK UNBOUND:                -0.693
REMARK SMILES CCCOC(=O)c1ccccc1C(=O)OCCC
REMARK SMILES IDX 7 1 8 2 9 3 10 4 11 5 12 6 5 7 6 8 4 9 3 10 2 11 1 12 13 13
REMARK SMILES IDX 14 14 15 15 16 16 17 17 18 18
REMARK H PARENT
REMARK Flexibility Score: inf
ROOT
ATOM      1  C   UNL     1      24.943  27.384  28.252  1.00  0.00     0.074 A 
ATOM      2  C   UNL     1      23.917  28.337  28.144  1.00  0.00     0.016 A 
ATOM      3  C   UNL     1      22.581  27.941  28.100  1.00  0.00     0.001 A 
ATOM      4  C   UNL     1      22.252  26.588  28.160  1.00  0.00     0.001 A 
ATOM      5  C   UNL     1      23.259  25.625  28.241  1.00  0.00     0.016 A 
ATOM      6  C   UNL     1      24.617  26.000  28.268  1.00  0.00     0.074 A 
ENDROOT
BRANCH   1   7
ATOM      7  C   UNL     1      26.323  27.874  28.402  1.00  0.00     0.339 C 
ATOM      8  O   UNL     1      26.711  28.324  29.515  1.00  0.00    -0.246 OA
BRANCH   7   9
ATOM      9  O   UNL     1      27.180  27.871  27.296  1.00  0.00    -0.462 OA
BRANCH   9  10
ATOM     10  C   UNL     1      27.992  28.985  26.931  1.00  0.00     0.233 C 
BRANCH  10  11
ATOM     11  C   UNL     1      27.963  29.227  25.416  1.00  0.00     0.038 C 
ATOM     12  C   UNL     1      26.539  29.226  24.865  1.00  0.00     0.007 C 
ENDBRANCH  10  11
ENDBRANCH   9  10
ENDBRANCH   7   9
ENDBRANCH   1   7
BRANCH   6  13
ATOM     13  C   UNL     1      25.648  24.932  28.215  1.00  0.00     0.339 C 
ATOM     14  O   UNL     1      26.161  24.612  27.107  1.00  0.00    -0.246 OA
BRANCH  13  15
ATOM     15  O   UNL     1      26.110  24.334  29.397  1.00  0.00    -0.462 OA
BRANCH  15  16
ATOM     16  C   UNL     1      27.046  24.950  30.281  1.00  0.00     0.233 C 
BRANCH  16  17
ATOM     17  C   UNL     1      28.494  24.619  29.900  1.00  0.00     0.038 C 
ATOM     18  C   UNL     1      29.122  25.706  29.031  1.00  0.00     0.007 C 
ENDBRANCH  16  17
ENDBRANCH  15  16
ENDBRANCH  13  15
ENDBRANCH   6  13
TORSDOF 8
ENDMDL
MODEL 7
REMARK VINA RESULT:    -4.053     10.266     13.629
REMARK INTER + INTRA:          -6.642
REMARK INTER:                  -5.797
REMARK INTRA:                  -0.845
REMARK UNBOUND:                -0.693
REMARK SMILES CCCOC(=O)c1ccccc1C(=O)OCCC
REMARK SMILES IDX 7 1 8 2 9 3 10 4 11 5 12 6 5 7 6 8 4 9 3 10 2 11 1 12 13 13
REMARK SMILES IDX 14 14 15 15 16 16 17 17 18 18
REMARK H PARENT
REMARK Flexibility Score: inf
ROOT
ATOM      1  C   UNL     1      26.808  38.759  20.817  1.00  0.00     0.074 A 
ATOM      2  C   UNL     1      25.494  39.251  20.883  1.00  0.00     0.016 A 
ATOM      3  C   UNL     1      24.411  38.375  20.956  1.00  0.00     0.001 A 
ATOM      4  C   UNL     1      24.625  36.998  20.961  1.00  0.00     0.001 A 
ATOM      5  C   UNL     1      25.922  36.492  20.869  1.00  0.00     0.016 A 
ATOM      6  C   UNL     1      27.031  37.356  20.776  1.00  0.00     0.074 A 
ENDROOT
BRANCH   1   7
ATOM      7  C   UNL     1      27.909  39.735  20.851  1.00  0.00     0.339 C 
ATOM      8  O   UNL     1      28.422  40.063  21.956  1.00  0.00    -0.246 OA
BRANCH   7   9
ATOM      9  O   UNL     1      28.350  40.320  19.659  1.00  0.00    -0.462 OA
BRANCH   9  10
ATOM     10  C   UNL     1      27.614  41.320  18.957  1.00  0.00     0.233 C 
BRANCH  10  11
ATOM     11  C   UNL     1      27.801  42.704  19.592  1.00  0.00     0.038 C 
ATOM     12  C   UNL     1      26.856  43.742  18.992  1.00  0.00     0.007 C 
ENDBRANCH  10  11
ENDBRANCH   9  10
ENDBRANCH   7   9
ENDBRANCH   1   7
BRANCH   6  13
ATOM     13  C   UNL     1      28.374  36.764  20.542  1.00  0.00     0.339 C 
ATOM     14  O   UNL     1      28.869  36.775  19.382  1.00  0.00    -0.246 OA
BRANCH  13  15
ATOM     15  O   UNL     1      29.125  36.264  21.617  1.00  0.00    -0.462 OA
BRANCH  15  16
ATOM     16  C   UNL     1      29.088  34.901  22.040  1.00  0.00     0.233 C 
BRANCH  16  17
ATOM     17  C   UNL     1      28.814  34.778  23.544  1.00  0.00     0.038 C 
ATOM     18  C   UNL     1      27.327  34.896  23.867  1.00  0.00     0.007 C 
ENDBRANCH  16  17
ENDBRANCH  15  16
ENDBRANCH  13  15
ENDBRANCH   6  13
TORSDOF 8
ENDMDL
MODEL 8
REMARK VINA RESULT:    -4.027      9.918     13.563
REMARK INTER + INTRA:          -6.604
REMARK INTER:                  -5.491
REMARK INTRA:                  -1.113
REMARK UNBOUND:                -0.693
REMARK SMILES CCCOC(=O)c1ccccc1C(=O)OCCC
REMARK SMILES IDX 7 1 8 2 9 3 10 4 11 5 12 6 5 7 6 8 4 9 3 10 2 11 1 12 13 13
REMARK SMILES IDX 14 14 15 15 16 16 17 17 18 18
REMARK H PARENT
REMARK Flexibility Score: inf
ROOT
ATOM      1  C   UNL     1      27.096  37.356  20.942  1.00  0.00     0.074 A 
ATOM      2  C   UNL     1      25.965  36.527  21.031  1.00  0.00     0.016 A 
ATOM      3  C   UNL     1      24.684  37.076  21.071  1.00  0.00     0.001 A 
ATOM      4  C   UNL     1      24.515  38.459  21.027  1.00  0.00     0.001 A 
ATOM      5  C   UNL     1      25.628  39.298  20.965  1.00  0.00     0.016 A 
ATOM      6  C   UNL     1      26.933  38.768  20.942  1.00  0.00     0.074 A 
ENDROOT
BRANCH   1   7
ATOM      7  C   UNL     1      28.411  36.710  20.794  1.00  0.00     0.339 C 
ATOM      8  O   UNL     1      28.964  36.665  19.661  1.00  0.00    -0.246 OA
BRANCH   7   9
ATOM      9  O   UNL     1      29.017  36.117  21.907  1.00  0.00    -0.462 OA
BRANCH   9  10
ATOM     10  C   UNL     1      29.125  34.705  22.082  1.00  0.00     0.233 C 
BRANCH  10  11
ATOM     11  C   UNL     1      28.090  34.185  23.089  1.00  0.00     0.038 C 
ATOM     12  C   UNL     1      27.693  35.253  24.105  1.00  0.00     0.007 C 
ENDBRANCH  10  11
ENDBRANCH   9  10
ENDBRANCH   7   9
ENDBRANCH   1   7
BRANCH   6  13
ATOM     13  C   UNL     1      28.082  39.708  21.016  1.00  0.00     0.339 C 
ATOM     14  O   UNL     1      28.654  40.079  19.954  1.00  0.00    -0.246 OA
BRANCH  13  15
ATOM     15  O   UNL     1      28.482  40.243  22.249  1.00  0.00    -0.462 OA
BRANCH  15  16
ATOM     16  C   UNL     1      28.440  41.637  22.556  1.00  0.00     0.233 C 
BRANCH  16  17
ATOM     17  C   UNL     1      27.003  42.171  22.589  1.00  0.00     0.038 C 
ATOM     18  C   UNL     1      26.725  43.143  21.446  1.00  0.00     0.007 C 
ENDBRANCH  16  17
ENDBRANCH  15  16
ENDBRANCH  13  15
ENDBRANCH   6  13
TORSDOF 8
ENDMDL
MODEL 9
REMARK VINA RESULT:    -3.926      2.060      2.142
REMARK INTER + INTRA:          -6.455
REMARK INTER:                  -5.564
REMARK INTRA:                  -0.891
REMARK UNBOUND:                -0.693
REMARK SMILES CCCOC(=O)c1ccccc1C(=O)OCCC
REMARK SMILES IDX 7 1 8 2 9 3 10 4 11 5 12 6 5 7 6 8 4 9 3 10 2 11 1 12 13 13
REMARK SMILES IDX 14 14 15 15 16 16 17 17 18 18
REMARK H PARENT
REMARK Flexibility Score: inf
ROOT
ATOM      1  C   UNL     1      27.970  26.361  27.324  1.00  0.00     0.074 A 
ATOM      2  C   UNL     1      28.827  25.812  26.356  1.00  0.00     0.016 A 
ATOM      3  C   UNL     1      28.479  24.642  25.681  1.00  0.00     0.001 A 
ATOM      4  C   UNL     1      27.274  24.003  25.966  1.00  0.00     0.001 A 
ATOM      5  C   UNL     1      26.422  24.520  26.943  1.00  0.00     0.016 A 
ATOM      6  C   UNL     1      26.760  25.690  27.652  1.00  0.00     0.074 A 
ENDROOT
BRANCH   1   7
ATOM      7  C   UNL     1      28.345  27.653  27.920  1.00  0.00     0.339 C 
ATOM      8  O   UNL     1      29.095  27.682  28.934  1.00  0.00    -0.246 OA
BRANCH   7   9
ATOM      9  O   UNL     1      27.834  28.837  27.378  1.00  0.00    -0.462 OA
BRANCH   9  10
ATOM     10  C   UNL     1      28.525  29.616  26.403  1.00  0.00     0.233 C 
BRANCH  10  11
ATOM     11  C   UNL     1      28.080  29.256  24.979  1.00  0.00     0.038 C 
ATOM     12  C   UNL     1      26.561  29.178  24.858  1.00  0.00     0.007 C 
ENDBRANCH  10  11
ENDBRANCH   9  10
ENDBRANCH   7   9
ENDBRANCH   1   7
BRANCH   6  13
ATOM     13  C   UNL     1      25.884  26.117  28.774  1.00  0.00     0.339 C 
ATOM     14  O   UNL     1      26.219  25.855  29.962  1.00  0.00    -0.246 OA
BRANCH  13  15
ATOM     15  O   UNL     1      24.731  26.875  28.524  1.00  0.00    -0.462 OA
BRANCH  15  16
ATOM     16  C   UNL     1      23.446  26.302  28.283  1.00  0.00     0.233 C 
BRANCH  16  17
ATOM     17  C   UNL     1      22.330  27.351  28.354  1.00  0.00     0.038 C 
ATOM     18  C   UNL     1      20.989  26.737  28.744  1.00  0.00     0.007 C 
ENDBRANCH  16  17
ENDBRANCH  15  16
ENDBRANCH  13  15
ENDBRANCH   6  13
TORSDOF 8
ENDMDL
