MODEL 1
REMARK VINA RESULT:    -3.190      0.000      0.000
REMARK INTER + INTRA:          -4.079
REMARK INTER:                  -3.843
REMARK INTRA:                  -0.237
REMARK UNBOUND:                -0.237
REMARK SMILES O=c1c(O)c(-c2ccc(O)c(O)c2)oc2cc(O)cc(O)c12
REMARK SMILES IDX 5 1 3 2 2 3 1 4 22 5 20 6 19 7 17 8 16 9 15 10 14 11 6 12
REMARK SMILES IDX 7 13 8 14 9 15 13 16 11 17 10 18 12 20 4 22 21 24 18 26
REMARK H PARENT 10 19 12 21 4 23 21 25 18 27
REMARK Flexibility Score: inf
ROOT
ATOM      1  C   UNL     1       6.933   3.943  13.398  1.00  0.00     0.180 A 
ATOM      2  C   UNL     1       7.301   4.812  12.354  1.00  0.00     0.208 A 
ATOM      3  C   UNL     1       7.339   6.194  12.602  1.00  0.00     0.238 A 
ATOM      4  O   UNL     1       7.677   6.982  11.679  1.00  0.00    -0.285 OA
ATOM      5  C   UNL     1       6.990   6.681  13.879  1.00  0.00     0.111 A 
ATOM      6  C   UNL     1       6.999   8.057  14.211  1.00  0.00     0.134 A 
ATOM      7  C   UNL     1       6.631   8.464  15.503  1.00  0.00     0.093 A 
ATOM      8  C   UNL     1       6.254   7.525  16.465  1.00  0.00     0.123 A 
ATOM      9  C   UNL     1       6.245   6.163  16.143  1.00  0.00     0.094 A 
ATOM     10  C   UNL     1       6.610   5.737  14.862  1.00  0.00     0.146 A 
ATOM     11  O   UNL     1       6.597   4.439  14.585  1.00  0.00    -0.452 OA
ENDROOT
BRANCH   1  12
ATOM     12  C   UNL     1       6.888   2.473  13.219  1.00  0.00     0.025 A 
ATOM     13  C   UNL     1       5.884   1.860  12.449  1.00  0.00     0.016 A 
ATOM     14  C   UNL     1       5.875   0.474  12.274  1.00  0.00     0.051 A 
ATOM     15  C   UNL     1       6.872  -0.318  12.852  1.00  0.00     0.157 A 
ATOM     16  C   UNL     1       7.900   1.676  13.780  1.00  0.00     0.062 A 
ATOM     17  C   UNL     1       7.892   0.285  13.607  1.00  0.00     0.158 A 
BRANCH  15  18
ATOM     18  O   UNL     1       6.836  -1.700  12.661  1.00  0.00    -0.504 OA
ATOM     19  H   UNL     1       7.464  -2.170  12.021  1.00  0.00     0.293 HD
ENDBRANCH  15  18
BRANCH  17  20
ATOM     20  O   UNL     1       8.893  -0.497  14.179  1.00  0.00    -0.504 OA
ATOM     21  H   UNL     1       9.731  -0.085  14.570  1.00  0.00     0.293 HD
ENDBRANCH  17  20
ENDBRANCH   1  12
BRANCH   2  22
ATOM     22  O   UNL     1       7.593   4.308  11.083  1.00  0.00    -0.502 OA
ATOM     23  H   UNL     1       7.800   3.330  10.922  1.00  0.00     0.293 HD
ENDBRANCH   2  22
BRANCH   6  24
ATOM     24  O   UNL     1       7.369   9.020  13.272  1.00  0.00    -0.507 OA
ATOM     25  H   UNL     1       6.991   9.960  13.296  1.00  0.00     0.293 HD
ENDBRANCH   6  24
BRANCH   8  26
ATOM     26  O   UNL     1       5.892   7.955  17.739  1.00  0.00    -0.508 OA
ATOM     27  H   UNL     1       5.415   8.838  17.886  1.00  0.00     0.293 HD
ENDBRANCH   8  26
TORSDOF 6
ENDMDL
MODEL 2
REMARK VINA RESULT:    -2.657      2.523      8.111
REMARK INTER + INTRA:          -3.438
REMARK INTER:                  -3.256
REMARK INTRA:                  -0.182
REMARK UNBOUND:                -0.237
REMARK SMILES O=c1c(O)c(-c2ccc(O)c(O)c2)oc2cc(O)cc(O)c12
REMARK SMILES IDX 5 1 3 2 2 3 1 4 22 5 20 6 19 7 17 8 16 9 15 10 14 11 6 12
REMARK SMILES IDX 7 13 8 14 9 15 13 16 11 17 10 18 12 20 4 22 21 24 18 26
REMARK H PARENT 10 19 12 21 4 23 21 25 18 27
REMARK Flexibility Score: inf
ROOT
ATOM      1  C   UNL     1       6.651   1.078  12.831  1.00  0.00     0.180 A 
ATOM      2  C   UNL     1       6.274   0.364  13.983  1.00  0.00     0.208 A 
ATOM      3  C   UNL     1       6.201  -1.037  13.920  1.00  0.00     0.238 A 
ATOM      4  O   UNL     1       5.875  -1.689  14.949  1.00  0.00    -0.285 OA
ATOM      5  C   UNL     1       6.485  -1.695  12.706  1.00  0.00     0.111 A 
ATOM      6  C   UNL     1       6.432  -3.102  12.557  1.00  0.00     0.134 A 
ATOM      7  C   UNL     1       6.721  -3.681  11.312  1.00  0.00     0.093 A 
ATOM      8  C   UNL     1       7.059  -2.884  10.217  1.00  0.00     0.123 A 
ATOM      9  C   UNL     1       7.115  -1.493  10.358  1.00  0.00     0.094 A 
ATOM     10  C   UNL     1       6.833  -0.897  11.590  1.00  0.00     0.146 A 
ATOM     11  O   UNL     1       6.898   0.425  11.698  1.00  0.00    -0.452 OA
ENDROOT
BRANCH   1  12
ATOM     12  C   UNL     1       6.768   2.555  12.823  1.00  0.00     0.025 A 
ATOM     13  C   UNL     1       5.875   3.356  12.090  1.00  0.00     0.016 A 
ATOM     14  C   UNL     1       5.990   4.748  12.118  1.00  0.00     0.051 A 
ATOM     15  C   UNL     1       6.988   5.361  12.883  1.00  0.00     0.157 A 
ATOM     16  C   UNL     1       7.755   3.174  13.607  1.00  0.00     0.062 A 
ATOM     17  C   UNL     1       7.874   4.571  13.635  1.00  0.00     0.158 A 
BRANCH  15  18
ATOM     18  O   UNL     1       7.079   6.753  12.889  1.00  0.00    -0.504 OA
ATOM     19  H   UNL     1       7.884   7.240  12.514  1.00  0.00     0.293 HD
ENDBRANCH  15  18
BRANCH  17  20
ATOM     20  O   UNL     1       8.865   5.175  14.406  1.00  0.00    -0.504 OA
ATOM     21  H   UNL     1       8.907   6.180  14.526  1.00  0.00     0.293 HD
ENDBRANCH  17  20
ENDBRANCH   1  12
BRANCH   2  22
ATOM     22  O   UNL     1       5.949   1.043  15.161  1.00  0.00    -0.502 OA
ATOM     23  H   UNL     1       6.072   2.043  15.262  1.00  0.00     0.293 HD
ENDBRANCH   2  22
BRANCH   6  24
ATOM     24  O   UNL     1       6.095  -3.926  13.631  1.00  0.00    -0.507 OA
ATOM     25  H   UNL     1       6.802  -4.394  14.186  1.00  0.00     0.293 HD
ENDBRANCH   6  24
BRANCH   8  26
ATOM     26  O   UNL     1       7.340  -3.484   8.991  1.00  0.00    -0.508 OA
ATOM     27  H   UNL     1       6.603  -3.843   8.395  1.00  0.00     0.293 HD
ENDBRANCH   8  26
TORSDOF 6
ENDMDL
MODEL 3
REMARK VINA RESULT:    -2.225      2.928      8.827
REMARK INTER + INTRA:          -2.918
REMARK INTER:                  -3.292
REMARK INTRA:                   0.374
REMARK UNBOUND:                -0.237
REMARK SMILES O=c1c(O)c(-c2ccc(O)c(O)c2)oc2cc(O)cc(O)c12
REMARK SMILES IDX 5 1 3 2 2 3 1 4 22 5 20 6 19 7 17 8 16 9 15 10 14 11 6 12
REMARK SMILES IDX 7 13 8 14 9 15 13 16 11 17 10 18 12 20 4 22 21 24 18 26
REMARK H PARENT 10 19 12 21 4 23 21 25 18 27
REMARK Flexibility Score: inf
ROOT
ATOM      1  C   UNL     1       6.349  -0.153  12.232  1.00  0.00     0.180 A 
ATOM      2  C   UNL     1       6.241  -1.274  13.077  1.00  0.00     0.208 A 
ATOM      3  C   UNL     1       6.120  -2.549  12.501  1.00  0.00     0.238 A 
ATOM      4  O   UNL     1       6.033  -3.561  13.247  1.00  0.00    -0.285 OA
ATOM      5  C   UNL     1       6.089  -2.678  11.097  1.00  0.00     0.111 A 
ATOM      6  C   UNL     1       5.966  -3.925  10.438  1.00  0.00     0.134 A 
ATOM      7  C   UNL     1       5.934  -3.971   9.036  1.00  0.00     0.093 A 
ATOM      8  C   UNL     1       6.021  -2.798   8.283  1.00  0.00     0.123 A 
ATOM      9  C   UNL     1       6.144  -1.563   8.929  1.00  0.00     0.094 A 
ATOM     10  C   UNL     1       6.180  -1.496  10.325  1.00  0.00     0.146 A 
ATOM     11  O   UNL     1       6.302  -0.312  10.913  1.00  0.00    -0.452 OA
ENDROOT
BRANCH   1  12
ATOM     12  C   UNL     1       6.499   1.222  12.764  1.00  0.00     0.025 A 
ATOM     13  C   UNL     1       6.127   1.541  14.082  1.00  0.00     0.016 A 
ATOM     14  C   UNL     1       6.300   2.839  14.569  1.00  0.00     0.051 A 
ATOM     15  C   UNL     1       6.856   3.832  13.756  1.00  0.00     0.157 A 
ATOM     16  C   UNL     1       7.076   2.216  11.957  1.00  0.00     0.062 A 
ATOM     17  C   UNL     1       7.249   3.520  12.444  1.00  0.00     0.158 A 
BRANCH  15  18
ATOM     18  O   UNL     1       7.014   5.119  14.270  1.00  0.00    -0.504 OA
ATOM     19  H   UNL     1       7.556   5.826  13.790  1.00  0.00     0.293 HD
ENDBRANCH  15  18
BRANCH  17  20
ATOM     20  O   UNL     1       7.811   4.502  11.631  1.00  0.00    -0.504 OA
ATOM     21  H   UNL     1       8.638   5.015  11.911  1.00  0.00     0.293 HD
ENDBRANCH  17  20
ENDBRANCH   1  12
BRANCH   2  22
ATOM     22  O   UNL     1       6.224  -1.114  14.465  1.00  0.00    -0.502 OA
ATOM     23  H   UNL     1       6.681  -0.337  14.927  1.00  0.00     0.293 HD
ENDBRANCH   2  22
BRANCH   6  24
ATOM     24  O   UNL     1       5.875  -5.114  11.161  1.00  0.00    -0.507 OA
ATOM     25  H   UNL     1       6.656  -5.473  11.698  1.00  0.00     0.293 HD
ENDBRANCH   6  24
BRANCH   8  26
ATOM     26  O   UNL     1       5.986  -2.870   6.892  1.00  0.00    -0.508 OA
ATOM     27  H   UNL     1       6.151  -3.743   6.402  1.00  0.00     0.293 HD
ENDBRANCH   8  26
TORSDOF 6
ENDMDL
