MODEL 1
REMARK VINA RESULT:    -5.043      0.000      0.000
REMARK INTER + INTRA:         -12.206
REMARK INTER:                  -9.760
REMARK INTRA:                  -2.446
REMARK UNBOUND:                -2.446
REMARK SMILES CCCCCCCCCCCCCCCCCC(=O)[O-]
REMARK SMILES IDX 10 1 11 2 12 3 13 4 14 5 15 6 16 7 17 8 18 9 19 10 20 11
REMARK SMILES IDX 9 12 8 13 7 14 6 15 5 16 4 17 3 18 2 19 1 20
REMARK H PARENT
REMARK Flexibility Score: inf
ROOT
ATOM      1  C   UNL     1      17.641  55.074  12.850  1.00  0.00     0.000 C 
ENDROOT
BRANCH   1   2
ATOM      2  C   UNL     1      18.630  55.161  14.025  1.00  0.00     0.000 C 
BRANCH   2   3
ATOM      3  C   UNL     1      19.631  53.994  14.046  1.00  0.00     0.000 C 
BRANCH   3   4
ATOM      4  C   UNL     1      19.316  52.961  15.139  1.00  0.00     0.000 C 
BRANCH   4   5
ATOM      5  C   UNL     1      20.417  52.943  16.209  1.00  0.00     0.000 C 
BRANCH   5   6
ATOM      6  C   UNL     1      21.597  53.864  15.861  1.00  0.00     0.000 C 
BRANCH   6   7
ATOM      7  C   UNL     1      21.756  55.026  16.857  1.00  0.00     0.006 C 
BRANCH   7   8
ATOM      8  C   UNL     1      22.325  56.285  16.191  1.00  0.00     0.053 C 
BRANCH   8   9
ATOM      9  C   UNL     1      23.822  56.307  16.236  1.00  0.00     0.041 C 
ATOM     10  O   UNL     1      24.446  55.532  17.007  1.00  0.00    -0.550 OA
ATOM     11  O   UNL     1      24.528  57.210  15.451  1.00  0.00    -0.550 OA
ENDBRANCH   8   9
ENDBRANCH   7   8
ENDBRANCH   6   7
ENDBRANCH   5   6
ENDBRANCH   4   5
ENDBRANCH   3   4
ENDBRANCH   2   3
ENDBRANCH   1   2
BRANCH   1  12
ATOM     12  C   UNL     1      16.182  54.884  13.321  1.00  0.00     0.000 C 
BRANCH  12  13
ATOM     13  C   UNL     1      16.039  54.761  14.850  1.00  0.00    -0.000 C 
BRANCH  13  14
ATOM     14  C   UNL     1      14.700  55.270  15.416  1.00  0.00    -0.000 C 
BRANCH  14  15
ATOM     15  C   UNL     1      14.795  56.556  16.263  1.00  0.00    -0.000 C 
BRANCH  15  16
ATOM     16  C   UNL     1      14.646  56.354  17.781  1.00  0.00    -0.000 C 
BRANCH  16  17
ATOM     17  C   UNL     1      15.987  56.399  18.527  1.00  0.00    -0.000 C 
BRANCH  17  18
ATOM     18  C   UNL     1      16.633  55.010  18.581  1.00  0.00    -0.000 C 
BRANCH  18  19
ATOM     19  C   UNL     1      18.071  55.051  18.053  1.00  0.00    -0.003 C 
ATOM     20  C   UNL     1      18.398  56.415  17.451  1.00  0.00     0.004 C 
ENDBRANCH  18  19
ENDBRANCH  17  18
ENDBRANCH  16  17
ENDBRANCH  15  16
ENDBRANCH  14  15
ENDBRANCH  13  14
ENDBRANCH  12  13
ENDBRANCH   1  12
TORSDOF 16
ENDMDL
MODEL 2
REMARK VINA RESULT:    -5.042      1.508      3.595
REMARK INTER + INTRA:         -12.203
REMARK INTER:                  -9.277
REMARK INTRA:                  -2.926
REMARK UNBOUND:                -2.446
REMARK SMILES CCCCCCCCCCCCCCCCCC(=O)[O-]
REMARK SMILES IDX 10 1 11 2 12 3 13 4 14 5 15 6 16 7 17 8 18 9 19 10 20 11
REMARK SMILES IDX 9 12 8 13 7 14 6 15 5 16 4 17 3 18 2 19 1 20
REMARK H PARENT
REMARK Flexibility Score: inf
ROOT
ATOM      1  C   UNL     1      18.506  55.182  13.999  1.00  0.00     0.000 C 
ENDROOT
BRANCH   1   2
ATOM      2  C   UNL     1      17.746  55.468  15.306  1.00  0.00     0.000 C 
BRANCH   2   3
ATOM      3  C   UNL     1      18.196  56.774  15.981  1.00  0.00     0.000 C 
BRANCH   3   4
ATOM      4  C   UNL     1      18.721  56.554  17.408  1.00  0.00     0.000 C 
BRANCH   4   5
ATOM      5  C   UNL     1      20.225  56.858  17.492  1.00  0.00     0.000 C 
BRANCH   5   6
ATOM      6  C   UNL     1      20.848  57.146  16.117  1.00  0.00     0.000 C 
BRANCH   6   7
ATOM      7  C   UNL     1      22.033  56.217  15.798  1.00  0.00     0.006 C 
BRANCH   7   8
ATOM      8  C   UNL     1      23.023  56.120  16.965  1.00  0.00     0.053 C 
BRANCH   8   9
ATOM      9  C   UNL     1      24.443  56.229  16.498  1.00  0.00     0.041 C 
ATOM     10  O   UNL     1      25.353  55.581  17.078  1.00  0.00    -0.550 OA
ATOM     11  O   UNL     1      24.765  57.074  15.444  1.00  0.00    -0.550 OA
ENDBRANCH   8   9
ENDBRANCH   7   8
ENDBRANCH   6   7
ENDBRANCH   5   6
ENDBRANCH   4   5
ENDBRANCH   3   4
ENDBRANCH   2   3
ENDBRANCH   1   2
BRANCH   1  12
ATOM     12  C   UNL     1      19.533  54.039  14.153  1.00  0.00     0.000 C 
BRANCH  12  13
ATOM     13  C   UNL     1      19.303  53.166  15.400  1.00  0.00    -0.000 C 
BRANCH  13  14
ATOM     14  C   UNL     1      20.529  53.018  16.321  1.00  0.00    -0.000 C 
BRANCH  14  15
ATOM     15  C   UNL     1      20.241  53.197  17.826  1.00  0.00    -0.000 C 
BRANCH  15  16
ATOM     16  C   UNL     1      19.282  52.161  18.438  1.00  0.00    -0.000 C 
BRANCH  16  17
ATOM     17  C   UNL     1      18.254  52.785  19.393  1.00  0.00    -0.000 C 
BRANCH  17  18
ATOM     18  C   UNL     1      17.172  53.544  18.615  1.00  0.00    -0.000 C 
BRANCH  18  19
ATOM     19  C   UNL     1      16.494  54.595  19.500  1.00  0.00    -0.003 C 
ATOM     20  C   UNL     1      15.248  55.162  18.825  1.00  0.00     0.004 C 
ENDBRANCH  18  19
ENDBRANCH  17  18
ENDBRANCH  16  17
ENDBRANCH  15  16
ENDBRANCH  14  15
ENDBRANCH  13  14
ENDBRANCH  12  13
ENDBRANCH   1  12
TORSDOF 16
ENDMDL
MODEL 3
REMARK VINA RESULT:    -4.988      3.437      5.967
REMARK INTER + INTRA:         -12.098
REMARK INTER:                  -9.429
REMARK INTRA:                  -2.669
REMARK UNBOUND:                -2.446
REMARK SMILES CCCCCCCCCCCCCCCCCC(=O)[O-]
REMARK SMILES IDX 10 1 11 2 12 3 13 4 14 5 15 6 16 7 17 8 18 9 19 10 20 11
REMARK SMILES IDX 9 12 8 13 7 14 6 15 5 16 4 17 3 18 2 19 1 20
REMARK H PARENT
REMARK Flexibility Score: inf
ROOT
ATOM      1  C   UNL     1      19.440  53.006  14.998  1.00  0.00     0.000 C 
ENDROOT
BRANCH   1   2
ATOM      2  C   UNL     1      19.822  54.252  14.181  1.00  0.00     0.000 C 
BRANCH   2   3
ATOM      3  C   UNL     1      18.659  55.247  14.037  1.00  0.00     0.000 C 
BRANCH   3   4
ATOM      4  C   UNL     1      17.720  54.899  12.872  1.00  0.00     0.000 C 
BRANCH   4   5
ATOM      5  C   UNL     1      16.257  54.863  13.339  1.00  0.00     0.000 C 
BRANCH   5   6
ATOM      6  C   UNL     1      16.124  54.820  14.869  1.00  0.00     0.000 C 
BRANCH   6   7
ATOM      7  C   UNL     1      14.660  54.752  15.335  1.00  0.00     0.006 C 
BRANCH   7   8
ATOM      8  C   UNL     1      14.068  56.145  15.586  1.00  0.00     0.053 C 
BRANCH   8   9
ATOM      9  C   UNL     1      14.141  56.526  17.033  1.00  0.00     0.041 C 
ATOM     10  O   UNL     1      14.218  55.636  17.921  1.00  0.00    -0.550 OA
ATOM     11  O   UNL     1      14.089  57.864  17.404  1.00  0.00    -0.550 OA
ENDBRANCH   8   9
ENDBRANCH   7   8
ENDBRANCH   6   7
ENDBRANCH   5   6
ENDBRANCH   4   5
ENDBRANCH   3   4
ENDBRANCH   2   3
ENDBRANCH   1   2
BRANCH   1  12
ATOM     12  C   UNL     1      19.716  53.184  16.507  1.00  0.00     0.000 C 
BRANCH  12  13
ATOM     13  C   UNL     1      18.445  53.428  17.342  1.00  0.00    -0.000 C 
BRANCH  13  14
ATOM     14  C   UNL     1      18.486  54.686  18.229  1.00  0.00    -0.000 C 
BRANCH  14  15
ATOM     15  C   UNL     1      17.843  55.945  17.608  1.00  0.00    -0.000 C 
BRANCH  15  16
ATOM     16  C   UNL     1      18.816  57.100  17.314  1.00  0.00    -0.000 C 
BRANCH  16  17
ATOM     17  C   UNL     1      20.268  56.773  17.694  1.00  0.00    -0.000 C 
BRANCH  17  18
ATOM     18  C   UNL     1      21.163  56.720  16.451  1.00  0.00    -0.000 C 
BRANCH  18  19
ATOM     19  C   UNL     1      22.322  55.737  16.650  1.00  0.00    -0.003 C 
ATOM     20  C   UNL     1      23.659  56.383  16.297  1.00  0.00     0.004 C 
ENDBRANCH  18  19
ENDBRANCH  17  18
ENDBRANCH  16  17
ENDBRANCH  15  16
ENDBRANCH  14  15
ENDBRANCH  13  14
ENDBRANCH  12  13
ENDBRANCH   1  12
TORSDOF 16
ENDMDL
MODEL 4
REMARK VINA RESULT:    -4.983      1.758      2.518
REMARK INTER + INTRA:         -12.089
REMARK INTER:                  -9.481
REMARK INTRA:                  -2.608
REMARK UNBOUND:                -2.446
REMARK SMILES CCCCCCCCCCCCCCCCCC(=O)[O-]
REMARK SMILES IDX 10 1 11 2 12 3 13 4 14 5 15 6 16 7 17 8 18 9 19 10 20 11
REMARK SMILES IDX 9 12 8 13 7 14 6 15 5 16 4 17 3 18 2 19 1 20
REMARK H PARENT
REMARK Flexibility Score: inf
ROOT
ATOM      1  C   UNL     1      17.837  54.826  12.875  1.00  0.00     0.000 C 
ENDROOT
BRANCH   1   2
ATOM      2  C   UNL     1      18.863  54.990  14.010  1.00  0.00     0.000 C 
BRANCH   2   3
ATOM      3  C   UNL     1      19.852  53.816  14.091  1.00  0.00     0.000 C 
BRANCH   3   4
ATOM      4  C   UNL     1      19.436  52.761  15.126  1.00  0.00     0.000 C 
BRANCH   4   5
ATOM      5  C   UNL     1      20.275  52.889  16.407  1.00  0.00     0.000 C 
BRANCH   5   6
ATOM      6  C   UNL     1      21.668  53.482  16.146  1.00  0.00     0.000 C 
BRANCH   6   7
ATOM      7  C   UNL     1      21.824  54.902  16.717  1.00  0.00     0.006 C 
BRANCH   7   8
ATOM      8  C   UNL     1      20.595  55.338  17.526  1.00  0.00     0.053 C 
BRANCH   8   9
ATOM      9  C   UNL     1      20.256  56.778  17.287  1.00  0.00     0.041 C 
ATOM     10  O   UNL     1      19.660  57.445  18.173  1.00  0.00    -0.550 OA
ATOM     11  O   UNL     1      20.568  57.373  16.071  1.00  0.00    -0.550 OA
ENDBRANCH   8   9
ENDBRANCH   7   8
ENDBRANCH   6   7
ENDBRANCH   5   6
ENDBRANCH   4   5
ENDBRANCH   3   4
ENDBRANCH   2   3
ENDBRANCH   1   2
BRANCH   1  12
ATOM     12  C   UNL     1      16.380  54.887  13.384  1.00  0.00     0.000 C 
BRANCH  12  13
ATOM     13  C   UNL     1      16.267  55.046  14.912  1.00  0.00    -0.000 C 
BRANCH  13  14
ATOM     14  C   UNL     1      15.458  53.942  15.618  1.00  0.00    -0.000 C 
BRANCH  14  15
ATOM     15  C   UNL     1      16.163  53.284  16.823  1.00  0.00    -0.000 C 
BRANCH  15  16
ATOM     16  C   UNL     1      17.099  54.210  17.620  1.00  0.00    -0.000 C 
BRANCH  16  17
ATOM     17  C   UNL     1      16.392  54.919  18.784  1.00  0.00    -0.000 C 
BRANCH  17  18
ATOM     18  C   UNL     1      16.117  56.389  18.447  1.00  0.00    -0.000 C 
BRANCH  18  19
ATOM     19  C   UNL     1      14.624  56.624  18.190  1.00  0.00    -0.003 C 
ATOM     20  C   UNL     1      14.409  57.523  16.976  1.00  0.00     0.004 C 
ENDBRANCH  18  19
ENDBRANCH  17  18
ENDBRANCH  16  17
ENDBRANCH  15  16
ENDBRANCH  14  15
ENDBRANCH  13  14
ENDBRANCH  12  13
ENDBRANCH   1  12
TORSDOF 16
ENDMDL
MODEL 5
REMARK VINA RESULT:    -4.982      3.224      5.602
REMARK INTER + INTRA:         -12.088
REMARK INTER:                  -9.188
REMARK INTRA:                  -2.899
REMARK UNBOUND:                -2.446
REMARK SMILES CCCCCCCCCCCCCCCCCC(=O)[O-]
REMARK SMILES IDX 10 1 11 2 12 3 13 4 14 5 15 6 16 7 17 8 18 9 19 10 20 11
REMARK SMILES IDX 9 12 8 13 7 14 6 15 5 16 4 17 3 18 2 19 1 20
REMARK H PARENT
REMARK Flexibility Score: inf
ROOT
ATOM      1  C   UNL     1      19.508  53.837  13.980  1.00  0.00     0.000 C 
ENDROOT
BRANCH   1   2
ATOM      2  C   UNL     1      19.144  52.961  15.191  1.00  0.00     0.000 C 
BRANCH   2   3
ATOM      3  C   UNL     1      20.310  52.802  16.180  1.00  0.00     0.000 C 
BRANCH   3   4
ATOM      4  C   UNL     1      19.855  52.852  17.647  1.00  0.00     0.000 C 
BRANCH   4   5
ATOM      5  C   UNL     1      18.353  53.162  17.745  1.00  0.00     0.000 C 
BRANCH   5   6
ATOM      6  C   UNL     1      17.962  53.776  19.097  1.00  0.00     0.000 C 
BRANCH   6   7
ATOM      7  C   UNL     1      16.455  54.066  19.203  1.00  0.00     0.006 C 
BRANCH   7   8
ATOM      8  C   UNL     1      16.129  55.541  18.939  1.00  0.00     0.053 C 
BRANCH   8   9
ATOM      9  C   UNL     1      15.432  55.729  17.626  1.00  0.00     0.041 C 
ATOM     10  O   UNL     1      15.087  54.729  16.942  1.00  0.00    -0.550 OA
ATOM     11  O   UNL     1      15.194  57.009  17.142  1.00  0.00    -0.550 OA
ENDBRANCH   8   9
ENDBRANCH   7   8
ENDBRANCH   6   7
ENDBRANCH   5   6
ENDBRANCH   4   5
ENDBRANCH   3   4
ENDBRANCH   2   3
ENDBRANCH   1   2
BRANCH   1  12
ATOM     12  C   UNL     1      18.407  54.869  13.647  1.00  0.00     0.000 C 
BRANCH  12  13
ATOM     13  C   UNL     1      17.840  55.587  14.886  1.00  0.00    -0.000 C 
BRANCH  13  14
ATOM     14  C   UNL     1      18.707  56.745  15.415  1.00  0.00    -0.000 C 
BRANCH  14  15
ATOM     15  C   UNL     1      18.954  56.734  16.938  1.00  0.00    -0.000 C 
BRANCH  15  16
ATOM     16  C   UNL     1      20.414  56.498  17.363  1.00  0.00    -0.000 C 
BRANCH  16  17
ATOM     17  C   UNL     1      21.386  56.459  16.175  1.00  0.00    -0.000 C 
BRANCH  17  18
ATOM     18  C   UNL     1      22.633  55.634  16.512  1.00  0.00    -0.000 C 
BRANCH  18  19
ATOM     19  C   UNL     1      23.913  56.422  16.209  1.00  0.00    -0.003 C 
ATOM     20  C   UNL     1      25.139  55.726  16.793  1.00  0.00     0.004 C 
ENDBRANCH  18  19
ENDBRANCH  17  18
ENDBRANCH  16  17
ENDBRANCH  15  16
ENDBRANCH  14  15
ENDBRANCH  13  14
ENDBRANCH  12  13
ENDBRANCH   1  12
TORSDOF 16
ENDMDL
MODEL 6
REMARK VINA RESULT:    -4.970      3.484      5.595
REMARK INTER + INTRA:         -12.064
REMARK INTER:                  -8.574
REMARK INTRA:                  -3.489
REMARK UNBOUND:                -2.446
REMARK SMILES CCCCCCCCCCCCCCCCCC(=O)[O-]
REMARK SMILES IDX 10 1 11 2 12 3 13 4 14 5 15 6 16 7 17 8 18 9 19 10 20 11
REMARK SMILES IDX 9 12 8 13 7 14 6 15 5 16 4 17 3 18 2 19 1 20
REMARK H PARENT
REMARK Flexibility Score: inf
ROOT
ATOM      1  C   UNL     1      20.368  53.304  15.590  1.00  0.00     0.000 C 
ENDROOT
BRANCH   1   2
ATOM      2  C   UNL     1      19.088  52.562  16.010  1.00  0.00     0.000 C 
BRANCH   2   3
ATOM      3  C   UNL     1      18.680  52.857  17.463  1.00  0.00     0.000 C 
BRANCH   3   4
ATOM      4  C   UNL     1      17.157  52.924  17.650  1.00  0.00     0.000 C 
BRANCH   4   5
ATOM      5  C   UNL     1      16.428  52.536  16.354  1.00  0.00     0.000 C 
BRANCH   5   6
ATOM      6  C   UNL     1      15.077  53.253  16.198  1.00  0.00     0.000 C 
BRANCH   6   7
ATOM      7  C   UNL     1      14.821  54.283  17.311  1.00  0.00     0.006 C 
BRANCH   7   8
ATOM      8  C   UNL     1      14.006  55.483  16.812  1.00  0.00     0.053 C 
BRANCH   8   9
ATOM      9  C   UNL     1      14.488  56.769  17.412  1.00  0.00     0.041 C 
ATOM     10  O   UNL     1      14.796  56.825  18.631  1.00  0.00    -0.550 OA
ATOM     11  O   UNL     1      14.565  57.915  16.630  1.00  0.00    -0.550 OA
ENDBRANCH   8   9
ENDBRANCH   7   8
ENDBRANCH   6   7
ENDBRANCH   5   6
ENDBRANCH   4   5
ENDBRANCH   3   4
ENDBRANCH   2   3
ENDBRANCH   1   2
BRANCH   1  12
ATOM     12  C   UNL     1      20.209  54.034  14.238  1.00  0.00     0.000 C 
BRANCH  12  13
ATOM     13  C   UNL     1      18.743  54.195  13.793  1.00  0.00    -0.000 C 
BRANCH  13  14
ATOM     14  C   UNL     1      18.198  55.634  13.871  1.00  0.00    -0.000 C 
BRANCH  14  15
ATOM     15  C   UNL     1      17.349  55.943  15.122  1.00  0.00    -0.000 C 
BRANCH  15  16
ATOM     16  C   UNL     1      17.948  56.988  16.079  1.00  0.00    -0.000 C 
BRANCH  16  17
ATOM     17  C   UNL     1      18.218  56.430  17.483  1.00  0.00    -0.000 C 
BRANCH  17  18
ATOM     18  C   UNL     1      19.689  56.613  17.874  1.00  0.00    -0.000 C 
BRANCH  18  19
ATOM     19  C   UNL     1      20.551  56.921  16.644  1.00  0.00    -0.003 C 
ATOM     20  C   UNL     1      21.938  56.299  16.774  1.00  0.00     0.004 C 
ENDBRANCH  18  19
ENDBRANCH  17  18
ENDBRANCH  16  17
ENDBRANCH  15  16
ENDBRANCH  14  15
ENDBRANCH  13  14
ENDBRANCH  12  13
ENDBRANCH   1  12
TORSDOF 16
ENDMDL
MODEL 7
REMARK VINA RESULT:    -4.964      1.030      3.376
REMARK INTER + INTRA:         -12.054
REMARK INTER:                  -9.627
REMARK INTRA:                  -2.427
REMARK UNBOUND:                -2.446
REMARK SMILES CCCCCCCCCCCCCCCCCC(=O)[O-]
REMARK SMILES IDX 10 1 11 2 12 3 13 4 14 5 15 6 16 7 17 8 18 9 19 10 20 11
REMARK SMILES IDX 9 12 8 13 7 14 6 15 5 16 4 17 3 18 2 19 1 20
REMARK H PARENT
REMARK Flexibility Score: inf
ROOT
ATOM      1  C   UNL     1      20.431  53.144  16.107  1.00  0.00     0.000 C 
ENDROOT
BRANCH   1   2
ATOM      2  C   UNL     1      19.652  53.002  17.425  1.00  0.00     0.000 C 
BRANCH   2   3
ATOM      3  C   UNL     1      19.859  54.198  18.369  1.00  0.00     0.000 C 
BRANCH   3   4
ATOM      4  C   UNL     1      19.264  55.501  17.815  1.00  0.00     0.000 C 
BRANCH   4   5
ATOM      5  C   UNL     1      20.339  56.594  17.712  1.00  0.00     0.000 C 
BRANCH   5   6
ATOM      6  C   UNL     1      20.619  57.015  16.261  1.00  0.00     0.000 C 
BRANCH   6   7
ATOM      7  C   UNL     1      21.943  56.445  15.724  1.00  0.00     0.006 C 
BRANCH   7   8
ATOM      8  C   UNL     1      22.889  56.017  16.853  1.00  0.00     0.053 C 
BRANCH   8   9
ATOM      9  C   UNL     1      24.325  56.237  16.487  1.00  0.00     0.041 C 
ATOM     10  O   UNL     1      25.238  55.622  17.097  1.00  0.00    -0.550 OA
ATOM     11  O   UNL     1      24.657  57.150  15.493  1.00  0.00    -0.550 OA
ENDBRANCH   8   9
ENDBRANCH   7   8
ENDBRANCH   6   7
ENDBRANCH   5   6
ENDBRANCH   4   5
ENDBRANCH   3   4
ENDBRANCH   2   3
ENDBRANCH   1   2
BRANCH   1  12
ATOM     12  C   UNL     1      19.520  53.006  14.867  1.00  0.00     0.000 C 
BRANCH  12  13
ATOM     13  C   UNL     1      19.642  54.181  13.878  1.00  0.00    -0.000 C 
BRANCH  13  14
ATOM     14  C   UNL     1      18.530  55.241  13.994  1.00  0.00    -0.000 C 
BRANCH  14  15
ATOM     15  C   UNL     1      17.204  54.876  13.294  1.00  0.00    -0.000 C 
BRANCH  15  16
ATOM     16  C   UNL     1      15.963  54.870  14.204  1.00  0.00    -0.000 C 
BRANCH  16  17
ATOM     17  C   UNL     1      16.305  55.087  15.685  1.00  0.00    -0.000 C 
BRANCH  17  18
ATOM     18  C   UNL     1      15.408  56.165  16.304  1.00  0.00    -0.000 C 
BRANCH  18  19
ATOM     19  C   UNL     1      15.712  56.344  17.796  1.00  0.00    -0.003 C 
ATOM     20  C   UNL     1      14.450  56.703  18.576  1.00  0.00     0.004 C 
ENDBRANCH  18  19
ENDBRANCH  17  18
ENDBRANCH  16  17
ENDBRANCH  15  16
ENDBRANCH  14  15
ENDBRANCH  13  14
ENDBRANCH  12  13
ENDBRANCH   1  12
TORSDOF 16
ENDMDL
MODEL 8
REMARK VINA RESULT:    -4.960      1.264      2.409
REMARK INTER + INTRA:         -12.046
REMARK INTER:                  -9.491
REMARK INTRA:                  -2.555
REMARK UNBOUND:                -2.446
REMARK SMILES CCCCCCCCCCCCCCCCCC(=O)[O-]
REMARK SMILES IDX 10 1 11 2 12 3 13 4 14 5 15 6 16 7 17 8 18 9 19 10 20 11
REMARK SMILES IDX 9 12 8 13 7 14 6 15 5 16 4 17 3 18 2 19 1 20
REMARK H PARENT
REMARK Flexibility Score: inf
ROOT
ATOM      1  C   UNL     1      16.073  54.547  14.745  1.00  0.00     0.000 C 
ENDROOT
BRANCH   1   2
ATOM      2  C   UNL     1      16.536  54.850  13.310  1.00  0.00     0.000 C 
BRANCH   2   3
ATOM      3  C   UNL     1      18.067  54.856  13.168  1.00  0.00     0.000 C 
BRANCH   3   4
ATOM      4  C   UNL     1      18.775  54.180  14.352  1.00  0.00     0.000 C 
BRANCH   4   5
ATOM      5  C   UNL     1      20.260  54.570  14.399  1.00  0.00     0.000 C 
BRANCH   5   6
ATOM      6  C   UNL     1      21.012  53.902  15.560  1.00  0.00     0.000 C 
BRANCH   6   7
ATOM      7  C   UNL     1      21.391  54.897  16.671  1.00  0.00     0.006 C 
BRANCH   7   8
ATOM      8  C   UNL     1      21.899  56.230  16.106  1.00  0.00     0.053 C 
BRANCH   8   9
ATOM      9  C   UNL     1      23.394  56.268  16.033  1.00  0.00     0.041 C 
ATOM     10  O   UNL     1      23.977  57.197  15.416  1.00  0.00    -0.550 OA
ATOM     11  O   UNL     1      24.145  55.255  16.618  1.00  0.00    -0.550 OA
ENDBRANCH   8   9
ENDBRANCH   7   8
ENDBRANCH   6   7
ENDBRANCH   5   6
ENDBRANCH   4   5
ENDBRANCH   3   4
ENDBRANCH   2   3
ENDBRANCH   1   2
BRANCH   1  12
ATOM     12  C   UNL     1      15.070  55.596  15.274  1.00  0.00     0.000 C 
BRANCH  12  13
ATOM     13  C   UNL     1      15.638  56.482  16.398  1.00  0.00    -0.000 C 
BRANCH  13  14
ATOM     14  C   UNL     1      16.947  57.214  16.045  1.00  0.00    -0.000 C 
BRANCH  14  15
ATOM     15  C   UNL     1      18.187  56.756  16.841  1.00  0.00    -0.000 C 
BRANCH  15  16
ATOM     16  C   UNL     1      17.885  55.986  18.139  1.00  0.00    -0.000 C 
BRANCH  16  17
ATOM     17  C   UNL     1      18.169  54.482  18.024  1.00  0.00    -0.000 C 
BRANCH  17  18
ATOM     18  C   UNL     1      17.439  53.699  19.121  1.00  0.00    -0.000 C 
BRANCH  18  19
ATOM     19  C   UNL     1      18.392  52.736  19.837  1.00  0.00    -0.003 C 
ATOM     20  C   UNL     1      19.847  53.047  19.498  1.00  0.00     0.004 C 
ENDBRANCH  18  19
ENDBRANCH  17  18
ENDBRANCH  16  17
ENDBRANCH  15  16
ENDBRANCH  14  15
ENDBRANCH  13  14
ENDBRANCH  12  13
ENDBRANCH   1  12
TORSDOF 16
ENDMDL
MODEL 9
REMARK VINA RESULT:    -4.938      0.945      2.343
REMARK INTER + INTRA:         -12.002
REMARK INTER:                  -9.993
REMARK INTRA:                  -2.010
REMARK UNBOUND:                -2.446
REMARK SMILES CCCCCCCCCCCCCCCCCC(=O)[O-]
REMARK SMILES IDX 10 1 11 2 12 3 13 4 14 5 15 6 16 7 17 8 18 9 19 10 20 11
REMARK SMILES IDX 9 12 8 13 7 14 6 15 5 16 4 17 3 18 2 19 1 20
REMARK H PARENT
REMARK Flexibility Score: inf
ROOT
ATOM      1  C   UNL     1      17.836  55.300  13.576  1.00  0.00     0.000 C 
ENDROOT
BRANCH   1   2
ATOM      2  C   UNL     1      18.768  54.102  13.324  1.00  0.00     0.000 C 
BRANCH   2   3
ATOM      3  C   UNL     1      19.994  54.099  14.251  1.00  0.00     0.000 C 
BRANCH   3   4
ATOM      4  C   UNL     1      19.891  53.050  15.368  1.00  0.00     0.000 C 
BRANCH   4   5
ATOM      5  C   UNL     1      20.707  53.476  16.598  1.00  0.00     0.000 C 
BRANCH   5   6
ATOM      6  C   UNL     1      22.059  54.103  16.224  1.00  0.00     0.000 C 
BRANCH   6   7
ATOM      7  C   UNL     1      22.048  55.638  16.325  1.00  0.00     0.006 C 
BRANCH   7   8
ATOM      8  C   UNL     1      23.297  56.180  17.032  1.00  0.00     0.053 C 
BRANCH   8   9
ATOM      9  C   UNL     1      24.426  56.400  16.071  1.00  0.00     0.041 C 
ATOM     10  O   UNL     1      25.464  55.692  16.139  1.00  0.00    -0.550 OA
ATOM     11  O   UNL     1      24.344  57.412  15.123  1.00  0.00    -0.550 OA
ENDBRANCH   8   9
ENDBRANCH   7   8
ENDBRANCH   6   7
ENDBRANCH   5   6
ENDBRANCH   4   5
ENDBRANCH   3   4
ENDBRANCH   2   3
ENDBRANCH   1   2
BRANCH   1  12
ATOM     12  C   UNL     1      17.419  55.420  15.058  1.00  0.00     0.000 C 
BRANCH  12  13
ATOM     13  C   UNL     1      17.978  56.674  15.757  1.00  0.00    -0.000 C 
BRANCH  13  14
ATOM     14  C   UNL     1      18.127  56.551  17.285  1.00  0.00    -0.000 C 
BRANCH  14  15
ATOM     15  C   UNL     1      17.619  55.223  17.886  1.00  0.00    -0.000 C 
BRANCH  15  16
ATOM     16  C   UNL     1      16.436  55.356  18.861  1.00  0.00    -0.000 C 
BRANCH  16  17
ATOM     17  C   UNL     1      15.085  55.508  18.148  1.00  0.00    -0.000 C 
BRANCH  17  18
ATOM     18  C   UNL     1      14.527  56.925  18.322  1.00  0.00    -0.000 C 
BRANCH  18  19
ATOM     19  C   UNL     1      14.326  57.608  16.965  1.00  0.00    -0.003 C 
ATOM     20  C   UNL     1      13.993  56.588  15.879  1.00  0.00     0.004 C 
ENDBRANCH  18  19
ENDBRANCH  17  18
ENDBRANCH  16  17
ENDBRANCH  15  16
ENDBRANCH  14  15
ENDBRANCH  13  14
ENDBRANCH  12  13
ENDBRANCH   1  12
TORSDOF 16
ENDMDL
