MODEL 1
REMARK VINA RESULT:     1.367      0.000      0.000
REMARK INTER + INTRA:           2.025
REMARK INTER:                   1.646
REMARK INTRA:                   0.379
REMARK UNBOUND:                 0.379
REMARK SMILES O=c1c(O)c(-c2ccc(O)c(O)c2)oc2cc(O)cc(O)c12
REMARK SMILES IDX 5 1 3 2 2 3 1 4 22 5 20 6 19 7 17 8 16 9 15 10 14 11 6 12
REMARK SMILES IDX 7 13 8 14 9 15 13 16 11 17 10 18 12 20 4 22 21 24 18 26
REMARK H PARENT 10 19 12 21 4 23 21 25 18 27
REMARK Flexibility Score: inf
ROOT
ATOM      1  C   UNL     1     -37.256 -35.671 -34.167  1.00  0.00     0.180 A 
ATOM      2  C   UNL     1     -35.858 -35.812 -34.218  1.00  0.00     0.208 A 
ATOM      3  C   UNL     1     -35.232 -35.944 -35.468  1.00  0.00     0.238 A 
ATOM      4  O   UNL     1     -33.987 -36.125 -35.504  1.00  0.00    -0.285 OA
ATOM      5  C   UNL     1     -36.009 -35.917 -36.651  1.00  0.00     0.111 A 
ATOM      6  C   UNL     1     -35.476 -36.003 -37.972  1.00  0.00     0.134 A 
ATOM      7  C   UNL     1     -36.348 -36.098 -39.064  1.00  0.00     0.093 A 
ATOM      8  C   UNL     1     -37.733 -36.045 -38.887  1.00  0.00     0.123 A 
ATOM      9  C   UNL     1     -38.260 -35.902 -37.607  1.00  0.00     0.094 A 
ATOM     10  C   UNL     1     -37.417 -35.841 -36.495  1.00  0.00     0.146 A 
ATOM     11  O   UNL     1     -37.963 -35.715 -35.291  1.00  0.00    -0.452 OA
ENDROOT
BRANCH   1  12
ATOM     12  C   UNL     1     -37.985 -35.501 -32.890  1.00  0.00     0.025 A 
ATOM     13  C   UNL     1     -39.240 -34.873 -32.889  1.00  0.00     0.016 A 
ATOM     14  C   UNL     1     -39.937 -34.684 -31.692  1.00  0.00     0.051 A 
ATOM     15  C   UNL     1     -39.381 -35.106 -30.478  1.00  0.00     0.157 A 
ATOM     16  C   UNL     1     -37.421 -35.904 -31.666  1.00  0.00     0.062 A 
ATOM     17  C   UNL     1     -38.119 -35.713 -30.464  1.00  0.00     0.158 A 
BRANCH  15  18
ATOM     18  O   UNL     1     -40.073 -34.921 -29.282  1.00  0.00    -0.504 OA
ATOM     19  H   UNL     1     -41.065 -35.110 -29.210  1.00  0.00     0.293 HD
ENDBRANCH  15  18
BRANCH  17  20
ATOM     20  O   UNL     1     -37.562 -36.120 -29.252  1.00  0.00    -0.504 OA
ATOM     21  H   UNL     1     -37.860 -36.971 -28.792  1.00  0.00     0.293 HD
ENDBRANCH  17  20
ENDBRANCH   1  12
BRANCH   2  22
ATOM     22  O   UNL     1     -35.113 -35.857 -33.036  1.00  0.00    -0.502 OA
ATOM     23  H   UNL     1     -35.121 -36.660 -32.419  1.00  0.00     0.293 HD
ENDBRANCH   2  22
BRANCH   6  24
ATOM     24  O   UNL     1     -34.109 -35.970 -38.266  1.00  0.00    -0.507 OA
ATOM     25  H   UNL     1     -33.579 -35.130 -38.443  1.00  0.00     0.293 HD
ENDBRANCH   6  24
BRANCH   8  26
ATOM     26  O   UNL     1     -38.593 -36.124 -39.980  1.00  0.00    -0.508 OA
ATOM     27  H   UNL     1     -38.953 -35.291 -40.433  1.00  0.00     0.293 HD
ENDBRANCH   8  26
TORSDOF 6
ENDMDL
