MODEL 1
REMARK VINA RESULT:    -4.659      0.000      0.000
REMARK INTER + INTRA:         -10.029
REMARK INTER:                  -8.200
REMARK INTRA:                  -1.829
REMARK UNBOUND:                -1.829
REMARK SMILES CCCCCCCCCCCCCCC(=O)[O-]
REMARK SMILES IDX 9 1 10 2 11 3 12 4 13 5 14 6 15 7 16 8 17 9 8 10 7 11 6 12
REMARK SMILES IDX 5 13 4 14 3 15 2 16 1 17
REMARK H PARENT
REMARK Flexibility Score: inf
ROOT
ATOM      1  C   UNL     1      84.629 125.551 129.849  1.00  0.00     0.000 C 
ENDROOT
BRANCH   1   2
ATOM      2  C   UNL     1      85.397 126.000 128.597  1.00  0.00     0.000 C 
BRANCH   2   3
ATOM      3  C   UNL     1      86.770 125.320 128.521  1.00  0.00     0.000 C 
BRANCH   3   4
ATOM      4  C   UNL     1      86.752 123.961 129.235  1.00  0.00     0.000 C 
BRANCH   4   5
ATOM      5  C   UNL     1      87.896 123.812 130.252  1.00  0.00     0.006 C 
BRANCH   5   6
ATOM      6  C   UNL     1      87.643 122.687 131.263  1.00  0.00     0.053 C 
BRANCH   6   7
ATOM      7  C   UNL     1      88.442 121.473 130.907  1.00  0.00     0.041 C 
ATOM      8  O   UNL     1      89.607 121.327 131.361  1.00  0.00    -0.550 OA
ATOM      9  O   UNL     1      87.883 120.480 130.111  1.00  0.00    -0.550 OA
ENDBRANCH   6   7
ENDBRANCH   5   6
ENDBRANCH   4   5
ENDBRANCH   3   4
ENDBRANCH   2   3
ENDBRANCH   1   2
BRANCH   1  10
ATOM     10  C   UNL     1      83.199 125.083 129.537  1.00  0.00     0.000 C 
BRANCH  10  11
ATOM     11  C   UNL     1      83.081 123.552 129.462  1.00  0.00    -0.000 C 
BRANCH  11  12
ATOM     12  C   UNL     1      83.093 123.020 128.017  1.00  0.00    -0.000 C 
BRANCH  12  13
ATOM     13  C   UNL     1      82.609 124.016 126.947  1.00  0.00    -0.000 C 
BRANCH  13  14
ATOM     14  C   UNL     1      83.621 124.211 125.808  1.00  0.00    -0.000 C 
BRANCH  14  15
ATOM     15  C   UNL     1      84.841 123.294 125.990  1.00  0.00    -0.000 C 
BRANCH  15  16
ATOM     16  C   UNL     1      85.042 122.339 124.803  1.00  0.00    -0.003 C 
ATOM     17  C   UNL     1      83.788 122.194 123.939  1.00  0.00     0.004 C 
ENDBRANCH  15  16
ENDBRANCH  14  15
ENDBRANCH  13  14
ENDBRANCH  12  13
ENDBRANCH  11  12
ENDBRANCH  10  11
ENDBRANCH   1  10
TORSDOF 13
ENDMDL
MODEL 2
REMARK VINA RESULT:    -4.487      2.557      5.504
REMARK INTER + INTRA:          -9.726
REMARK INTER:                  -7.739
REMARK INTRA:                  -1.987
REMARK UNBOUND:                -1.829
REMARK SMILES CCCCCCCCCCCCCCC(=O)[O-]
REMARK SMILES IDX 9 1 10 2 11 3 12 4 13 5 14 6 15 7 16 8 17 9 8 10 7 11 6 12
REMARK SMILES IDX 5 13 4 14 3 15 2 16 1 17
REMARK H PARENT
REMARK Flexibility Score: inf
ROOT
ATOM      1  C   UNL     1      86.580 124.886 129.706  1.00  0.00     0.000 C 
ENDROOT
BRANCH   1   2
ATOM      2  C   UNL     1      85.473 125.584 128.900  1.00  0.00     0.000 C 
BRANCH   2   3
ATOM      3  C   UNL     1      84.110 124.929 129.158  1.00  0.00     0.000 C 
BRANCH   3   4
ATOM      4  C   UNL     1      83.558 124.284 127.879  1.00  0.00     0.000 C 
BRANCH   4   5
ATOM      5  C   UNL     1      84.471 124.506 126.662  1.00  0.00     0.006 C 
BRANCH   5   6
ATOM      6  C   UNL     1      83.951 123.807 125.400  1.00  0.00     0.053 C 
BRANCH   6   7
ATOM      7  C   UNL     1      84.717 122.546 125.146  1.00  0.00     0.041 C 
ATOM      8  O   UNL     1      84.363 121.470 125.695  1.00  0.00    -0.550 OA
ATOM      9  O   UNL     1      85.793 122.550 124.267  1.00  0.00    -0.550 OA
ENDBRANCH   6   7
ENDBRANCH   5   6
ENDBRANCH   4   5
ENDBRANCH   3   4
ENDBRANCH   2   3
ENDBRANCH   1   2
BRANCH   1  10
ATOM     10  C   UNL     1      86.252 124.781 131.204  1.00  0.00     0.000 C 
BRANCH  10  11
ATOM     11  C   UNL     1      87.082 123.700 131.916  1.00  0.00    -0.000 C 
BRANCH  11  12
ATOM     12  C   UNL     1      88.337 123.288 131.123  1.00  0.00    -0.000 C 
BRANCH  12  13
ATOM     13  C   UNL     1      88.707 121.796 131.210  1.00  0.00    -0.000 C 
BRANCH  13  14
ATOM     14  C   UNL     1      87.508 120.866 130.969  1.00  0.00    -0.000 C 
BRANCH  14  15
ATOM     15  C   UNL     1      87.324 120.580 129.470  1.00  0.00    -0.000 C 
BRANCH  15  16
ATOM     16  C   UNL     1      86.117 121.320 128.873  1.00  0.00    -0.003 C 
ATOM     17  C   UNL     1      84.917 121.360 129.820  1.00  0.00     0.004 C 
ENDBRANCH  15  16
ENDBRANCH  14  15
ENDBRANCH  13  14
ENDBRANCH  12  13
ENDBRANCH  11  12
ENDBRANCH  10  11
ENDBRANCH   1  10
TORSDOF 13
ENDMDL
MODEL 3
REMARK VINA RESULT:    -4.333      1.528      2.389
REMARK INTER + INTRA:          -9.455
REMARK INTER:                  -8.332
REMARK INTRA:                  -1.124
REMARK UNBOUND:                -1.829
REMARK SMILES CCCCCCCCCCCCCCC(=O)[O-]
REMARK SMILES IDX 9 1 10 2 11 3 12 4 13 5 14 6 15 7 16 8 17 9 8 10 7 11 6 12
REMARK SMILES IDX 5 13 4 14 3 15 2 16 1 17
REMARK H PARENT
REMARK Flexibility Score: inf
ROOT
ATOM      1  C   UNL     1      86.589 125.062 128.766  1.00  0.00     0.000 C 
ENDROOT
BRANCH   1   2
ATOM      2  C   UNL     1      86.320 124.806 130.257  1.00  0.00     0.000 C 
BRANCH   2   3
ATOM      3  C   UNL     1      87.423 123.934 130.872  1.00  0.00     0.000 C 
BRANCH   3   4
ATOM      4  C   UNL     1      88.156 123.129 129.790  1.00  0.00     0.000 C 
BRANCH   4   5
ATOM      5  C   UNL     1      88.665 121.773 130.304  1.00  0.00     0.006 C 
BRANCH   5   6
ATOM      6  C   UNL     1      87.704 121.125 131.309  1.00  0.00     0.053 C 
BRANCH   6   7
ATOM      7  C   UNL     1      86.745 120.216 130.605  1.00  0.00     0.041 C 
ATOM      8  O   UNL     1      85.510 120.304 130.830  1.00  0.00    -0.550 OA
ATOM      9  O   UNL     1      87.212 119.304 129.666  1.00  0.00    -0.550 OA
ENDBRANCH   6   7
ENDBRANCH   5   6
ENDBRANCH   4   5
ENDBRANCH   3   4
ENDBRANCH   2   3
ENDBRANCH   1   2
BRANCH   1  10
ATOM     10  C   UNL     1      85.300 125.264 127.954  1.00  0.00     0.000 C 
BRANCH  10  11
ATOM     11  C   UNL     1      84.436 123.994 127.889  1.00  0.00    -0.000 C 
BRANCH  11  12
ATOM     12  C   UNL     1      83.423 124.017 126.729  1.00  0.00    -0.000 C 
BRANCH  12  13
ATOM     13  C   UNL     1      84.040 124.117 125.321  1.00  0.00    -0.000 C 
BRANCH  13  14
ATOM     14  C   UNL     1      84.617 122.784 124.822  1.00  0.00    -0.000 C 
BRANCH  14  15
ATOM     15  C   UNL     1      83.673 122.118 123.809  1.00  0.00    -0.000 C 
BRANCH  15  16
ATOM     16  C   UNL     1      82.665 121.170 124.478  1.00  0.00    -0.003 C 
ATOM     17  C   UNL     1      83.258 120.419 125.671  1.00  0.00     0.004 C 
ENDBRANCH  15  16
ENDBRANCH  14  15
ENDBRANCH  13  14
ENDBRANCH  12  13
ENDBRANCH  11  12
ENDBRANCH  10  11
ENDBRANCH   1  10
TORSDOF 13
ENDMDL
MODEL 4
REMARK VINA RESULT:    -4.327      1.390      2.538
REMARK INTER + INTRA:          -9.445
REMARK INTER:                  -7.762
REMARK INTRA:                  -1.683
REMARK UNBOUND:                -1.829
REMARK SMILES CCCCCCCCCCCCCCC(=O)[O-]
REMARK SMILES IDX 9 1 10 2 11 3 12 4 13 5 14 6 15 7 16 8 17 9 8 10 7 11 6 12
REMARK SMILES IDX 5 13 4 14 3 15 2 16 1 17
REMARK H PARENT
REMARK Flexibility Score: inf
ROOT
ATOM      1  C   UNL     1      86.864 125.265 128.518  1.00  0.00     0.000 C 
ENDROOT
BRANCH   1   2
ATOM      2  C   UNL     1      87.026 123.785 128.898  1.00  0.00     0.000 C 
BRANCH   2   3
ATOM      3  C   UNL     1      87.804 123.639 130.212  1.00  0.00     0.000 C 
BRANCH   3   4
ATOM      4  C   UNL     1      88.078 122.161 130.528  1.00  0.00     0.000 C 
BRANCH   4   5
ATOM      5  C   UNL     1      86.808 121.399 130.939  1.00  0.00     0.006 C 
BRANCH   5   6
ATOM      6  C   UNL     1      86.847 119.922 130.527  1.00  0.00     0.053 C 
BRANCH   6   7
ATOM      7  C   UNL     1      86.963 119.797 129.040  1.00  0.00     0.041 C 
ATOM      8  O   UNL     1      87.920 119.157 128.532  1.00  0.00    -0.550 OA
ATOM      9  O   UNL     1      85.987 120.347 128.217  1.00  0.00    -0.550 OA
ENDBRANCH   6   7
ENDBRANCH   5   6
ENDBRANCH   4   5
ENDBRANCH   3   4
ENDBRANCH   2   3
ENDBRANCH   1   2
BRANCH   1  10
ATOM     10  C   UNL     1      85.400 125.660 128.268  1.00  0.00     0.000 C 
BRANCH  10  11
ATOM     11  C   UNL     1      84.468 125.232 129.414  1.00  0.00    -0.000 C 
BRANCH  11  12
ATOM     12  C   UNL     1      83.269 124.395 128.931  1.00  0.00    -0.000 C 
BRANCH  12  13
ATOM     13  C   UNL     1      83.590 122.929 128.584  1.00  0.00    -0.000 C 
BRANCH  13  14
ATOM     14  C   UNL     1      83.173 122.546 127.156  1.00  0.00    -0.000 C 
BRANCH  14  15
ATOM     15  C   UNL     1      82.978 123.795 126.283  1.00  0.00    -0.000 C 
BRANCH  15  16
ATOM     16  C   UNL     1      84.105 123.976 125.254  1.00  0.00    -0.003 C 
ATOM     17  C   UNL     1      84.887 122.687 124.998  1.00  0.00     0.004 C 
ENDBRANCH  15  16
ENDBRANCH  14  15
ENDBRANCH  13  14
ENDBRANCH  12  13
ENDBRANCH  11  12
ENDBRANCH  10  11
ENDBRANCH   1  10
TORSDOF 13
ENDMDL
MODEL 5
REMARK VINA RESULT:    -4.318      1.833      3.350
REMARK INTER + INTRA:          -9.429
REMARK INTER:                  -7.710
REMARK INTRA:                  -1.719
REMARK UNBOUND:                -1.829
REMARK SMILES CCCCCCCCCCCCCCC(=O)[O-]
REMARK SMILES IDX 9 1 10 2 11 3 12 4 13 5 14 6 15 7 16 8 17 9 8 10 7 11 6 12
REMARK SMILES IDX 5 13 4 14 3 15 2 16 1 17
REMARK H PARENT
REMARK Flexibility Score: inf
ROOT
ATOM      1  C   UNL     1      86.503 123.877 131.810  1.00  0.00     0.000 C 
ENDROOT
BRANCH   1   2
ATOM      2  C   UNL     1      87.860 124.052 131.111  1.00  0.00     0.000 C 
BRANCH   2   3
ATOM      3  C   UNL     1      88.239 122.790 130.325  1.00  0.00     0.000 C 
BRANCH   3   4
ATOM      4  C   UNL     1      88.476 121.603 131.269  1.00  0.00     0.000 C 
BRANCH   4   5
ATOM      5  C   UNL     1      87.468 120.463 131.050  1.00  0.00     0.006 C 
BRANCH   5   6
ATOM      6  C   UNL     1      86.430 120.792 129.970  1.00  0.00     0.053 C 
BRANCH   6   7
ATOM      7  C   UNL     1      86.612 119.900 128.782  1.00  0.00     0.041 C 
ATOM      8  O   UNL     1      87.674 119.240 128.642  1.00  0.00    -0.550 OA
ATOM      9  O   UNL     1      85.587 119.762 127.853  1.00  0.00    -0.550 OA
ENDBRANCH   6   7
ENDBRANCH   5   6
ENDBRANCH   4   5
ENDBRANCH   3   4
ENDBRANCH   2   3
ENDBRANCH   1   2
BRANCH   1  10
ATOM     10  C   UNL     1      85.993 125.174 132.457  1.00  0.00     0.000 C 
BRANCH  10  11
ATOM     11  C   UNL     1      84.647 125.635 131.873  1.00  0.00    -0.000 C 
BRANCH  11  12
ATOM     12  C   UNL     1      84.373 125.060 130.471  1.00  0.00    -0.000 C 
BRANCH  12  13
ATOM     13  C   UNL     1      84.711 125.999 129.299  1.00  0.00    -0.000 C 
BRANCH  13  14
ATOM     14  C   UNL     1      85.620 125.343 128.248  1.00  0.00    -0.000 C 
BRANCH  14  15
ATOM     15  C   UNL     1      85.372 123.828 128.172  1.00  0.00    -0.000 C 
BRANCH  15  16
ATOM     16  C   UNL     1      85.085 123.350 126.739  1.00  0.00    -0.003 C 
ATOM     17  C   UNL     1      84.072 124.233 126.011  1.00  0.00     0.004 C 
ENDBRANCH  15  16
ENDBRANCH  14  15
ENDBRANCH  13  14
ENDBRANCH  12  13
ENDBRANCH  11  12
ENDBRANCH  10  11
ENDBRANCH   1  10
TORSDOF 13
ENDMDL
MODEL 6
REMARK VINA RESULT:    -4.235      1.451      2.332
REMARK INTER + INTRA:          -9.284
REMARK INTER:                  -8.377
REMARK INTRA:                  -0.907
REMARK UNBOUND:                -1.829
REMARK SMILES CCCCCCCCCCCCCCC(=O)[O-]
REMARK SMILES IDX 9 1 10 2 11 3 12 4 13 5 14 6 15 7 16 8 17 9 8 10 7 11 6 12
REMARK SMILES IDX 5 13 4 14 3 15 2 16 1 17
REMARK H PARENT
REMARK Flexibility Score: inf
ROOT
ATOM      1  C   UNL     1      85.133 125.501 129.253  1.00  0.00     0.000 C 
ENDROOT
BRANCH   1   2
ATOM      2  C   UNL     1      84.677 125.089 130.661  1.00  0.00     0.000 C 
BRANCH   2   3
ATOM      3  C   UNL     1      85.858 125.078 131.640  1.00  0.00     0.000 C 
BRANCH   3   4
ATOM      4  C   UNL     1      86.605 123.738 131.587  1.00  0.00     0.000 C 
BRANCH   4   5
ATOM      5  C   UNL     1      88.034 123.878 131.039  1.00  0.00     0.006 C 
BRANCH   5   6
ATOM      6  C   UNL     1      88.290 122.979 129.823  1.00  0.00     0.053 C 
BRANCH   6   7
ATOM      7  C   UNL     1      88.579 121.577 130.259  1.00  0.00     0.041 C 
ATOM      8  O   UNL     1      89.266 121.365 131.292  1.00  0.00    -0.550 OA
ATOM      9  O   UNL     1      88.049 120.505 129.552  1.00  0.00    -0.550 OA
ENDBRANCH   6   7
ENDBRANCH   5   6
ENDBRANCH   4   5
ENDBRANCH   3   4
ENDBRANCH   2   3
ENDBRANCH   1   2
BRANCH   1  10
ATOM     10  C   UNL     1      84.466 124.674 128.144  1.00  0.00     0.000 C 
BRANCH  10  11
ATOM     11  C   UNL     1      85.386 123.572 127.593  1.00  0.00    -0.000 C 
BRANCH  11  12
ATOM     12  C   UNL     1      84.969 123.087 126.192  1.00  0.00    -0.000 C 
BRANCH  12  13
ATOM     13  C   UNL     1      84.536 121.611 126.111  1.00  0.00    -0.000 C 
BRANCH  13  14
ATOM     14  C   UNL     1      83.278 121.401 125.253  1.00  0.00    -0.000 C 
BRANCH  14  15
ATOM     15  C   UNL     1      83.521 121.840 123.801  1.00  0.00    -0.000 C 
BRANCH  15  16
ATOM     16  C   UNL     1      82.651 121.065 122.798  1.00  0.00    -0.003 C 
ATOM     17  C   UNL     1      82.981 121.400 121.343  1.00  0.00     0.004 C 
ENDBRANCH  15  16
ENDBRANCH  14  15
ENDBRANCH  13  14
ENDBRANCH  12  13
ENDBRANCH  11  12
ENDBRANCH  10  11
ENDBRANCH   1  10
TORSDOF 13
ENDMDL
MODEL 7
REMARK VINA RESULT:    -4.178      2.249      5.698
REMARK INTER + INTRA:          -9.182
REMARK INTER:                  -7.490
REMARK INTRA:                  -1.692
REMARK UNBOUND:                -1.829
REMARK SMILES CCCCCCCCCCCCCCC(=O)[O-]
REMARK SMILES IDX 9 1 10 2 11 3 12 4 13 5 14 6 15 7 16 8 17 9 8 10 7 11 6 12
REMARK SMILES IDX 5 13 4 14 3 15 2 16 1 17
REMARK H PARENT
REMARK Flexibility Score: inf
ROOT
ATOM      1  C   UNL     1      84.565 123.439 129.299  1.00  0.00     0.000 C 
ENDROOT
BRANCH   1   2
ATOM      2  C   UNL     1      83.774 124.126 128.175  1.00  0.00     0.000 C 
BRANCH   2   3
ATOM      3  C   UNL     1      84.690 124.485 126.999  1.00  0.00     0.000 C 
BRANCH   3   4
ATOM      4  C   UNL     1      84.010 124.179 125.657  1.00  0.00     0.000 C 
BRANCH   4   5
ATOM      5  C   UNL     1      84.523 122.879 125.016  1.00  0.00     0.006 C 
BRANCH   5   6
ATOM      6  C   UNL     1      83.586 121.690 125.261  1.00  0.00     0.053 C 
BRANCH   6   7
ATOM      7  C   UNL     1      84.243 120.679 126.148  1.00  0.00     0.041 C 
ATOM      8  O   UNL     1      85.318 120.961 126.738  1.00  0.00    -0.550 OA
ATOM      9  O   UNL     1      83.644 119.443 126.359  1.00  0.00    -0.550 OA
ENDBRANCH   6   7
ENDBRANCH   5   6
ENDBRANCH   4   5
ENDBRANCH   3   4
ENDBRANCH   2   3
ENDBRANCH   1   2
BRANCH   1  10
ATOM     10  C   UNL     1      84.517 124.214 130.624  1.00  0.00     0.000 C 
BRANCH  10  11
ATOM     11  C   UNL     1      85.868 124.851 130.986  1.00  0.00    -0.000 C 
BRANCH  11  12
ATOM     12  C   UNL     1      86.995 124.463 130.010  1.00  0.00    -0.000 C 
BRANCH  12  13
ATOM     13  C   UNL     1      88.182 123.715 130.643  1.00  0.00    -0.000 C 
BRANCH  13  14
ATOM     14  C   UNL     1      88.302 122.261 130.160  1.00  0.00    -0.000 C 
BRANCH  14  15
ATOM     15  C   UNL     1      88.178 121.277 131.334  1.00  0.00    -0.000 C 
BRANCH  15  16
ATOM     16  C   UNL     1      86.723 120.863 131.604  1.00  0.00    -0.003 C 
ATOM     17  C   UNL     1      86.122 121.563 132.822  1.00  0.00     0.004 C 
ENDBRANCH  15  16
ENDBRANCH  14  15
ENDBRANCH  13  14
ENDBRANCH  12  13
ENDBRANCH  11  12
ENDBRANCH  10  11
ENDBRANCH   1  10
TORSDOF 13
ENDMDL
MODEL 8
REMARK VINA RESULT:    -4.158      1.712      2.977
REMARK INTER + INTRA:          -9.147
REMARK INTER:                  -7.352
REMARK INTRA:                  -1.795
REMARK UNBOUND:                -1.829
REMARK SMILES CCCCCCCCCCCCCCC(=O)[O-]
REMARK SMILES IDX 9 1 10 2 11 3 12 4 13 5 14 6 15 7 16 8 17 9 8 10 7 11 6 12
REMARK SMILES IDX 5 13 4 14 3 15 2 16 1 17
REMARK H PARENT
REMARK Flexibility Score: inf
ROOT
ATOM      1  C   UNL     1      85.350 124.434 127.554  1.00  0.00     0.000 C 
ENDROOT
BRANCH   1   2
ATOM      2  C   UNL     1      85.612 125.709 128.371  1.00  0.00     0.000 C 
BRANCH   2   3
ATOM      3  C   UNL     1      85.008 125.593 129.776  1.00  0.00     0.000 C 
BRANCH   3   4
ATOM      4  C   UNL     1      85.502 124.324 130.486  1.00  0.00     0.000 C 
BRANCH   4   5
ATOM      5  C   UNL     1      86.975 124.420 130.914  1.00  0.00     0.006 C 
BRANCH   5   6
ATOM      6  C   UNL     1      87.492 123.121 131.544  1.00  0.00     0.053 C 
BRANCH   6   7
ATOM      7  C   UNL     1      88.376 122.389 130.583  1.00  0.00     0.041 C 
ATOM      8  O   UNL     1      88.477 122.782 129.391  1.00  0.00    -0.550 OA
ATOM      9  O   UNL     1      89.124 121.301 131.016  1.00  0.00    -0.550 OA
ENDBRANCH   6   7
ENDBRANCH   5   6
ENDBRANCH   4   5
ENDBRANCH   3   4
ENDBRANCH   2   3
ENDBRANCH   1   2
BRANCH   1  10
ATOM     10  C   UNL     1      83.993 124.456 126.832  1.00  0.00     0.000 C 
BRANCH  10  11
ATOM     11  C   UNL     1      84.094 123.988 125.371  1.00  0.00    -0.000 C 
BRANCH  11  12
ATOM     12  C   UNL     1      83.727 122.503 125.190  1.00  0.00    -0.000 C 
BRANCH  12  13
ATOM     13  C   UNL     1      84.828 121.502 125.586  1.00  0.00    -0.000 C 
BRANCH  13  14
ATOM     14  C   UNL     1      84.440 120.628 126.788  1.00  0.00    -0.000 C 
BRANCH  14  15
ATOM     15  C   UNL     1      85.448 120.791 127.937  1.00  0.00    -0.000 C 
BRANCH  15  16
ATOM     16  C   UNL     1      84.763 121.057 129.287  1.00  0.00    -0.003 C 
ATOM     17  C   UNL     1      83.358 121.641 129.135  1.00  0.00     0.004 C 
ENDBRANCH  15  16
ENDBRANCH  14  15
ENDBRANCH  13  14
ENDBRANCH  12  13
ENDBRANCH  11  12
ENDBRANCH  10  11
ENDBRANCH   1  10
TORSDOF 13
ENDMDL
MODEL 9
REMARK VINA RESULT:    -4.127      2.806      5.713
REMARK INTER + INTRA:          -9.092
REMARK INTER:                  -7.101
REMARK INTRA:                  -1.991
REMARK UNBOUND:                -1.829
REMARK SMILES CCCCCCCCCCCCCCC(=O)[O-]
REMARK SMILES IDX 9 1 10 2 11 3 12 4 13 5 14 6 15 7 16 8 17 9 8 10 7 11 6 12
REMARK SMILES IDX 5 13 4 14 3 15 2 16 1 17
REMARK H PARENT
REMARK Flexibility Score: inf
ROOT
ATOM      1  C   UNL     1      87.871 121.141 130.249  1.00  0.00     0.000 C 
ENDROOT
BRANCH   1   2
ATOM      2  C   UNL     1      86.554 120.594 130.822  1.00  0.00     0.000 C 
BRANCH   2   3
ATOM      3  C   UNL     1      85.426 120.682 129.787  1.00  0.00     0.000 C 
BRANCH   3   4
ATOM      4  C   UNL     1      85.976 121.054 128.403  1.00  0.00     0.000 C 
BRANCH   4   5
ATOM      5  C   UNL     1      84.868 121.219 127.350  1.00  0.00     0.006 C 
BRANCH   5   6
ATOM      6  C   UNL     1      84.331 122.653 127.278  1.00  0.00     0.053 C 
BRANCH   6   7
ATOM      7  C   UNL     1      84.589 123.241 125.926  1.00  0.00     0.041 C 
ATOM      8  O   UNL     1      84.094 124.356 125.616  1.00  0.00    -0.550 OA
ATOM      9  O   UNL     1      85.415 122.580 125.025  1.00  0.00    -0.550 OA
ENDBRANCH   6   7
ENDBRANCH   5   6
ENDBRANCH   4   5
ENDBRANCH   3   4
ENDBRANCH   2   3
ENDBRANCH   1   2
BRANCH   1  10
ATOM     10  C   UNL     1      88.586 122.103 131.210  1.00  0.00     0.000 C 
BRANCH  10  11
ATOM     11  C   UNL     1      88.165 123.567 131.003  1.00  0.00    -0.000 C 
BRANCH  11  12
ATOM     12  C   UNL     1      87.379 124.140 132.197  1.00  0.00    -0.000 C 
BRANCH  12  13
ATOM     13  C   UNL     1      86.004 124.740 131.850  1.00  0.00    -0.000 C 
BRANCH  13  14
ATOM     14  C   UNL     1      85.496 124.314 130.465  1.00  0.00    -0.000 C 
BRANCH  14  15
ATOM     15  C   UNL     1      84.706 125.448 129.793  1.00  0.00    -0.000 C 
BRANCH  15  16
ATOM     16  C   UNL     1      85.419 126.007 128.552  1.00  0.00    -0.003 C 
ATOM     17  C   UNL     1      86.764 125.331 128.285  1.00  0.00     0.004 C 
ENDBRANCH  15  16
ENDBRANCH  14  15
ENDBRANCH  13  14
ENDBRANCH  12  13
ENDBRANCH  11  12
ENDBRANCH  10  11
ENDBRANCH   1  10
TORSDOF 13
ENDMDL
