MODEL 1
REMARK VINA RESULT:    -2.694      0.000      0.000
REMARK INTER + INTRA:          -2.694
REMARK INTER:                  -2.694
REMARK INTRA:                   0.000
REMARK UNBOUND:                 0.000
REMARK SMILES CC(=O)[O-]
REMARK SMILES IDX 1 1 2 2 3 3 4 4
REMARK H PARENT
REMARK Flexibility Score: inf
ROOT
ATOM      1  C   UNL     1      40.480  51.366  14.944  1.00  0.00     0.063 C 
ATOM      2  C   UNL     1      39.399  51.194  13.932  1.00  0.00     0.038 C 
ATOM      3  O   UNL     1      39.399  50.190  13.171  1.00  0.00    -0.550 OA
ATOM      4  O   UNL     1      38.359  52.112  13.861  1.00  0.00    -0.550 OA
ENDROOT
TORSDOF 0
ENDMDL
MODEL 2
REMARK VINA RESULT:    -2.624      1.399      1.783
REMARK INTER + INTRA:          -2.624
REMARK INTER:                  -2.624
REMARK INTRA:                   0.000
REMARK UNBOUND:                 0.000
REMARK SMILES CC(=O)[O-]
REMARK SMILES IDX 1 1 2 2 3 3 4 4
REMARK H PARENT
REMARK Flexibility Score: inf
ROOT
ATOM      1  C   UNL     1      38.409  52.125  13.296  1.00  0.00     0.063 C 
ATOM      2  C   UNL     1      39.367  51.085  13.767  1.00  0.00     0.038 C 
ATOM      3  O   UNL     1      39.399  49.956  13.210  1.00  0.00    -0.550 OA
ATOM      4  O   UNL     1      40.267  51.376  14.785  1.00  0.00    -0.550 OA
ENDROOT
TORSDOF 0
ENDMDL
MODEL 3
REMARK VINA RESULT:    -2.507      1.357      1.651
REMARK INTER + INTRA:          -2.507
REMARK INTER:                  -2.507
REMARK INTRA:                   0.000
REMARK UNBOUND:                 0.000
REMARK SMILES CC(=O)[O-]
REMARK SMILES IDX 1 1 2 2 3 3 4 4
REMARK H PARENT
REMARK Flexibility Score: inf
ROOT
ATOM      1  C   UNL     1      40.042  50.415  12.964  1.00  0.00     0.063 C 
ATOM      2  C   UNL     1      39.530  51.304  14.045  1.00  0.00     0.038 C 
ATOM      3  O   UNL     1      40.131  51.367  15.149  1.00  0.00    -0.550 OA
ATOM      4  O   UNL     1      38.419  52.107  13.819  1.00  0.00    -0.550 OA
ENDROOT
TORSDOF 0
ENDMDL
MODEL 4
REMARK VINA RESULT:    -2.322     10.833     11.109
REMARK INTER + INTRA:          -2.322
REMARK INTER:                  -2.322
REMARK INTRA:                   0.000
REMARK UNBOUND:                 0.000
REMARK SMILES CC(=O)[O-]
REMARK SMILES IDX 1 1 2 2 3 3 4 4
REMARK H PARENT
REMARK Flexibility Score: inf
ROOT
ATOM      1  C   UNL     1      37.454  41.618  19.283  1.00  0.00     0.063 C 
ATOM      2  C   UNL     1      36.446  41.391  18.209  1.00  0.00     0.038 C 
ATOM      3  O   UNL     1      35.592  40.473  18.327  1.00  0.00    -0.550 OA
ATOM      4  O   UNL     1      36.409  42.227  17.100  1.00  0.00    -0.550 OA
ENDROOT
TORSDOF 0
ENDMDL
MODEL 5
REMARK VINA RESULT:    -2.267     14.411     14.658
REMARK INTER + INTRA:          -2.267
REMARK INTER:                  -2.267
REMARK INTRA:                   0.000
REMARK UNBOUND:                 0.000
REMARK SMILES CC(=O)[O-]
REMARK SMILES IDX 1 1 2 2 3 3 4 4
REMARK H PARENT
REMARK Flexibility Score: inf
ROOT
ATOM      1  C   UNL     1      46.431  40.199  18.264  1.00  0.00     0.063 C 
ATOM      2  C   UNL     1      47.920  40.155  18.240  1.00  0.00     0.038 C 
ATOM      3  O   UNL     1      48.519  39.531  17.325  1.00  0.00    -0.550 OA
ATOM      4  O   UNL     1      48.654  40.849  19.194  1.00  0.00    -0.550 OA
ENDROOT
TORSDOF 0
ENDMDL
MODEL 6
REMARK VINA RESULT:    -2.262     11.060     11.363
REMARK INTER + INTRA:          -2.262
REMARK INTER:                  -2.262
REMARK INTRA:                   0.000
REMARK UNBOUND:                 0.000
REMARK SMILES CC(=O)[O-]
REMARK SMILES IDX 1 1 2 2 3 3 4 4
REMARK H PARENT
REMARK Flexibility Score: inf
ROOT
ATOM      1  C   UNL     1      37.412  41.601  19.516  1.00  0.00     0.063 C 
ATOM      2  C   UNL     1      36.424  41.310  18.439  1.00  0.00     0.038 C 
ATOM      3  O   UNL     1      36.526  41.874  17.318  1.00  0.00    -0.550 OA
ATOM      4  O   UNL     1      35.419  40.374  18.649  1.00  0.00    -0.550 OA
ENDROOT
TORSDOF 0
ENDMDL
MODEL 7
REMARK VINA RESULT:    -2.228     14.074     14.497
REMARK INTER + INTRA:          -2.228
REMARK INTER:                  -2.228
REMARK INTRA:                   0.000
REMARK UNBOUND:                 0.000
REMARK SMILES CC(=O)[O-]
REMARK SMILES IDX 1 1 2 2 3 3 4 4
REMARK H PARENT
REMARK Flexibility Score: inf
ROOT
ATOM      1  C   UNL     1      48.521  40.882  19.270  1.00  0.00     0.063 C 
ATOM      2  C   UNL     1      47.808  40.178  18.167  1.00  0.00     0.038 C 
ATOM      3  O   UNL     1      48.445  39.430  17.379  1.00  0.00    -0.550 OA
ATOM      4  O   UNL     1      46.431  40.301  18.037  1.00  0.00    -0.550 OA
ENDROOT
TORSDOF 0
ENDMDL
MODEL 8
REMARK VINA RESULT:    -2.210     17.150     17.790
REMARK INTER + INTRA:          -2.210
REMARK INTER:                  -2.210
REMARK INTRA:                   0.000
REMARK UNBOUND:                 0.000
REMARK SMILES CC(=O)[O-]
REMARK SMILES IDX 1 1 2 2 3 3 4 4
REMARK H PARENT
REMARK Flexibility Score: inf
ROOT
ATOM      1  C   UNL     1      46.599  34.672  19.339  1.00  0.00     0.063 C 
ATOM      2  C   UNL     1      46.601  35.678  18.239  1.00  0.00     0.038 C 
ATOM      3  O   UNL     1      46.362  36.889  18.489  1.00  0.00    -0.550 OA
ATOM      4  O   UNL     1      46.920  35.293  16.943  1.00  0.00    -0.550 OA
ENDROOT
TORSDOF 0
ENDMDL
MODEL 9
REMARK VINA RESULT:    -2.138     15.965     16.497
REMARK INTER + INTRA:          -2.138
REMARK INTER:                  -2.138
REMARK INTRA:                   0.000
REMARK UNBOUND:                 0.000
REMARK SMILES CC(=O)[O-]
REMARK SMILES IDX 1 1 2 2 3 3 4 4
REMARK H PARENT
REMARK Flexibility Score: inf
ROOT
ATOM      1  C   UNL     1      46.618  35.870  18.164  1.00  0.00     0.063 C 
ATOM      2  C   UNL     1      45.594  36.782  18.747  1.00  0.00     0.038 C 
ATOM      3  O   UNL     1      44.496  36.321  19.156  1.00  0.00    -0.550 OA
ATOM      4  O   UNL     1      45.869  38.136  18.893  1.00  0.00    -0.550 OA
ENDROOT
TORSDOF 0
ENDMDL
