MODEL 1
REMARK VINA RESULT:    -4.932      0.000      0.000
REMARK INTER + INTRA:          -5.784
REMARK INTER:                  -5.509
REMARK INTRA:                  -0.275
REMARK UNBOUND:                -0.275
REMARK SMILES CC=C(C)C=CC=C(C)C
REMARK SMILES IDX 5 1 6 2 3 3 1 4 2 5 4 6 7 7 8 8 9 9 10 10
REMARK H PARENT
REMARK Flexibility Score: inf
ROOT
ATOM      1  C   UNL     1     112.935 109.930 113.478  1.00  0.00     0.003 C 
ATOM      2  C   UNL     1     112.036 110.119 114.453  1.00  0.00     0.000 C 
ENDROOT
BRANCH   1   3
ATOM      3  C   UNL     1     112.782 110.481 112.106  1.00  0.00    -0.055 C 
ATOM      4  C   UNL     1     112.884 112.497 110.606  1.00  0.00     0.036 C 
ATOM      5  C   UNL     1     113.049 111.788 111.918  1.00  0.00    -0.027 C 
ATOM      6  C   UNL     1     112.276 109.605 110.981  1.00  0.00     0.044 C 
ENDBRANCH   1   3
BRANCH   2   7
ATOM      7  C   UNL     1     112.254 109.549 115.800  1.00  0.00    -0.001 C 
ATOM      8  C   UNL     1     112.696 110.261 116.853  1.00  0.00    -0.076 C 
ATOM      9  C   UNL     1     113.014 111.731 116.747  1.00  0.00     0.039 C 
ATOM     10  C   UNL     1     112.875 109.557 118.171  1.00  0.00     0.039 C 
ENDBRANCH   2   7
TORSDOF 2
ENDMDL
MODEL 2
REMARK VINA RESULT:    -4.914      4.523      6.376
REMARK INTER + INTRA:          -5.763
REMARK INTER:                  -5.491
REMARK INTRA:                  -0.272
REMARK UNBOUND:                -0.275
REMARK SMILES CC=C(C)C=CC=C(C)C
REMARK SMILES IDX 5 1 6 2 3 3 1 4 2 5 4 6 7 7 8 8 9 9 10 10
REMARK H PARENT
REMARK Flexibility Score: inf
ROOT
ATOM      1  C   UNL     1     109.212 112.113 108.471  1.00  0.00     0.003 C 
ATOM      2  C   UNL     1     110.141 112.033 109.433  1.00  0.00     0.000 C 
ENDROOT
BRANCH   1   3
ATOM      3  C   UNL     1     109.401 111.561 107.104  1.00  0.00    -0.055 C 
ATOM      4  C   UNL     1     109.391 109.535 105.614  1.00  0.00     0.036 C 
ATOM      5  C   UNL     1     109.185 110.244 106.920  1.00  0.00    -0.027 C 
ATOM      6  C   UNL     1     109.886 112.450 105.980  1.00  0.00     0.044 C 
ENDBRANCH   1   3
BRANCH   2   7
ATOM      7  C   UNL     1     109.886 112.597 110.776  1.00  0.00    -0.001 C 
ATOM      8  C   UNL     1     109.509 111.862 111.838  1.00  0.00    -0.076 C 
ATOM      9  C   UNL     1     109.310 110.370 111.748  1.00  0.00     0.039 C 
ATOM     10  C   UNL     1     109.282 112.561 113.151  1.00  0.00     0.039 C 
ENDBRANCH   2   7
TORSDOF 2
ENDMDL
MODEL 3
REMARK VINA RESULT:    -4.912      3.340      3.949
REMARK INTER + INTRA:          -5.761
REMARK INTER:                  -5.491
REMARK INTRA:                  -0.271
REMARK UNBOUND:                -0.275
REMARK SMILES CC=C(C)C=CC=C(C)C
REMARK SMILES IDX 5 1 6 2 3 3 1 4 2 5 4 6 7 7 8 8 9 9 10 10
REMARK H PARENT
REMARK Flexibility Score: inf
ROOT
ATOM      1  C   UNL     1     109.226 112.131 113.383  1.00  0.00     0.003 C 
ATOM      2  C   UNL     1     110.168 112.043 114.332  1.00  0.00     0.000 C 
ENDROOT
BRANCH   1   3
ATOM      3  C   UNL     1     109.386 111.568 112.017  1.00  0.00    -0.055 C 
ATOM      4  C   UNL     1     109.346 109.529 110.545  1.00  0.00     0.036 C 
ATOM      5  C   UNL     1     109.168 110.249 111.849  1.00  0.00    -0.027 C 
ATOM      6  C   UNL     1     109.846 112.447 110.875  1.00  0.00     0.044 C 
ENDBRANCH   1   3
BRANCH   2   7
ATOM      7  C   UNL     1     109.942 112.619 115.675  1.00  0.00    -0.001 C 
ATOM      8  C   UNL     1     109.549 111.900 116.743  1.00  0.00    -0.076 C 
ATOM      9  C   UNL     1     109.302 110.415 116.659  1.00  0.00     0.039 C 
ATOM     10  C   UNL     1     109.355 112.611 118.055  1.00  0.00     0.039 C 
ENDBRANCH   2   7
TORSDOF 2
ENDMDL
MODEL 4
REMARK VINA RESULT:    -4.892      2.907      4.897
REMARK INTER + INTRA:          -5.739
REMARK INTER:                  -5.474
REMARK INTRA:                  -0.265
REMARK UNBOUND:                -0.275
REMARK SMILES CC=C(C)C=CC=C(C)C
REMARK SMILES IDX 5 1 6 2 3 3 1 4 2 5 4 6 7 7 8 8 9 9 10 10
REMARK H PARENT
REMARK Flexibility Score: inf
ROOT
ATOM      1  C   UNL     1     113.093 110.297 108.617  1.00  0.00     0.003 C 
ATOM      2  C   UNL     1     112.147 110.290 109.565  1.00  0.00     0.000 C 
ENDROOT
BRANCH   1   3
ATOM      3  C   UNL     1     112.864 110.798 107.236  1.00  0.00    -0.055 C 
ATOM      4  C   UNL     1     112.695 112.782 105.701  1.00  0.00     0.036 C 
ATOM      5  C   UNL     1     112.957 112.125 107.023  1.00  0.00    -0.027 C 
ATOM      6  C   UNL     1     112.472 109.843 106.131  1.00  0.00     0.044 C 
ENDBRANCH   1   3
BRANCH   2   7
ATOM      7  C   UNL     1     112.444 109.784 110.923  1.00  0.00    -0.001 C 
ATOM      8  C   UNL     1     112.791 110.573 111.957  1.00  0.00    -0.076 C 
ATOM      9  C   UNL     1     112.908 112.069 111.818  1.00  0.00     0.039 C 
ATOM     10  C   UNL     1     113.067 109.929 113.289  1.00  0.00     0.039 C 
ENDBRANCH   2   7
TORSDOF 2
ENDMDL
MODEL 5
REMARK VINA RESULT:    -4.861      4.481      8.104
REMARK INTER + INTRA:          -5.705
REMARK INTER:                  -5.457
REMARK INTRA:                  -0.248
REMARK UNBOUND:                -0.275
REMARK SMILES CC=C(C)C=CC=C(C)C
REMARK SMILES IDX 5 1 6 2 3 3 1 4 2 5 4 6 7 7 8 8 9 9 10 10
REMARK H PARENT
REMARK Flexibility Score: inf
ROOT
ATOM      1  C   UNL     1     109.922 112.070 109.685  1.00  0.00     0.003 C 
ATOM      2  C   UNL     1     109.059 112.035 108.660  1.00  0.00     0.000 C 
ENDROOT
BRANCH   1   3
ATOM      3  C   UNL     1     109.559 111.684 111.074  1.00  0.00    -0.055 C 
ATOM      4  C   UNL     1     109.333 112.384 113.478  1.00  0.00     0.036 C 
ATOM      5  C   UNL     1     109.614 112.635 112.027  1.00  0.00    -0.027 C 
ATOM      6  C   UNL     1     109.206 110.251 111.403  1.00  0.00     0.044 C 
ENDBRANCH   1   3
BRANCH   2   7
ATOM      7  C   UNL     1     109.487 112.425 107.300  1.00  0.00    -0.001 C 
ATOM      8  C   UNL     1     109.556 111.571 106.262  1.00  0.00    -0.076 C 
ATOM      9  C   UNL     1     109.194 110.114 106.400  1.00  0.00     0.039 C 
ATOM     10  C   UNL     1     110.009 112.099 104.927  1.00  0.00     0.039 C 
ENDBRANCH   2   7
TORSDOF 2
ENDMDL
MODEL 6
REMARK VINA RESULT:    -4.855      2.955      7.152
REMARK INTER + INTRA:          -5.697
REMARK INTER:                  -5.463
REMARK INTRA:                  -0.235
REMARK UNBOUND:                -0.275
REMARK SMILES CC=C(C)C=CC=C(C)C
REMARK SMILES IDX 5 1 6 2 3 3 1 4 2 5 4 6 7 7 8 8 9 9 10 10
REMARK H PARENT
REMARK Flexibility Score: inf
ROOT
ATOM      1  C   UNL     1     112.342 110.171 110.084  1.00  0.00     0.003 C 
ATOM      2  C   UNL     1     113.152 110.344 109.031  1.00  0.00     0.000 C 
ENDROOT
BRANCH   1   3
ATOM      3  C   UNL     1     112.649 110.685 111.445  1.00  0.00    -0.055 C 
ATOM      4  C   UNL     1     112.870 110.186 113.900  1.00  0.00     0.036 C 
ATOM      5  C   UNL     1     112.637 109.807 112.467  1.00  0.00    -0.027 C 
ATOM      6  C   UNL     1     112.899 112.159 111.669  1.00  0.00     0.044 C 
ENDBRANCH   1   3
BRANCH   2   7
ATOM      7  C   UNL     1     112.782 109.814 107.701  1.00  0.00    -0.001 C 
ATOM      8  C   UNL     1     112.692 110.569 106.590  1.00  0.00    -0.076 C 
ATOM      9  C   UNL     1     112.966 112.051 106.608  1.00  0.00     0.039 C 
ATOM     10  C   UNL     1     112.306 109.903 105.298  1.00  0.00     0.039 C 
ENDBRANCH   2   7
TORSDOF 2
ENDMDL
MODEL 7
REMARK VINA RESULT:    -4.839      0.744      5.441
REMARK INTER + INTRA:          -5.680
REMARK INTER:                  -5.435
REMARK INTRA:                  -0.245
REMARK UNBOUND:                -0.275
REMARK SMILES CC=C(C)C=CC=C(C)C
REMARK SMILES IDX 5 1 6 2 3 3 1 4 2 5 4 6 7 7 8 8 9 9 10 10
REMARK H PARENT
REMARK Flexibility Score: inf
ROOT
ATOM      1  C   UNL     1     112.356 110.138 114.844  1.00  0.00     0.003 C 
ATOM      2  C   UNL     1     113.207 110.182 113.809  1.00  0.00     0.000 C 
ENDROOT
BRANCH   1   3
ATOM      3  C   UNL     1     112.706 110.608 116.210  1.00  0.00    -0.055 C 
ATOM      4  C   UNL     1     112.938 110.048 118.651  1.00  0.00     0.036 C 
ATOM      5  C   UNL     1     112.668 109.711 117.214  1.00  0.00    -0.027 C 
ATOM      6  C   UNL     1     113.027 112.065 116.460  1.00  0.00     0.044 C 
ENDBRANCH   1   3
BRANCH   2   7
ATOM      7  C   UNL     1     112.792 109.704 112.472  1.00  0.00    -0.001 C 
ATOM      8  C   UNL     1     112.700 110.497 111.388  1.00  0.00    -0.076 C 
ATOM      9  C   UNL     1     113.018 111.969 111.445  1.00  0.00     0.039 C 
ATOM     10  C   UNL     1     112.265 109.883 110.085  1.00  0.00     0.039 C 
ENDBRANCH   2   7
TORSDOF 2
ENDMDL
MODEL 8
REMARK VINA RESULT:    -4.834      1.170      5.328
REMARK INTER + INTRA:          -5.674
REMARK INTER:                  -5.413
REMARK INTRA:                  -0.261
REMARK UNBOUND:                -0.275
REMARK SMILES CC=C(C)C=CC=C(C)C
REMARK SMILES IDX 5 1 6 2 3 3 1 4 2 5 4 6 7 7 8 8 9 9 10 10
REMARK H PARENT
REMARK Flexibility Score: inf
ROOT
ATOM      1  C   UNL     1     113.048 110.205 113.385  1.00  0.00     0.003 C 
ATOM      2  C   UNL     1     112.181 110.462 112.396  1.00  0.00     0.000 C 
ENDROOT
BRANCH   1   3
ATOM      3  C   UNL     1     112.754 110.466 114.818  1.00  0.00    -0.055 C 
ATOM      4  C   UNL     1     112.923 112.051 116.764  1.00  0.00     0.036 C 
ATOM      5  C   UNL     1     113.102 111.664 115.325  1.00  0.00    -0.027 C 
ATOM      6  C   UNL     1     112.143 109.386 115.684  1.00  0.00     0.044 C 
ENDBRANCH   1   3
BRANCH   2   7
ATOM      7  C   UNL     1     112.534 110.171 110.990  1.00  0.00    -0.001 C 
ATOM      8  C   UNL     1     112.973 111.099 110.120  1.00  0.00    -0.076 C 
ATOM      9  C   UNL     1     113.144 112.545 110.512  1.00  0.00     0.039 C 
ATOM     10  C   UNL     1     113.298 110.670 108.715  1.00  0.00     0.039 C 
ENDBRANCH   2   7
TORSDOF 2
ENDMDL
MODEL 9
REMARK VINA RESULT:    -4.819      3.469      6.386
REMARK INTER + INTRA:          -5.658
REMARK INTER:                  -5.418
REMARK INTRA:                  -0.240
REMARK UNBOUND:                -0.275
REMARK SMILES CC=C(C)C=CC=C(C)C
REMARK SMILES IDX 5 1 6 2 3 3 1 4 2 5 4 6 7 7 8 8 9 9 10 10
REMARK H PARENT
REMARK Flexibility Score: inf
ROOT
ATOM      1  C   UNL     1     109.957 112.102 114.533  1.00  0.00     0.003 C 
ATOM      2  C   UNL     1     109.113 112.024 113.496  1.00  0.00     0.000 C 
ENDROOT
BRANCH   1   3
ATOM      3  C   UNL     1     109.600 111.680 115.913  1.00  0.00    -0.055 C 
ATOM      4  C   UNL     1     109.501 112.276 118.354  1.00  0.00     0.036 C 
ATOM      5  C   UNL     1     109.763 112.574 116.908  1.00  0.00    -0.027 C 
ATOM      6  C   UNL     1     109.133 110.267 116.185  1.00  0.00     0.044 C 
ENDBRANCH   1   3
BRANCH   2   7
ATOM      7  C   UNL     1     109.535 112.454 112.146  1.00  0.00    -0.001 C 
ATOM      8  C   UNL     1     109.564 111.640 111.075  1.00  0.00    -0.076 C 
ATOM      9  C   UNL     1     109.160 110.191 111.161  1.00  0.00     0.039 C 
ATOM     10  C   UNL     1     110.015 112.207 109.755  1.00  0.00     0.039 C 
ENDBRANCH   2   7
TORSDOF 2
ENDMDL
