MODEL 1
REMARK VINA RESULT:     9.360      0.000      0.000
REMARK INTER + INTRA:          20.334
REMARK INTER:                  21.398
REMARK INTRA:                  -1.064
REMARK UNBOUND:                -1.064
REMARK SMILES CCCCCCCCCCCCCCCCCCCCCCCC(=O)[O-]
REMARK SMILES IDX 13 1 14 2 15 3 16 4 17 5 18 6 19 7 20 8 21 9 22 10 23 11
REMARK SMILES IDX 24 12 25 13 26 14 12 15 11 16 10 17 9 18 8 19 7 20 6 21 5 22
REMARK SMILES IDX 4 23 3 24 2 25 1 26
REMARK H PARENT
REMARK Flexibility Score: inf
ROOT
ATOM      1  C   UNL     1      10.087   2.086 -14.410  1.00  0.00     0.000 C 
ENDROOT
BRANCH   1   2
ATOM      2  C   UNL     1       9.765   0.819 -13.596  1.00  0.00     0.000 C 
BRANCH   2   3
ATOM      3  C   UNL     1       8.465   0.925 -12.768  1.00  0.00     0.000 C 
BRANCH   3   4
ATOM      4  C   UNL     1       7.295   1.501 -13.584  1.00  0.00     0.000 C 
BRANCH   4   5
ATOM      5  C   UNL     1       5.925   1.034 -13.064  1.00  0.00     0.000 C 
BRANCH   5   6
ATOM      6  C   UNL     1       4.776   1.404 -14.019  1.00  0.00     0.000 C 
BRANCH   6   7
ATOM      7  C   UNL     1       3.397   1.000 -13.471  1.00  0.00     0.000 C 
BRANCH   7   8
ATOM      8  C   UNL     1       2.515   0.314 -14.525  1.00  0.00     0.000 C 
BRANCH   8   9
ATOM      9  C   UNL     1       1.028   0.590 -14.257  1.00  0.00     0.000 C 
BRANCH   9  10
ATOM     10  C   UNL     1       0.118   0.105 -15.397  1.00  0.00     0.006 C 
BRANCH  10  11
ATOM     11  C   UNL     1       0.909  -0.351 -16.631  1.00  0.00     0.053 C 
BRANCH  11  12
ATOM     12  C   UNL     1       0.415  -1.681 -17.106  1.00  0.00     0.041 C 
ATOM     13  O   UNL     1       0.448  -1.968 -18.331  1.00  0.00    -0.550 OA
ATOM     14  O   UNL     1      -0.125  -2.586 -16.201  1.00  0.00    -0.550 OA
ENDBRANCH  11  12
ENDBRANCH  10  11
ENDBRANCH   9  10
ENDBRANCH   8   9
ENDBRANCH   7   8
ENDBRANCH   6   7
ENDBRANCH   5   6
ENDBRANCH   4   5
ENDBRANCH   3   4
ENDBRANCH   2   3
ENDBRANCH   1   2
BRANCH   1  15
ATOM     15  C   UNL     1      11.483   2.100 -15.061  1.00  0.00     0.000 C 
BRANCH  15  16
ATOM     16  C   UNL     1      11.500   1.823 -16.578  1.00  0.00     0.000 C 
BRANCH  16  17
ATOM     17  C   UNL     1      12.864   1.388 -17.150  1.00  0.00     0.000 C 
BRANCH  17  18
ATOM     18  C   UNL     1      13.024  -0.129 -17.368  1.00  0.00    -0.000 C 
BRANCH  18  19
ATOM     19  C   UNL     1      12.140  -1.017 -16.470  1.00  0.00    -0.000 C 
BRANCH  19  20
ATOM     20  C   UNL     1      11.347  -2.109 -17.211  1.00  0.00    -0.000 C 
BRANCH  20  21
ATOM     21  C   UNL     1      10.877  -3.281 -16.329  1.00  0.00    -0.000 C 
BRANCH  21  22
ATOM     22  C   UNL     1      11.540  -4.631 -16.683  1.00  0.00    -0.000 C 
BRANCH  22  23
ATOM     23  C   UNL     1      11.743  -4.807 -18.197  1.00  0.00    -0.000 C 
BRANCH  23  24
ATOM     24  C   UNL     1      12.368  -6.166 -18.564  1.00  0.00    -0.000 C 
BRANCH  24  25
ATOM     25  C   UNL     1      13.904  -6.163 -18.669  1.00  0.00    -0.003 C 
ATOM     26  C   UNL     1      14.567  -7.210 -17.775  1.00  0.00     0.004 C 
ENDBRANCH  24  25
ENDBRANCH  23  24
ENDBRANCH  22  23
ENDBRANCH  21  22
ENDBRANCH  20  21
ENDBRANCH  19  20
ENDBRANCH  18  19
ENDBRANCH  17  18
ENDBRANCH  16  17
ENDBRANCH  15  16
ENDBRANCH   1  15
TORSDOF 22
ENDMDL
MODEL 2
REMARK VINA RESULT:     9.659      4.206     10.530
REMARK INTER + INTRA:          21.017
REMARK INTER:                  21.612
REMARK INTRA:                  -0.595
REMARK UNBOUND:                -1.064
REMARK SMILES CCCCCCCCCCCCCCCCCCCCCCCC(=O)[O-]
REMARK SMILES IDX 13 1 14 2 15 3 16 4 17 5 18 6 19 7 20 8 21 9 22 10 23 11
REMARK SMILES IDX 24 12 25 13 26 14 12 15 11 16 10 17 9 18 8 19 7 20 6 21 5 22
REMARK SMILES IDX 4 23 3 24 2 25 1 26
REMARK H PARENT
REMARK Flexibility Score: inf
ROOT
ATOM      1  C   UNL     1      10.403   1.990 -13.874  1.00  0.00     0.000 C 
ENDROOT
BRANCH   1   2
ATOM      2  C   UNL     1      10.775   1.355 -15.227  1.00  0.00     0.000 C 
BRANCH   2   3
ATOM      3  C   UNL     1      11.910   2.092 -15.970  1.00  0.00     0.000 C 
BRANCH   3   4
ATOM      4  C   UNL     1      12.974   1.127 -16.523  1.00  0.00     0.000 C 
BRANCH   4   5
ATOM      5  C   UNL     1      12.357  -0.045 -17.307  1.00  0.00     0.000 C 
BRANCH   5   6
ATOM      6  C   UNL     1      12.088  -1.271 -16.417  1.00  0.00     0.000 C 
BRANCH   6   7
ATOM      7  C   UNL     1      11.457  -2.439 -17.192  1.00  0.00     0.000 C 
BRANCH   7   8
ATOM      8  C   UNL     1      10.816  -3.488 -16.272  1.00  0.00     0.000 C 
BRANCH   8   9
ATOM      9  C   UNL     1      11.279  -4.904 -16.650  1.00  0.00     0.000 C 
BRANCH   9  10
ATOM     10  C   UNL     1      12.047  -4.942 -17.980  1.00  0.00     0.006 C 
BRANCH  10  11
ATOM     11  C   UNL     1      12.412  -6.368 -18.412  1.00  0.00     0.053 C 
BRANCH  11  12
ATOM     12  C   UNL     1      13.897  -6.520 -18.516  1.00  0.00     0.041 C 
ATOM     13  O   UNL     1      14.585  -5.640 -19.095  1.00  0.00    -0.550 OA
ATOM     14  O   UNL     1      14.515  -7.658 -18.012  1.00  0.00    -0.550 OA
ENDBRANCH  11  12
ENDBRANCH  10  11
ENDBRANCH   9  10
ENDBRANCH   8   9
ENDBRANCH   7   8
ENDBRANCH   6   7
ENDBRANCH   5   6
ENDBRANCH   4   5
ENDBRANCH   3   4
ENDBRANCH   2   3
ENDBRANCH   1   2
BRANCH   1  15
ATOM     15  C   UNL     1       9.361   1.206 -13.054  1.00  0.00     0.000 C 
BRANCH  15  16
ATOM     16  C   UNL     1       8.000   1.003 -13.750  1.00  0.00     0.000 C 
BRANCH  16  17
ATOM     17  C   UNL     1       6.788   1.591 -13.001  1.00  0.00     0.000 C 
BRANCH  17  18
ATOM     18  C   UNL     1       5.513   1.756 -13.852  1.00  0.00    -0.000 C 
BRANCH  18  19
ATOM     19  C   UNL     1       4.308   0.909 -13.397  1.00  0.00    -0.000 C 
BRANCH  19  20
ATOM     20  C   UNL     1       2.997   1.181 -14.156  1.00  0.00    -0.000 C 
BRANCH  20  21
ATOM     21  C   UNL     1       1.746   0.513 -13.553  1.00  0.00    -0.000 C 
BRANCH  21  22
ATOM     22  C   UNL     1       0.434   0.879 -14.280  1.00  0.00    -0.000 C 
BRANCH  22  23
ATOM     23  C   UNL     1      -0.096  -0.271 -15.153  1.00  0.00    -0.000 C 
BRANCH  23  24
ATOM     24  C   UNL     1       0.832  -0.602 -16.336  1.00  0.00    -0.000 C 
BRANCH  24  25
ATOM     25  C   UNL     1       0.665  -2.020 -16.912  1.00  0.00    -0.003 C 
ATOM     26  C   UNL     1       0.050  -2.029 -18.311  1.00  0.00     0.004 C 
ENDBRANCH  24  25
ENDBRANCH  23  24
ENDBRANCH  22  23
ENDBRANCH  21  22
ENDBRANCH  20  21
ENDBRANCH  19  20
ENDBRANCH  18  19
ENDBRANCH  17  18
ENDBRANCH  16  17
ENDBRANCH  15  16
ENDBRANCH   1  15
TORSDOF 22
ENDMDL
MODEL 3
REMARK VINA RESULT:     9.958      4.360     10.447
REMARK INTER + INTRA:          21.701
REMARK INTER:                  21.833
REMARK INTRA:                  -0.132
REMARK UNBOUND:                -1.064
REMARK SMILES CCCCCCCCCCCCCCCCCCCCCCCC(=O)[O-]
REMARK SMILES IDX 13 1 14 2 15 3 16 4 17 5 18 6 19 7 20 8 21 9 22 10 23 11
REMARK SMILES IDX 24 12 25 13 26 14 12 15 11 16 10 17 9 18 8 19 7 20 6 21 5 22
REMARK SMILES IDX 4 23 3 24 2 25 1 26
REMARK H PARENT
REMARK Flexibility Score: inf
ROOT
ATOM      1  C   UNL     1      11.165   1.552 -15.690  1.00  0.00     0.000 C 
ENDROOT
BRANCH   1   2
ATOM      2  C   UNL     1      12.468   2.318 -15.984  1.00  0.00     0.000 C 
BRANCH   2   3
ATOM      3  C   UNL     1      13.432   1.566 -16.929  1.00  0.00     0.000 C 
BRANCH   3   4
ATOM      4  C   UNL     1      12.756   0.374 -17.628  1.00  0.00     0.000 C 
BRANCH   4   5
ATOM      5  C   UNL     1      12.350  -0.737 -16.644  1.00  0.00     0.000 C 
BRANCH   5   6
ATOM      6  C   UNL     1      11.463  -1.810 -17.301  1.00  0.00     0.000 C 
BRANCH   6   7
ATOM      7  C   UNL     1      10.714  -2.671 -16.271  1.00  0.00     0.000 C 
BRANCH   7   8
ATOM      8  C   UNL     1      11.196  -4.129 -16.251  1.00  0.00     0.000 C 
BRANCH   8   9
ATOM      9  C   UNL     1      11.407  -4.656 -17.678  1.00  0.00     0.000 C 
BRANCH   9  10
ATOM     10  C   UNL     1      12.229  -5.954 -17.717  1.00  0.00     0.006 C 
BRANCH  10  11
ATOM     11  C   UNL     1      13.009  -6.121 -19.028  1.00  0.00     0.053 C 
BRANCH  11  12
ATOM     12  C   UNL     1      14.412  -6.562 -18.749  1.00  0.00     0.041 C 
ATOM     13  O   UNL     1      15.382  -5.952 -19.268  1.00  0.00    -0.550 OA
ATOM     14  O   UNL     1      14.644  -7.676 -17.951  1.00  0.00    -0.550 OA
ENDBRANCH  11  12
ENDBRANCH  10  11
ENDBRANCH   9  10
ENDBRANCH   8   9
ENDBRANCH   7   8
ENDBRANCH   6   7
ENDBRANCH   5   6
ENDBRANCH   4   5
ENDBRANCH   3   4
ENDBRANCH   2   3
ENDBRANCH   1   2
BRANCH   1  15
ATOM     15  C   UNL     1      10.926   1.225 -14.204  1.00  0.00     0.000 C 
BRANCH  15  16
ATOM     16  C   UNL     1       9.667   1.869 -13.588  1.00  0.00     0.000 C 
BRANCH  16  17
ATOM     17  C   UNL     1       8.625   0.874 -13.038  1.00  0.00     0.000 C 
BRANCH  17  18
ATOM     18  C   UNL     1       7.260   1.493 -12.680  1.00  0.00    -0.000 C 
BRANCH  18  19
ATOM     19  C   UNL     1       6.195   1.416 -13.792  1.00  0.00    -0.000 C 
BRANCH  19  20
ATOM     20  C   UNL     1       4.736   1.468 -13.302  1.00  0.00    -0.000 C 
BRANCH  20  21
ATOM     21  C   UNL     1       3.692   0.967 -14.318  1.00  0.00    -0.000 C 
BRANCH  21  22
ATOM     22  C   UNL     1       2.393   0.442 -13.666  1.00  0.00    -0.000 C 
BRANCH  22  23
ATOM     23  C   UNL     1       1.129   0.966 -14.369  1.00  0.00    -0.000 C 
BRANCH  23  24
ATOM     24  C   UNL     1       0.354  -0.138 -15.111  1.00  0.00    -0.000 C 
BRANCH  24  25
ATOM     25  C   UNL     1       0.800  -0.376 -16.565  1.00  0.00    -0.003 C 
ATOM     26  C   UNL     1       0.734  -1.846 -16.978  1.00  0.00     0.004 C 
ENDBRANCH  24  25
ENDBRANCH  23  24
ENDBRANCH  22  23
ENDBRANCH  21  22
ENDBRANCH  20  21
ENDBRANCH  19  20
ENDBRANCH  18  19
ENDBRANCH  17  18
ENDBRANCH  16  17
ENDBRANCH  15  16
ENDBRANCH   1  15
TORSDOF 22
ENDMDL
MODEL 4
REMARK VINA RESULT:    10.000      0.863      1.267
REMARK INTER + INTRA:          21.797
REMARK INTER:                  22.715
REMARK INTRA:                  -0.918
REMARK UNBOUND:                -1.064
REMARK SMILES CCCCCCCCCCCCCCCCCCCCCCCC(=O)[O-]
REMARK SMILES IDX 13 1 14 2 15 3 16 4 17 5 18 6 19 7 20 8 21 9 22 10 23 11
REMARK SMILES IDX 24 12 25 13 26 14 12 15 11 16 10 17 9 18 8 19 7 20 6 21 5 22
REMARK SMILES IDX 4 23 3 24 2 25 1 26
REMARK H PARENT
REMARK Flexibility Score: inf
ROOT
ATOM      1  C   UNL     1      10.510   2.023 -15.013  1.00  0.00     0.000 C 
ENDROOT
BRANCH   1   2
ATOM      2  C   UNL     1      10.547   1.201 -13.711  1.00  0.00     0.000 C 
BRANCH   2   3
ATOM      3  C   UNL     1       9.149   0.809 -13.183  1.00  0.00     0.000 C 
BRANCH   3   4
ATOM      4  C   UNL     1       8.024   1.630 -13.837  1.00  0.00     0.000 C 
BRANCH   4   5
ATOM      5  C   UNL     1       6.640   1.316 -13.241  1.00  0.00     0.000 C 
BRANCH   5   6
ATOM      6  C   UNL     1       5.490   1.727 -14.176  1.00  0.00     0.000 C 
BRANCH   6   7
ATOM      7  C   UNL     1       4.141   1.832 -13.446  1.00  0.00     0.000 C 
BRANCH   7   8
ATOM      8  C   UNL     1       3.376   0.500 -13.414  1.00  0.00     0.000 C 
BRANCH   8   9
ATOM      9  C   UNL     1       2.375   0.416 -14.576  1.00  0.00     0.000 C 
BRANCH   9  10
ATOM     10  C   UNL     1       0.947   0.804 -14.159  1.00  0.00     0.006 C 
BRANCH  10  11
ATOM     11  C   UNL     1      -0.124  -0.046 -14.854  1.00  0.00     0.053 C 
BRANCH  11  12
ATOM     12  C   UNL     1       0.359  -0.501 -16.196  1.00  0.00     0.041 C 
ATOM     13  O   UNL     1       0.341   0.288 -17.176  1.00  0.00    -0.550 OA
ATOM     14  O   UNL     1       0.786  -1.811 -16.373  1.00  0.00    -0.550 OA
ENDBRANCH  11  12
ENDBRANCH  10  11
ENDBRANCH   9  10
ENDBRANCH   8   9
ENDBRANCH   7   8
ENDBRANCH   6   7
ENDBRANCH   5   6
ENDBRANCH   4   5
ENDBRANCH   3   4
ENDBRANCH   2   3
ENDBRANCH   1   2
BRANCH   1  15
ATOM     15  C   UNL     1      11.889   2.310 -15.638  1.00  0.00     0.000 C 
BRANCH  15  16
ATOM     16  C   UNL     1      12.157   1.602 -16.982  1.00  0.00     0.000 C 
BRANCH  16  17
ATOM     17  C   UNL     1      13.040   0.341 -16.893  1.00  0.00     0.000 C 
BRANCH  17  18
ATOM     18  C   UNL     1      12.378  -0.871 -16.210  1.00  0.00    -0.000 C 
BRANCH  18  19
ATOM     19  C   UNL     1      11.547  -1.774 -17.143  1.00  0.00    -0.000 C 
BRANCH  19  20
ATOM     20  C   UNL     1      10.851  -2.961 -16.451  1.00  0.00    -0.000 C 
BRANCH  20  21
ATOM     21  C   UNL     1      10.863  -4.277 -17.251  1.00  0.00    -0.000 C 
BRANCH  21  22
ATOM     22  C   UNL     1      12.208  -5.033 -17.185  1.00  0.00    -0.000 C 
BRANCH  22  23
ATOM     23  C   UNL     1      12.352  -6.078 -18.304  1.00  0.00    -0.000 C 
BRANCH  23  24
ATOM     24  C   UNL     1      13.565  -5.817 -19.216  1.00  0.00    -0.000 C 
BRANCH  24  25
ATOM     25  C   UNL     1      14.789  -6.707 -18.935  1.00  0.00    -0.003 C 
ATOM     26  C   UNL     1      14.686  -7.463 -17.610  1.00  0.00     0.004 C 
ENDBRANCH  24  25
ENDBRANCH  23  24
ENDBRANCH  22  23
ENDBRANCH  21  22
ENDBRANCH  20  21
ENDBRANCH  19  20
ENDBRANCH  18  19
ENDBRANCH  17  18
ENDBRANCH  16  17
ENDBRANCH  15  16
ENDBRANCH   1  15
TORSDOF 22
ENDMDL
MODEL 5
REMARK VINA RESULT:    10.586      1.012      2.046
REMARK INTER + INTRA:          23.137
REMARK INTER:                  23.850
REMARK INTRA:                  -0.714
REMARK UNBOUND:                -1.064
REMARK SMILES CCCCCCCCCCCCCCCCCCCCCCCC(=O)[O-]
REMARK SMILES IDX 13 1 14 2 15 3 16 4 17 5 18 6 19 7 20 8 21 9 22 10 23 11
REMARK SMILES IDX 24 12 25 13 26 14 12 15 11 16 10 17 9 18 8 19 7 20 6 21 5 22
REMARK SMILES IDX 4 23 3 24 2 25 1 26
REMARK H PARENT
REMARK Flexibility Score: inf
ROOT
ATOM      1  C   UNL     1      10.345   1.885 -13.800  1.00  0.00     0.000 C 
ENDROOT
BRANCH   1   2
ATOM      2  C   UNL     1       9.610   0.647 -13.254  1.00  0.00     0.000 C 
BRANCH   2   3
ATOM      3  C   UNL     1       8.297   0.979 -12.513  1.00  0.00     0.000 C 
BRANCH   3   4
ATOM      4  C   UNL     1       7.188   1.453 -13.469  1.00  0.00     0.000 C 
BRANCH   4   5
ATOM      5  C   UNL     1       5.777   1.197 -12.911  1.00  0.00     0.000 C 
BRANCH   5   6
ATOM      6  C   UNL     1       4.687   1.320 -13.990  1.00  0.00     0.000 C 
BRANCH   6   7
ATOM      7  C   UNL     1       3.273   1.084 -13.433  1.00  0.00     0.000 C 
BRANCH   7   8
ATOM      8  C   UNL     1       2.345   0.386 -14.439  1.00  0.00     0.000 C 
BRANCH   8   9
ATOM      9  C   UNL     1       0.873   0.551 -14.030  1.00  0.00     0.000 C 
BRANCH   9  10
ATOM     10  C   UNL     1      -0.100   0.234 -15.177  1.00  0.00     0.006 C 
BRANCH  10  11
ATOM     11  C   UNL     1       0.144  -1.149 -15.794  1.00  0.00     0.053 C 
BRANCH  11  12
ATOM     12  C   UNL     1       0.231  -1.048 -17.285  1.00  0.00     0.041 C 
ATOM     13  O   UNL     1       0.115   0.069 -17.852  1.00  0.00    -0.550 OA
ATOM     14  O   UNL     1       0.395  -2.196 -18.051  1.00  0.00    -0.550 OA
ENDBRANCH  11  12
ENDBRANCH  10  11
ENDBRANCH   9  10
ENDBRANCH   8   9
ENDBRANCH   7   8
ENDBRANCH   6   7
ENDBRANCH   5   6
ENDBRANCH   4   5
ENDBRANCH   3   4
ENDBRANCH   2   3
ENDBRANCH   1   2
BRANCH   1  15
ATOM     15  C   UNL     1      10.756   1.795 -15.282  1.00  0.00     0.000 C 
BRANCH  15  16
ATOM     16  C   UNL     1      11.938   2.698 -15.689  1.00  0.00     0.000 C 
BRANCH  16  17
ATOM     17  C   UNL     1      12.523   2.421 -17.088  1.00  0.00     0.000 C 
BRANCH  17  18
ATOM     18  C   UNL     1      14.049   2.210 -17.126  1.00  0.00    -0.000 C 
BRANCH  18  19
ATOM     19  C   UNL     1      14.522   1.009 -17.969  1.00  0.00    -0.000 C 
BRANCH  19  20
ATOM     20  C   UNL     1      14.010  -0.363 -17.493  1.00  0.00    -0.000 C 
BRANCH  20  21
ATOM     21  C   UNL     1      12.477  -0.514 -17.478  1.00  0.00    -0.000 C 
BRANCH  21  22
ATOM     22  C   UNL     1      11.933  -1.207 -16.209  1.00  0.00    -0.000 C 
BRANCH  22  23
ATOM     23  C   UNL     1      10.888  -2.289 -16.531  1.00  0.00    -0.000 C 
BRANCH  23  24
ATOM     24  C   UNL     1      11.455  -3.717 -16.440  1.00  0.00    -0.000 C 
BRANCH  24  25
ATOM     25  C   UNL     1      11.076  -4.639 -17.613  1.00  0.00    -0.003 C 
ATOM     26  C   UNL     1      12.207  -5.580 -18.024  1.00  0.00     0.004 C 
ENDBRANCH  24  25
ENDBRANCH  23  24
ENDBRANCH  22  23
ENDBRANCH  21  22
ENDBRANCH  20  21
ENDBRANCH  19  20
ENDBRANCH  18  19
ENDBRANCH  17  18
ENDBRANCH  16  17
ENDBRANCH  15  16
ENDBRANCH   1  15
TORSDOF 22
ENDMDL
MODEL 6
REMARK VINA RESULT:    11.818      1.599      2.961
REMARK INTER + INTRA:          25.953
REMARK INTER:                  26.402
REMARK INTRA:                  -0.448
REMARK UNBOUND:                -1.064
REMARK SMILES CCCCCCCCCCCCCCCCCCCCCCCC(=O)[O-]
REMARK SMILES IDX 13 1 14 2 15 3 16 4 17 5 18 6 19 7 20 8 21 9 22 10 23 11
REMARK SMILES IDX 24 12 25 13 26 14 12 15 11 16 10 17 9 18 8 19 7 20 6 21 5 22
REMARK SMILES IDX 4 23 3 24 2 25 1 26
REMARK H PARENT
REMARK Flexibility Score: inf
ROOT
ATOM      1  C   UNL     1       9.623   0.703 -13.383  1.00  0.00     0.000 C 
ENDROOT
BRANCH   1   2
ATOM      2  C   UNL     1       8.223   0.895 -12.770  1.00  0.00     0.000 C 
BRANCH   2   3
ATOM      3  C   UNL     1       7.159   1.368 -13.784  1.00  0.00     0.000 C 
BRANCH   3   4
ATOM      4  C   UNL     1       5.809   1.679 -13.115  1.00  0.00     0.000 C 
BRANCH   4   5
ATOM      5  C   UNL     1       4.668   1.845 -14.134  1.00  0.00     0.000 C 
BRANCH   5   6
ATOM      6  C   UNL     1       3.716   0.637 -14.152  1.00  0.00     0.000 C 
BRANCH   6   7
ATOM      7  C   UNL     1       2.465   0.855 -13.286  1.00  0.00     0.000 C 
BRANCH   7   8
ATOM      8  C   UNL     1       1.274   1.404 -14.086  1.00  0.00     0.000 C 
BRANCH   8   9
ATOM      9  C   UNL     1       0.222   0.309 -14.321  1.00  0.00     0.000 C 
BRANCH   9  10
ATOM     10  C   UNL     1      -0.125   0.129 -15.808  1.00  0.00     0.006 C 
BRANCH  10  11
ATOM     11  C   UNL     1       0.981  -0.591 -16.590  1.00  0.00     0.053 C 
BRANCH  11  12
ATOM     12  C   UNL     1       0.435  -1.810 -17.264  1.00  0.00     0.041 C 
ATOM     13  O   UNL     1       0.224  -1.807 -18.505  1.00  0.00    -0.550 OA
ATOM     14  O   UNL     1       0.117  -2.935 -16.513  1.00  0.00    -0.550 OA
ENDBRANCH  11  12
ENDBRANCH  10  11
ENDBRANCH   9  10
ENDBRANCH   8   9
ENDBRANCH   7   8
ENDBRANCH   6   7
ENDBRANCH   5   6
ENDBRANCH   4   5
ENDBRANCH   3   4
ENDBRANCH   2   3
ENDBRANCH   1   2
BRANCH   1  15
ATOM     15  C   UNL     1      10.363   2.009 -13.732  1.00  0.00     0.000 C 
BRANCH  15  16
ATOM     16  C   UNL     1      10.656   2.213 -15.232  1.00  0.00     0.000 C 
BRANCH  16  17
ATOM     17  C   UNL     1      12.051   2.784 -15.556  1.00  0.00     0.000 C 
BRANCH  17  18
ATOM     18  C   UNL     1      12.625   2.364 -16.923  1.00  0.00    -0.000 C 
BRANCH  18  19
ATOM     19  C   UNL     1      14.152   2.521 -17.067  1.00  0.00    -0.000 C 
BRANCH  19  20
ATOM     20  C   UNL     1      14.931   1.203 -17.228  1.00  0.00    -0.000 C 
BRANCH  20  21
ATOM     21  C   UNL     1      14.438   0.293 -18.370  1.00  0.00    -0.000 C 
BRANCH  21  22
ATOM     22  C   UNL     1      13.541  -0.871 -17.894  1.00  0.00    -0.000 C 
BRANCH  22  23
ATOM     23  C   UNL     1      12.441  -0.407 -16.924  1.00  0.00    -0.000 C 
BRANCH  23  24
ATOM     24  C   UNL     1      11.828  -1.565 -16.114  1.00  0.00    -0.000 C 
BRANCH  24  25
ATOM     25  C   UNL     1      10.888  -2.486 -16.913  1.00  0.00    -0.003 C 
ATOM     26  C   UNL     1      11.095  -3.968 -16.601  1.00  0.00     0.004 C 
ENDBRANCH  24  25
ENDBRANCH  23  24
ENDBRANCH  22  23
ENDBRANCH  21  22
ENDBRANCH  20  21
ENDBRANCH  19  20
ENDBRANCH  18  19
ENDBRANCH  17  18
ENDBRANCH  16  17
ENDBRANCH  15  16
ENDBRANCH   1  15
TORSDOF 22
ENDMDL
MODEL 7
REMARK VINA RESULT:    11.908      4.973     10.967
REMARK INTER + INTRA:          26.159
REMARK INTER:                  26.265
REMARK INTRA:                  -0.105
REMARK UNBOUND:                -1.064
REMARK SMILES CCCCCCCCCCCCCCCCCCCCCCCC(=O)[O-]
REMARK SMILES IDX 13 1 14 2 15 3 16 4 17 5 18 6 19 7 20 8 21 9 22 10 23 11
REMARK SMILES IDX 24 12 25 13 26 14 12 15 11 16 10 17 9 18 8 19 7 20 6 21 5 22
REMARK SMILES IDX 4 23 3 24 2 25 1 26
REMARK H PARENT
REMARK Flexibility Score: inf
ROOT
ATOM      1  C   UNL     1       4.971   1.050 -13.779  1.00  0.00     0.000 C 
ENDROOT
BRANCH   1   2
ATOM      2  C   UNL     1       6.060   1.516 -12.795  1.00  0.00     0.000 C 
BRANCH   2   3
ATOM      3  C   UNL     1       7.477   1.557 -13.409  1.00  0.00     0.000 C 
BRANCH   3   4
ATOM      4  C   UNL     1       8.527   0.890 -12.504  1.00  0.00     0.000 C 
BRANCH   4   5
ATOM      5  C   UNL     1       9.964   1.316 -12.852  1.00  0.00     0.000 C 
BRANCH   5   6
ATOM      6  C   UNL     1      10.295   1.106 -14.340  1.00  0.00     0.000 C 
BRANCH   6   7
ATOM      7  C   UNL     1      10.360   2.426 -15.125  1.00  0.00     0.000 C 
BRANCH   7   8
ATOM      8  C   UNL     1      11.558   2.491 -16.084  1.00  0.00     0.000 C 
BRANCH   8   9
ATOM      9  C   UNL     1      12.453   1.252 -15.927  1.00  0.00     0.000 C 
BRANCH   9  10
ATOM     10  C   UNL     1      12.122   0.148 -16.943  1.00  0.00     0.006 C 
BRANCH  10  11
ATOM     11  C   UNL     1      13.249  -0.076 -17.960  1.00  0.00     0.053 C 
BRANCH  11  12
ATOM     12  C   UNL     1      14.309   0.969 -17.805  1.00  0.00     0.041 C 
ATOM     13  O   UNL     1      15.421   0.672 -17.295  1.00  0.00    -0.550 OA
ATOM     14  O   UNL     1      14.051   2.281 -18.181  1.00  0.00    -0.550 OA
ENDBRANCH  11  12
ENDBRANCH  10  11
ENDBRANCH   9  10
ENDBRANCH   8   9
ENDBRANCH   7   8
ENDBRANCH   6   7
ENDBRANCH   5   6
ENDBRANCH   4   5
ENDBRANCH   3   4
ENDBRANCH   2   3
ENDBRANCH   1   2
BRANCH   1  15
ATOM     15  C   UNL     1       3.582   1.678 -13.555  1.00  0.00     0.000 C 
BRANCH  15  16
ATOM     16  C   UNL     1       2.676   0.922 -12.562  1.00  0.00     0.000 C 
BRANCH  16  17
ATOM     17  C   UNL     1       1.167   1.203 -12.707  1.00  0.00     0.000 C 
BRANCH  17  18
ATOM     18  C   UNL     1       0.483   0.491 -13.890  1.00  0.00    -0.000 C 
BRANCH  18  19
ATOM     19  C   UNL     1      -0.104   1.426 -14.966  1.00  0.00    -0.000 C 
BRANCH  19  20
ATOM     20  C   UNL     1      -0.125   0.845 -16.392  1.00  0.00    -0.000 C 
BRANCH  20  21
ATOM     21  C   UNL     1       0.807  -0.361 -16.616  1.00  0.00    -0.000 C 
BRANCH  21  22
ATOM     22  C   UNL     1       0.186  -1.713 -16.202  1.00  0.00    -0.000 C 
BRANCH  22  23
ATOM     23  C   UNL     1      -0.023  -2.656 -17.400  1.00  0.00    -0.000 C 
BRANCH  23  24
ATOM     24  C   UNL     1       0.045  -1.928 -18.755  1.00  0.00    -0.000 C 
BRANCH  24  25
ATOM     25  C   UNL     1       0.378  -2.830 -19.957  1.00  0.00    -0.003 C 
ATOM     26  C   UNL     1      -0.117  -2.263 -21.287  1.00  0.00     0.004 C 
ENDBRANCH  24  25
ENDBRANCH  23  24
ENDBRANCH  22  23
ENDBRANCH  21  22
ENDBRANCH  20  21
ENDBRANCH  19  20
ENDBRANCH  18  19
ENDBRANCH  17  18
ENDBRANCH  16  17
ENDBRANCH  15  16
ENDBRANCH   1  15
TORSDOF 22
ENDMDL
