MODEL 1
REMARK VINA RESULT:    -4.215      0.000      0.000
REMARK INTER + INTRA:          -4.560
REMARK INTER:                  -4.461
REMARK INTRA:                  -0.099
REMARK UNBOUND:                -0.099
REMARK SMILES C=C(C)[C@H]1CC=C(C)C(=O)C1
REMARK SMILES IDX 8 1 7 2 6 3 5 4 4 5 11 6 9 7 10 8 2 9 1 10 3 11
REMARK H PARENT
REMARK Flexibility Score: inf
ROOT
ATOM      1  C   UNL     1       3.453  -1.508  13.618  1.00  0.00     0.048 C 
ATOM      2  C   UNL     1       2.756  -2.085  14.818  1.00  0.00    -0.012 C 
ATOM      3  C   UNL     1       1.414  -2.055  14.890  1.00  0.00    -0.019 C 
ATOM      4  C   UNL     1       0.666  -2.602  16.077  1.00  0.00     0.036 C 
ATOM      5  C   UNL     1       1.409  -3.802  16.696  1.00  0.00     0.025 C 
ATOM      6  C   UNL     1       2.855  -3.411  17.048  1.00  0.00     0.089 C 
ATOM      7  C   UNL     1       3.540  -2.793  15.859  1.00  0.00     0.158 C 
ATOM      8  O   UNL     1       4.796  -2.854  15.776  1.00  0.00    -0.295 OA
ENDROOT
BRANCH   5   9
ATOM      9  C   UNL     1       0.669  -4.349  17.909  1.00  0.00    -0.077 C 
ATOM     10  C   UNL     1       1.342  -4.632  19.037  1.00  0.00     0.008 C 
ATOM     11  C   UNL     1      -0.821  -4.584  17.881  1.00  0.00     0.039 C 
ENDBRANCH   5   9
TORSDOF 1
ENDMDL
MODEL 2
REMARK VINA RESULT:    -4.188      0.204      1.057
REMARK INTER + INTRA:          -4.532
REMARK INTER:                  -4.436
REMARK INTRA:                  -0.096
REMARK UNBOUND:                -0.099
REMARK SMILES C=C(C)[C@H]1CC=C(C)C(=O)C1
REMARK SMILES IDX 8 1 7 2 6 3 5 4 4 5 11 6 9 7 10 8 2 9 1 10 3 11
REMARK H PARENT
REMARK Flexibility Score: inf
ROOT
ATOM      1  C   UNL     1       3.615  -1.633  13.717  1.00  0.00     0.048 C 
ATOM      2  C   UNL     1       2.886  -2.183  14.912  1.00  0.00    -0.012 C 
ATOM      3  C   UNL     1       1.543  -2.155  14.947  1.00  0.00    -0.019 C 
ATOM      4  C   UNL     1       0.764  -2.676  16.126  1.00  0.00     0.036 C 
ATOM      5  C   UNL     1       1.492  -3.858  16.794  1.00  0.00     0.025 C 
ATOM      6  C   UNL     1       2.928  -3.455  17.175  1.00  0.00     0.089 C 
ATOM      7  C   UNL     1       3.644  -2.864  15.991  1.00  0.00     0.158 C 
ATOM      8  O   UNL     1       4.902  -2.922  15.943  1.00  0.00    -0.295 OA
ENDROOT
BRANCH   5   9
ATOM      9  C   UNL     1       0.722  -4.379  17.998  1.00  0.00    -0.077 C 
ATOM     10  C   UNL     1      -0.621  -4.400  17.981  1.00  0.00     0.008 C 
ATOM     11  C   UNL     1       1.434  -4.883  19.230  1.00  0.00     0.039 C 
ENDBRANCH   5   9
TORSDOF 1
ENDMDL
MODEL 3
REMARK VINA RESULT:    -4.037      8.355      9.285
REMARK INTER + INTRA:          -4.372
REMARK INTER:                  -4.281
REMARK INTRA:                  -0.090
REMARK UNBOUND:                -0.099
REMARK SMILES C=C(C)[C@H]1CC=C(C)C(=O)C1
REMARK SMILES IDX 8 1 7 2 6 3 5 4 4 5 11 6 9 7 10 8 2 9 1 10 3 11
REMARK H PARENT
REMARK Flexibility Score: inf
ROOT
ATOM      1  C   UNL     1       1.011   4.477  22.014  1.00  0.00     0.048 C 
ATOM      2  C   UNL     1       1.589   3.275  22.710  1.00  0.00    -0.012 C 
ATOM      3  C   UNL     1       2.639   3.422  23.535  1.00  0.00    -0.019 C 
ATOM      4  C   UNL     1       3.267   2.250  24.243  1.00  0.00     0.036 C 
ATOM      5  C   UNL     1       2.216   1.173  24.574  1.00  0.00     0.025 C 
ATOM      6  C   UNL     1       1.465   0.750  23.299  1.00  0.00     0.089 C 
ATOM      7  C   UNL     1       0.924   1.955  22.579  1.00  0.00     0.158 C 
ATOM      8  O   UNL     1      -0.083   1.823  21.832  1.00  0.00    -0.295 OA
ENDROOT
BRANCH   5   9
ATOM      9  C   UNL     1       2.846  -0.024  25.272  1.00  0.00    -0.077 C 
ATOM     10  C   UNL     1       2.132  -0.742  26.154  1.00  0.00     0.008 C 
ATOM     11  C   UNL     1       4.272  -0.435  24.996  1.00  0.00     0.039 C 
ENDBRANCH   5   9
TORSDOF 1
ENDMDL
MODEL 4
REMARK VINA RESULT:    -3.994      1.281      1.518
REMARK INTER + INTRA:          -4.326
REMARK INTER:                  -4.227
REMARK INTRA:                  -0.099
REMARK UNBOUND:                -0.099
REMARK SMILES C=C(C)[C@H]1CC=C(C)C(=O)C1
REMARK SMILES IDX 8 1 7 2 6 3 5 4 4 5 11 6 9 7 10 8 2 9 1 10 3 11
REMARK H PARENT
REMARK Flexibility Score: inf
ROOT
ATOM      1  C   UNL     1       4.256  -2.522  15.265  1.00  0.00     0.048 C 
ATOM      2  C   UNL     1       3.084  -2.861  16.145  1.00  0.00    -0.012 C 
ATOM      3  C   UNL     1       1.838  -2.815  15.646  1.00  0.00    -0.019 C 
ATOM      4  C   UNL     1       0.629  -3.126  16.488  1.00  0.00     0.036 C 
ATOM      5  C   UNL     1       0.954  -4.189  17.555  1.00  0.00     0.025 C 
ATOM      6  C   UNL     1       2.157  -3.742  18.404  1.00  0.00     0.089 C 
ATOM      7  C   UNL     1       3.316  -3.361  17.523  1.00  0.00     0.158 C 
ATOM      8  O   UNL     1       4.487  -3.438  17.981  1.00  0.00    -0.295 OA
ENDROOT
BRANCH   5   9
ATOM      9  C   UNL     1      -0.257  -4.496  18.424  1.00  0.00    -0.077 C 
ATOM     10  C   UNL     1      -0.181  -4.361  19.758  1.00  0.00     0.008 C 
ATOM     11  C   UNL     1      -1.563  -4.951  17.820  1.00  0.00     0.039 C 
ENDBRANCH   5   9
TORSDOF 1
ENDMDL
MODEL 5
REMARK VINA RESULT:    -3.955      2.102      2.548
REMARK INTER + INTRA:          -4.285
REMARK INTER:                  -4.187
REMARK INTRA:                  -0.098
REMARK UNBOUND:                -0.099
REMARK SMILES C=C(C)[C@H]1CC=C(C)C(=O)C1
REMARK SMILES IDX 8 1 7 2 6 3 5 4 4 5 11 6 9 7 10 8 2 9 1 10 3 11
REMARK H PARENT
REMARK Flexibility Score: inf
ROOT
ATOM      1  C   UNL     1       2.203  -0.553  14.491  1.00  0.00     0.048 C 
ATOM      2  C   UNL     1       1.432  -1.467  15.404  1.00  0.00    -0.012 C 
ATOM      3  C   UNL     1       1.391  -2.786  15.149  1.00  0.00    -0.019 C 
ATOM      4  C   UNL     1       0.620  -3.743  16.019  1.00  0.00     0.036 C 
ATOM      5  C   UNL     1       0.616  -3.277  17.488  1.00  0.00     0.025 C 
ATOM      6  C   UNL     1       0.084  -1.837  17.590  1.00  0.00     0.089 C 
ATOM      7  C   UNL     1       0.824  -0.930  16.646  1.00  0.00     0.158 C 
ATOM      8  O   UNL     1       0.892   0.301  16.905  1.00  0.00    -0.295 OA
ENDROOT
BRANCH   5   9
ATOM      9  C   UNL     1      -0.177  -4.229  18.372  1.00  0.00    -0.077 C 
ATOM     10  C   UNL     1      -1.251  -4.869  17.879  1.00  0.00     0.008 C 
ATOM     11  C   UNL     1       0.215  -4.481  19.808  1.00  0.00     0.039 C 
ENDBRANCH   5   9
TORSDOF 1
ENDMDL
MODEL 6
REMARK VINA RESULT:    -3.905      2.392      4.913
REMARK INTER + INTRA:          -4.232
REMARK INTER:                  -4.142
REMARK INTRA:                  -0.090
REMARK UNBOUND:                -0.099
REMARK SMILES C=C(C)[C@H]1CC=C(C)C(=O)C1
REMARK SMILES IDX 8 1 7 2 6 3 5 4 4 5 11 6 9 7 10 8 2 9 1 10 3 11
REMARK H PARENT
REMARK Flexibility Score: inf
ROOT
ATOM      1  C   UNL     1      -0.248  -4.505  18.218  1.00  0.00     0.048 C 
ATOM      2  C   UNL     1       0.293  -3.427  17.320  1.00  0.00    -0.012 C 
ATOM      3  C   UNL     1       0.800  -3.751  16.118  1.00  0.00    -0.019 C 
ATOM      4  C   UNL     1       1.371  -2.713  15.187  1.00  0.00     0.036 C 
ATOM      5  C   UNL     1       0.635  -1.368  15.336  1.00  0.00     0.025 C 
ATOM      6  C   UNL     1       0.654  -0.908  16.805  1.00  0.00     0.089 C 
ATOM      7  C   UNL     1       0.154  -2.002  17.709  1.00  0.00     0.158 C 
ATOM      8  O   UNL     1      -0.354  -1.694  18.821  1.00  0.00    -0.295 OA
ENDROOT
BRANCH   5   9
ATOM      9  C   UNL     1       1.218  -0.308  14.413  1.00  0.00    -0.077 C 
ATOM     10  C   UNL     1       0.425   0.643  13.893  1.00  0.00     0.008 C 
ATOM     11  C   UNL     1       2.686  -0.293  14.061  1.00  0.00     0.039 C 
ENDBRANCH   5   9
TORSDOF 1
ENDMDL
MODEL 7
REMARK VINA RESULT:    -3.892      1.576      2.523
REMARK INTER + INTRA:          -4.218
REMARK INTER:                  -4.120
REMARK INTRA:                  -0.099
REMARK UNBOUND:                -0.099
REMARK SMILES C=C(C)[C@H]1CC=C(C)C(=O)C1
REMARK SMILES IDX 8 1 7 2 6 3 5 4 4 5 11 6 9 7 10 8 2 9 1 10 3 11
REMARK H PARENT
REMARK Flexibility Score: inf
ROOT
ATOM      1  C   UNL     1       4.176  -2.153  15.768  1.00  0.00     0.048 C 
ATOM      2  C   UNL     1       3.029  -2.859  16.437  1.00  0.00    -0.012 C 
ATOM      3  C   UNL     1       3.171  -3.325  17.690  1.00  0.00    -0.019 C 
ATOM      4  C   UNL     1       2.061  -4.055  18.399  1.00  0.00     0.036 C 
ATOM      5  C   UNL     1       0.681  -3.526  17.963  1.00  0.00     0.025 C 
ATOM      6  C   UNL     1       0.541  -3.599  16.432  1.00  0.00     0.089 C 
ATOM      7  C   UNL     1       1.710  -2.931  15.761  1.00  0.00     0.158 C 
ATOM      8  O   UNL     1       1.566  -2.463  14.600  1.00  0.00    -0.295 OA
ENDROOT
BRANCH   5   9
ATOM      9  C   UNL     1      -0.447  -4.272  18.661  1.00  0.00    -0.077 C 
ATOM     10  C   UNL     1      -1.378  -4.915  17.938  1.00  0.00     0.008 C 
ATOM     11  C   UNL     1      -0.550  -4.313  20.167  1.00  0.00     0.039 C 
ENDBRANCH   5   9
TORSDOF 1
ENDMDL
MODEL 8
REMARK VINA RESULT:    -3.864      2.253      3.740
REMARK INTER + INTRA:          -4.188
REMARK INTER:                  -4.091
REMARK INTRA:                  -0.097
REMARK UNBOUND:                -0.099
REMARK SMILES C=C(C)[C@H]1CC=C(C)C(=O)C1
REMARK SMILES IDX 8 1 7 2 6 3 5 4 4 5 11 6 9 7 10 8 2 9 1 10 3 11
REMARK H PARENT
REMARK Flexibility Score: inf
ROOT
ATOM      1  C   UNL     1       0.937  -3.636  15.787  1.00  0.00     0.048 C 
ATOM      2  C   UNL     1       0.566  -3.715  17.242  1.00  0.00    -0.012 C 
ATOM      3  C   UNL     1      -0.601  -4.274  17.604  1.00  0.00    -0.019 C 
ATOM      4  C   UNL     1      -1.030  -4.363  19.045  1.00  0.00     0.036 C 
ATOM      5  C   UNL     1       0.186  -4.530  19.977  1.00  0.00     0.025 C 
ATOM      6  C   UNL     1       1.201  -3.398  19.739  1.00  0.00     0.089 C 
ATOM      7  C   UNL     1       1.540  -3.289  18.277  1.00  0.00     0.158 C 
ATOM      8  O   UNL     1       2.650  -2.797  17.939  1.00  0.00    -0.295 OA
ENDROOT
BRANCH   5   9
ATOM      9  C   UNL     1      -0.237  -4.602  21.437  1.00  0.00    -0.077 C 
ATOM     10  C   UNL     1      -1.228  -3.817  21.891  1.00  0.00     0.008 C 
ATOM     11  C   UNL     1       0.435  -5.545  22.405  1.00  0.00     0.039 C 
ENDBRANCH   5   9
TORSDOF 1
ENDMDL
MODEL 9
REMARK VINA RESULT:    -3.724      1.221      4.379
REMARK INTER + INTRA:          -4.041
REMARK INTER:                  -3.954
REMARK INTRA:                  -0.087
REMARK UNBOUND:                -0.099
REMARK SMILES C=C(C)[C@H]1CC=C(C)C(=O)C1
REMARK SMILES IDX 8 1 7 2 6 3 5 4 4 5 11 6 9 7 10 8 2 9 1 10 3 11
REMARK H PARENT
REMARK Flexibility Score: inf
ROOT
ATOM      1  C   UNL     1       1.002  -4.494  18.240  1.00  0.00     0.048 C 
ATOM      2  C   UNL     1       1.564  -3.680  17.107  1.00  0.00    -0.012 C 
ATOM      3  C   UNL     1       0.778  -3.349  16.068  1.00  0.00    -0.019 C 
ATOM      4  C   UNL     1       1.295  -2.551  14.900  1.00  0.00     0.036 C 
ATOM      5  C   UNL     1       2.382  -1.555  15.345  1.00  0.00     0.025 C 
ATOM      6  C   UNL     1       3.509  -2.292  16.091  1.00  0.00     0.089 C 
ATOM      7  C   UNL     1       2.944  -3.142  17.197  1.00  0.00     0.158 C 
ATOM      8  O   UNL     1       3.670  -3.421  18.188  1.00  0.00    -0.295 OA
ENDROOT
BRANCH   5   9
ATOM      9  C   UNL     1       2.924  -0.758  14.167  1.00  0.00    -0.077 C 
ATOM     10  C   UNL     1       2.545   0.518  13.986  1.00  0.00     0.008 C 
ATOM     11  C   UNL     1       3.892  -1.368  13.182  1.00  0.00     0.039 C 
ENDBRANCH   5   9
TORSDOF 1
ENDMDL
