MODEL 1
REMARK VINA RESULT:    13.357      0.000      0.000
REMARK INTER + INTRA:          23.803
REMARK INTER:                  24.289
REMARK INTRA:                  -0.487
REMARK UNBOUND:                -0.487
REMARK SMILES CCCCCCCCCCCCCCCC(=O)[O-]
REMARK SMILES IDX 9 1 10 2 11 3 12 4 13 5 14 6 15 7 16 8 17 9 18 10 8 11 7 12
REMARK SMILES IDX 6 13 5 14 4 15 3 16 2 17 1 18
REMARK H PARENT
REMARK Flexibility Score: inf
ROOT
ATOM      1  C   UNL     1      -5.812 -18.272  24.484  1.00  0.00     0.000 C 
ENDROOT
BRANCH   1   2
ATOM      2  C   UNL     1      -4.558 -18.824  23.787  1.00  0.00     0.000 C 
BRANCH   2   3
ATOM      3  C   UNL     1      -4.765 -20.235  23.218  1.00  0.00     0.000 C 
BRANCH   3   4
ATOM      4  C   UNL     1      -3.647 -20.600  22.234  1.00  0.00     0.000 C 
BRANCH   4   5
ATOM      5  C   UNL     1      -2.330 -20.869  22.970  1.00  0.00     0.000 C 
BRANCH   5   6
ATOM      6  C   UNL     1      -1.369 -19.683  22.830  1.00  0.00     0.006 C 
BRANCH   6   7
ATOM      7  C   UNL     1      -0.619 -19.426  24.140  1.00  0.00     0.053 C 
BRANCH   7   8
ATOM      8  C   UNL     1      -0.667 -17.973  24.496  1.00  0.00     0.041 C 
ATOM      9  O   UNL     1      -0.037 -17.131  23.804  1.00  0.00    -0.550 OA
ATOM     10  O   UNL     1      -1.364 -17.556  25.622  1.00  0.00    -0.550 OA
ENDBRANCH   7   8
ENDBRANCH   6   7
ENDBRANCH   5   6
ENDBRANCH   4   5
ENDBRANCH   3   4
ENDBRANCH   2   3
ENDBRANCH   1   2
BRANCH   1  11
ATOM     11  C   UNL     1      -5.958 -18.783  25.928  1.00  0.00     0.000 C 
BRANCH  11  12
ATOM     12  C   UNL     1      -6.359 -17.668  26.908  1.00  0.00    -0.000 C 
BRANCH  12  13
ATOM     13  C   UNL     1      -7.740 -17.069  26.588  1.00  0.00    -0.000 C 
BRANCH  13  14
ATOM     14  C   UNL     1      -8.889 -17.843  27.253  1.00  0.00    -0.000 C 
BRANCH  14  15
ATOM     15  C   UNL     1      -9.287 -17.261  28.618  1.00  0.00    -0.000 C 
BRANCH  15  16
ATOM     16  C   UNL     1      -8.228 -17.590  29.682  1.00  0.00    -0.000 C 
BRANCH  16  17
ATOM     17  C   UNL     1      -8.801 -17.585  31.107  1.00  0.00    -0.003 C 
ATOM     18  C   UNL     1      -7.851 -16.952  32.125  1.00  0.00     0.004 C 
ENDBRANCH  16  17
ENDBRANCH  15  16
ENDBRANCH  14  15
ENDBRANCH  13  14
ENDBRANCH  12  13
ENDBRANCH  11  12
ENDBRANCH   1  11
TORSDOF 14
ENDMDL
MODEL 2
REMARK VINA RESULT:    13.502      1.621      2.533
REMARK INTER + INTRA:          24.066
REMARK INTER:                  24.825
REMARK INTRA:                  -0.758
REMARK UNBOUND:                -0.487
REMARK SMILES CCCCCCCCCCCCCCCC(=O)[O-]
REMARK SMILES IDX 9 1 10 2 11 3 12 4 13 5 14 6 15 7 16 8 17 9 18 10 8 11 7 12
REMARK SMILES IDX 6 13 5 14 4 15 3 16 2 17 1 18
REMARK H PARENT
REMARK Flexibility Score: inf
ROOT
ATOM      1  C   UNL     1      -5.904 -18.181  24.321  1.00  0.00     0.000 C 
ENDROOT
BRANCH   1   2
ATOM      2  C   UNL     1      -5.154 -18.834  23.148  1.00  0.00     0.000 C 
BRANCH   2   3
ATOM      3  C   UNL     1      -4.497 -20.169  23.530  1.00  0.00     0.000 C 
BRANCH   3   4
ATOM      4  C   UNL     1      -3.709 -20.751  22.350  1.00  0.00     0.000 C 
BRANCH   4   5
ATOM      5  C   UNL     1      -2.232 -20.941  22.713  1.00  0.00     0.000 C 
BRANCH   5   6
ATOM      6  C   UNL     1      -1.503 -19.595  22.774  1.00  0.00     0.006 C 
BRANCH   6   7
ATOM      7  C   UNL     1      -0.671 -19.477  24.054  1.00  0.00     0.053 C 
BRANCH   7   8
ATOM      8  C   UNL     1      -0.674 -18.067  24.554  1.00  0.00     0.041 C 
ATOM      9  O   UNL     1      -1.275 -17.775  25.621  1.00  0.00    -0.550 OA
ATOM     10  O   UNL     1      -0.058 -17.066  23.814  1.00  0.00    -0.550 OA
ENDBRANCH   7   8
ENDBRANCH   6   7
ENDBRANCH   5   6
ENDBRANCH   4   5
ENDBRANCH   3   4
ENDBRANCH   2   3
ENDBRANCH   1   2
BRANCH   1  11
ATOM     11  C   UNL     1      -5.515 -18.786  25.681  1.00  0.00     0.000 C 
BRANCH  11  12
ATOM     12  C   UNL     1      -6.010 -17.937  26.864  1.00  0.00    -0.000 C 
BRANCH  12  13
ATOM     13  C   UNL     1      -7.374 -17.280  26.589  1.00  0.00    -0.000 C 
BRANCH  13  14
ATOM     14  C   UNL     1      -8.335 -17.389  27.783  1.00  0.00    -0.000 C 
BRANCH  14  15
ATOM     15  C   UNL     1      -9.710 -16.766  27.499  1.00  0.00    -0.000 C 
BRANCH  15  16
ATOM     16  C   UNL     1      -9.561 -15.332  26.968  1.00  0.00    -0.000 C 
BRANCH  16  17
ATOM     17  C   UNL     1     -10.913 -14.687  26.622  1.00  0.00    -0.003 C 
ATOM     18  C   UNL     1     -10.859 -13.159  26.636  1.00  0.00     0.004 C 
ENDBRANCH  16  17
ENDBRANCH  15  16
ENDBRANCH  14  15
ENDBRANCH  13  14
ENDBRANCH  12  13
ENDBRANCH  11  12
ENDBRANCH   1  11
TORSDOF 14
ENDMDL
MODEL 3
REMARK VINA RESULT:    13.830      3.536      8.378
REMARK INTER + INTRA:          24.663
REMARK INTER:                  25.520
REMARK INTRA:                  -0.857
REMARK UNBOUND:                -0.487
REMARK SMILES CCCCCCCCCCCCCCCC(=O)[O-]
REMARK SMILES IDX 9 1 10 2 11 3 12 4 13 5 14 6 15 7 16 8 17 9 18 10 8 11 7 12
REMARK SMILES IDX 6 13 5 14 4 15 3 16 2 17 1 18
REMARK H PARENT
REMARK Flexibility Score: inf
ROOT
ATOM      1  C   UNL     1      -4.931 -18.256  25.003  1.00  0.00     0.000 C 
ENDROOT
BRANCH   1   2
ATOM      2  C   UNL     1      -5.909 -18.772  26.071  1.00  0.00     0.000 C 
BRANCH   2   3
ATOM      3  C   UNL     1      -6.381 -17.668  27.029  1.00  0.00     0.000 C 
BRANCH   3   4
ATOM      4  C   UNL     1      -7.777 -17.165  26.642  1.00  0.00     0.000 C 
BRANCH   4   5
ATOM      5  C   UNL     1      -8.796 -17.458  27.749  1.00  0.00     0.000 C 
BRANCH   5   6
ATOM      6  C   UNL     1      -8.179 -17.245  29.136  1.00  0.00     0.006 C 
BRANCH   6   7
ATOM      7  C   UNL     1      -8.988 -17.969  30.215  1.00  0.00     0.053 C 
BRANCH   7   8
ATOM      8  C   UNL     1      -8.267 -17.930  31.526  1.00  0.00     0.041 C 
ATOM      9  O   UNL     1      -7.963 -19.002  32.112  1.00  0.00    -0.550 OA
ATOM     10  O   UNL     1      -7.979 -16.711  32.125  1.00  0.00    -0.550 OA
ENDBRANCH   7   8
ENDBRANCH   6   7
ENDBRANCH   5   6
ENDBRANCH   4   5
ENDBRANCH   3   4
ENDBRANCH   2   3
ENDBRANCH   1   2
BRANCH   1  11
ATOM     11  C   UNL     1      -5.199 -18.861  23.614  1.00  0.00     0.000 C 
BRANCH  11  12
ATOM     12  C   UNL     1      -4.706 -20.313  23.501  1.00  0.00    -0.000 C 
BRANCH  12  13
ATOM     13  C   UNL     1      -3.795 -20.533  22.280  1.00  0.00    -0.000 C 
BRANCH  13  14
ATOM     14  C   UNL     1      -2.334 -20.807  22.673  1.00  0.00    -0.000 C 
BRANCH  14  15
ATOM     15  C   UNL     1      -1.483 -19.530  22.730  1.00  0.00    -0.000 C 
BRANCH  15  16
ATOM     16  C   UNL     1      -0.682 -19.464  24.039  1.00  0.00    -0.000 C 
BRANCH  16  17
ATOM     17  C   UNL     1      -0.704 -18.066  24.676  1.00  0.00    -0.003 C 
ATOM     18  C   UNL     1      -0.039 -17.005  23.798  1.00  0.00     0.004 C 
ENDBRANCH  16  17
ENDBRANCH  15  16
ENDBRANCH  14  15
ENDBRANCH  13  14
ENDBRANCH  12  13
ENDBRANCH  11  12
ENDBRANCH   1  11
TORSDOF 14
ENDMDL
MODEL 4
REMARK VINA RESULT:    14.029      2.119      3.106
REMARK INTER + INTRA:          25.024
REMARK INTER:                  25.917
REMARK INTRA:                  -0.893
REMARK UNBOUND:                -0.487
REMARK SMILES CCCCCCCCCCCCCCCC(=O)[O-]
REMARK SMILES IDX 9 1 10 2 11 3 12 4 13 5 14 6 15 7 16 8 17 9 18 10 8 11 7 12
REMARK SMILES IDX 6 13 5 14 4 15 3 16 2 17 1 18
REMARK H PARENT
REMARK Flexibility Score: inf
ROOT
ATOM      1  C   UNL     1      -3.381 -18.066  27.239  1.00  0.00     0.000 C 
ENDROOT
BRANCH   1   2
ATOM      2  C   UNL     1      -2.642 -17.490  26.019  1.00  0.00     0.000 C 
BRANCH   2   3
ATOM      3  C   UNL     1      -1.330 -18.229  25.714  1.00  0.00     0.000 C 
BRANCH   3   4
ATOM      4  C   UNL     1      -0.660 -17.661  24.458  1.00  0.00     0.000 C 
BRANCH   4   5
ATOM      5  C   UNL     1      -0.361 -18.770  23.443  1.00  0.00     0.000 C 
BRANCH   5   6
ATOM      6  C   UNL     1      -1.338 -19.941  23.602  1.00  0.00     0.006 C 
BRANCH   6   7
ATOM      7  C   UNL     1      -2.113 -20.191  22.306  1.00  0.00     0.053 C 
BRANCH   7   8
ATOM      8  C   UNL     1      -3.544 -20.511  22.605  1.00  0.00     0.041 C 
ATOM      9  O   UNL     1      -4.005 -21.653  22.341  1.00  0.00    -0.550 OA
ATOM     10  O   UNL     1      -4.382 -19.533  23.125  1.00  0.00    -0.550 OA
ENDBRANCH   7   8
ENDBRANCH   6   7
ENDBRANCH   5   6
ENDBRANCH   4   5
ENDBRANCH   3   4
ENDBRANCH   2   3
ENDBRANCH   1   2
BRANCH   1  11
ATOM     11  C   UNL     1      -4.865 -17.659  27.277  1.00  0.00     0.000 C 
BRANCH  11  12
ATOM     12  C   UNL     1      -5.675 -18.285  26.128  1.00  0.00    -0.000 C 
BRANCH  12  13
ATOM     13  C   UNL     1      -7.191 -18.246  26.388  1.00  0.00    -0.000 C 
BRANCH  13  14
ATOM     14  C   UNL     1      -7.586 -17.190  27.432  1.00  0.00    -0.000 C 
BRANCH  14  15
ATOM     15  C   UNL     1      -9.073 -17.254  27.810  1.00  0.00    -0.000 C 
BRANCH  15  16
ATOM     16  C   UNL     1      -9.250 -17.766  29.248  1.00  0.00    -0.000 C 
BRANCH  16  17
ATOM     17  C   UNL     1      -8.085 -17.365  30.166  1.00  0.00    -0.003 C 
ATOM     18  C   UNL     1      -8.429 -17.496  31.651  1.00  0.00     0.004 C 
ENDBRANCH  16  17
ENDBRANCH  15  16
ENDBRANCH  14  15
ENDBRANCH  13  14
ENDBRANCH  12  13
ENDBRANCH  11  12
ENDBRANCH   1  11
TORSDOF 14
ENDMDL
MODEL 5
REMARK VINA RESULT:    14.414      3.505      8.532
REMARK INTER + INTRA:          25.725
REMARK INTER:                  26.488
REMARK INTRA:                  -0.763
REMARK UNBOUND:                -0.487
REMARK SMILES CCCCCCCCCCCCCCCC(=O)[O-]
REMARK SMILES IDX 9 1 10 2 11 3 12 4 13 5 14 6 15 7 16 8 17 9 18 10 8 11 7 12
REMARK SMILES IDX 6 13 5 14 4 15 3 16 2 17 1 18
REMARK H PARENT
REMARK Flexibility Score: inf
ROOT
ATOM      1  C   UNL     1      -4.918 -18.063  26.250  1.00  0.00     0.000 C 
ENDROOT
BRANCH   1   2
ATOM      2  C   UNL     1      -6.222 -17.982  27.061  1.00  0.00     0.000 C 
BRANCH   2   3
ATOM      3  C   UNL     1      -7.354 -17.276  26.300  1.00  0.00     0.000 C 
BRANCH   3   4
ATOM      4  C   UNL     1      -8.411 -16.731  27.269  1.00  0.00     0.000 C 
BRANCH   4   5
ATOM      5  C   UNL     1      -9.343 -17.848  27.753  1.00  0.00     0.000 C 
BRANCH   5   6
ATOM      6  C   UNL     1      -9.475 -17.831  29.280  1.00  0.00     0.006 C 
BRANCH   6   7
ATOM      7  C   UNL     1      -8.150 -17.446  29.943  1.00  0.00     0.053 C 
BRANCH   7   8
ATOM      8  C   UNL     1      -8.343 -17.223  31.410  1.00  0.00     0.041 C 
ATOM      9  O   UNL     1      -7.378 -16.843  32.125  1.00  0.00    -0.550 OA
ATOM     10  O   UNL     1      -9.573 -17.487  31.998  1.00  0.00    -0.550 OA
ENDBRANCH   7   8
ENDBRANCH   6   7
ENDBRANCH   5   6
ENDBRANCH   4   5
ENDBRANCH   3   4
ENDBRANCH   2   3
ENDBRANCH   1   2
BRANCH   1  11
ATOM     11  C   UNL     1      -3.670 -17.801  27.110  1.00  0.00     0.000 C 
BRANCH  11  12
ATOM     12  C   UNL     1      -2.378 -18.296  26.437  1.00  0.00    -0.000 C 
BRANCH  12  13
ATOM     13  C   UNL     1      -1.560 -17.151  25.816  1.00  0.00    -0.000 C 
BRANCH  13  14
ATOM     14  C   UNL     1      -0.909 -17.547  24.481  1.00  0.00    -0.000 C 
BRANCH  14  15
ATOM     15  C   UNL     1      -0.723 -19.064  24.335  1.00  0.00    -0.000 C 
BRANCH  15  16
ATOM     16  C   UNL     1      -1.182 -19.541  22.948  1.00  0.00    -0.000 C 
BRANCH  16  17
ATOM     17  C   UNL     1      -1.989 -20.847  23.009  1.00  0.00    -0.003 C 
ATOM     18  C   UNL     1      -3.384 -20.709  22.396  1.00  0.00     0.004 C 
ENDBRANCH  16  17
ENDBRANCH  15  16
ENDBRANCH  14  15
ENDBRANCH  13  14
ENDBRANCH  12  13
ENDBRANCH  11  12
ENDBRANCH   1  11
TORSDOF 14
ENDMDL
MODEL 6
REMARK VINA RESULT:    14.479      3.517      7.970
REMARK INTER + INTRA:          25.842
REMARK INTER:                  26.825
REMARK INTRA:                  -0.983
REMARK UNBOUND:                -0.487
REMARK SMILES CCCCCCCCCCCCCCCC(=O)[O-]
REMARK SMILES IDX 9 1 10 2 11 3 12 4 13 5 14 6 15 7 16 8 17 9 18 10 8 11 7 12
REMARK SMILES IDX 6 13 5 14 4 15 3 16 2 17 1 18
REMARK H PARENT
REMARK Flexibility Score: inf
ROOT
ATOM      1  C   UNL     1      -4.323 -19.165  23.521  1.00  0.00     0.000 C 
ENDROOT
BRANCH   1   2
ATOM      2  C   UNL     1      -5.601 -18.504  24.062  1.00  0.00     0.000 C 
BRANCH   2   3
ATOM      3  C   UNL     1      -5.992 -19.015  25.457  1.00  0.00     0.000 C 
BRANCH   3   4
ATOM      4  C   UNL     1      -5.435 -18.098  26.553  1.00  0.00     0.000 C 
BRANCH   4   5
ATOM      5  C   UNL     1      -6.563 -17.532  27.424  1.00  0.00     0.000 C 
BRANCH   5   6
ATOM      6  C   UNL     1      -7.751 -17.087  26.564  1.00  0.00     0.006 C 
BRANCH   6   7
ATOM      7  C   UNL     1      -8.951 -16.709  27.437  1.00  0.00     0.053 C 
BRANCH   7   8
ATOM      8  C   UNL     1      -9.256 -17.803  28.411  1.00  0.00     0.041 C 
ATOM      9  O   UNL     1      -9.131 -17.602  29.648  1.00  0.00    -0.550 OA
ATOM     10  O   UNL     1      -9.629 -19.059  27.951  1.00  0.00    -0.550 OA
ENDBRANCH   7   8
ENDBRANCH   6   7
ENDBRANCH   5   6
ENDBRANCH   4   5
ENDBRANCH   3   4
ENDBRANCH   2   3
ENDBRANCH   1   2
BRANCH   1  11
ATOM     11  C   UNL     1      -4.620 -20.391  22.639  1.00  0.00     0.000 C 
BRANCH  11  12
ATOM     12  C   UNL     1      -3.385 -21.288  22.445  1.00  0.00    -0.000 C 
BRANCH  12  13
ATOM     13  C   UNL     1      -2.077 -20.481  22.367  1.00  0.00    -0.000 C 
BRANCH  13  14
ATOM     14  C   UNL     1      -1.116 -20.798  23.524  1.00  0.00    -0.000 C 
BRANCH  14  15
ATOM     15  C   UNL     1      -0.707 -19.548  24.317  1.00  0.00    -0.000 C 
BRANCH  15  16
ATOM     16  C   UNL     1      -0.192 -18.447  23.376  1.00  0.00    -0.000 C 
BRANCH  16  17
ATOM     17  C   UNL     1      -0.149 -17.067  24.050  1.00  0.00    -0.003 C 
ATOM     18  C   UNL     1      -1.137 -16.944  25.211  1.00  0.00     0.004 C 
ENDBRANCH  16  17
ENDBRANCH  15  16
ENDBRANCH  14  15
ENDBRANCH  13  14
ENDBRANCH  12  13
ENDBRANCH  11  12
ENDBRANCH   1  11
TORSDOF 14
ENDMDL
MODEL 7
REMARK VINA RESULT:    14.562      3.518      8.101
REMARK INTER + INTRA:          25.993
REMARK INTER:                  26.654
REMARK INTRA:                  -0.661
REMARK UNBOUND:                -0.487
REMARK SMILES CCCCCCCCCCCCCCCC(=O)[O-]
REMARK SMILES IDX 9 1 10 2 11 3 12 4 13 5 14 6 15 7 16 8 17 9 18 10 8 11 7 12
REMARK SMILES IDX 6 13 5 14 4 15 3 16 2 17 1 18
REMARK H PARENT
REMARK Flexibility Score: inf
ROOT
ATOM      1  C   UNL     1      -3.216 -17.722  27.290  1.00  0.00     0.000 C 
ENDROOT
BRANCH   1   2
ATOM      2  C   UNL     1      -4.745 -17.872  27.350  1.00  0.00     0.000 C 
BRANCH   2   3
ATOM      3  C   UNL     1      -5.346 -18.389  26.034  1.00  0.00     0.000 C 
BRANCH   3   4
ATOM      4  C   UNL     1      -6.809 -17.955  25.890  1.00  0.00     0.000 C 
BRANCH   4   5
ATOM      5  C   UNL     1      -7.314 -17.283  27.172  1.00  0.00     0.000 C 
BRANCH   5   6
ATOM      6  C   UNL     1      -8.492 -16.347  26.876  1.00  0.00     0.006 C 
BRANCH   6   7
ATOM      7  C   UNL     1      -9.730 -16.749  27.681  1.00  0.00     0.053 C 
BRANCH   7   8
ATOM      8  C   UNL     1      -9.395 -17.841  28.648  1.00  0.00     0.041 C 
ATOM      9  O   UNL     1      -9.649 -19.041  28.360  1.00  0.00    -0.550 OA
ATOM     10  O   UNL     1      -8.852 -17.530  29.887  1.00  0.00    -0.550 OA
ENDBRANCH   7   8
ENDBRANCH   6   7
ENDBRANCH   5   6
ENDBRANCH   4   5
ENDBRANCH   3   4
ENDBRANCH   2   3
ENDBRANCH   1   2
BRANCH   1  11
ATOM     11  C   UNL     1      -2.669 -17.817  25.855  1.00  0.00     0.000 C 
BRANCH  11  12
ATOM     12  C   UNL     1      -1.147 -18.039  25.820  1.00  0.00    -0.000 C 
BRANCH  12  13
ATOM     13  C   UNL     1      -0.591 -18.079  24.386  1.00  0.00    -0.000 C 
BRANCH  13  14
ATOM     14  C   UNL     1      -0.568 -19.501  23.800  1.00  0.00    -0.000 C 
BRANCH  14  15
ATOM     15  C   UNL     1      -1.571 -19.687  22.652  1.00  0.00    -0.000 C 
BRANCH  15  16
ATOM     16  C   UNL     1      -2.295 -21.037  22.773  1.00  0.00    -0.000 C 
BRANCH  16  17
ATOM     17  C   UNL     1      -3.782 -20.946  22.394  1.00  0.00    -0.003 C 
ATOM     18  C   UNL     1      -4.504 -19.802  23.106  1.00  0.00     0.004 C 
ENDBRANCH  16  17
ENDBRANCH  15  16
ENDBRANCH  14  15
ENDBRANCH  13  14
ENDBRANCH  12  13
ENDBRANCH  11  12
ENDBRANCH   1  11
TORSDOF 14
ENDMDL
