MODEL 1
REMARK VINA RESULT:    -6.944      0.000      0.000
REMARK INTER + INTRA:          -7.876
REMARK INTER:                  -7.553
REMARK INTRA:                  -0.323
REMARK UNBOUND:                -0.323
REMARK SMILES C[C@H]1[C@@H](C)CC[C@@]2(C(=O)[O-])CC[C@]3(C)C(=CC[C@H]4[C@]5(C)CC[C@@H](O)C(C)(C)[C@@H]5CC[C@@]43C)[C@@H]12
REMARK SMILES IDX 7 1 6 2 11 3 33 4 5 5 12 6 15 7 2 8 3 9 13 10 16 11 1 12
REMARK SMILES IDX 4 13 14 14 31 15 17 16 18 17 30 18 32 19 19 20 29 21 28 22
REMARK SMILES IDX 21 23 20 24 25 25 22 26 23 27 26 28 27 29 8 30 9 31 10 32
REMARK SMILES IDX 24 33
REMARK H PARENT 24 34
REMARK Flexibility Score: inf
ROOT
ATOM      1  C   UNL     1      97.929  99.839  97.775  1.00  0.00     0.017 C 
ATOM      2  C   UNL     1      96.880 100.262  96.695  1.00  0.00     0.014 C 
ATOM      3  C   UNL     1      98.694  98.619  97.207  1.00  0.00     0.014 C 
ATOM      4  C   UNL     1      98.966 100.986  98.106  1.00  0.00     0.030 C 
ATOM      5  C   UNL     1      96.427 101.714  96.827  1.00  0.00     0.004 C 
ATOM      6  C   UNL     1      99.632  98.014  98.249  1.00  0.00     0.013 C 
ATOM      7  C   UNL     1     100.375 100.500  98.526  1.00  0.00    -0.063 C 
ATOM      8  C   UNL     1      99.009 102.098  96.999  1.00  0.00    -0.003 C 
ATOM      9  C   UNL     1      97.592 102.733  96.827  1.00  0.00    -0.011 C 
ATOM     10  C   UNL     1     100.717  99.012  98.803  1.00  0.00    -0.006 C 
ATOM     11  C   UNL     1     101.322 101.423  98.839  1.00  0.00    -0.027 C 
ATOM     12  C   UNL     1      99.696 101.656  95.688  1.00  0.00     0.008 C 
ATOM     13  C   UNL     1      97.510 103.697  95.629  1.00  0.00     0.008 C 
ATOM     14  C   UNL     1     100.558  98.905 100.364  1.00  0.00     0.017 C 
ATOM     15  C   UNL     1     102.239  98.632  98.275  1.00  0.00    -0.020 C 
ATOM     16  C   UNL     1     102.762 101.030  99.018  1.00  0.00     0.032 C 
ATOM     17  C   UNL     1     103.069  99.941  97.977  1.00  0.00     0.006 C 
ATOM     18  C   UNL     1     102.253  97.850  96.906  1.00  0.00     0.008 C 
ATOM     19  C   UNL     1     102.921  97.719  99.344  1.00  0.00     0.012 C 
ATOM     20  C   UNL     1     104.599  99.771  97.553  1.00  0.00    -0.025 C 
ATOM     21  C   UNL     1     103.467  98.086  95.957  1.00  0.00     0.005 C 
ATOM     22  C   UNL     1     104.799  98.440  96.686  1.00  0.00     0.003 C 
ATOM     23  C   UNL     1     104.961 101.029  96.683  1.00  0.00     0.010 C 
ATOM     24  C   UNL     1     105.494  99.767  98.832  1.00  0.00     0.012 C 
ATOM     25  C   UNL     1     106.092  98.391  95.734  1.00  0.00    -0.006 C 
ATOM     26  C   UNL     1     106.298 100.939  95.959  1.00  0.00     0.033 C 
ATOM     27  C   UNL     1     106.292  99.748  94.997  1.00  0.00     0.120 C 
ATOM     28  C   UNL     1     107.374  98.018  96.543  1.00  0.00     0.014 C 
ATOM     29  C   UNL     1     105.959  97.279  94.654  1.00  0.00     0.014 C 
ENDROOT
BRANCH   1  30
ATOM     30  C   UNL     1      97.130  99.425  99.017  1.00  0.00     0.048 C 
ATOM     31  O   UNL     1      96.245  98.529  98.931  1.00  0.00    -0.550 OA
ATOM     32  O   UNL     1      97.253 100.113 100.219  1.00  0.00    -0.550 OA
ENDBRANCH   1  30
BRANCH  27  33
ATOM     33  O   UNL     1     107.450  99.742  94.193  1.00  0.00    -0.393 OA
ATOM     34  H   UNL     1     107.333 100.414  93.469  1.00  0.00     0.210 HD
ENDBRANCH  27  33
TORSDOF 2
ENDMDL
MODEL 2
REMARK VINA RESULT:    -6.769      1.993      4.335
REMARK INTER + INTRA:          -7.686
REMARK INTER:                  -7.363
REMARK INTRA:                  -0.322
REMARK UNBOUND:                -0.323
REMARK SMILES C[C@H]1[C@@H](C)CC[C@@]2(C(=O)[O-])CC[C@]3(C)C(=CC[C@H]4[C@]5(C)CC[C@@H](O)C(C)(C)[C@@H]5CC[C@@]43C)[C@@H]12
REMARK SMILES IDX 7 1 6 2 11 3 33 4 5 5 12 6 15 7 2 8 3 9 13 10 16 11 1 12
REMARK SMILES IDX 4 13 14 14 31 15 17 16 18 17 30 18 32 19 19 20 29 21 28 22
REMARK SMILES IDX 21 23 20 24 25 25 22 26 23 27 26 28 27 29 8 30 9 31 10 32
REMARK SMILES IDX 24 33
REMARK H PARENT 24 34
REMARK Flexibility Score: inf
ROOT
ATOM      1  C   UNL     1      99.282  98.808  98.168  1.00  0.00     0.017 C 
ATOM      2  C   UNL     1      98.558  97.735  99.045  1.00  0.00     0.014 C 
ATOM      3  C   UNL     1     100.176  99.639  99.119  1.00  0.00     0.014 C 
ATOM      4  C   UNL     1     100.189  98.169  97.040  1.00  0.00     0.030 C 
ATOM      5  C   UNL     1      98.080  96.524  98.248  1.00  0.00     0.004 C 
ATOM      6  C   UNL     1     100.805 100.829  98.397  1.00  0.00     0.013 C 
ATOM      7  C   UNL     1     101.437  98.998  96.649  1.00  0.00    -0.063 C 
ATOM      8  C   UNL     1     100.521  96.660  97.317  1.00  0.00    -0.003 C 
ATOM      9  C   UNL     1      99.199  95.836  97.429  1.00  0.00    -0.011 C 
ATOM     10  C   UNL     1     101.699 100.439  97.160  1.00  0.00    -0.006 C 
ATOM     11  C   UNL     1     102.262  98.524  95.678  1.00  0.00    -0.027 C 
ATOM     12  C   UNL     1     101.535  96.437  98.461  1.00  0.00     0.008 C 
ATOM     13  C   UNL     1      99.435  94.385  97.888  1.00  0.00     0.008 C 
ATOM     14  C   UNL     1     101.129 101.329  95.995  1.00  0.00     0.017 C 
ATOM     15  C   UNL     1     103.308 100.696  97.450  1.00  0.00    -0.020 C 
ATOM     16  C   UNL     1     103.604  99.153  95.424  1.00  0.00     0.032 C 
ATOM     17  C   UNL     1     104.182  99.560  96.789  1.00  0.00     0.006 C 
ATOM     18  C   UNL     1     103.690 100.632  98.979  1.00  0.00     0.008 C 
ATOM     19  C   UNL     1     103.684 102.121  96.932  1.00  0.00     0.012 C 
ATOM     20  C   UNL     1     105.771  99.697  96.879  1.00  0.00    -0.025 C 
ATOM     21  C   UNL     1     105.112 100.107  99.342  1.00  0.00     0.005 C 
ATOM     22  C   UNL     1     106.200 100.384  98.260  1.00  0.00     0.003 C 
ATOM     23  C   UNL     1     106.346  98.236  96.812  1.00  0.00     0.010 C 
ATOM     24  C   UNL     1     106.292 100.502  95.647  1.00  0.00     0.012 C 
ATOM     25  C   UNL     1     107.700 100.108  98.763  1.00  0.00    -0.006 C 
ATOM     26  C   UNL     1     107.828  98.120  97.144  1.00  0.00     0.033 C 
ATOM     27  C   UNL     1     108.084  98.610  98.573  1.00  0.00     0.120 C 
ATOM     28  C   UNL     1     108.721 101.029  98.025  1.00  0.00     0.014 C 
ATOM     29  C   UNL     1     107.864 100.451 100.272  1.00  0.00     0.014 C 
ENDROOT
BRANCH   1  30
ATOM     30  C   UNL     1      98.183  99.695  97.572  1.00  0.00     0.048 C 
ATOM     31  O   UNL     1      97.345 100.260  98.329  1.00  0.00    -0.550 OA
ATOM     32  O   UNL     1      97.992  99.786  96.198  1.00  0.00    -0.550 OA
ENDBRANCH   1  30
BRANCH  27  33
ATOM     33  O   UNL     1     109.415  98.356  98.963  1.00  0.00    -0.393 OA
ATOM     34  H   UNL     1     109.941  98.127  98.151  1.00  0.00     0.210 HD
ENDBRANCH  27  33
TORSDOF 2
ENDMDL
MODEL 3
REMARK VINA RESULT:    -6.741      2.512      4.073
REMARK INTER + INTRA:          -7.655
REMARK INTER:                  -7.345
REMARK INTRA:                  -0.310
REMARK UNBOUND:                -0.323
REMARK SMILES C[C@H]1[C@@H](C)CC[C@@]2(C(=O)[O-])CC[C@]3(C)C(=CC[C@H]4[C@]5(C)CC[C@@H](O)C(C)(C)[C@@H]5CC[C@@]43C)[C@@H]12
REMARK SMILES IDX 7 1 6 2 11 3 33 4 5 5 12 6 15 7 2 8 3 9 13 10 16 11 1 12
REMARK SMILES IDX 4 13 14 14 31 15 17 16 18 17 30 18 32 19 19 20 29 21 28 22
REMARK SMILES IDX 21 23 20 24 25 25 22 26 23 27 26 28 27 29 8 30 9 31 10 32
REMARK SMILES IDX 24 33
REMARK H PARENT 24 34
REMARK Flexibility Score: inf
ROOT
ATOM      1  C   UNL     1     101.076  98.858  96.564  1.00  0.00     0.017 C 
ATOM      2  C   UNL     1      99.807  99.675  96.158  1.00  0.00     0.014 C 
ATOM      3  C   UNL     1     102.112  99.042  95.430  1.00  0.00     0.014 C 
ATOM      4  C   UNL     1     101.713  99.349  97.926  1.00  0.00     0.030 C 
ATOM      5  C   UNL     1      98.923 100.052  97.345  1.00  0.00     0.004 C 
ATOM      6  C   UNL     1     103.333  98.149  95.639  1.00  0.00     0.013 C 
ATOM      7  C   UNL     1     103.248  99.174  98.037  1.00  0.00    -0.063 C 
ATOM      8  C   UNL     1     101.232 100.787  98.332  1.00  0.00    -0.003 C 
ATOM      9  C   UNL     1      99.676 100.811  98.465  1.00  0.00    -0.011 C 
ATOM     10  C   UNL     1     104.095  98.398  96.995  1.00  0.00    -0.006 C 
ATOM     11  C   UNL     1     103.871  99.560  99.181  1.00  0.00    -0.027 C 
ATOM     12  C   UNL     1     101.836 101.920  97.473  1.00  0.00     0.008 C 
ATOM     13  C   UNL     1      99.114 102.229  98.675  1.00  0.00     0.008 C 
ATOM     14  C   UNL     1     104.200  96.963  97.631  1.00  0.00     0.017 C 
ATOM     15  C   UNL     1     105.568  99.115  96.758  1.00  0.00    -0.020 C 
ATOM     16  C   UNL     1     105.371  99.641  99.260  1.00  0.00     0.032 C 
ATOM     17  C   UNL     1     105.870 100.160  97.902  1.00  0.00     0.006 C 
ATOM     18  C   UNL     1     105.648  99.965  95.432  1.00  0.00     0.008 C 
ATOM     19  C   UNL     1     106.655  97.997  96.664  1.00  0.00     0.012 C 
ATOM     20  C   UNL     1     107.296 100.879  97.894  1.00  0.00    -0.025 C 
ATOM     21  C   UNL     1     106.571 101.222  95.440  1.00  0.00     0.005 C 
ATOM     22  C   UNL     1     107.800 101.115  96.393  1.00  0.00     0.003 C 
ATOM     23  C   UNL     1     107.098 102.264  98.611  1.00  0.00     0.010 C 
ATOM     24  C   UNL     1     108.312 100.026  98.716  1.00  0.00     0.012 C 
ATOM     25  C   UNL     1     108.891 102.275  96.176  1.00  0.00    -0.006 C 
ATOM     26  C   UNL     1     108.275 103.222  98.481  1.00  0.00     0.033 C 
ATOM     27  C   UNL     1     108.527 103.543  97.004  1.00  0.00     0.120 C 
ATOM     28  C   UNL     1     110.324 101.777  96.544  1.00  0.00     0.014 C 
ATOM     29  C   UNL     1     108.981 102.696  94.681  1.00  0.00     0.014 C 
ENDROOT
BRANCH   1  30
ATOM     30  C   UNL     1     100.639  97.390  96.644  1.00  0.00     0.048 C 
ATOM     31  O   UNL     1     100.020  96.860  95.679  1.00  0.00    -0.550 OA
ATOM     32  O   UNL     1     100.782  96.655  97.814  1.00  0.00    -0.550 OA
ENDBRANCH   1  30
BRANCH  27  33
ATOM     33  O   UNL     1     109.498 104.555  96.867  1.00  0.00    -0.393 OA
ATOM     34  H   UNL     1     110.238 104.369  97.504  1.00  0.00     0.210 HD
ENDBRANCH  27  33
TORSDOF 2
ENDMDL
MODEL 4
REMARK VINA RESULT:    -6.565     10.209     13.375
REMARK INTER + INTRA:          -7.463
REMARK INTER:                  -7.147
REMARK INTRA:                  -0.316
REMARK UNBOUND:                -0.323
REMARK SMILES C[C@H]1[C@@H](C)CC[C@@]2(C(=O)[O-])CC[C@]3(C)C(=CC[C@H]4[C@]5(C)CC[C@@H](O)C(C)(C)[C@@H]5CC[C@@]43C)[C@@H]12
REMARK SMILES IDX 7 1 6 2 11 3 33 4 5 5 12 6 15 7 2 8 3 9 13 10 16 11 1 12
REMARK SMILES IDX 4 13 14 14 31 15 17 16 18 17 30 18 32 19 19 20 29 21 28 22
REMARK SMILES IDX 21 23 20 24 25 25 22 26 23 27 26 28 27 29 8 30 9 31 10 32
REMARK SMILES IDX 24 33
REMARK H PARENT 24 34
REMARK Flexibility Score: inf
ROOT
ATOM      1  C   UNL     1     113.947 104.179  96.601  1.00  0.00     0.017 C 
ATOM      2  C   UNL     1     113.013 105.269  95.983  1.00  0.00     0.014 C 
ATOM      3  C   UNL     1     113.972 104.422  98.130  1.00  0.00     0.014 C 
ATOM      4  C   UNL     1     113.441 102.707  96.324  1.00  0.00     0.030 C 
ATOM      5  C   UNL     1     112.448 104.879  94.618  1.00  0.00     0.004 C 
ATOM      6  C   UNL     1     114.989 103.517  98.822  1.00  0.00     0.013 C 
ATOM      7  C   UNL     1     113.792 101.671  97.420  1.00  0.00    -0.063 C 
ATOM      8  C   UNL     1     111.930 102.659  95.901  1.00  0.00    -0.003 C 
ATOM      9  C   UNL     1     111.708 103.519  94.617  1.00  0.00    -0.011 C 
ATOM     10  C   UNL     1     114.737 101.977  98.611  1.00  0.00    -0.006 C 
ATOM     11  C   UNL     1     113.404 100.379  97.251  1.00  0.00    -0.027 C 
ATOM     12  C   UNL     1     110.943 102.936  97.057  1.00  0.00     0.008 C 
ATOM     13  C   UNL     1     110.221 103.676  94.250  1.00  0.00     0.008 C 
ATOM     14  C   UNL     1     116.125 101.440  98.100  1.00  0.00     0.017 C 
ATOM     15  C   UNL     1     114.223 101.235  99.998  1.00  0.00    -0.020 C 
ATOM     16  C   UNL     1     113.500  99.385  98.376  1.00  0.00     0.032 C 
ATOM     17  C   UNL     1     113.144 100.130  99.672  1.00  0.00     0.006 C 
ATOM     18  C   UNL     1     113.486 102.208 100.996  1.00  0.00     0.008 C 
ATOM     19  C   UNL     1     115.469 100.656 100.743  1.00  0.00     0.012 C 
ATOM     20  C   UNL     1     112.605  99.238 100.883  1.00  0.00    -0.025 C 
ATOM     21  C   UNL     1     112.353 101.605 101.882  1.00  0.00     0.005 C 
ATOM     22  C   UNL     1     112.539 100.098 102.231  1.00  0.00     0.003 C 
ATOM     23  C   UNL     1     111.159  98.772 100.480  1.00  0.00     0.010 C 
ATOM     24  C   UNL     1     113.514  97.979 101.043  1.00  0.00     0.012 C 
ATOM     25  C   UNL     1     111.539  99.568 103.372  1.00  0.00    -0.006 C 
ATOM     26  C   UNL     1     110.362  98.125 101.606  1.00  0.00     0.033 C 
ATOM     27  C   UNL     1     110.181  99.120 102.756  1.00  0.00     0.120 C 
ATOM     28  C   UNL     1     112.179  98.400 104.186  1.00  0.00     0.014 C 
ATOM     29  C   UNL     1     111.241 100.676 104.423  1.00  0.00     0.014 C 
ENDROOT
BRANCH   1  30
ATOM     30  C   UNL     1     115.342 104.416  96.010  1.00  0.00     0.048 C 
ATOM     31  O   UNL     1     115.869 105.562  96.069  1.00  0.00    -0.550 OA
ATOM     32  O   UNL     1     115.994 103.431  95.277  1.00  0.00    -0.550 OA
ENDBRANCH   1  30
BRANCH  27  33
ATOM     33  O   UNL     1     109.305  98.605 103.735  1.00  0.00    -0.393 OA
ATOM     34  H   UNL     1     108.681  97.970 103.294  1.00  0.00     0.210 HD
ENDBRANCH  27  33
TORSDOF 2
ENDMDL
MODEL 5
REMARK VINA RESULT:    -6.507      3.063      8.353
REMARK INTER + INTRA:          -7.401
REMARK INTER:                  -7.078
REMARK INTRA:                  -0.323
REMARK UNBOUND:                -0.323
REMARK SMILES C[C@H]1[C@@H](C)CC[C@@]2(C(=O)[O-])CC[C@]3(C)C(=CC[C@H]4[C@]5(C)CC[C@@H](O)C(C)(C)[C@@H]5CC[C@@]43C)[C@@H]12
REMARK SMILES IDX 7 1 6 2 11 3 33 4 5 5 12 6 15 7 2 8 3 9 13 10 16 11 1 12
REMARK SMILES IDX 4 13 14 14 31 15 17 16 18 17 30 18 32 19 19 20 29 21 28 22
REMARK SMILES IDX 21 23 20 24 25 25 22 26 23 27 26 28 27 29 8 30 9 31 10 32
REMARK SMILES IDX 24 33
REMARK H PARENT 24 34
REMARK Flexibility Score: inf
ROOT
ATOM      1  C   UNL     1     108.925 101.902  98.681  1.00  0.00     0.017 C 
ATOM      2  C   UNL     1     109.168 103.182  99.546  1.00  0.00     0.014 C 
ATOM      3  C   UNL     1     107.973 100.987  99.488  1.00  0.00     0.014 C 
ATOM      4  C   UNL     1     108.262 102.223  97.282  1.00  0.00     0.030 C 
ATOM      5  C   UNL     1     109.616 104.390  98.726  1.00  0.00     0.004 C 
ATOM      6  C   UNL     1     107.798  99.629  98.813  1.00  0.00     0.013 C 
ATOM      7  C   UNL     1     107.345 101.112  96.715  1.00  0.00    -0.063 C 
ATOM      8  C   UNL     1     107.594 103.643  97.243  1.00  0.00    -0.003 C 
ATOM      9  C   UNL     1     108.658 104.742  97.562  1.00  0.00    -0.011 C 
ATOM     10  C   UNL     1     107.224  99.701  97.348  1.00  0.00    -0.006 C 
ATOM     11  C   UNL     1     106.747 101.305  95.510  1.00  0.00    -0.027 C 
ATOM     12  C   UNL     1     106.281 103.745  98.051  1.00  0.00     0.008 C 
ATOM     13  C   UNL     1     108.041 106.143  97.730  1.00  0.00     0.008 C 
ATOM     14  C   UNL     1     108.247  98.853  96.506  1.00  0.00     0.017 C 
ATOM     15  C   UNL     1     105.674  99.129  97.259  1.00  0.00    -0.020 C 
ATOM     16  C   UNL     1     105.667 100.380  95.021  1.00  0.00     0.032 C 
ATOM     17  C   UNL     1     104.822  99.983  96.242  1.00  0.00     0.006 C 
ATOM     18  C   UNL     1     104.880  99.247  98.617  1.00  0.00     0.008 C 
ATOM     19  C   UNL     1     105.725  97.614  96.876  1.00  0.00     0.012 C 
ATOM     20  C   UNL     1     103.323  99.513  95.949  1.00  0.00    -0.025 C 
ATOM     21  C   UNL     1     103.342  99.482  98.531  1.00  0.00     0.005 C 
ATOM     22  C   UNL     1     102.665  98.879  97.263  1.00  0.00     0.003 C 
ATOM     23  C   UNL     1     102.529 100.803  95.528  1.00  0.00     0.010 C 
ATOM     24  C   UNL     1     103.319  98.506  94.757  1.00  0.00     0.012 C 
ATOM     25  C   UNL     1     101.060  98.868  97.328  1.00  0.00    -0.006 C 
ATOM     26  C   UNL     1     101.018 100.624  95.457  1.00  0.00     0.033 C 
ATOM     27  C   UNL     1     100.474 100.222  96.831  1.00  0.00     0.120 C 
ATOM     28  C   UNL     1     100.470  97.684  96.499  1.00  0.00     0.014 C 
ATOM     29  C   UNL     1     100.552  98.636  98.780  1.00  0.00     0.014 C 
ENDROOT
BRANCH   1  30
ATOM     30  C   UNL     1     110.290 101.224  98.516  1.00  0.00     0.048 C 
ATOM     31  O   UNL     1     110.963 100.899  99.533  1.00  0.00    -0.550 OA
ATOM     32  O   UNL     1     110.880 101.081  97.265  1.00  0.00    -0.550 OA
ENDBRANCH   1  30
BRANCH  27  33
ATOM     33  O   UNL     1      99.064 100.216  96.833  1.00  0.00    -0.393 OA
ATOM     34  H   UNL     1      98.748 100.326  95.897  1.00  0.00     0.210 HD
ENDBRANCH  27  33
TORSDOF 2
ENDMDL
MODEL 6
REMARK VINA RESULT:    -6.494      4.788      7.978
REMARK INTER + INTRA:          -7.386
REMARK INTER:                  -7.071
REMARK INTRA:                  -0.315
REMARK UNBOUND:                -0.323
REMARK SMILES C[C@H]1[C@@H](C)CC[C@@]2(C(=O)[O-])CC[C@]3(C)C(=CC[C@H]4[C@]5(C)CC[C@@H](O)C(C)(C)[C@@H]5CC[C@@]43C)[C@@H]12
REMARK SMILES IDX 7 1 6 2 11 3 33 4 5 5 12 6 15 7 2 8 3 9 13 10 16 11 1 12
REMARK SMILES IDX 4 13 14 14 31 15 17 16 18 17 30 18 32 19 19 20 29 21 28 22
REMARK SMILES IDX 21 23 20 24 25 25 22 26 23 27 26 28 27 29 8 30 9 31 10 32
REMARK SMILES IDX 24 33
REMARK H PARENT 24 34
REMARK Flexibility Score: inf
ROOT
ATOM      1  C   UNL     1     104.875  99.897  98.053  1.00  0.00     0.017 C 
ATOM      2  C   UNL     1     104.073  98.660  97.535  1.00  0.00     0.014 C 
ATOM      3  C   UNL     1     105.313  99.576  99.502  1.00  0.00     0.014 C 
ATOM      4  C   UNL     1     106.161 100.204  97.185  1.00  0.00     0.030 C 
ATOM      5  C   UNL     1     104.032  98.560  96.011  1.00  0.00     0.004 C 
ATOM      6  C   UNL     1     105.962 100.785 100.171  1.00  0.00     0.013 C 
ATOM      7  C   UNL     1     107.343 100.840  97.957  1.00  0.00    -0.063 C 
ATOM      8  C   UNL     1     106.597  98.981  96.302  1.00  0.00    -0.003 C 
ATOM      9  C   UNL     1     105.431  98.569  95.349  1.00  0.00    -0.011 C 
ATOM     10  C   UNL     1     107.235 101.335  99.424  1.00  0.00    -0.006 C 
ATOM     11  C   UNL     1     108.481 101.146  97.281  1.00  0.00    -0.027 C 
ATOM     12  C   UNL     1     107.235  97.823  97.101  1.00  0.00     0.008 C 
ATOM     13  C   UNL     1     105.714  97.261  94.587  1.00  0.00     0.008 C 
ATOM     14  C   UNL     1     106.931 102.869  99.251  1.00  0.00     0.017 C 
ATOM     15  C   UNL     1     108.628 101.038 100.267  1.00  0.00    -0.020 C 
ATOM     16  C   UNL     1     109.737 101.537  98.009  1.00  0.00     0.032 C 
ATOM     17  C   UNL     1     109.809 100.680  99.283  1.00  0.00     0.006 C 
ATOM     18  C   UNL     1     108.531  99.786 101.221  1.00  0.00     0.008 C 
ATOM     19  C   UNL     1     108.944 102.283 101.157  1.00  0.00     0.012 C 
ATOM     20  C   UNL     1     111.260 100.459  99.914  1.00  0.00    -0.025 C 
ATOM     21  C   UNL     1     109.833  98.962 101.459  1.00  0.00     0.005 C 
ATOM     22  C   UNL     1     111.149  99.792 101.364  1.00  0.00     0.003 C 
ATOM     23  C   UNL     1     112.024  99.490  98.940  1.00  0.00     0.010 C 
ATOM     24  C   UNL     1     112.016 101.824  99.963  1.00  0.00     0.012 C 
ATOM     25  C   UNL     1     112.448  99.009 101.895  1.00  0.00    -0.006 C 
ATOM     26  C   UNL     1     113.336  98.942  99.488  1.00  0.00     0.033 C 
ATOM     27  C   UNL     1     113.074  98.139 100.765  1.00  0.00     0.120 C 
ATOM     28  C   UNL     1     113.509 100.001 102.468  1.00  0.00     0.014 C 
ATOM     29  C   UNL     1     112.096  98.065 103.081  1.00  0.00     0.014 C 
ENDROOT
BRANCH   1  30
ATOM     30  C   UNL     1     103.899 101.080  98.050  1.00  0.00     0.048 C 
ATOM     31  O   UNL     1     102.780 100.978  98.627  1.00  0.00    -0.550 OA
ATOM     32  O   UNL     1     104.151 102.225  97.304  1.00  0.00    -0.550 OA
ENDBRANCH   1  30
BRANCH  27  33
ATOM     33  O   UNL     1     114.244  97.481 101.197  1.00  0.00    -0.393 OA
ATOM     34  H   UNL     1     114.169  96.519 100.959  1.00  0.00     0.210 HD
ENDBRANCH  27  33
TORSDOF 2
ENDMDL
MODEL 7
REMARK VINA RESULT:    -6.491      2.483      7.253
REMARK INTER + INTRA:          -7.383
REMARK INTER:                  -7.104
REMARK INTRA:                  -0.279
REMARK UNBOUND:                -0.323
REMARK SMILES C[C@H]1[C@@H](C)CC[C@@]2(C(=O)[O-])CC[C@]3(C)C(=CC[C@H]4[C@]5(C)CC[C@@H](O)C(C)(C)[C@@H]5CC[C@@]43C)[C@@H]12
REMARK SMILES IDX 7 1 6 2 11 3 33 4 5 5 12 6 15 7 2 8 3 9 13 10 16 11 1 12
REMARK SMILES IDX 4 13 14 14 31 15 17 16 18 17 30 18 32 19 19 20 29 21 28 22
REMARK SMILES IDX 21 23 20 24 25 25 22 26 23 27 26 28 27 29 8 30 9 31 10 32
REMARK SMILES IDX 24 33
REMARK H PARENT 24 34
REMARK Flexibility Score: inf
ROOT
ATOM      1  C   UNL     1     105.308 101.324  97.927  1.00  0.00     0.017 C 
ATOM      2  C   UNL     1     105.965 102.286  96.885  1.00  0.00     0.014 C 
ATOM      3  C   UNL     1     103.861 101.825  98.152  1.00  0.00     0.014 C 
ATOM      4  C   UNL     1     105.259  99.822  97.431  1.00  0.00     0.030 C 
ATOM      5  C   UNL     1     107.151 101.664  96.150  1.00  0.00     0.004 C 
ATOM      6  C   UNL     1     103.175 101.058  99.281  1.00  0.00     0.013 C 
ATOM      7  C   UNL     1     104.064  98.992  97.959  1.00  0.00    -0.063 C 
ATOM      8  C   UNL     1     105.452  99.694  95.879  1.00  0.00    -0.003 C 
ATOM      9  C   UNL     1     106.819 100.320  95.458  1.00  0.00    -0.011 C 
ATOM     10  C   UNL     1     103.085  99.503  99.049  1.00  0.00    -0.006 C 
ATOM     11  C   UNL     1     103.956  97.688  97.590  1.00  0.00    -0.027 C 
ATOM     12  C   UNL     1     104.233 100.159  95.051  1.00  0.00     0.008 C 
ATOM     13  C   UNL     1     106.996 100.403  93.930  1.00  0.00     0.008 C 
ATOM     14  C   UNL     1     103.687  98.895 100.369  1.00  0.00     0.017 C 
ATOM     15  C   UNL     1     101.534  99.007  98.751  1.00  0.00    -0.020 C 
ATOM     16  C   UNL     1     102.704  96.902  97.869  1.00  0.00     0.032 C 
ATOM     17  C   UNL     1     101.515  97.856  97.671  1.00  0.00     0.006 C 
ATOM     18  C   UNL     1     100.622 100.133  98.129  1.00  0.00     0.008 C 
ATOM     19  C   UNL     1     100.885  98.571 100.104  1.00  0.00     0.012 C 
ATOM     20  C   UNL     1     100.108  97.182  97.329  1.00  0.00    -0.025 C 
ATOM     21  C   UNL     1      99.498  99.683  97.147  1.00  0.00     0.005 C 
ATOM     22  C   UNL     1      98.928  98.259  97.423  1.00  0.00     0.003 C 
ATOM     23  C   UNL     1     100.221  96.645  95.857  1.00  0.00     0.010 C 
ATOM     24  C   UNL     1      99.866  95.974  98.289  1.00  0.00     0.012 C 
ATOM     25  C   UNL     1      97.586  97.927  96.605  1.00  0.00    -0.006 C 
ATOM     26  C   UNL     1      98.902  96.196  95.241  1.00  0.00     0.033 C 
ATOM     27  C   UNL     1      97.922  97.372  95.189  1.00  0.00     0.120 C 
ATOM     28  C   UNL     1      96.685  96.919  97.385  1.00  0.00     0.014 C 
ATOM     29  C   UNL     1      96.706  99.197  96.420  1.00  0.00     0.014 C 
ENDROOT
BRANCH   1  30
ATOM     30  C   UNL     1     106.120 101.464  99.220  1.00  0.00     0.048 C 
ATOM     31  O   UNL     1     106.716 100.462  99.705  1.00  0.00    -0.550 OA
ATOM     32  O   UNL     1     106.106 102.641  99.960  1.00  0.00    -0.550 OA
ENDBRANCH   1  30
BRANCH  27  33
ATOM     33  O   UNL     1      96.758  97.028  94.471  1.00  0.00    -0.393 OA
ATOM     34  H   UNL     1      95.985  97.498  94.883  1.00  0.00     0.210 HD
ENDBRANCH  27  33
TORSDOF 2
ENDMDL
MODEL 8
REMARK VINA RESULT:    -6.483      1.876      4.326
REMARK INTER + INTRA:          -7.374
REMARK INTER:                  -7.050
REMARK INTRA:                  -0.323
REMARK UNBOUND:                -0.323
REMARK SMILES C[C@H]1[C@@H](C)CC[C@@]2(C(=O)[O-])CC[C@]3(C)C(=CC[C@H]4[C@]5(C)CC[C@@H](O)C(C)(C)[C@@H]5CC[C@@]43C)[C@@H]12
REMARK SMILES IDX 7 1 6 2 11 3 33 4 5 5 12 6 15 7 2 8 3 9 13 10 16 11 1 12
REMARK SMILES IDX 4 13 14 14 31 15 17 16 18 17 30 18 32 19 19 20 29 21 28 22
REMARK SMILES IDX 21 23 20 24 25 25 22 26 23 27 26 28 27 29 8 30 9 31 10 32
REMARK SMILES IDX 24 33
REMARK H PARENT 24 34
REMARK Flexibility Score: inf
ROOT
ATOM      1  C   UNL     1      99.738 101.290 100.626  1.00  0.00     0.017 C 
ATOM      2  C   UNL     1      99.882 101.681 102.133  1.00  0.00     0.014 C 
ATOM      3  C   UNL     1     100.640 102.256  99.822  1.00  0.00     0.014 C 
ATOM      4  C   UNL     1     100.190  99.803 100.332  1.00  0.00     0.030 C 
ATOM      5  C   UNL     1      99.518 100.548 103.090  1.00  0.00     0.004 C 
ATOM      6  C   UNL     1     100.449 102.075  98.317  1.00  0.00     0.013 C 
ATOM      7  C   UNL     1     100.781  99.559  98.922  1.00  0.00    -0.063 C 
ATOM      8  C   UNL     1     101.082  99.206 101.478  1.00  0.00    -0.003 C 
ATOM      9  C   UNL     1     100.303  99.239 102.831  1.00  0.00    -0.011 C 
ATOM     10  C   UNL     1     100.760 100.623  97.793  1.00  0.00    -0.006 C 
ATOM     11  C   UNL     1     101.182  98.305  98.586  1.00  0.00    -0.027 C 
ATOM     12  C   UNL     1     102.514  99.786 101.529  1.00  0.00     0.008 C 
ATOM     13  C   UNL     1     101.179  98.847 104.036  1.00  0.00     0.008 C 
ATOM     14  C   UNL     1      99.471 100.239  96.978  1.00  0.00     0.017 C 
ATOM     15  C   UNL     1     102.144 100.572  96.887  1.00  0.00    -0.020 C 
ATOM     16  C   UNL     1     101.978  98.053  97.335  1.00  0.00     0.032 C 
ATOM     17  C   UNL     1     102.942  99.238  97.162  1.00  0.00     0.006 C 
ATOM     18  C   UNL     1     103.172 101.713  97.244  1.00  0.00     0.008 C 
ATOM     19  C   UNL     1     101.759 100.742  95.382  1.00  0.00     0.012 C 
ATOM     20  C   UNL     1     104.258  98.968  96.298  1.00  0.00    -0.025 C 
ATOM     21  C   UNL     1     104.689 101.388  97.086  1.00  0.00     0.005 C 
ATOM     22  C   UNL     1     105.014 100.341  95.978  1.00  0.00     0.003 C 
ATOM     23  C   UNL     1     105.181  98.046  97.175  1.00  0.00     0.010 C 
ATOM     24  C   UNL     1     103.873  98.202  94.994  1.00  0.00     0.012 C 
ATOM     25  C   UNL     1     106.578 100.235  95.625  1.00  0.00    -0.006 C 
ATOM     26  C   UNL     1     106.600  97.880  96.647  1.00  0.00     0.033 C 
ATOM     27  C   UNL     1     107.298  99.242  96.586  1.00  0.00     0.120 C 
ATOM     28  C   UNL     1     106.793  99.807  94.140  1.00  0.00     0.014 C 
ATOM     29  C   UNL     1     107.283 101.615  95.754  1.00  0.00     0.014 C 
ENDROOT
BRANCH   1  30
ATOM     30  C   UNL     1      98.267 101.514 100.257  1.00  0.00     0.048 C 
ATOM     31  O   UNL     1      97.734 102.645 100.437  1.00  0.00    -0.550 OA
ATOM     32  O   UNL     1      97.452 100.461  99.858  1.00  0.00    -0.550 OA
ENDBRANCH   1  30
BRANCH  27  33
ATOM     33  O   UNL     1     108.662  99.096  96.262  1.00  0.00    -0.393 OA
ATOM     34  H   UNL     1     108.863  99.676  95.480  1.00  0.00     0.210 HD
ENDBRANCH  27  33
TORSDOF 2
ENDMDL
MODEL 9
REMARK VINA RESULT:    -6.275      4.850     10.312
REMARK INTER + INTRA:          -7.148
REMARK INTER:                  -6.825
REMARK INTRA:                  -0.323
REMARK UNBOUND:                -0.323
REMARK SMILES C[C@H]1[C@@H](C)CC[C@@]2(C(=O)[O-])CC[C@]3(C)C(=CC[C@H]4[C@]5(C)CC[C@@H](O)C(C)(C)[C@@H]5CC[C@@]43C)[C@@H]12
REMARK SMILES IDX 7 1 6 2 11 3 33 4 5 5 12 6 15 7 2 8 3 9 13 10 16 11 1 12
REMARK SMILES IDX 4 13 14 14 31 15 17 16 18 17 30 18 32 19 19 20 29 21 28 22
REMARK SMILES IDX 21 23 20 24 25 25 22 26 23 27 26 28 27 29 8 30 9 31 10 32
REMARK SMILES IDX 24 33
REMARK H PARENT 24 34
REMARK Flexibility Score: inf
ROOT
ATOM      1  C   UNL     1     111.971 100.133 100.492  1.00  0.00     0.017 C 
ATOM      2  C   UNL     1     112.620  99.036 101.397  1.00  0.00     0.014 C 
ATOM      3  C   UNL     1     111.678  99.472  99.124  1.00  0.00     0.014 C 
ATOM      4  C   UNL     1     110.619 100.699 101.087  1.00  0.00     0.030 C 
ATOM      5  C   UNL     1     112.482  99.324 102.891  1.00  0.00     0.004 C 
ATOM      6  C   UNL     1     111.195 100.497  98.100  1.00  0.00     0.013 C 
ATOM      7  C   UNL     1     109.580 101.164 100.037  1.00  0.00    -0.063 C 
ATOM      8  C   UNL     1     110.001  99.758 102.181  1.00  0.00    -0.003 C 
ATOM      9  C   UNL     1     111.020  99.556 103.347  1.00  0.00    -0.011 C 
ATOM     10  C   UNL     1     109.887 101.267  98.520  1.00  0.00    -0.006 C 
ATOM     11  C   UNL     1     108.396 101.675 100.467  1.00  0.00    -0.027 C 
ATOM     12  C   UNL     1     109.379  98.460 101.618  1.00  0.00     0.008 C 
ATOM     13  C   UNL     1     110.563  98.495 104.365  1.00  0.00     0.008 C 
ATOM     14  C   UNL     1     110.276 102.781  98.347  1.00  0.00     0.017 C 
ATOM     15  C   UNL     1     108.582 100.821  97.606  1.00  0.00    -0.020 C 
ATOM     16  C   UNL     1     107.261 101.918  99.510  1.00  0.00     0.032 C 
ATOM     17  C   UNL     1     107.275 100.769  98.489  1.00  0.00     0.006 C 
ATOM     18  C   UNL     1     108.699  99.365  97.010  1.00  0.00     0.008 C 
ATOM     19  C   UNL     1     108.456 101.810  96.403  1.00  0.00     0.012 C 
ATOM     20  C   UNL     1     105.893 100.453  97.752  1.00  0.00    -0.025 C 
ATOM     21  C   UNL     1     107.378  98.559  96.820  1.00  0.00     0.005 C 
ATOM     22  C   UNL     1     106.121  99.436  96.538  1.00  0.00     0.003 C 
ATOM     23  C   UNL     1     104.958  99.793  98.830  1.00  0.00     0.010 C 
ATOM     24  C   UNL     1     105.244 101.790  97.273  1.00  0.00     0.012 C 
ATOM     25  C   UNL     1     104.839  98.596  96.056  1.00  0.00    -0.006 C 
ATOM     26  C   UNL     1     103.682  99.176  98.272  1.00  0.00     0.033 C 
ATOM     27  C   UNL     1     104.030  98.065  97.276  1.00  0.00     0.120 C 
ATOM     28  C   UNL     1     103.922  99.450  95.125  1.00  0.00     0.014 C 
ATOM     29  C   UNL     1     105.257  97.369  95.194  1.00  0.00     0.014 C 
ENDROOT
BRANCH   1  30
ATOM     30  C   UNL     1     113.021 101.238 100.328  1.00  0.00     0.048 C 
ATOM     31  O   UNL     1     114.167 100.961  99.877  1.00  0.00    -0.550 OA
ATOM     32  O   UNL     1     112.794 102.527 100.796  1.00  0.00    -0.550 OA
ENDBRANCH   1  30
BRANCH  27  33
ATOM     33  O   UNL     1     102.873  97.366  96.875  1.00  0.00    -0.393 OA
ATOM     34  H   UNL     1     102.986  96.408  97.117  1.00  0.00     0.210 HD
ENDBRANCH  27  33
TORSDOF 2
ENDMDL
