MODEL 1
REMARK VINA RESULT:    -5.359      0.000      0.000
REMARK INTER + INTRA:         -10.516
REMARK INTER:                  -8.178
REMARK INTRA:                  -2.338
REMARK UNBOUND:                -2.338
REMARK SMILES CC(=O)CCC=C(C)CCC=C(C)CCC=C(C)C
REMARK SMILES IDX 10 1 11 2 12 3 13 4 14 5 15 6 16 7 18 8 17 9 19 10 9 11 7 12
REMARK SMILES IDX 6 13 8 14 5 15 4 16 2 17 3 18 1 19
REMARK H PARENT
REMARK Flexibility Score: inf
ROOT
ATOM      1  C   UNL     1     -14.326 -21.244  24.663  1.00  0.00     0.032 C 
ENDROOT
BRANCH   1   2
ATOM      2  C   UNL     1     -15.699 -20.769  24.243  1.00  0.00    -0.028 C 
ATOM      3  C   UNL     1     -16.338 -21.102  23.096  1.00  0.00    -0.077 C 
ATOM      4  C   UNL     1     -17.690 -20.485  22.840  1.00  0.00     0.039 C 
BRANCH   3   5
ATOM      5  C   UNL     1     -15.771 -22.067  22.073  1.00  0.00     0.034 C 
BRANCH   5   6
ATOM      6  C   UNL     1     -15.141 -21.322  20.891  1.00  0.00     0.032 C 
BRANCH   6   7
ATOM      7  C   UNL     1     -14.043 -22.146  20.264  1.00  0.00    -0.028 C 
ATOM      8  C   UNL     1     -12.223 -20.957  21.507  1.00  0.00     0.039 C 
ATOM      9  C   UNL     1     -12.726 -21.977  20.511  1.00  0.00    -0.080 C 
ATOM     10  C   UNL     1     -11.739 -22.848  19.779  1.00  0.00     0.039 C 
ENDBRANCH   6   7
ENDBRANCH   5   6
ENDBRANCH   3   5
ENDBRANCH   1   2
BRANCH   1  11
ATOM     11  C   UNL     1     -14.414 -22.432  25.630  1.00  0.00     0.034 C 
BRANCH  11  12
ATOM     12  C   UNL     1     -13.603 -23.616  25.145  1.00  0.00    -0.077 C 
ATOM     13  C   UNL     1     -13.086 -23.598  23.896  1.00  0.00    -0.028 C 
ATOM     14  C   UNL     1     -13.358 -24.764  26.095  1.00  0.00     0.039 C 
BRANCH  13  15
ATOM     15  C   UNL     1     -12.175 -24.660  23.336  1.00  0.00     0.035 C 
BRANCH  15  16
ATOM     16  C   UNL     1     -10.735 -24.142  23.253  1.00  0.00     0.079 C 
BRANCH  16  17
ATOM     17  C   UNL     1      -9.766 -25.187  23.737  1.00  0.00     0.130 C 
ATOM     18  O   UNL     1      -8.588 -25.105  23.424  1.00  0.00    -0.300 OA
ATOM     19  C   UNL     1     -10.213 -26.325  24.606  1.00  0.00     0.087 C 
ENDBRANCH  16  17
ENDBRANCH  15  16
ENDBRANCH  13  15
ENDBRANCH  11  12
ENDBRANCH   1  11
TORSDOF 9
ENDMDL
MODEL 2
REMARK VINA RESULT:    -5.101      1.874      4.431
REMARK INTER + INTRA:         -10.122
REMARK INTER:                  -7.788
REMARK INTRA:                  -2.335
REMARK UNBOUND:                -2.338
REMARK SMILES CC(=O)CCC=C(C)CCC=C(C)CCC=C(C)C
REMARK SMILES IDX 10 1 11 2 12 3 13 4 14 5 15 6 16 7 18 8 17 9 19 10 9 11 7 12
REMARK SMILES IDX 6 13 8 14 5 15 4 16 2 17 3 18 1 19
REMARK H PARENT
REMARK Flexibility Score: inf
ROOT
ATOM      1  C   UNL     1     -14.082 -22.184  21.550  1.00  0.00     0.032 C 
ENDROOT
BRANCH   1   2
ATOM      2  C   UNL     1     -15.514 -21.834  21.889  1.00  0.00    -0.028 C 
ATOM      3  C   UNL     1     -15.933 -21.201  23.010  1.00  0.00    -0.077 C 
ATOM      4  C   UNL     1     -17.415 -20.982  23.183  1.00  0.00     0.039 C 
BRANCH   3   5
ATOM      5  C   UNL     1     -14.991 -20.694  24.085  1.00  0.00     0.034 C 
BRANCH   5   6
ATOM      6  C   UNL     1     -14.831 -21.717  25.216  1.00  0.00     0.032 C 
BRANCH   6   7
ATOM      7  C   UNL     1     -13.396 -22.170  25.326  1.00  0.00    -0.028 C 
ATOM      8  C   UNL     1     -13.882 -24.456  24.425  1.00  0.00     0.039 C 
ATOM      9  C   UNL     1     -12.958 -23.406  24.999  1.00  0.00    -0.080 C 
ATOM     10  C   UNL     1     -11.501 -23.729  25.202  1.00  0.00     0.039 C 
ENDBRANCH   6   7
ENDBRANCH   5   6
ENDBRANCH   3   5
ENDBRANCH   1   2
BRANCH   1  11
ATOM     11  C   UNL     1     -13.370 -21.021  20.846  1.00  0.00     0.034 C 
BRANCH  11  12
ATOM     12  C   UNL     1     -11.903 -20.953  21.213  1.00  0.00    -0.077 C 
ATOM     13  C   UNL     1     -11.353 -21.953  21.938  1.00  0.00    -0.028 C 
ATOM     14  C   UNL     1     -11.085 -19.785  20.714  1.00  0.00     0.039 C 
BRANCH  13  15
ATOM     15  C   UNL     1      -9.887 -22.056  22.273  1.00  0.00     0.035 C 
BRANCH  15  16
ATOM     16  C   UNL     1      -9.224 -23.160  21.444  1.00  0.00     0.079 C 
BRANCH  16  17
ATOM     17  C   UNL     1      -8.749 -22.621  20.121  1.00  0.00     0.130 C 
ATOM     18  O   UNL     1      -7.689 -22.016  20.064  1.00  0.00    -0.300 OA
ATOM     19  C   UNL     1      -9.547 -22.819  18.866  1.00  0.00     0.087 C 
ENDBRANCH  16  17
ENDBRANCH  15  16
ENDBRANCH  13  15
ENDBRANCH  11  12
ENDBRANCH   1  11
TORSDOF 9
ENDMDL
MODEL 3
REMARK VINA RESULT:    -5.073      2.390      4.966
REMARK INTER + INTRA:         -10.080
REMARK INTER:                  -7.445
REMARK INTRA:                  -2.635
REMARK UNBOUND:                -2.338
REMARK SMILES CC(=O)CCC=C(C)CCC=C(C)CCC=C(C)C
REMARK SMILES IDX 10 1 11 2 12 3 13 4 14 5 15 6 16 7 18 8 17 9 19 10 9 11 7 12
REMARK SMILES IDX 6 13 8 14 5 15 4 16 2 17 3 18 1 19
REMARK H PARENT
REMARK Flexibility Score: inf
ROOT
ATOM      1  C   UNL     1     -13.801 -21.854  23.281  1.00  0.00     0.032 C 
ENDROOT
BRANCH   1   2
ATOM      2  C   UNL     1     -13.937 -22.206  24.745  1.00  0.00    -0.028 C 
ATOM      3  C   UNL     1     -13.902 -23.455  25.269  1.00  0.00    -0.077 C 
ATOM      4  C   UNL     1     -14.103 -23.600  26.757  1.00  0.00     0.039 C 
BRANCH   3   5
ATOM      5  C   UNL     1     -13.661 -24.702  24.440  1.00  0.00     0.034 C 
BRANCH   5   6
ATOM      6  C   UNL     1     -12.262 -25.278  24.691  1.00  0.00     0.032 C 
BRANCH   6   7
ATOM      7  C   UNL     1     -11.304 -24.844  23.610  1.00  0.00    -0.028 C 
ATOM      8  C   UNL     1     -10.204 -23.120  25.057  1.00  0.00     0.039 C 
ATOM      9  C   UNL     1     -10.390 -23.859  23.751  1.00  0.00    -0.080 C 
ATOM     10  C   UNL     1      -9.526 -23.506  22.569  1.00  0.00     0.039 C 
ENDBRANCH   6   7
ENDBRANCH   5   6
ENDBRANCH   3   5
ENDBRANCH   1   2
BRANCH   1  11
ATOM     11  C   UNL     1     -12.600 -20.931  23.034  1.00  0.00     0.034 C 
BRANCH  11  12
ATOM     12  C   UNL     1     -12.087 -21.039  21.614  1.00  0.00    -0.077 C 
ATOM     13  C   UNL     1     -12.470 -22.086  20.848  1.00  0.00    -0.028 C 
ATOM     14  C   UNL     1     -11.196 -19.943  21.079  1.00  0.00     0.039 C 
BRANCH  13  15
ATOM     15  C   UNL     1     -12.118 -22.250  19.392  1.00  0.00     0.035 C 
BRANCH  15  16
ATOM     16  C   UNL     1     -10.835 -23.075  19.241  1.00  0.00     0.079 C 
BRANCH  16  17
ATOM     17  C   UNL     1      -9.753 -22.261  18.584  1.00  0.00     0.130 C 
ATOM     18  O   UNL     1     -10.059 -21.379  17.796  1.00  0.00    -0.300 OA
ATOM     19  C   UNL     1      -8.303 -22.502  18.885  1.00  0.00     0.087 C 
ENDBRANCH  16  17
ENDBRANCH  15  16
ENDBRANCH  13  15
ENDBRANCH  11  12
ENDBRANCH   1  11
TORSDOF 9
ENDMDL
MODEL 4
REMARK VINA RESULT:    -5.068      2.676      5.266
REMARK INTER + INTRA:         -10.073
REMARK INTER:                  -7.272
REMARK INTRA:                  -2.801
REMARK UNBOUND:                -2.338
REMARK SMILES CC(=O)CCC=C(C)CCC=C(C)CCC=C(C)C
REMARK SMILES IDX 10 1 11 2 12 3 13 4 14 5 15 6 16 7 18 8 17 9 19 10 9 11 7 12
REMARK SMILES IDX 6 13 8 14 5 15 4 16 2 17 3 18 1 19
REMARK H PARENT
REMARK Flexibility Score: inf
ROOT
ATOM      1  C   UNL     1      -8.845 -22.789  22.341  1.00  0.00     0.032 C 
ENDROOT
BRANCH   1   2
ATOM      2  C   UNL     1      -8.779 -22.771  20.830  1.00  0.00    -0.028 C 
ATOM      3  C   UNL     1      -9.837 -22.681  19.989  1.00  0.00    -0.077 C 
ATOM      4  C   UNL     1      -9.564 -22.725  18.506  1.00  0.00     0.039 C 
BRANCH   3   5
ATOM      5  C   UNL     1     -11.270 -22.528  20.462  1.00  0.00     0.034 C 
BRANCH   5   6
ATOM      6  C   UNL     1     -11.611 -21.060  20.745  1.00  0.00     0.032 C 
BRANCH   6   7
ATOM      7  C   UNL     1     -11.954 -20.862  22.201  1.00  0.00    -0.028 C 
ATOM      8  C   UNL     1     -10.099 -19.223  22.579  1.00  0.00     0.039 C 
ATOM      9  C   UNL     1     -11.268 -20.060  23.045  1.00  0.00    -0.080 C 
ATOM     10  C   UNL     1     -11.702 -19.993  24.486  1.00  0.00     0.039 C 
ENDBRANCH   6   7
ENDBRANCH   5   6
ENDBRANCH   3   5
ENDBRANCH   1   2
BRANCH   1  11
ATOM     11  C   UNL     1      -9.301 -24.156  22.868  1.00  0.00     0.034 C 
BRANCH  11  12
ATOM     12  C   UNL     1     -10.531 -24.041  23.743  1.00  0.00    -0.077 C 
ATOM     13  C   UNL     1     -11.685 -24.624  23.345  1.00  0.00    -0.028 C 
ATOM     14  C   UNL     1     -10.417 -23.316  25.063  1.00  0.00     0.039 C 
BRANCH  13  15
ATOM     15  C   UNL     1     -12.943 -24.675  24.173  1.00  0.00     0.035 C 
BRANCH  15  16
ATOM     16  C   UNL     1     -13.964 -23.655  23.659  1.00  0.00     0.079 C 
BRANCH  16  17
ATOM     17  C   UNL     1     -14.320 -22.667  24.737  1.00  0.00     0.130 C 
ATOM     18  O   UNL     1     -14.882 -21.625  24.436  1.00  0.00    -0.300 OA
ATOM     19  C   UNL     1     -14.007 -22.939  26.179  1.00  0.00     0.087 C 
ENDBRANCH  16  17
ENDBRANCH  15  16
ENDBRANCH  13  15
ENDBRANCH  11  12
ENDBRANCH   1  11
TORSDOF 9
ENDMDL
MODEL 5
REMARK VINA RESULT:    -5.005      7.154      9.568
REMARK INTER + INTRA:          -9.976
REMARK INTER:                  -7.534
REMARK INTRA:                  -2.442
REMARK UNBOUND:                -2.338
REMARK SMILES CC(=O)CCC=C(C)CCC=C(C)CCC=C(C)C
REMARK SMILES IDX 10 1 11 2 12 3 13 4 14 5 15 6 16 7 18 8 17 9 19 10 9 11 7 12
REMARK SMILES IDX 6 13 8 14 5 15 4 16 2 17 3 18 1 19
REMARK H PARENT
REMARK Flexibility Score: inf
ROOT
ATOM      1  C   UNL     1      -7.578 -14.758  23.452  1.00  0.00     0.032 C 
ENDROOT
BRANCH   1   2
ATOM      2  C   UNL     1      -6.147 -14.304  23.639  1.00  0.00    -0.028 C 
ATOM      3  C   UNL     1      -5.377 -14.534  24.730  1.00  0.00    -0.077 C 
ATOM      4  C   UNL     1      -3.984 -13.957  24.742  1.00  0.00     0.039 C 
BRANCH   3   5
ATOM      5  C   UNL     1      -5.841 -15.346  25.924  1.00  0.00     0.034 C 
BRANCH   5   6
ATOM      6  C   UNL     1      -4.998 -16.615  26.097  1.00  0.00     0.032 C 
BRANCH   6   7
ATOM      7  C   UNL     1      -5.776 -17.835  25.670  1.00  0.00    -0.028 C 
ATOM      8  C   UNL     1      -4.704 -17.921  23.408  1.00  0.00     0.039 C 
ATOM      9  C   UNL     1      -5.674 -18.418  24.455  1.00  0.00    -0.080 C 
ATOM     10  C   UNL     1      -6.546 -19.609  24.154  1.00  0.00     0.039 C 
ENDBRANCH   6   7
ENDBRANCH   5   6
ENDBRANCH   3   5
ENDBRANCH   1   2
BRANCH   1  11
ATOM     11  C   UNL     1      -7.682 -15.865  22.395  1.00  0.00     0.034 C 
BRANCH  11  12
ATOM     12  C   UNL     1      -8.677 -16.935  22.793  1.00  0.00    -0.077 C 
ATOM     13  C   UNL     1      -8.975 -17.923  21.919  1.00  0.00    -0.028 C 
ATOM     14  C   UNL     1      -9.273 -16.889  24.181  1.00  0.00     0.039 C 
BRANCH  13  15
ATOM     15  C   UNL     1      -9.862 -19.099  22.234  1.00  0.00     0.035 C 
BRANCH  15  16
ATOM     16  C   UNL     1     -10.618 -19.551  20.981  1.00  0.00     0.079 C 
BRANCH  16  17
ATOM     17  C   UNL     1      -9.903 -20.695  20.312  1.00  0.00     0.130 C 
ATOM     18  O   UNL     1      -9.152 -21.401  20.968  1.00  0.00    -0.300 OA
ATOM     19  C   UNL     1     -10.101 -20.994  18.855  1.00  0.00     0.087 C 
ENDBRANCH  16  17
ENDBRANCH  15  16
ENDBRANCH  13  15
ENDBRANCH  11  12
ENDBRANCH   1  11
TORSDOF 9
ENDMDL
MODEL 6
REMARK VINA RESULT:    -4.987      5.112      7.168
REMARK INTER + INTRA:          -9.948
REMARK INTER:                  -8.339
REMARK INTRA:                  -1.609
REMARK UNBOUND:                -2.338
REMARK SMILES CC(=O)CCC=C(C)CCC=C(C)CCC=C(C)C
REMARK SMILES IDX 10 1 11 2 12 3 13 4 14 5 15 6 16 7 18 8 17 9 19 10 9 11 7 12
REMARK SMILES IDX 6 13 8 14 5 15 4 16 2 17 3 18 1 19
REMARK H PARENT
REMARK Flexibility Score: inf
ROOT
ATOM      1  C   UNL     1     -10.759 -19.403  21.515  1.00  0.00     0.032 C 
ENDROOT
BRANCH   1   2
ATOM      2  C   UNL     1     -11.264 -20.631  22.240  1.00  0.00    -0.028 C 
ATOM      3  C   UNL     1     -12.032 -21.610  21.705  1.00  0.00    -0.077 C 
ATOM      4  C   UNL     1     -12.471 -22.734  22.610  1.00  0.00     0.039 C 
BRANCH   3   5
ATOM      5  C   UNL     1     -12.460 -21.636  20.250  1.00  0.00     0.034 C 
BRANCH   5   6
ATOM      6  C   UNL     1     -11.853 -22.833  19.510  1.00  0.00     0.032 C 
BRANCH   6   7
ATOM      7  C   UNL     1     -10.355 -22.869  19.690  1.00  0.00    -0.028 C 
ATOM      8  C   UNL     1      -9.924 -21.385  17.719  1.00  0.00     0.039 C 
ATOM      9  C   UNL     1      -9.474 -22.245  18.878  1.00  0.00    -0.080 C 
ATOM     10  C   UNL     1      -8.002 -22.404  19.156  1.00  0.00     0.039 C 
ENDBRANCH   6   7
ENDBRANCH   5   6
ENDBRANCH   3   5
ENDBRANCH   1   2
BRANCH   1  11
ATOM     11  C   UNL     1      -9.233 -19.432  21.357  1.00  0.00     0.034 C 
BRANCH  11  12
ATOM     12  C   UNL     1      -8.546 -18.517  22.349  1.00  0.00    -0.077 C 
ATOM     13  C   UNL     1      -9.252 -17.523  22.933  1.00  0.00    -0.028 C 
ATOM     14  C   UNL     1      -7.098 -18.776  22.691  1.00  0.00     0.039 C 
BRANCH  13  15
ATOM     15  C   UNL     1      -8.715 -16.618  24.012  1.00  0.00     0.035 C 
BRANCH  15  16
ATOM     16  C   UNL     1      -8.026 -15.397  23.394  1.00  0.00     0.079 C 
BRANCH  16  17
ATOM     17  C   UNL     1      -6.815 -15.004  24.198  1.00  0.00     0.130 C 
ATOM     18  O   UNL     1      -6.362 -13.875  24.089  1.00  0.00    -0.300 OA
ATOM     19  C   UNL     1      -6.158 -15.969  25.140  1.00  0.00     0.087 C 
ENDBRANCH  16  17
ENDBRANCH  15  16
ENDBRANCH  13  15
ENDBRANCH  11  12
ENDBRANCH   1  11
TORSDOF 9
ENDMDL
MODEL 7
REMARK VINA RESULT:    -4.953      7.338      9.529
REMARK INTER + INTRA:          -9.897
REMARK INTER:                  -6.908
REMARK INTRA:                  -2.989
REMARK UNBOUND:                -2.338
REMARK SMILES CC(=O)CCC=C(C)CCC=C(C)CCC=C(C)C
REMARK SMILES IDX 10 1 11 2 12 3 13 4 14 5 15 6 16 7 18 8 17 9 19 10 9 11 7 12
REMARK SMILES IDX 6 13 8 14 5 15 4 16 2 17 3 18 1 19
REMARK H PARENT
REMARK Flexibility Score: inf
ROOT
ATOM      1  C   UNL     1      -7.735 -14.763  23.406  1.00  0.00     0.032 C 
ENDROOT
BRANCH   1   2
ATOM      2  C   UNL     1      -6.300 -14.305  23.554  1.00  0.00    -0.028 C 
ATOM      3  C   UNL     1      -5.502 -14.526  24.626  1.00  0.00    -0.077 C 
ATOM      4  C   UNL     1      -4.110 -13.947  24.599  1.00  0.00     0.039 C 
BRANCH   3   5
ATOM      5  C   UNL     1      -5.934 -15.330  25.838  1.00  0.00     0.034 C 
BRANCH   5   6
ATOM      6  C   UNL     1      -5.055 -16.571  26.026  1.00  0.00     0.032 C 
BRANCH   6   7
ATOM      7  C   UNL     1      -5.820 -17.825  25.684  1.00  0.00    -0.028 C 
ATOM      8  C   UNL     1      -4.802 -18.013  23.403  1.00  0.00     0.039 C 
ATOM      9  C   UNL     1      -5.736 -18.471  24.499  1.00  0.00    -0.080 C 
ATOM     10  C   UNL     1      -6.594 -19.691  24.284  1.00  0.00     0.039 C 
ENDBRANCH   6   7
ENDBRANCH   5   6
ENDBRANCH   3   5
ENDBRANCH   1   2
BRANCH   1  11
ATOM     11  C   UNL     1      -7.833 -16.041  22.564  1.00  0.00     0.034 C 
BRANCH  11  12
ATOM     12  C   UNL     1      -8.832 -17.022  23.140  1.00  0.00    -0.077 C 
ATOM     13  C   UNL     1      -9.245 -16.873  24.419  1.00  0.00    -0.028 C 
ATOM     14  C   UNL     1      -9.374 -18.114  22.248  1.00  0.00     0.039 C 
BRANCH  13  15
ATOM     15  C   UNL     1     -10.312 -17.713  25.072  1.00  0.00     0.035 C 
BRANCH  15  16
ATOM     16  C   UNL     1      -9.684 -18.707  26.055  1.00  0.00     0.079 C 
BRANCH  16  17
ATOM     17  C   UNL     1     -10.301 -20.071  25.900  1.00  0.00     0.130 C 
ATOM     18  O   UNL     1     -10.268 -20.856  26.836  1.00  0.00    -0.300 OA
ATOM     19  C   UNL     1     -10.966 -20.486  24.621  1.00  0.00     0.087 C 
ENDBRANCH  16  17
ENDBRANCH  15  16
ENDBRANCH  13  15
ENDBRANCH  11  12
ENDBRANCH   1  11
TORSDOF 9
ENDMDL
MODEL 8
REMARK VINA RESULT:    -4.913      2.302      5.387
REMARK INTER + INTRA:          -9.836
REMARK INTER:                  -7.547
REMARK INTRA:                  -2.289
REMARK UNBOUND:                -2.338
REMARK SMILES CC(=O)CCC=C(C)CCC=C(C)CCC=C(C)C
REMARK SMILES IDX 10 1 11 2 12 3 13 4 14 5 15 6 16 7 18 8 17 9 19 10 9 11 7 12
REMARK SMILES IDX 6 13 8 14 5 15 4 16 2 17 3 18 1 19
REMARK H PARENT
REMARK Flexibility Score: inf
ROOT
ATOM      1  C   UNL     1     -12.243 -22.803  20.559  1.00  0.00     0.032 C 
ENDROOT
BRANCH   1   2
ATOM      2  C   UNL     1     -11.304 -22.571  19.396  1.00  0.00    -0.028 C 
ATOM      3  C   UNL     1      -9.951 -22.594  19.451  1.00  0.00    -0.077 C 
ATOM      4  C   UNL     1      -9.189 -22.294  18.184  1.00  0.00     0.039 C 
BRANCH   3   5
ATOM      5  C   UNL     1      -9.171 -22.917  20.711  1.00  0.00     0.034 C 
BRANCH   5   6
ATOM      6  C   UNL     1      -8.693 -21.643  21.416  1.00  0.00     0.032 C 
BRANCH   6   7
ATOM      7  C   UNL     1      -9.618 -21.281  22.552  1.00  0.00    -0.028 C 
ATOM      8  C   UNL     1     -10.654 -19.369  21.311  1.00  0.00     0.039 C 
ATOM      9  C   UNL     1     -10.487 -20.247  22.529  1.00  0.00    -0.080 C 
ATOM     10  C   UNL     1     -11.319 -19.981  23.756  1.00  0.00     0.039 C 
ENDBRANCH   6   7
ENDBRANCH   5   6
ENDBRANCH   3   5
ENDBRANCH   1   2
BRANCH   1  11
ATOM     11  C   UNL     1     -13.378 -21.770  20.579  1.00  0.00     0.034 C 
BRANCH  11  12
ATOM     12  C   UNL     1     -14.300 -21.967  21.763  1.00  0.00    -0.077 C 
ATOM     13  C   UNL     1     -13.849 -22.631  22.852  1.00  0.00    -0.028 C 
ATOM     14  C   UNL     1     -15.687 -21.372  21.709  1.00  0.00     0.039 C 
BRANCH  13  15
ATOM     15  C   UNL     1     -14.628 -22.799  24.131  1.00  0.00     0.035 C 
BRANCH  15  16
ATOM     16  C   UNL     1     -13.957 -22.028  25.272  1.00  0.00     0.079 C 
BRANCH  16  17
ATOM     17  C   UNL     1     -12.978 -22.906  26.004  1.00  0.00     0.130 C 
ATOM     18  O   UNL     1     -11.893 -22.451  26.335  1.00  0.00    -0.300 OA
ATOM     19  C   UNL     1     -13.308 -24.329  26.344  1.00  0.00     0.087 C 
ENDBRANCH  16  17
ENDBRANCH  15  16
ENDBRANCH  13  15
ENDBRANCH  11  12
ENDBRANCH   1  11
TORSDOF 9
ENDMDL
MODEL 9
REMARK VINA RESULT:    -4.903      2.764      6.138
REMARK INTER + INTRA:          -9.820
REMARK INTER:                  -7.533
REMARK INTRA:                  -2.287
REMARK UNBOUND:                -2.338
REMARK SMILES CC(=O)CCC=C(C)CCC=C(C)CCC=C(C)C
REMARK SMILES IDX 10 1 11 2 12 3 13 4 14 5 15 6 16 7 18 8 17 9 19 10 9 11 7 12
REMARK SMILES IDX 6 13 8 14 5 15 4 16 2 17 3 18 1 19
REMARK H PARENT
REMARK Flexibility Score: inf
ROOT
ATOM      1  C   UNL     1     -10.988 -19.500  21.028  1.00  0.00     0.032 C 
ENDROOT
BRANCH   1   2
ATOM      2  C   UNL     1     -10.064 -18.992  22.113  1.00  0.00    -0.028 C 
ATOM      3  C   UNL     1     -10.272 -19.096  23.447  1.00  0.00    -0.077 C 
ATOM      4  C   UNL     1      -9.248 -18.483  24.369  1.00  0.00     0.039 C 
BRANCH   3   5
ATOM      5  C   UNL     1     -11.468 -19.804  24.054  1.00  0.00     0.034 C 
BRANCH   5   6
ATOM      6  C   UNL     1     -11.157 -21.276  24.347  1.00  0.00     0.032 C 
BRANCH   6   7
ATOM      7  C   UNL     1     -12.359 -21.969  24.941  1.00  0.00    -0.028 C 
ATOM      8  C   UNL     1     -12.154 -23.960  23.436  1.00  0.00     0.039 C 
ATOM      9  C   UNL     1     -12.834 -23.163  24.526  1.00  0.00    -0.080 C 
ATOM     10  C   UNL     1     -14.071 -23.714  25.187  1.00  0.00     0.039 C 
ENDBRANCH   6   7
ENDBRANCH   5   6
ENDBRANCH   3   5
ENDBRANCH   1   2
BRANCH   1  11
ATOM     11  C   UNL     1     -10.804 -21.005  20.793  1.00  0.00     0.034 C 
BRANCH  11  12
ATOM     12  C   UNL     1     -12.121 -21.697  20.509  1.00  0.00    -0.077 C 
ATOM     13  C   UNL     1     -13.258 -21.210  21.056  1.00  0.00    -0.028 C 
ATOM     14  C   UNL     1     -12.128 -22.889  19.581  1.00  0.00     0.039 C 
BRANCH  13  15
ATOM     15  C   UNL     1     -14.638 -21.740  20.765  1.00  0.00     0.035 C 
BRANCH  15  16
ATOM     16  C   UNL     1     -15.253 -22.353  22.026  1.00  0.00     0.079 C 
BRANCH  16  17
ATOM     17  C   UNL     1     -16.105 -21.343  22.748  1.00  0.00     0.130 C 
ATOM     18  O   UNL     1     -15.652 -20.763  23.724  1.00  0.00    -0.300 OA
ATOM     19  C   UNL     1     -17.496 -21.024  22.288  1.00  0.00     0.087 C 
ENDBRANCH  16  17
ENDBRANCH  15  16
ENDBRANCH  13  15
ENDBRANCH  11  12
ENDBRANCH   1  11
TORSDOF 9
ENDMDL
