MODEL 1
REMARK VINA RESULT:    -2.987      0.000      0.000
REMARK INTER + INTRA:          -2.940
REMARK INTER:                  -3.685
REMARK INTRA:                   0.745
REMARK UNBOUND:                 0.745
REMARK SMILES CC1=CC=CC(C)(C)CC1=O
REMARK SMILES IDX 1 1 2 2 3 3 10 4 11 5 9 6 4 8 5 9 6 10 7 11 8 12
REMARK H PARENT
REMARK Flexibility Score: 80.00
ROOT
ATOM      1  C   UNL     1      99.021   9.712  69.286  1.00  0.00     0.048 C 
ATOM      2  C   UNL     1      98.241   8.478  69.674  1.00  0.00    -0.008 C 
ATOM      3  C   UNL     1      96.893   8.550  69.625  1.00  0.00     0.007 C 
ENDROOT
BRANCH   2   4
ATOM      4  C   UNL     1      99.023   7.261  70.006  1.00  0.00     0.159 C 
ATOM      5  O   UNL     1     100.258   7.243  69.751  1.00  0.00    -0.295 OA
BRANCH   4   6
ATOM      6  C   UNL     1      98.426   6.046  70.647  1.00  0.00     0.091 CG0
ATOM      7  G   UNL     1      97.293   5.410  69.811  1.00  0.00     0.000 G0
ENDBRANCH   4   6
ENDBRANCH   2   4
BRANCH   3   8
ATOM      8  C   UNL     1      95.875   7.514  69.917  1.00  0.00    -0.003 C 
ATOM      9  C   UNL     1      96.019   6.184  69.989  1.00  0.00    -0.020 C 
BRANCH   9  10
ATOM     10  C   UNL     1      97.303   5.410  69.809  1.00  0.00    -0.010 CG0
ATOM     11  C   UNL     1      97.083   3.975  70.341  1.00  0.00     0.016 C 
ATOM     12  C   UNL     1      97.655   5.314  68.306  1.00  0.00     0.016 C 
ATOM     13  G   UNL     1      98.427   6.065  70.643  1.00  0.00     0.000 G0
ENDBRANCH   9  10
ENDBRANCH   3   8
TORSDOF 0
ENDMDL
MODEL 2
REMARK VINA RESULT:    -2.957      6.064      6.913
REMARK INTER + INTRA:          -2.903
REMARK INTER:                  -3.666
REMARK INTRA:                   0.763
REMARK UNBOUND:                 0.745
REMARK SMILES CC1=CC=CC(C)(C)CC1=O
REMARK SMILES IDX 1 1 2 2 3 3 10 4 11 5 9 6 4 8 5 9 6 10 7 11 8 12
REMARK H PARENT
REMARK Flexibility Score: 80.00
ROOT
ATOM      1  C   UNL     1      97.748   9.122  77.796  1.00  0.00     0.048 C 
ATOM      2  C   UNL     1      98.133   7.837  77.103  1.00  0.00    -0.008 C 
ATOM      3  C   UNL     1      99.168   7.136  77.614  1.00  0.00     0.007 C 
ENDROOT
BRANCH   2   4
ATOM      4  C   UNL     1      97.290   7.408  75.958  1.00  0.00     0.159 C 
ATOM      5  O   UNL     1      96.217   8.030  75.727  1.00  0.00    -0.295 OA
BRANCH   4   6
ATOM      6  C   UNL     1      97.651   6.278  75.045  1.00  0.00     0.091 CG0
ATOM      7  G   UNL     1      97.833   4.932  75.783  1.00  0.00     0.000 G0
ENDBRANCH   4   6
ENDBRANCH   2   4
BRANCH   3   8
ATOM      8  C   UNL     1      99.752   5.847  77.176  1.00  0.00    -0.003 C 
ATOM      9  C   UNL     1      99.211   4.892  76.407  1.00  0.00    -0.020 C 
BRANCH   9  10
ATOM     10  C   UNL     1      97.845   4.924  75.765  1.00  0.00    -0.010 CG0
ATOM     11  C   UNL     1      97.779   3.798  74.708  1.00  0.00     0.016 C 
ATOM     12  C   UNL     1      96.756   4.647  76.828  1.00  0.00     0.016 C 
ATOM     13  G   UNL     1      97.641   6.275  75.043  1.00  0.00     0.000 G0
ENDBRANCH   9  10
ENDBRANCH   3   8
TORSDOF 0
ENDMDL
MODEL 3
REMARK VINA RESULT:    -2.912      7.642      8.347
REMARK INTER + INTRA:          -2.848
REMARK INTER:                  -3.597
REMARK INTRA:                   0.749
REMARK UNBOUND:                 0.745
REMARK SMILES CC1=CC=CC(C)(C)CC1=O
REMARK SMILES IDX 1 1 2 2 3 3 10 4 11 5 9 6 4 8 5 9 6 10 7 11 8 12
REMARK H PARENT
REMARK Flexibility Score: 80.00
ROOT
ATOM      1  C   UNL     1     100.462   9.530  79.860  1.00  0.00     0.048 C 
ATOM      2  C   UNL     1      99.928   8.459  78.938  1.00  0.00    -0.008 C 
ATOM      3  C   UNL     1      98.833   8.754  78.205  1.00  0.00     0.007 C 
ENDROOT
BRANCH   2   4
ATOM      4  C   UNL     1     100.700   7.194  78.855  1.00  0.00     0.159 C 
ATOM      5  O   UNL     1     101.849   7.147  79.372  1.00  0.00    -0.295 OA
BRANCH   4   6
ATOM      6  C   UNL     1     100.180   5.952  78.199  1.00  0.00     0.091 CG0
ATOM      7  G   UNL     1      99.859   6.142  76.700  1.00  0.00     0.000 G0
ENDBRANCH   4   6
ENDBRANCH   2   4
BRANCH   3   8
ATOM      8  C   UNL     1      98.105   7.931  77.210  1.00  0.00    -0.003 C 
ATOM      9  C   UNL     1      98.519   6.842  76.550  1.00  0.00    -0.020 C 
BRANCH   9  10
ATOM     10  C   UNL     1      99.859   6.160  76.694  1.00  0.00    -0.010 CG0
ATOM     11  C   UNL     1      99.766   4.764  76.039  1.00  0.00     0.016 C 
ATOM     12  C   UNL     1     100.945   6.968  75.947  1.00  0.00     0.016 C 
ATOM     13  G   UNL     1     100.186   5.967  78.192  1.00  0.00     0.000 G0
ENDBRANCH   9  10
ENDBRANCH   3   8
TORSDOF 0
ENDMDL
MODEL 4
REMARK VINA RESULT:    -2.810      8.430      9.598
REMARK INTER + INTRA:          -2.722
REMARK INTER:                  -3.474
REMARK INTRA:                   0.753
REMARK UNBOUND:                 0.745
REMARK SMILES CC1=CC=CC(C)(C)CC1=O
REMARK SMILES IDX 1 1 2 2 3 3 10 4 11 5 9 6 4 8 5 9 6 10 7 11 8 12
REMARK H PARENT
REMARK Flexibility Score: 80.00
ROOT
ATOM      1  C   UNL     1      97.796   6.752  76.509  1.00  0.00     0.048 C 
ATOM      2  C   UNL     1      98.794   7.410  77.433  1.00  0.00    -0.008 C 
ATOM      3  C   UNL     1      99.929   6.733  77.711  1.00  0.00     0.007 C 
ENDROOT
BRANCH   2   4
ATOM      4  C   UNL     1      98.478   8.783  77.900  1.00  0.00     0.159 C 
ATOM      5  O   UNL     1      97.513   9.399  77.371  1.00  0.00    -0.295 OA
BRANCH   4   6
ATOM      6  C   UNL     1      99.240   9.481  78.985  1.00  0.00     0.091 CG0
ATOM      7  G   UNL     1     100.742   9.647  78.666  1.00  0.00     0.000 G0
ENDBRANCH   4   6
ENDBRANCH   2   4
BRANCH   3   8
ATOM      8  C   UNL     1     101.088   7.124  78.549  1.00  0.00    -0.003 C 
ATOM      9  C   UNL     1     101.459   8.343  78.961  1.00  0.00    -0.020 C 
BRANCH   9  10
ATOM     10  C   UNL     1     100.743   9.642  78.680  1.00  0.00    -0.010 CG0
ATOM     11  C   UNL     1     101.304  10.722  79.633  1.00  0.00     0.016 C 
ATOM     12  C   UNL     1     101.021  10.095  77.228  1.00  0.00     0.016 C 
ATOM     13  G   UNL     1      99.235   9.479  78.974  1.00  0.00     0.000 G0
ENDBRANCH   9  10
ENDBRANCH   3   8
TORSDOF 0
ENDMDL
MODEL 5
REMARK VINA RESULT:    -2.777      7.257      8.570
REMARK INTER + INTRA:          -2.682
REMARK INTER:                  -3.437
REMARK INTRA:                   0.755
REMARK UNBOUND:                 0.745
REMARK SMILES CC1=CC=CC(C)(C)CC1=O
REMARK SMILES IDX 1 1 2 2 3 3 10 4 11 5 9 6 4 8 5 9 6 10 7 11 8 12
REMARK H PARENT
REMARK Flexibility Score: 80.00
ROOT
ATOM      1  C   UNL     1      97.541   4.850  75.371  1.00  0.00     0.048 C 
ATOM      2  C   UNL     1      98.319   5.473  76.506  1.00  0.00    -0.008 C 
ATOM      3  C   UNL     1      99.228   4.700  77.139  1.00  0.00     0.007 C 
ENDROOT
BRANCH   2   4
ATOM      4  C   UNL     1      98.073   6.910  76.784  1.00  0.00     0.159 C 
ATOM      5  O   UNL     1      97.362   7.572  75.980  1.00  0.00    -0.295 OA
BRANCH   4   6
ATOM      6  C   UNL     1      98.616   7.622  77.985  1.00  0.00     0.091 CG0
ATOM      7  G   UNL     1     100.157   7.572  78.079  1.00  0.00     0.000 G0
ENDBRANCH   4   6
ENDBRANCH   2   4
BRANCH   3   8
ATOM      8  C   UNL     1     100.147   5.032  78.253  1.00  0.00    -0.003 C 
ATOM      9  C   UNL     1     100.563   6.234  78.675  1.00  0.00    -0.020 C 
BRANCH   9  10
ATOM     10  C   UNL     1     100.154   7.574  78.112  1.00  0.00    -0.010 CG0
ATOM     11  C   UNL     1     100.587   8.672  79.110  1.00  0.00     0.016 C 
ATOM     12  C   UNL     1     100.885   7.829  76.774  1.00  0.00     0.016 C 
ATOM     13  G   UNL     1      98.616   7.632  77.971  1.00  0.00     0.000 G0
ENDBRANCH   9  10
ENDBRANCH   3   8
TORSDOF 0
ENDMDL
MODEL 6
REMARK VINA RESULT:    -2.751      7.580      8.580
REMARK INTER + INTRA:          -2.649
REMARK INTER:                  -3.406
REMARK INTRA:                   0.756
REMARK UNBOUND:                 0.745
REMARK SMILES CC1=CC=CC(C)(C)CC1=O
REMARK SMILES IDX 1 1 2 2 3 3 10 4 11 5 9 6 4 8 5 9 6 10 7 11 8 12
REMARK H PARENT
REMARK Flexibility Score: 80.00
ROOT
ATOM      1  C   UNL     1      96.567   8.450  76.114  1.00  0.00     0.048 C 
ATOM      2  C   UNL     1      97.771   7.856  76.807  1.00  0.00    -0.008 C 
ATOM      3  C   UNL     1      98.175   6.628  76.415  1.00  0.00     0.007 C 
ENDROOT
BRANCH   2   4
ATOM      4  C   UNL     1      98.459   8.704  77.811  1.00  0.00     0.159 C 
ATOM      5  O   UNL     1      98.147   9.924  77.894  1.00  0.00    -0.295 OA
BRANCH   4   6
ATOM      6  C   UNL     1      99.504   8.187  78.752  1.00  0.00     0.091 CG0
ATOM      7  G   UNL     1     100.734   7.592  78.030  1.00  0.00     0.000 G0
ENDBRANCH   4   6
ENDBRANCH   2   4
BRANCH   3   8
ATOM      8  C   UNL     1      99.319   5.810  76.881  1.00  0.00    -0.003 C 
ATOM      9  C   UNL     1     100.409   6.191  77.559  1.00  0.00    -0.020 C 
BRANCH   9  10
ATOM     10  C   UNL     1     100.721   7.586  78.047  1.00  0.00    -0.010 CG0
ATOM     11  C   UNL     1     101.861   7.493  79.086  1.00  0.00     0.016 C 
ATOM     12  C   UNL     1     101.216   8.458  76.870  1.00  0.00     0.016 C 
ATOM     13  G   UNL     1      99.479   8.182  78.747  1.00  0.00     0.000 G0
ENDBRANCH   9  10
ENDBRANCH   3   8
TORSDOF 0
ENDMDL
MODEL 7
REMARK VINA RESULT:    -2.657      6.529      7.615
REMARK INTER + INTRA:          -2.533
REMARK INTER:                  -3.275
REMARK INTRA:                   0.742
REMARK UNBOUND:                 0.745
REMARK SMILES CC1=CC=CC(C)(C)CC1=O
REMARK SMILES IDX 1 1 2 2 3 3 10 4 11 5 9 6 4 8 5 9 6 10 7 11 8 12
REMARK H PARENT
REMARK Flexibility Score: 80.00
ROOT
ATOM      1  C   UNL     1     101.115   6.874  79.131  1.00  0.00     0.048 C 
ATOM      2  C   UNL     1     100.525   5.951  78.091  1.00  0.00    -0.008 C 
ATOM      3  C   UNL     1     100.291   4.670  78.452  1.00  0.00     0.007 C 
ENDROOT
BRANCH   2   4
ATOM      4  C   UNL     1     100.178   6.548  76.777  1.00  0.00     0.159 C 
ATOM      5  O   UNL     1     100.188   7.804  76.658  1.00  0.00    -0.295 OA
BRANCH   4   6
ATOM      6  C   UNL     1      99.827   5.736  75.569  1.00  0.00     0.091 CG0
ATOM      7  G   UNL     1      98.584   4.841  75.774  1.00  0.00     0.000 G0
ENDBRANCH   4   6
ENDBRANCH   2   4
BRANCH   3   8
ATOM      8  C   UNL     1      99.705   3.555  77.672  1.00  0.00    -0.003 C 
ATOM      9  C   UNL     1      98.974   3.601  76.551  1.00  0.00    -0.020 C 
BRANCH   9  10
ATOM     10  C   UNL     1      98.588   4.841  75.781  1.00  0.00    -0.010 CG0
ATOM     11  C   UNL     1      98.087   4.409  74.384  1.00  0.00     0.016 C 
ATOM     12  C   UNL     1      97.429   5.570  76.500  1.00  0.00     0.016 C 
ATOM     13  G   UNL     1      99.829   5.742  75.590  1.00  0.00     0.000 G0
ENDBRANCH   9  10
ENDBRANCH   3   8
TORSDOF 0
ENDMDL
MODEL 8
REMARK VINA RESULT:    -2.439      6.392      7.837
REMARK INTER + INTRA:          -2.265
REMARK INTER:                  -3.014
REMARK INTRA:                   0.749
REMARK UNBOUND:                 0.745
REMARK SMILES CC1=CC=CC(C)(C)CC1=O
REMARK SMILES IDX 1 1 2 2 3 3 10 4 11 5 9 6 4 8 5 9 6 10 7 11 8 12
REMARK H PARENT
REMARK Flexibility Score: 80.00
ROOT
ATOM      1  C   UNL     1     100.323   1.631  76.703  1.00  0.00     0.048 C 
ATOM      2  C   UNL     1      99.724   3.010  76.852  1.00  0.00    -0.008 C 
ATOM      3  C   UNL     1     100.378   3.894  77.636  1.00  0.00     0.007 C 
ENDROOT
BRANCH   2   4
ATOM      4  C   UNL     1      98.503   3.305  76.061  1.00  0.00     0.159 C 
ATOM      5  O   UNL     1      98.135   2.480  75.180  1.00  0.00    -0.295 OA
BRANCH   4   6
ATOM      6  C   UNL     1      97.667   4.531  76.260  1.00  0.00     0.091 CG0
ATOM      7  G   UNL     1      98.452   5.846  76.050  1.00  0.00     0.000 G0
ENDBRANCH   4   6
ENDBRANCH   2   4
BRANCH   3   8
ATOM      8  C   UNL     1     100.056   5.306  77.949  1.00  0.00    -0.003 C 
ATOM      9  C   UNL     1      99.254   6.155  77.293  1.00  0.00    -0.020 C 
BRANCH   9  10
ATOM     10  C   UNL     1      98.444   5.850  76.056  1.00  0.00    -0.010 CG0
ATOM     11  C   UNL     1      97.407   6.981  75.864  1.00  0.00     0.016 C 
ATOM     12  C   UNL     1      99.365   5.830  74.814  1.00  0.00     0.016 C 
ATOM     13  G   UNL     1      97.677   4.523  76.250  1.00  0.00     0.000 G0
ENDBRANCH   9  10
ENDBRANCH   3   8
TORSDOF 0
ENDMDL
MODEL 9
REMARK VINA RESULT:    -2.376      1.722      2.515
REMARK INTER + INTRA:          -2.187
REMARK INTER:                  -2.951
REMARK INTRA:                   0.764
REMARK UNBOUND:                 0.745
REMARK SMILES CC1=CC=CC(C)(C)CC1=O
REMARK SMILES IDX 1 1 2 2 3 3 10 4 11 5 9 6 4 8 5 9 6 10 7 11 8 12
REMARK H PARENT
REMARK Flexibility Score: 80.00
ROOT
ATOM      1  C   UNL     1      97.620   8.162  69.984  1.00  0.00     0.048 C 
ATOM      2  C   UNL     1      97.286   6.692  69.883  1.00  0.00    -0.008 C 
ATOM      3  C   UNL     1      96.996   6.200  68.660  1.00  0.00     0.007 C 
ENDROOT
BRANCH   2   4
ATOM      4  C   UNL     1      97.379   5.891  71.129  1.00  0.00     0.159 C 
ATOM      5  O   UNL     1      97.914   6.410  72.148  1.00  0.00    -0.295 OA
BRANCH   4   6
ATOM      6  C   UNL     1      96.857   4.493  71.253  1.00  0.00     0.091 CG0
ATOM      7  G   UNL     1      97.500   3.511  70.247  1.00  0.00     0.000 G0
ENDBRANCH   4   6
ENDBRANCH   2   4
BRANCH   3   8
ATOM      8  C   UNL     1      96.661   4.817  68.246  1.00  0.00    -0.003 C 
ATOM      9  C   UNL     1      96.878   3.666  68.896  1.00  0.00    -0.020 C 
BRANCH   9  10
ATOM     10  C   UNL     1      97.509   3.509  70.258  1.00  0.00    -0.010 CG0
ATOM     11  C   UNL     1      97.235   2.072  70.758  1.00  0.00     0.016 C 
ATOM     12  C   UNL     1      99.041   3.694  70.154  1.00  0.00     0.016 C 
ATOM     13  G   UNL     1      96.857   4.496  71.252  1.00  0.00     0.000 G0
ENDBRANCH   9  10
ENDBRANCH   3   8
TORSDOF 0
ENDMDL
