MODEL 1
REMARK VINA RESULT:    -3.426      0.000      0.000
REMARK INTER + INTRA:          -4.221
REMARK INTER:                  -4.126
REMARK INTRA:                  -0.094
REMARK UNBOUND:                -0.094
REMARK SMILES OCC(O)CO
REMARK SMILES IDX 3 1 5 2 6 3 2 5 1 6 4 8
REMARK H PARENT 6 4 1 7 4 9
REMARK Flexibility Score: inf
ROOT
ATOM      1  C   UNL     1       1.301  -0.127  -8.488  1.00  0.00     0.165 C 
ENDROOT
BRANCH   1   2
ATOM      2  C   UNL     1       1.414  -0.022  -6.961  1.00  0.00     0.190 C 
BRANCH   2   3
ATOM      3  O   UNL     1       1.117   1.280  -6.537  1.00  0.00    -0.394 OA
ATOM      4  H   UNL     1       1.962   1.795  -6.618  1.00  0.00     0.210 HD
ENDBRANCH   2   3
ENDBRANCH   1   2
BRANCH   1   5
ATOM      5  C   UNL     1       2.656   0.129  -9.164  1.00  0.00     0.190 C 
BRANCH   5   6
ATOM      6  O   UNL     1       3.695   0.036  -8.227  1.00  0.00    -0.394 OA
ATOM      7  H   UNL     1       3.711  -0.906  -7.913  1.00  0.00     0.210 HD
ENDBRANCH   5   6
ENDBRANCH   1   5
BRANCH   1   8
ATOM      8  O   UNL     1       0.832  -1.399  -8.852  1.00  0.00    -0.388 OA
ATOM      9  H   UNL     1       1.589  -1.869  -9.293  1.00  0.00     0.211 HD
ENDBRANCH   1   8
TORSDOF 5
ENDMDL
MODEL 2
REMARK VINA RESULT:    -3.145      0.794      2.602
REMARK INTER + INTRA:          -3.883
REMARK INTER:                  -3.731
REMARK INTRA:                  -0.151
REMARK UNBOUND:                -0.094
REMARK SMILES OCC(O)CO
REMARK SMILES IDX 3 1 5 2 6 3 2 5 1 6 4 8
REMARK H PARENT 6 4 1 7 4 9
REMARK Flexibility Score: inf
ROOT
ATOM      1  C   UNL     1       1.316   0.107  -6.841  1.00  0.00     0.165 C 
ENDROOT
BRANCH   1   2
ATOM      2  C   UNL     1       1.411  -0.006  -8.369  1.00  0.00     0.190 C 
BRANCH   2   3
ATOM      3  O   UNL     1       1.171  -1.324  -8.778  1.00  0.00    -0.394 OA
ATOM      4  H   UNL     1       0.634  -1.743  -8.056  1.00  0.00     0.210 HD
ENDBRANCH   2   3
ENDBRANCH   1   2
BRANCH   1   5
ATOM      5  C   UNL     1       2.642  -0.282  -6.173  1.00  0.00     0.190 C 
BRANCH   5   6
ATOM      6  O   UNL     1       3.694  -0.217  -7.099  1.00  0.00    -0.394 OA
ATOM      7  H   UNL     1       4.030  -1.145  -7.212  1.00  0.00     0.210 HD
ENDBRANCH   5   6
ENDBRANCH   1   5
BRANCH   1   8
ATOM      8  O   UNL     1       0.976   1.419  -6.474  1.00  0.00    -0.388 OA
ATOM      9  H   UNL     1       1.446   1.609  -5.620  1.00  0.00     0.211 HD
ENDBRANCH   1   8
TORSDOF 5
ENDMDL
MODEL 3
REMARK VINA RESULT:    -3.103      1.478      1.510
REMARK INTER + INTRA:          -3.832
REMARK INTER:                  -3.819
REMARK INTRA:                  -0.013
REMARK UNBOUND:                -0.094
REMARK SMILES OCC(O)CO
REMARK SMILES IDX 3 1 5 2 6 3 2 5 1 6 4 8
REMARK H PARENT 6 4 1 7 4 9
REMARK Flexibility Score: inf
ROOT
ATOM      1  C   UNL     1       1.762  -0.274  -7.542  1.00  0.00     0.165 C 
ENDROOT
BRANCH   1   2
ATOM      2  C   UNL     1       0.696   0.686  -6.995  1.00  0.00     0.190 C 
BRANCH   2   3
ATOM      3  O   UNL     1       1.249   1.522  -6.016  1.00  0.00    -0.394 OA
ATOM      4  H   UNL     1       2.182   1.211  -5.882  1.00  0.00     0.210 HD
ENDBRANCH   2   3
ENDBRANCH   1   2
BRANCH   1   5
ATOM      5  C   UNL     1       2.174   0.111  -8.970  1.00  0.00     0.190 C 
BRANCH   5   6
ATOM      6  O   UNL     1       3.540   0.431  -9.015  1.00  0.00    -0.394 OA
ATOM      7  H   UNL     1       3.599   1.389  -9.267  1.00  0.00     0.210 HD
ENDBRANCH   5   6
ENDBRANCH   1   5
BRANCH   1   8
ATOM      8  O   UNL     1       2.894  -0.264  -6.712  1.00  0.00    -0.388 OA
ATOM      9  H   UNL     1       3.679  -0.099  -7.298  1.00  0.00     0.211 HD
ENDBRANCH   1   8
TORSDOF 5
ENDMDL
MODEL 4
REMARK VINA RESULT:    -2.927      0.571      2.472
REMARK INTER + INTRA:          -3.620
REMARK INTER:                  -3.585
REMARK INTRA:                  -0.035
REMARK UNBOUND:                -0.094
REMARK SMILES OCC(O)CO
REMARK SMILES IDX 3 1 5 2 6 3 2 5 1 6 4 8
REMARK H PARENT 6 4 1 7 4 9
REMARK Flexibility Score: inf
ROOT
ATOM      1  C   UNL     1       1.553  -0.412  -8.109  1.00  0.00     0.165 C 
ENDROOT
BRANCH   1   2
ATOM      2  C   UNL     1       2.400   0.372  -9.121  1.00  0.00     0.190 C 
BRANCH   2   3
ATOM      3  O   UNL     1       3.756   0.312  -8.774  1.00  0.00    -0.394 OA
ATOM      4  H   UNL     1       3.788   0.325  -7.782  1.00  0.00     0.210 HD
ENDBRANCH   2   3
ENDBRANCH   1   2
BRANCH   1   5
ATOM      5  C   UNL     1       0.697   0.533  -7.252  1.00  0.00     0.190 C 
BRANCH   5   6
ATOM      6  O   UNL     1       1.482   1.137  -6.259  1.00  0.00    -0.394 OA
ATOM      7  H   UNL     1       1.101   2.041  -6.106  1.00  0.00     0.210 HD
ENDBRANCH   5   6
ENDBRANCH   1   5
BRANCH   1   8
ATOM      8  O   UNL     1       0.717  -1.319  -8.779  1.00  0.00    -0.388 OA
ATOM      9  H   UNL     1       0.606  -0.977  -9.705  1.00  0.00     0.211 HD
ENDBRANCH   1   8
TORSDOF 5
ENDMDL
MODEL 5
REMARK VINA RESULT:    -2.737      1.133      2.859
REMARK INTER + INTRA:          -3.391
REMARK INTER:                  -3.379
REMARK INTRA:                  -0.012
REMARK UNBOUND:                -0.094
REMARK SMILES OCC(O)CO
REMARK SMILES IDX 3 1 5 2 6 3 2 5 1 6 4 8
REMARK H PARENT 6 4 1 7 4 9
REMARK Flexibility Score: inf
ROOT
ATOM      1  C   UNL     1       1.636   0.141  -8.306  1.00  0.00     0.165 C 
ENDROOT
BRANCH   1   2
ATOM      2  C   UNL     1       2.616   0.034  -9.483  1.00  0.00     0.190 C 
BRANCH   2   3
ATOM      3  O   UNL     1       3.842   0.627  -9.154  1.00  0.00    -0.394 OA
ATOM      4  H   UNL     1       4.246   0.053  -8.452  1.00  0.00     0.210 HD
ENDBRANCH   2   3
ENDBRANCH   1   2
BRANCH   1   5
ATOM      5  C   UNL     1       0.441  -0.805  -8.490  1.00  0.00     0.190 C 
BRANCH   5   6
ATOM      6  O   UNL     1       0.777  -1.852  -9.361  1.00  0.00    -0.394 OA
ATOM      7  H   UNL     1       1.740  -2.045  -9.216  1.00  0.00     0.210 HD
ENDBRANCH   5   6
ENDBRANCH   1   5
BRANCH   1   8
ATOM      8  O   UNL     1       2.291  -0.164  -7.103  1.00  0.00    -0.388 OA
ATOM      9  H   UNL     1       2.962  -0.866  -7.311  1.00  0.00     0.211 HD
ENDBRANCH   1   8
TORSDOF 5
ENDMDL
MODEL 6
REMARK VINA RESULT:    -2.716      1.348      2.233
REMARK INTER + INTRA:          -3.366
REMARK INTER:                  -3.143
REMARK INTRA:                  -0.223
REMARK UNBOUND:                -0.094
REMARK SMILES OCC(O)CO
REMARK SMILES IDX 3 1 5 2 6 3 2 5 1 6 4 8
REMARK H PARENT 6 4 1 7 4 9
REMARK Flexibility Score: inf
ROOT
ATOM      1  C   UNL     1       1.494   0.705  -7.002  1.00  0.00     0.165 C 
ENDROOT
BRANCH   1   2
ATOM      2  C   UNL     1       2.225  -0.053  -5.884  1.00  0.00     0.190 C 
BRANCH   2   3
ATOM      3  O   UNL     1       3.427  -0.591  -6.363  1.00  0.00    -0.394 OA
ATOM      4  H   UNL     1       3.573  -0.186  -7.257  1.00  0.00     0.210 HD
ENDBRANCH   2   3
ENDBRANCH   1   2
BRANCH   1   5
ATOM      5  C   UNL     1       1.379  -0.152  -8.271  1.00  0.00     0.190 C 
BRANCH   5   6
ATOM      6  O   UNL     1       2.524  -0.003  -9.067  1.00  0.00    -0.394 OA
ATOM      7  H   UNL     1       3.289  -0.340  -8.531  1.00  0.00     0.210 HD
ENDBRANCH   5   6
ENDBRANCH   1   5
BRANCH   1   8
ATOM      8  O   UNL     1       0.210   1.078  -6.573  1.00  0.00    -0.388 OA
ATOM      9  H   UNL     1       0.322   1.878  -5.996  1.00  0.00     0.211 HD
ENDBRANCH   1   8
TORSDOF 5
ENDMDL
MODEL 7
REMARK VINA RESULT:    -2.688      0.625      2.900
REMARK INTER + INTRA:          -3.332
REMARK INTER:                  -3.312
REMARK INTRA:                  -0.021
REMARK UNBOUND:                -0.094
REMARK SMILES OCC(O)CO
REMARK SMILES IDX 3 1 5 2 6 3 2 5 1 6 4 8
REMARK H PARENT 6 4 1 7 4 9
REMARK Flexibility Score: inf
ROOT
ATOM      1  C   UNL     1       2.318   0.231  -8.352  1.00  0.00     0.165 C 
ENDROOT
BRANCH   1   2
ATOM      2  C   UNL     1       1.881  -0.682  -9.506  1.00  0.00     0.190 C 
BRANCH   2   3
ATOM      3  O   UNL     1       0.881  -1.565  -9.080  1.00  0.00    -0.394 OA
ATOM      4  H   UNL     1       0.020  -1.169  -9.375  1.00  0.00     0.210 HD
ENDBRANCH   2   3
ENDBRANCH   1   2
BRANCH   1   5
ATOM      5  C   UNL     1       1.414   0.046  -7.125  1.00  0.00     0.190 C 
BRANCH   5   6
ATOM      6  O   UNL     1       1.029   1.292  -6.609  1.00  0.00    -0.394 OA
ATOM      7  H   UNL     1       1.396   1.980  -7.223  1.00  0.00     0.210 HD
ENDBRANCH   5   6
ENDBRANCH   1   5
BRANCH   1   8
ATOM      8  O   UNL     1       3.648  -0.042  -7.996  1.00  0.00    -0.388 OA
ATOM      9  H   UNL     1       3.622  -0.488  -7.109  1.00  0.00     0.211 HD
ENDBRANCH   1   8
TORSDOF 5
ENDMDL
MODEL 8
REMARK VINA RESULT:    -2.419      5.157      6.807
REMARK INTER + INTRA:          -3.008
REMARK INTER:                  -3.006
REMARK INTRA:                  -0.003
REMARK UNBOUND:                -0.094
REMARK SMILES OCC(O)CO
REMARK SMILES IDX 3 1 5 2 6 3 2 5 1 6 4 8
REMARK H PARENT 6 4 1 7 4 9
REMARK Flexibility Score: inf
ROOT
ATOM      1  C   UNL     1      -1.762   4.097  -4.932  1.00  0.00     0.165 C 
ENDROOT
BRANCH   1   2
ATOM      2  C   UNL     1      -0.784   2.918  -5.017  1.00  0.00     0.190 C 
BRANCH   2   3
ATOM      3  O   UNL     1      -0.998   2.188  -6.193  1.00  0.00    -0.394 OA
ATOM      4  H   UNL     1      -0.385   1.409  -6.150  1.00  0.00     0.210 HD
ENDBRANCH   2   3
ENDBRANCH   1   2
BRANCH   1   5
ATOM      5  C   UNL     1      -1.721   4.754  -3.545  1.00  0.00     0.190 C 
BRANCH   5   6
ATOM      6  O   UNL     1      -1.744   6.152  -3.665  1.00  0.00    -0.394 OA
ATOM      7  H   UNL     1      -2.699   6.416  -3.730  1.00  0.00     0.210 HD
ENDBRANCH   5   6
ENDBRANCH   1   5
BRANCH   1   8
ATOM      8  O   UNL     1      -1.450   5.055  -5.910  1.00  0.00    -0.388 OA
ATOM      9  H   UNL     1      -2.159   5.750  -5.868  1.00  0.00     0.211 HD
ENDBRANCH   1   8
TORSDOF 5
ENDMDL
MODEL 9
REMARK VINA RESULT:    -2.040      1.457      3.369
REMARK INTER + INTRA:          -2.552
REMARK INTER:                  -2.549
REMARK INTRA:                  -0.003
REMARK UNBOUND:                -0.094
REMARK SMILES OCC(O)CO
REMARK SMILES IDX 3 1 5 2 6 3 2 5 1 6 4 8
REMARK H PARENT 6 4 1 7 4 9
REMARK Flexibility Score: inf
ROOT
ATOM      1  C   UNL     1       1.412   0.786  -6.923  1.00  0.00     0.165 C 
ENDROOT
BRANCH   1   2
ATOM      2  C   UNL     1       1.484  -0.221  -8.079  1.00  0.00     0.190 C 
BRANCH   2   3
ATOM      3  O   UNL     1       2.633   0.001  -8.849  1.00  0.00    -0.394 OA
ATOM      4  H   UNL     1       2.598  -0.657  -9.592  1.00  0.00     0.210 HD
ENDBRANCH   2   3
ENDBRANCH   1   2
BRANCH   1   5
ATOM      5  C   UNL     1      -0.044   1.089  -6.541  1.00  0.00     0.190 C 
BRANCH   5   6
ATOM      6  O   UNL     1      -0.124   2.305  -5.846  1.00  0.00    -0.394 OA
ATOM      7  H   UNL     1      -0.536   2.961  -6.467  1.00  0.00     0.210 HD
ENDBRANCH   5   6
ENDBRANCH   1   5
BRANCH   1   8
ATOM      8  O   UNL     1       2.092   0.285  -5.802  1.00  0.00    -0.388 OA
ATOM      9  H   UNL     1       1.406   0.101  -5.107  1.00  0.00     0.211 HD
ENDBRANCH   1   8
TORSDOF 5
ENDMDL
