MODEL 1
REMARK VINA RESULT:    -5.455      0.000      0.000
REMARK INTER + INTRA:          -5.455
REMARK INTER:                  -5.455
REMARK INTRA:                   0.000
REMARK UNBOUND:                 0.000
REMARK SMILES CC(C)=C1CC[C@@H](C)CC1=O
REMARK SMILES IDX 8 1 7 2 6 3 5 4 4 5 2 6 1 7 3 8 10 9 11 10 9 11
REMARK H PARENT
REMARK Flexibility Score: inf
ROOT
ATOM      1  C   UNL     1      26.325  54.423  10.489  1.00  0.00     0.008 C 
ATOM      2  C   UNL     1      26.803  55.859  10.733  1.00  0.00    -0.006 C 
ATOM      3  C   UNL     1      28.334  55.941  10.649  1.00  0.00     0.008 C 
ATOM      4  C   UNL     1      28.824  57.389  10.790  1.00  0.00     0.039 C 
ATOM      5  C   UNL     1      28.268  58.074  12.031  1.00  0.00    -0.006 C 
ATOM      6  C   UNL     1      28.985  59.027  12.697  1.00  0.00    -0.070 C 
ATOM      7  C   UNL     1      28.469  59.673  13.961  1.00  0.00     0.039 C 
ATOM      8  C   UNL     1      30.355  59.453  12.219  1.00  0.00     0.039 C 
ATOM      9  C   UNL     1      26.863  57.728  12.398  1.00  0.00     0.159 C 
ATOM     10  O   UNL     1      26.104  58.569  12.949  1.00  0.00    -0.295 OA
ATOM     11  C   UNL     1      26.324  56.358  12.104  1.00  0.00     0.084 C 
ENDROOT
TORSDOF 0
ENDMDL
MODEL 2
REMARK VINA RESULT:    -5.434      4.511      6.077
REMARK INTER + INTRA:          -5.434
REMARK INTER:                  -5.434
REMARK INTRA:                   0.000
REMARK UNBOUND:                 0.000
REMARK SMILES CC(C)=C1CC[C@@H](C)CC1=O
REMARK SMILES IDX 8 1 7 2 6 3 5 4 4 5 2 6 1 7 3 8 10 9 11 10 9 11
REMARK H PARENT
REMARK Flexibility Score: inf
ROOT
ATOM      1  C   UNL     1      29.778  51.929  10.382  1.00  0.00     0.008 C 
ATOM      2  C   UNL     1      28.340  52.251   9.962  1.00  0.00    -0.006 C 
ATOM      3  C   UNL     1      28.156  52.033   8.452  1.00  0.00     0.008 C 
ATOM      4  C   UNL     1      26.696  52.252   8.031  1.00  0.00     0.039 C 
ATOM      5  C   UNL     1      26.150  53.594   8.499  1.00  0.00    -0.006 C 
ATOM      6  C   UNL     1      25.211  54.270   7.773  1.00  0.00    -0.070 C 
ATOM      7  C   UNL     1      24.702  55.628   8.198  1.00  0.00     0.039 C 
ATOM      8  C   UNL     1      24.663  53.706   6.482  1.00  0.00     0.039 C 
ATOM      9  C   UNL     1      26.611  54.058   9.841  1.00  0.00     0.159 C 
ATOM     10  O   UNL     1      25.866  54.748  10.587  1.00  0.00    -0.295 OA
ATOM     11  C   UNL     1      27.984  53.699  10.330  1.00  0.00     0.084 C 
ENDROOT
TORSDOF 0
ENDMDL
MODEL 3
REMARK VINA RESULT:    -5.356      7.817      9.464
REMARK INTER + INTRA:          -5.356
REMARK INTER:                  -5.356
REMARK INTRA:                   0.000
REMARK UNBOUND:                 0.000
REMARK SMILES CC(C)=C1CC[C@@H](C)CC1=O
REMARK SMILES IDX 8 1 7 2 6 3 5 4 4 5 2 6 1 7 3 8 10 9 11 10 9 11
REMARK H PARENT
REMARK Flexibility Score: inf
ROOT
ATOM      1  C   UNL     1      26.954  53.144  17.233  1.00  0.00     0.008 C 
ATOM      2  C   UNL     1      27.282  51.659  17.047  1.00  0.00    -0.006 C 
ATOM      3  C   UNL     1      28.802  51.436  17.050  1.00  0.00     0.008 C 
ATOM      4  C   UNL     1      29.147  49.942  16.966  1.00  0.00     0.039 C 
ATOM      5  C   UNL     1      28.456  49.249  15.799  1.00  0.00    -0.006 C 
ATOM      6  C   UNL     1      29.042  48.199  15.151  1.00  0.00    -0.070 C 
ATOM      7  C   UNL     1      28.392  47.539  13.957  1.00  0.00     0.039 C 
ATOM      8  C   UNL     1      30.392  47.670  15.576  1.00  0.00     0.039 C 
ATOM      9  C   UNL     1      27.069  49.708  15.492  1.00  0.00     0.159 C 
ATOM     10  O   UNL     1      26.204  48.914  15.033  1.00  0.00    -0.295 OA
ATOM     11  C   UNL     1      26.678  51.136  15.735  1.00  0.00     0.084 C 
ENDROOT
TORSDOF 0
ENDMDL
MODEL 4
REMARK VINA RESULT:    -5.302      7.583      8.903
REMARK INTER + INTRA:          -5.302
REMARK INTER:                  -5.302
REMARK INTRA:                   0.000
REMARK UNBOUND:                 0.000
REMARK SMILES CC(C)=C1CC[C@@H](C)CC1=O
REMARK SMILES IDX 8 1 7 2 6 3 5 4 4 5 2 6 1 7 3 8 10 9 11 10 9 11
REMARK H PARENT
REMARK Flexibility Score: inf
ROOT
ATOM      1  C   UNL     1      29.736  55.237  17.302  1.00  0.00     0.008 C 
ATOM      2  C   UNL     1      28.311  54.877  17.735  1.00  0.00    -0.006 C 
ATOM      3  C   UNL     1      28.122  55.129  19.238  1.00  0.00     0.008 C 
ATOM      4  C   UNL     1      26.671  54.871  19.669  1.00  0.00     0.039 C 
ATOM      5  C   UNL     1      26.171  53.498  19.239  1.00  0.00    -0.006 C 
ATOM      6  C   UNL     1      25.258  52.810  19.985  1.00  0.00    -0.070 C 
ATOM      7  C   UNL     1      24.796  51.425  19.599  1.00  0.00     0.039 C 
ATOM      8  C   UNL     1      24.692  53.390  21.262  1.00  0.00     0.039 C 
ATOM      9  C   UNL     1      26.647  53.015  17.909  1.00  0.00     0.159 C 
ATOM     10  O   UNL     1      25.924  52.279  17.184  1.00  0.00    -0.295 OA
ATOM     11  C   UNL     1      28.005  53.408  17.407  1.00  0.00     0.084 C 
ENDROOT
TORSDOF 0
ENDMDL
MODEL 5
REMARK VINA RESULT:    -5.260      5.505      7.129
REMARK INTER + INTRA:          -5.260
REMARK INTER:                  -5.260
REMARK INTRA:                   0.000
REMARK UNBOUND:                 0.000
REMARK SMILES CC(C)=C1CC[C@@H](C)CC1=O
REMARK SMILES IDX 8 1 7 2 6 3 5 4 4 5 2 6 1 7 3 8 10 9 11 10 9 11
REMARK H PARENT
REMARK Flexibility Score: inf
ROOT
ATOM      1  C   UNL     1      25.800  58.164   4.020  1.00  0.00     0.008 C 
ATOM      2  C   UNL     1      25.218  57.155   5.017  1.00  0.00    -0.006 C 
ATOM      3  C   UNL     1      25.218  57.738   6.438  1.00  0.00     0.008 C 
ATOM      4  C   UNL     1      24.546  56.782   7.433  1.00  0.00     0.039 C 
ATOM      5  C   UNL     1      25.130  55.377   7.377  1.00  0.00    -0.006 C 
ATOM      6  C   UNL     1      25.186  54.587   8.490  1.00  0.00    -0.070 C 
ATOM      7  C   UNL     1      25.814  53.213   8.459  1.00  0.00     0.039 C 
ATOM      8  C   UNL     1      24.656  55.069   9.821  1.00  0.00     0.039 C 
ATOM      9  C   UNL     1      25.521  54.883   6.024  1.00  0.00     0.159 C 
ATOM     10  O   UNL     1      25.436  53.662   5.723  1.00  0.00    -0.295 OA
ATOM     11  C   UNL     1      26.020  55.846   4.986  1.00  0.00     0.084 C 
ENDROOT
TORSDOF 0
ENDMDL
MODEL 6
REMARK VINA RESULT:    -5.234      5.577      6.902
REMARK INTER + INTRA:          -5.234
REMARK INTER:                  -5.234
REMARK INTRA:                   0.000
REMARK UNBOUND:                 0.000
REMARK SMILES CC(C)=C1CC[C@@H](C)CC1=O
REMARK SMILES IDX 8 1 7 2 6 3 5 4 4 5 2 6 1 7 3 8 10 9 11 10 9 11
REMARK H PARENT
REMARK Flexibility Score: inf
ROOT
ATOM      1  C   UNL     1      25.781  57.949   4.379  1.00  0.00     0.008 C 
ATOM      2  C   UNL     1      25.841  56.953   5.542  1.00  0.00    -0.006 C 
ATOM      3  C   UNL     1      25.529  55.530   5.054  1.00  0.00     0.008 C 
ATOM      4  C   UNL     1      25.684  54.505   6.185  1.00  0.00     0.039 C 
ATOM      5  C   UNL     1      24.890  54.884   7.428  1.00  0.00    -0.006 C 
ATOM      6  C   UNL     1      24.359  53.931   8.249  1.00  0.00    -0.070 C 
ATOM      7  C   UNL     1      23.522  54.294   9.453  1.00  0.00     0.039 C 
ATOM      8  C   UNL     1      24.552  52.458   7.967  1.00  0.00     0.039 C 
ATOM      9  C   UNL     1      24.832  56.341   7.750  1.00  0.00     0.159 C 
ATOM     10  O   UNL     1      24.772  56.746   8.943  1.00  0.00    -0.295 OA
ATOM     11  C   UNL     1      24.853  57.357   6.647  1.00  0.00     0.084 C 
ENDROOT
TORSDOF 0
ENDMDL
MODEL 7
REMARK VINA RESULT:    -5.171      1.880      3.554
REMARK INTER + INTRA:          -5.171
REMARK INTER:                  -5.171
REMARK INTRA:                   0.000
REMARK UNBOUND:                 0.000
REMARK SMILES CC(C)=C1CC[C@@H](C)CC1=O
REMARK SMILES IDX 8 1 7 2 6 3 5 4 4 5 2 6 1 7 3 8 10 9 11 10 9 11
REMARK H PARENT
REMARK Flexibility Score: inf
ROOT
ATOM      1  C   UNL     1      32.422  56.728  10.255  1.00  0.00     0.008 C 
ATOM      2  C   UNL     1      31.163  57.532  10.599  1.00  0.00    -0.006 C 
ATOM      3  C   UNL     1      31.312  58.212  11.968  1.00  0.00     0.008 C 
ATOM      4  C   UNL     1      30.103  59.103  12.284  1.00  0.00     0.039 C 
ATOM      5  C   UNL     1      28.780  58.362  12.140  1.00  0.00    -0.006 C 
ATOM      6  C   UNL     1      27.704  58.673  12.922  1.00  0.00    -0.070 C 
ATOM      7  C   UNL     1      26.405  57.908  12.827  1.00  0.00     0.039 C 
ATOM      8  C   UNL     1      27.777  59.776  13.952  1.00  0.00     0.039 C 
ATOM      9  C   UNL     1      28.701  57.372  11.025  1.00  0.00     0.159 C 
ATOM     10  O   UNL     1      27.617  57.153  10.420  1.00  0.00    -0.295 OA
ATOM     11  C   UNL     1      29.927  56.620  10.598  1.00  0.00     0.084 C 
ENDROOT
TORSDOF 0
ENDMDL
MODEL 8
REMARK VINA RESULT:    -5.114      2.413      4.991
REMARK INTER + INTRA:          -5.114
REMARK INTER:                  -5.114
REMARK INTRA:                   0.000
REMARK UNBOUND:                 0.000
REMARK SMILES CC(C)=C1CC[C@@H](C)CC1=O
REMARK SMILES IDX 8 1 7 2 6 3 5 4 4 5 2 6 1 7 3 8 10 9 11 10 9 11
REMARK H PARENT
REMARK Flexibility Score: inf
ROOT
ATOM      1  C   UNL     1      30.118  59.382  12.112  1.00  0.00     0.008 C 
ATOM      2  C   UNL     1      29.714  58.128  11.330  1.00  0.00    -0.006 C 
ATOM      3  C   UNL     1      28.199  57.892  11.431  1.00  0.00     0.008 C 
ATOM      4  C   UNL     1      27.761  56.699  10.572  1.00  0.00     0.039 C 
ATOM      5  C   UNL     1      28.569  55.442  10.865  1.00  0.00    -0.006 C 
ATOM      6  C   UNL     1      28.014  54.199  10.751  1.00  0.00    -0.070 C 
ATOM      7  C   UNL     1      28.788  52.948  11.093  1.00  0.00     0.039 C 
ATOM      8  C   UNL     1      26.579  54.019  10.312  1.00  0.00     0.039 C 
ATOM      9  C   UNL     1      30.017  55.648  11.164  1.00  0.00     0.159 C 
ATOM     10  O   UNL     1      30.881  54.789  10.841  1.00  0.00    -0.295 OA
ATOM     11  C   UNL     1      30.472  56.899  11.856  1.00  0.00     0.084 C 
ENDROOT
TORSDOF 0
ENDMDL
MODEL 9
REMARK VINA RESULT:    -5.022      4.495      5.867
REMARK INTER + INTRA:          -5.022
REMARK INTER:                  -5.022
REMARK INTRA:                   0.000
REMARK UNBOUND:                 0.000
REMARK SMILES CC(C)=C1CC[C@@H](C)CC1=O
REMARK SMILES IDX 8 1 7 2 6 3 5 4 4 5 2 6 1 7 3 8 10 9 11 10 9 11
REMARK H PARENT
REMARK Flexibility Score: inf
ROOT
ATOM      1  C   UNL     1      22.105  55.630   9.133  1.00  0.00     0.008 C 
ATOM      2  C   UNL     1      23.567  55.269   8.844  1.00  0.00    -0.006 C 
ATOM      3  C   UNL     1      23.658  53.911   8.132  1.00  0.00     0.008 C 
ATOM      4  C   UNL     1      25.106  53.580   7.745  1.00  0.00     0.039 C 
ATOM      5  C   UNL     1      26.064  53.688   8.923  1.00  0.00    -0.006 C 
ATOM      6  C   UNL     1      27.166  52.887   9.017  1.00  0.00    -0.070 C 
ATOM      7  C   UNL     1      28.093  52.945  10.209  1.00  0.00     0.039 C 
ATOM      8  C   UNL     1      27.490  51.871   7.946  1.00  0.00     0.039 C 
ATOM      9  C   UNL     1      25.789  54.789   9.893  1.00  0.00     0.159 C 
ATOM     10  O   UNL     1      26.725  55.369  10.507  1.00  0.00    -0.295 OA
ATOM     11  C   UNL     1      24.379  55.233  10.148  1.00  0.00     0.084 C 
ENDROOT
TORSDOF 0
ENDMDL
