MODEL 1
REMARK VINA RESULT:    -5.340      0.000      0.000
REMARK INTER + INTRA:          -5.653
REMARK INTER:                  -5.653
REMARK INTRA:                   0.000
REMARK UNBOUND:                 0.000
REMARK SMILES Cc1cc(O)c(C)c(C)c1O
REMARK SMILES IDX 1 1 2 2 3 3 4 4 6 5 8 6 10 7 9 8 7 9 11 10 5 12
REMARK H PARENT 11 11 5 13
REMARK Flexibility Score: inf
ROOT
ATOM      1  C   UNL     1     115.715  52.191  -0.575  1.00  0.00     0.048 C 
ATOM      2  C   UNL     1     116.550  52.199  -1.825  1.00  0.00    -0.005 A 
ATOM      3  C   UNL     1     117.358  53.302  -2.116  1.00  0.00     0.053 A 
ATOM      4  C   UNL     1     118.119  53.343  -3.287  1.00  0.00     0.119 A 
ATOM      5  C   UNL     1     118.086  52.262  -4.193  1.00  0.00    -0.003 A 
ATOM      6  C   UNL     1     117.301  51.115  -3.886  1.00  0.00    -0.002 A 
ATOM      7  C   UNL     1     116.505  51.112  -2.713  1.00  0.00     0.121 A 
ATOM      8  C   UNL     1     117.277  49.907  -4.798  1.00  0.00     0.049 C 
ATOM      9  C   UNL     1     118.899  52.336  -5.466  1.00  0.00     0.049 C 
ENDROOT
BRANCH   7  10
ATOM     10  O   UNL     1     115.654  50.043  -2.407  1.00  0.00    -0.507 OA
ATOM     11  H   UNL     1     115.974  49.100  -2.234  1.00  0.00     0.293 HD
ENDBRANCH   7  10
BRANCH   4  12
ATOM     12  O   UNL     1     118.911  54.462  -3.548  1.00  0.00    -0.508 OA
ATOM     13  H   UNL     1     119.714  54.693  -2.975  1.00  0.00     0.293 HD
ENDBRANCH   4  12
TORSDOF 2
ENDMDL
MODEL 2
REMARK VINA RESULT:    -4.706      1.135      4.276
REMARK INTER + INTRA:          -4.981
REMARK INTER:                  -4.981
REMARK INTRA:                   0.000
REMARK UNBOUND:                 0.000
REMARK SMILES Cc1cc(O)c(C)c(C)c1O
REMARK SMILES IDX 1 1 2 2 3 3 4 4 6 5 8 6 10 7 9 8 7 9 11 10 5 12
REMARK H PARENT 11 11 5 13
REMARK Flexibility Score: inf
ROOT
ATOM      1  C   UNL     1     117.998  49.999  -6.026  1.00  0.00     0.048 C 
ATOM      2  C   UNL     1     117.560  50.640  -4.739  1.00  0.00    -0.005 A 
ATOM      3  C   UNL     1     116.661  49.975  -3.898  1.00  0.00     0.053 A 
ATOM      4  C   UNL     1     116.218  50.567  -2.714  1.00  0.00     0.119 A 
ATOM      5  C   UNL     1     116.678  51.848  -2.344  1.00  0.00    -0.003 A 
ATOM      6  C   UNL     1     117.626  52.516  -3.169  1.00  0.00    -0.002 A 
ATOM      7  C   UNL     1     118.031  51.916  -4.387  1.00  0.00     0.121 A 
ATOM      8  C   UNL     1     118.193  53.866  -2.786  1.00  0.00     0.049 C 
ATOM      9  C   UNL     1     116.168  52.480  -1.067  1.00  0.00     0.049 C 
ENDROOT
BRANCH   7  10
ATOM     10  O   UNL     1     118.898  52.567  -5.274  1.00  0.00    -0.507 OA
ATOM     11  H   UNL     1     118.591  53.065  -6.097  1.00  0.00     0.293 HD
ENDBRANCH   7  10
BRANCH   4  12
ATOM     12  O   UNL     1     115.318  49.876  -1.901  1.00  0.00    -0.508 OA
ATOM     13  H   UNL     1     115.131  50.163  -0.947  1.00  0.00     0.293 HD
ENDBRANCH   4  12
TORSDOF 2
ENDMDL
MODEL 3
REMARK VINA RESULT:    -4.702      1.757      2.906
REMARK INTER + INTRA:          -4.977
REMARK INTER:                  -4.977
REMARK INTRA:                   0.000
REMARK UNBOUND:                 0.000
REMARK SMILES Cc1cc(O)c(C)c(C)c1O
REMARK SMILES IDX 1 1 2 2 3 3 4 4 6 5 8 6 10 7 9 8 7 9 11 10 5 12
REMARK H PARENT 11 11 5 13
REMARK Flexibility Score: inf
ROOT
ATOM      1  C   UNL     1     115.232  50.047  -1.305  1.00  0.00     0.048 C 
ATOM      2  C   UNL     1     116.134  50.699  -2.316  1.00  0.00    -0.005 A 
ATOM      3  C   UNL     1     116.481  50.014  -3.485  1.00  0.00     0.053 A 
ATOM      4  C   UNL     1     117.343  50.589  -4.422  1.00  0.00     0.119 A 
ATOM      5  C   UNL     1     117.872  51.878  -4.203  1.00  0.00    -0.003 A 
ATOM      6  C   UNL     1     117.491  52.603  -3.039  1.00  0.00    -0.002 A 
ATOM      7  C   UNL     1     116.649  51.985  -2.081  1.00  0.00     0.121 A 
ATOM      8  C   UNL     1     117.986  54.011  -2.788  1.00  0.00     0.049 C 
ATOM      9  C   UNL     1     118.820  52.474  -5.220  1.00  0.00     0.049 C 
ENDROOT
BRANCH   7  10
ATOM     10  O   UNL     1     116.310  52.622  -0.881  1.00  0.00    -0.507 OA
ATOM     11  H   UNL     1     116.540  53.583  -0.670  1.00  0.00     0.293 HD
ENDBRANCH   7  10
BRANCH   4  12
ATOM     12  O   UNL     1     117.672  49.875  -5.575  1.00  0.00    -0.508 OA
ATOM     13  H   UNL     1     118.625  49.817  -5.913  1.00  0.00     0.293 HD
ENDBRANCH   4  12
TORSDOF 2
ENDMDL
MODEL 4
REMARK VINA RESULT:    -4.045      1.416      3.276
REMARK INTER + INTRA:          -4.281
REMARK INTER:                  -4.281
REMARK INTRA:                   0.000
REMARK UNBOUND:                 0.000
REMARK SMILES Cc1cc(O)c(C)c(C)c1O
REMARK SMILES IDX 1 1 2 2 3 3 4 4 6 5 8 6 10 7 9 8 7 9 11 10 5 12
REMARK H PARENT 11 11 5 13
REMARK Flexibility Score: inf
ROOT
ATOM      1  C   UNL     1     119.016  51.788  -5.896  1.00  0.00     0.048 C 
ATOM      2  C   UNL     1     118.350  51.797  -4.548  1.00  0.00    -0.005 A 
ATOM      3  C   UNL     1     118.738  52.735  -3.586  1.00  0.00     0.053 A 
ATOM      4  C   UNL     1     118.154  52.741  -2.317  1.00  0.00     0.119 A 
ATOM      5  C   UNL     1     117.156  51.800  -1.990  1.00  0.00    -0.003 A 
ATOM      6  C   UNL     1     116.722  50.868  -2.975  1.00  0.00    -0.002 A 
ATOM      7  C   UNL     1     117.357  50.853  -4.242  1.00  0.00     0.121 A 
ATOM      8  C   UNL     1     115.615  49.876  -2.691  1.00  0.00     0.049 C 
ATOM      9  C   UNL     1     116.552  51.809  -0.603  1.00  0.00     0.049 C 
ENDROOT
BRANCH   7  10
ATOM     10  O   UNL     1     117.025  49.904  -5.218  1.00  0.00    -0.507 OA
ATOM     11  H   UNL     1     117.481  49.008  -5.309  1.00  0.00     0.293 HD
ENDBRANCH   7  10
BRANCH   4  12
ATOM     12  O   UNL     1     118.568  53.689  -1.380  1.00  0.00    -0.508 OA
ATOM     13  H   UNL     1     119.025  53.421  -0.516  1.00  0.00     0.293 HD
ENDBRANCH   4  12
TORSDOF 2
ENDMDL
MODEL 5
REMARK VINA RESULT:    -4.021      2.497      4.320
REMARK INTER + INTRA:          -4.256
REMARK INTER:                  -4.256
REMARK INTRA:                   0.000
REMARK UNBOUND:                 0.000
REMARK SMILES Cc1cc(O)c(C)c(C)c1O
REMARK SMILES IDX 1 1 2 2 3 3 4 4 6 5 8 6 10 7 9 8 7 9 11 10 5 12
REMARK H PARENT 11 11 5 13
REMARK Flexibility Score: inf
ROOT
ATOM      1  C   UNL     1     117.370  50.763  -4.031  1.00  0.00     0.048 C 
ATOM      2  C   UNL     1     117.343  51.083  -2.562  1.00  0.00    -0.005 A 
ATOM      3  C   UNL     1     116.236  51.735  -2.011  1.00  0.00     0.053 A 
ATOM      4  C   UNL     1     116.204  52.068  -0.655  1.00  0.00     0.119 A 
ATOM      5  C   UNL     1     117.292  51.743   0.183  1.00  0.00    -0.003 A 
ATOM      6  C   UNL     1     118.405  51.040  -0.358  1.00  0.00    -0.002 A 
ATOM      7  C   UNL     1     118.436  50.748  -1.744  1.00  0.00     0.121 A 
ATOM      8  C   UNL     1     119.571  50.619   0.511  1.00  0.00     0.049 C 
ATOM      9  C   UNL     1     117.246  52.133   1.644  1.00  0.00     0.049 C 
ENDROOT
BRANCH   7  10
ATOM     10  O   UNL     1     119.542  50.131  -2.341  1.00  0.00    -0.507 OA
ATOM     11  H   UNL     1     119.474  49.454  -3.087  1.00  0.00     0.293 HD
ENDBRANCH   7  10
BRANCH   4  12
ATOM     12  O   UNL     1     115.085  52.723  -0.139  1.00  0.00    -0.508 OA
ATOM     13  H   UNL     1     114.416  53.191  -0.740  1.00  0.00     0.293 HD
ENDBRANCH   4  12
TORSDOF 2
ENDMDL
MODEL 6
REMARK VINA RESULT:    -3.738      2.533      3.018
REMARK INTER + INTRA:          -3.956
REMARK INTER:                  -3.956
REMARK INTRA:                   0.000
REMARK UNBOUND:                 0.000
REMARK SMILES Cc1cc(O)c(C)c(C)c1O
REMARK SMILES IDX 1 1 2 2 3 3 4 4 6 5 8 6 10 7 9 8 7 9 11 10 5 12
REMARK H PARENT 11 11 5 13
REMARK Flexibility Score: inf
ROOT
ATOM      1  C   UNL     1     115.281  52.506  -0.334  1.00  0.00     0.048 C 
ATOM      2  C   UNL     1     116.478  51.914  -1.026  1.00  0.00    -0.005 A 
ATOM      3  C   UNL     1     116.554  51.929  -2.422  1.00  0.00     0.053 A 
ATOM      4  C   UNL     1     117.642  51.358  -3.085  1.00  0.00     0.119 A 
ATOM      5  C   UNL     1     118.687  50.760  -2.351  1.00  0.00    -0.003 A 
ATOM      6  C   UNL     1     118.643  50.777  -0.928  1.00  0.00    -0.002 A 
ATOM      7  C   UNL     1     117.510  51.326  -0.276  1.00  0.00     0.121 A 
ATOM      8  C   UNL     1     119.767  50.200  -0.095  1.00  0.00     0.049 C 
ATOM      9  C   UNL     1     119.846  50.127  -3.089  1.00  0.00     0.049 C 
ENDROOT
BRANCH   7  10
ATOM     10  O   UNL     1     117.379  51.295   1.118  1.00  0.00    -0.507 OA
ATOM     11  H   UNL     1     117.503  50.462   1.676  1.00  0.00     0.293 HD
ENDBRANCH   7  10
BRANCH   4  12
ATOM     12  O   UNL     1     117.683  51.387  -4.480  1.00  0.00    -0.508 OA
ATOM     13  H   UNL     1     117.059  51.975  -5.020  1.00  0.00     0.293 HD
ENDBRANCH   4  12
TORSDOF 2
ENDMDL
MODEL 7
REMARK VINA RESULT:    -3.662      9.141     10.436
REMARK INTER + INTRA:          -3.876
REMARK INTER:                  -3.876
REMARK INTRA:                   0.000
REMARK UNBOUND:                 0.000
REMARK SMILES Cc1cc(O)c(C)c(C)c1O
REMARK SMILES IDX 1 1 2 2 3 3 4 4 6 5 8 6 10 7 9 8 7 9 11 10 5 12
REMARK H PARENT 11 11 5 13
REMARK Flexibility Score: inf
ROOT
ATOM      1  C   UNL     1     125.447  53.357  -2.049  1.00  0.00     0.048 C 
ATOM      2  C   UNL     1     125.738  54.151  -0.805  1.00  0.00    -0.005 A 
ATOM      3  C   UNL     1     125.483  55.526  -0.780  1.00  0.00     0.053 A 
ATOM      4  C   UNL     1     125.775  56.287   0.354  1.00  0.00     0.119 A 
ATOM      5  C   UNL     1     126.327  55.673   1.499  1.00  0.00    -0.003 A 
ATOM      6  C   UNL     1     126.550  54.267   1.500  1.00  0.00    -0.002 A 
ATOM      7  C   UNL     1     126.286  53.521   0.325  1.00  0.00     0.121 A 
ATOM      8  C   UNL     1     127.087  53.554   2.723  1.00  0.00     0.049 C 
ATOM      9  C   UNL     1     126.656  56.519   2.708  1.00  0.00     0.049 C 
ENDROOT
BRANCH   7  10
ATOM     10  O   UNL     1     126.564  52.151   0.247  1.00  0.00    -0.507 OA
ATOM     11  H   UNL     1     126.142  51.457   0.848  1.00  0.00     0.293 HD
ENDBRANCH   7  10
BRANCH   4  12
ATOM     12  O   UNL     1     125.512  57.657   0.343  1.00  0.00    -0.508 OA
ATOM     13  H   UNL     1     126.070  58.303  -0.203  1.00  0.00     0.293 HD
ENDBRANCH   4  12
TORSDOF 2
ENDMDL
MODEL 8
REMARK VINA RESULT:    -3.635      3.134      4.000
REMARK INTER + INTRA:          -3.848
REMARK INTER:                  -3.848
REMARK INTRA:                   0.000
REMARK UNBOUND:                 0.000
REMARK SMILES Cc1cc(O)c(C)c(C)c1O
REMARK SMILES IDX 1 1 2 2 3 3 4 4 6 5 8 6 10 7 9 8 7 9 11 10 5 12
REMARK H PARENT 11 11 5 13
REMARK Flexibility Score: inf
ROOT
ATOM      1  C   UNL     1     119.753  50.583   1.831  1.00  0.00     0.048 C 
ATOM      2  C   UNL     1     119.008  50.782   0.540  1.00  0.00    -0.005 A 
ATOM      3  C   UNL     1     119.508  50.234  -0.645  1.00  0.00     0.053 A 
ATOM      4  C   UNL     1     118.848  50.433  -1.859  1.00  0.00     0.119 A 
ATOM      5  C   UNL     1     117.658  51.189  -1.905  1.00  0.00    -0.003 A 
ATOM      6  C   UNL     1     117.116  51.716  -0.699  1.00  0.00    -0.002 A 
ATOM      7  C   UNL     1     117.823  51.536   0.516  1.00  0.00     0.121 A 
ATOM      8  C   UNL     1     115.813  52.485  -0.688  1.00  0.00     0.049 C 
ATOM      9  C   UNL     1     116.971  51.412  -3.235  1.00  0.00     0.049 C 
ENDROOT
BRANCH   7  10
ATOM     10  O   UNL     1     117.376  52.103   1.716  1.00  0.00    -0.507 OA
ATOM     11  H   UNL     1     116.809  51.612   2.393  1.00  0.00     0.293 HD
ENDBRANCH   7  10
BRANCH   4  12
ATOM     12  O   UNL     1     119.378  49.875  -3.024  1.00  0.00    -0.508 OA
ATOM     13  H   UNL     1     119.715  48.920  -3.052  1.00  0.00     0.293 HD
ENDBRANCH   4  12
TORSDOF 2
ENDMDL
