MODEL 1
REMARK VINA RESULT:    -3.888      0.000      0.000
REMARK INTER + INTRA:          -6.633
REMARK INTER:                  -5.479
REMARK INTRA:                  -1.154
REMARK UNBOUND:                -1.154
REMARK SMILES OC[C@@H]1O[C@@H](O[C@H]2OC=C[C@H]3[C@H](O)[C@@H]4O[C@]4(CO)[C@@H]23)[C@H](O)[C@H](O)[C@H]1O
REMARK SMILES IDX 6 1 7 2 10 3 9 4 11 5 8 6 19 7 12 8 16 9 14 10 15 11 13 12
REMARK SMILES IDX 17 14 18 15 5 17 20 18 4 19 22 20 3 21 24 22 21 23 23 25
REMARK SMILES IDX 2 27 1 28 25 30
REMARK H PARENT 13 13 18 16 21 24 23 26 1 29 25 31
REMARK Flexibility Score: inf
ROOT
ATOM      1  O   UNL     1     -95.857  26.129 -28.080  1.00  0.00    -0.310 OA
ENDROOT
BRANCH   1   2
ATOM      2  C   UNL     1     -95.855  27.542 -28.159  1.00  0.00     0.315 C 
ATOM      3  C   UNL     1     -96.654  30.179 -27.472  1.00  0.00     0.018 C 
ATOM      4  C   UNL     1     -97.516  29.350 -28.064  1.00  0.00     0.186 C 
ATOM      5  C   UNL     1     -95.323  29.706 -26.913  1.00  0.00     0.059 C 
ATOM      6  O   UNL     1     -97.198  28.004 -28.253  1.00  0.00    -0.472 OA
ATOM      7  C   UNL     1     -95.172  28.168 -26.923  1.00  0.00     0.105 C 
ATOM      8  C   UNL     1     -95.214  30.105 -25.432  1.00  0.00     0.154 C 
ATOM      9  C   UNL     1     -95.700  27.725 -25.547  1.00  0.00     0.130 C 
ATOM     10  C   UNL     1     -95.716  28.896 -24.646  1.00  0.00     0.183 C 
ATOM     11  O   UNL     1     -94.754  27.871 -24.512  1.00  0.00    -0.360 OA
BRANCH   8  12
ATOM     12  O   UNL     1     -93.875  30.380 -25.107  1.00  0.00    -0.390 OA
ATOM     13  H   UNL     1     -93.705  31.320 -25.378  1.00  0.00     0.211 HD
ENDBRANCH   8  12
BRANCH   9  14
ATOM     14  C   UNL     1     -96.728  26.617 -25.284  1.00  0.00     0.195 C 
BRANCH  14  15
ATOM     15  O   UNL     1     -96.100  25.369 -25.365  1.00  0.00    -0.393 OA
ATOM     16  H   UNL     1     -96.782  24.737 -25.711  1.00  0.00     0.210 HD
ENDBRANCH  14  15
ENDBRANCH   9  14
ENDBRANCH   1   2
BRANCH   1  17
ATOM     17  C   UNL     1     -95.942  25.535 -29.366  1.00  0.00     0.286 C 
ATOM     18  C   UNL     1     -94.934  24.378 -29.480  1.00  0.00     0.202 C 
ATOM     19  O   UNL     1     -97.262  25.087 -29.646  1.00  0.00    -0.341 OA
ATOM     20  C   UNL     1     -95.339  23.232 -28.531  1.00  0.00     0.179 C 
ATOM     21  C   UNL     1     -97.702  24.123 -28.701  1.00  0.00     0.178 C 
ATOM     22  C   UNL     1     -96.813  22.854 -28.760  1.00  0.00     0.177 C 
BRANCH  18  23
ATOM     23  O   UNL     1     -94.904  23.926 -30.811  1.00  0.00    -0.385 OA
ATOM     24  H   UNL     1     -93.989  24.099 -31.155  1.00  0.00     0.211 HD
ENDBRANCH  18  23
BRANCH  20  25
ATOM     25  O   UNL     1     -94.527  22.106 -28.743  1.00  0.00    -0.387 OA
ATOM     26  H   UNL     1     -94.783  21.437 -28.057  1.00  0.00     0.211 HD
ENDBRANCH  20  25
BRANCH  21  27
ATOM     27  C   UNL     1     -99.166  23.772 -29.008  1.00  0.00     0.191 C 
BRANCH  27  28
ATOM     28  O   UNL     1     -99.703  22.981 -27.982  1.00  0.00    -0.394 OA
ATOM     29  H   UNL     1     -98.953  22.454 -27.602  1.00  0.00     0.210 HD
ENDBRANCH  27  28
ENDBRANCH  21  27
BRANCH  22  30
ATOM     30  O   UNL     1     -97.225  21.894 -27.818  1.00  0.00    -0.387 OA
ATOM     31  H   UNL     1     -96.562  21.891 -27.079  1.00  0.00     0.211 HD
ENDBRANCH  22  30
ENDBRANCH   1  17
TORSDOF 10
ENDMDL
MODEL 2
REMARK VINA RESULT:    -3.883     10.910     14.368
REMARK INTER + INTRA:          -6.626
REMARK INTER:                  -5.416
REMARK INTRA:                  -1.210
REMARK UNBOUND:                -1.154
REMARK SMILES OC[C@@H]1O[C@@H](O[C@H]2OC=C[C@H]3[C@H](O)[C@@H]4O[C@]4(CO)[C@@H]23)[C@H](O)[C@H](O)[C@H]1O
REMARK SMILES IDX 6 1 7 2 10 3 9 4 11 5 8 6 19 7 12 8 16 9 14 10 15 11 13 12
REMARK SMILES IDX 17 14 18 15 5 17 20 18 4 19 22 20 3 21 24 22 21 23 23 25
REMARK SMILES IDX 2 27 1 28 25 30
REMARK H PARENT 13 13 18 16 21 24 23 26 1 29 25 31
REMARK Flexibility Score: inf
ROOT
ATOM      1  O   UNL     1     -96.144  24.495 -39.919  1.00  0.00    -0.310 OA
ENDROOT
BRANCH   1   2
ATOM      2  C   UNL     1     -96.082  23.085 -39.806  1.00  0.00     0.315 C 
ATOM      3  C   UNL     1     -96.737  20.400 -40.455  1.00  0.00     0.018 C 
ATOM      4  C   UNL     1     -97.655  21.202 -39.911  1.00  0.00     0.186 C 
ATOM      5  C   UNL     1     -95.411  20.921 -40.982  1.00  0.00     0.059 C 
ATOM      6  O   UNL     1     -97.405  22.565 -39.744  1.00  0.00    -0.472 OA
ATOM      7  C   UNL     1     -95.330  22.464 -41.004  1.00  0.00     0.105 C 
ATOM      8  C   UNL     1     -95.235  20.494 -42.449  1.00  0.00     0.154 C 
ATOM      9  C   UNL     1     -95.831  22.851 -42.406  1.00  0.00     0.130 C 
ATOM     10  C   UNL     1     -95.764  21.661 -43.279  1.00  0.00     0.183 C 
ATOM     11  O   UNL     1     -94.845  22.726 -43.406  1.00  0.00    -0.360 OA
BRANCH   8  12
ATOM     12  O   UNL     1     -93.875  20.274 -42.724  1.00  0.00    -0.390 OA
ATOM     13  H   UNL     1     -93.588  21.002 -43.334  1.00  0.00     0.211 HD
ENDBRANCH   8  12
BRANCH   9  14
ATOM     14  C   UNL     1     -96.898  23.906 -42.728  1.00  0.00     0.195 C 
BRANCH  14  15
ATOM     15  O   UNL     1     -96.334  25.183 -42.644  1.00  0.00    -0.393 OA
ATOM     16  H   UNL     1     -95.464  25.133 -43.118  1.00  0.00     0.210 HD
ENDBRANCH  14  15
ENDBRANCH   9  14
ENDBRANCH   1   2
BRANCH   1  17
ATOM     17  C   UNL     1     -95.526  25.135 -38.812  1.00  0.00     0.286 C 
ATOM     18  C   UNL     1     -94.735  26.365 -39.289  1.00  0.00     0.202 C 
ATOM     19  O   UNL     1     -96.480  25.497 -37.822  1.00  0.00    -0.341 OA
ATOM     20  C   UNL     1     -95.705  27.438 -39.825  1.00  0.00     0.179 C 
ATOM     21  C   UNL     1     -97.461  26.386 -38.335  1.00  0.00     0.178 C 
ATOM     22  C   UNL     1     -96.807  27.717 -38.788  1.00  0.00     0.177 C 
BRANCH  18  23
ATOM     23  O   UNL     1     -93.986  26.874 -38.214  1.00  0.00    -0.385 OA
ATOM     24  H   UNL     1     -93.367  27.554 -38.587  1.00  0.00     0.211 HD
ENDBRANCH  18  23
BRANCH  20  25
ATOM     25  O   UNL     1     -95.015  28.628 -40.109  1.00  0.00    -0.387 OA
ATOM     26  H   UNL     1     -95.698  29.346 -40.170  1.00  0.00     0.211 HD
ENDBRANCH  20  25
BRANCH  21  27
ATOM     27  C   UNL     1     -98.507  26.642 -37.240  1.00  0.00     0.191 C 
BRANCH  27  28
ATOM     28  O   UNL     1     -99.734  27.007 -37.814  1.00  0.00    -0.394 OA
ATOM     29  H   UNL     1    -100.314  27.324 -37.074  1.00  0.00     0.210 HD
ENDBRANCH  27  28
ENDBRANCH  21  27
BRANCH  22  30
ATOM     30  O   UNL     1     -97.763  28.605 -39.315  1.00  0.00    -0.387 OA
ATOM     31  H   UNL     1     -97.977  28.306 -40.238  1.00  0.00     0.211 HD
ENDBRANCH  22  30
ENDBRANCH   1  17
TORSDOF 10
ENDMDL
MODEL 3
REMARK VINA RESULT:    -3.838     11.239     13.503
REMARK INTER + INTRA:          -6.563
REMARK INTER:                  -5.294
REMARK INTRA:                  -1.270
REMARK UNBOUND:                -1.154
REMARK SMILES OC[C@@H]1O[C@@H](O[C@H]2OC=C[C@H]3[C@H](O)[C@@H]4O[C@]4(CO)[C@@H]23)[C@H](O)[C@H](O)[C@H]1O
REMARK SMILES IDX 6 1 7 2 10 3 9 4 11 5 8 6 19 7 12 8 16 9 14 10 15 11 13 12
REMARK SMILES IDX 17 14 18 15 5 17 20 18 4 19 22 20 3 21 24 22 21 23 23 25
REMARK SMILES IDX 2 27 1 28 25 30
REMARK H PARENT 13 13 18 16 21 24 23 26 1 29 25 31
REMARK Flexibility Score: inf
ROOT
ATOM      1  O   UNL     1     -99.390  25.102 -39.484  1.00  0.00    -0.310 OA
ENDROOT
BRANCH   1   2
ATOM      2  C   UNL     1     -98.822  26.194 -38.784  1.00  0.00     0.315 C 
ATOM      3  C   UNL     1     -96.874  27.539 -37.216  1.00  0.00     0.018 C 
ATOM      4  C   UNL     1     -97.587  26.541 -36.690  1.00  0.00     0.186 C 
ATOM      5  C   UNL     1     -96.871  27.840 -38.705  1.00  0.00     0.059 C 
ATOM      6  O   UNL     1     -98.423  25.760 -37.489  1.00  0.00    -0.472 OA
ATOM      7  C   UNL     1     -97.604  26.768 -39.542  1.00  0.00     0.105 C 
ATOM      8  C   UNL     1     -95.426  27.834 -39.230  1.00  0.00     0.154 C 
ATOM      9  C   UNL     1     -96.501  25.767 -39.929  1.00  0.00     0.130 C 
ATOM     10  C   UNL     1     -95.187  26.418 -39.747  1.00  0.00     0.183 C 
ATOM     11  O   UNL     1     -95.727  26.186 -41.031  1.00  0.00    -0.360 OA
BRANCH   8  12
ATOM     12  O   UNL     1     -95.292  28.766 -40.273  1.00  0.00    -0.390 OA
ATOM     13  H   UNL     1     -95.697  29.613 -39.950  1.00  0.00     0.211 HD
ENDBRANCH   8  12
BRANCH   9  14
ATOM     14  C   UNL     1     -96.563  24.243 -39.769  1.00  0.00     0.195 C 
BRANCH  14  15
ATOM     15  O   UNL     1     -97.288  23.691 -40.832  1.00  0.00    -0.393 OA
ATOM     16  H   UNL     1     -96.843  24.003 -41.662  1.00  0.00     0.210 HD
ENDBRANCH  14  15
ENDBRANCH   9  14
ENDBRANCH   1   2
BRANCH   1  17
ATOM     17  C   UNL     1    -100.761  25.327 -39.775  1.00  0.00     0.286 C 
ATOM     18  C   UNL     1    -100.896  26.302 -40.958  1.00  0.00     0.202 C 
ATOM     19  O   UNL     1    -101.442  24.108 -40.043  1.00  0.00    -0.341 OA
ATOM     20  C   UNL     1    -100.360  25.643 -42.245  1.00  0.00     0.179 C 
ATOM     21  C   UNL     1    -100.877  23.421 -41.150  1.00  0.00     0.178 C 
ATOM     22  C   UNL     1    -101.014  24.264 -42.443  1.00  0.00     0.177 C 
BRANCH  18  23
ATOM     23  O   UNL     1    -102.248  26.653 -41.112  1.00  0.00    -0.385 OA
ATOM     24  H   UNL     1    -102.740  26.253 -40.349  1.00  0.00     0.211 HD
ENDBRANCH  18  23
BRANCH  20  25
ATOM     25  O   UNL     1    -100.626  26.454 -43.361  1.00  0.00    -0.387 OA
ATOM     26  H   UNL     1    -100.061  27.265 -43.265  1.00  0.00     0.211 HD
ENDBRANCH  20  25
BRANCH  21  27
ATOM     27  C   UNL     1    -101.596  22.073 -41.305  1.00  0.00     0.191 C 
BRANCH  27  28
ATOM     28  O   UNL     1    -102.640  22.181 -42.236  1.00  0.00    -0.394 OA
ATOM     29  H   UNL     1    -103.475  22.318 -41.717  1.00  0.00     0.210 HD
ENDBRANCH  27  28
ENDBRANCH  21  27
BRANCH  22  30
ATOM     30  O   UNL     1    -100.444  23.606 -43.548  1.00  0.00    -0.387 OA
ATOM     31  H   UNL     1    -101.145  23.032 -43.954  1.00  0.00     0.211 HD
ENDBRANCH  22  30
ENDBRANCH   1  17
TORSDOF 10
ENDMDL
MODEL 4
REMARK VINA RESULT:    -3.792     10.584     13.857
REMARK INTER + INTRA:          -6.498
REMARK INTER:                  -5.230
REMARK INTRA:                  -1.268
REMARK UNBOUND:                -1.154
REMARK SMILES OC[C@@H]1O[C@@H](O[C@H]2OC=C[C@H]3[C@H](O)[C@@H]4O[C@]4(CO)[C@@H]23)[C@H](O)[C@H](O)[C@H]1O
REMARK SMILES IDX 6 1 7 2 10 3 9 4 11 5 8 6 19 7 12 8 16 9 14 10 15 11 13 12
REMARK SMILES IDX 17 14 18 15 5 17 20 18 4 19 22 20 3 21 24 22 21 23 23 25
REMARK SMILES IDX 2 27 1 28 25 30
REMARK H PARENT 13 13 18 16 21 24 23 26 1 29 25 31
REMARK Flexibility Score: inf
ROOT
ATOM      1  O   UNL     1     -95.378  24.873 -39.715  1.00  0.00    -0.310 OA
ENDROOT
BRANCH   1   2
ATOM      2  C   UNL     1     -95.439  24.484 -41.075  1.00  0.00     0.315 C 
ATOM      3  C   UNL     1     -95.707  22.673 -43.246  1.00  0.00     0.018 C 
ATOM      4  C   UNL     1     -94.639  22.610 -42.447  1.00  0.00     0.186 C 
ATOM      5  C   UNL     1     -96.927  23.512 -42.909  1.00  0.00     0.059 C 
ATOM      6  O   UNL     1     -94.573  23.374 -41.281  1.00  0.00    -0.472 OA
ATOM      7  C   UNL     1     -96.880  24.106 -41.482  1.00  0.00     0.105 C 
ATOM      8  C   UNL     1     -98.184  22.627 -42.928  1.00  0.00     0.154 C 
ATOM      9  C   UNL     1     -97.588  23.055 -40.610  1.00  0.00     0.130 C 
ATOM     10  C   UNL     1     -98.382  22.168 -41.485  1.00  0.00     0.183 C 
ATOM     11  O   UNL     1     -98.995  23.139 -40.664  1.00  0.00    -0.360 OA
BRANCH   8  12
ATOM     12  O   UNL     1     -99.291  23.376 -43.361  1.00  0.00    -0.390 OA
ATOM     13  H   UNL     1     -99.823  23.589 -42.550  1.00  0.00     0.211 HD
ENDBRANCH   8  12
BRANCH   9  14
ATOM     14  C   UNL     1     -97.061  22.464 -39.295  1.00  0.00     0.195 C 
BRANCH  14  15
ATOM     15  O   UNL     1     -97.301  23.362 -38.250  1.00  0.00    -0.393 OA
ATOM     16  H   UNL     1     -97.845  22.870 -37.582  1.00  0.00     0.210 HD
ENDBRANCH  14  15
ENDBRANCH   9  14
ENDBRANCH   1   2
BRANCH   1  17
ATOM     17  C   UNL     1     -94.800  26.160 -39.567  1.00  0.00     0.286 C 
ATOM     18  C   UNL     1     -95.813  27.244 -39.976  1.00  0.00     0.202 C 
ATOM     19  O   UNL     1     -94.339  26.374 -38.239  1.00  0.00    -0.341 OA
ATOM     20  C   UNL     1     -96.991  27.265 -38.982  1.00  0.00     0.179 C 
ATOM     21  C   UNL     1     -95.393  26.267 -37.292  1.00  0.00     0.178 C 
ATOM     22  C   UNL     1     -96.462  27.361 -37.540  1.00  0.00     0.177 C 
BRANCH  18  23
ATOM     23  O   UNL     1     -95.167  28.492 -39.999  1.00  0.00    -0.385 OA
ATOM     24  H   UNL     1     -95.849  29.168 -40.249  1.00  0.00     0.211 HD
ENDBRANCH  18  23
BRANCH  20  25
ATOM     25  O   UNL     1     -97.839  28.353 -39.246  1.00  0.00    -0.387 OA
ATOM     26  H   UNL     1     -97.316  29.175 -39.056  1.00  0.00     0.211 HD
ENDBRANCH  20  25
BRANCH  21  27
ATOM     27  C   UNL     1     -94.797  26.402 -35.883  1.00  0.00     0.191 C 
BRANCH  27  28
ATOM     28  O   UNL     1     -95.624  25.772 -34.942  1.00  0.00    -0.394 OA
ATOM     29  H   UNL     1     -95.309  24.833 -34.866  1.00  0.00     0.210 HD
ENDBRANCH  27  28
ENDBRANCH  21  27
BRANCH  22  30
ATOM     30  O   UNL     1     -97.523  27.260 -36.622  1.00  0.00    -0.387 OA
ATOM     31  H   UNL     1     -98.204  27.939 -36.869  1.00  0.00     0.211 HD
ENDBRANCH  22  30
ENDBRANCH   1  17
TORSDOF 10
ENDMDL
MODEL 5
REMARK VINA RESULT:    -3.785     11.378     14.526
REMARK INTER + INTRA:          -6.488
REMARK INTER:                  -5.535
REMARK INTRA:                  -0.953
REMARK UNBOUND:                -1.154
REMARK SMILES OC[C@@H]1O[C@@H](O[C@H]2OC=C[C@H]3[C@H](O)[C@@H]4O[C@]4(CO)[C@@H]23)[C@H](O)[C@H](O)[C@H]1O
REMARK SMILES IDX 6 1 7 2 10 3 9 4 11 5 8 6 19 7 12 8 16 9 14 10 15 11 13 12
REMARK SMILES IDX 17 14 18 15 5 17 20 18 4 19 22 20 3 21 24 22 21 23 23 25
REMARK SMILES IDX 2 27 1 28 25 30
REMARK H PARENT 13 13 18 16 21 24 23 26 1 29 25 31
REMARK Flexibility Score: inf
ROOT
ATOM      1  O   UNL     1     -96.619  24.944 -40.779  1.00  0.00    -0.310 OA
ENDROOT
BRANCH   1   2
ATOM      2  C   UNL     1     -97.620  24.001 -41.115  1.00  0.00     0.315 C 
ATOM      3  C   UNL     1     -98.817  21.914 -42.624  1.00  0.00     0.018 C 
ATOM      4  C   UNL     1     -98.648  23.123 -43.165  1.00  0.00     0.186 C 
ATOM      5  C   UNL     1     -98.172  21.515 -41.308  1.00  0.00     0.059 C 
ATOM      6  O   UNL     1     -97.912  24.106 -42.504  1.00  0.00    -0.472 OA
ATOM      7  C   UNL     1     -97.163  22.563 -40.784  1.00  0.00     0.105 C 
ATOM      8  C   UNL     1     -97.345  20.235 -41.506  1.00  0.00     0.154 C 
ATOM      9  C   UNL     1     -95.813  22.118 -41.371  1.00  0.00     0.130 C 
ATOM     10  C   UNL     1     -95.923  20.708 -41.798  1.00  0.00     0.183 C 
ATOM     11  O   UNL     1     -95.202  21.077 -40.641  1.00  0.00    -0.360 OA
BRANCH   8  12
ATOM     12  O   UNL     1     -97.372  19.460 -40.334  1.00  0.00    -0.390 OA
ATOM     13  H   UNL     1     -97.462  20.096 -39.577  1.00  0.00     0.211 HD
ENDBRANCH   8  12
BRANCH   9  14
ATOM     14  C   UNL     1     -94.813  23.008 -42.120  1.00  0.00     0.195 C 
BRANCH  14  15
ATOM     15  O   UNL     1     -95.361  23.396 -43.348  1.00  0.00    -0.393 OA
ATOM     16  H   UNL     1     -94.682  23.175 -44.036  1.00  0.00     0.210 HD
ENDBRANCH  14  15
ENDBRANCH   9  14
ENDBRANCH   1   2
BRANCH   1  17
ATOM     17  C   UNL     1     -96.459  25.056 -39.374  1.00  0.00     0.286 C 
ATOM     18  C   UNL     1     -95.091  25.681 -39.047  1.00  0.00     0.202 C 
ATOM     19  O   UNL     1     -97.513  25.810 -38.788  1.00  0.00    -0.341 OA
ATOM     20  C   UNL     1     -95.053  27.145 -39.528  1.00  0.00     0.179 C 
ATOM     21  C   UNL     1     -97.575  27.127 -39.317  1.00  0.00     0.178 C 
ATOM     22  C   UNL     1     -96.277  27.908 -38.991  1.00  0.00     0.177 C 
BRANCH  18  23
ATOM     23  O   UNL     1     -94.875  25.614 -37.660  1.00  0.00    -0.385 OA
ATOM     24  H   UNL     1     -95.599  25.051 -37.280  1.00  0.00     0.211 HD
ENDBRANCH  18  23
BRANCH  20  25
ATOM     25  O   UNL     1     -93.877  27.777 -39.093  1.00  0.00    -0.387 OA
ATOM     26  H   UNL     1     -94.141  28.404 -38.370  1.00  0.00     0.211 HD
ENDBRANCH  20  25
BRANCH  21  27
ATOM     27  C   UNL     1     -98.798  27.835 -38.716  1.00  0.00     0.191 C 
BRANCH  27  28
ATOM     28  O   UNL     1     -99.381  28.690 -39.663  1.00  0.00    -0.394 OA
ATOM     29  H   UNL     1    -100.354  28.495 -39.667  1.00  0.00     0.210 HD
ENDBRANCH  27  28
ENDBRANCH  21  27
BRANCH  22  30
ATOM     30  O   UNL     1     -96.315  29.210 -39.522  1.00  0.00    -0.387 OA
ATOM     31  H   UNL     1     -95.869  29.189 -40.409  1.00  0.00     0.211 HD
ENDBRANCH  22  30
ENDBRANCH   1  17
TORSDOF 10
ENDMDL
MODEL 6
REMARK VINA RESULT:    -3.711      1.496      2.079
REMARK INTER + INTRA:          -6.383
REMARK INTER:                  -5.163
REMARK INTRA:                  -1.220
REMARK UNBOUND:                -1.154
REMARK SMILES OC[C@@H]1O[C@@H](O[C@H]2OC=C[C@H]3[C@H](O)[C@@H]4O[C@]4(CO)[C@@H]23)[C@H](O)[C@H](O)[C@H]1O
REMARK SMILES IDX 6 1 7 2 10 3 9 4 11 5 8 6 19 7 12 8 16 9 14 10 15 11 13 12
REMARK SMILES IDX 17 14 18 15 5 17 20 18 4 19 22 20 3 21 24 22 21 23 23 25
REMARK SMILES IDX 2 27 1 28 25 30
REMARK H PARENT 13 13 18 16 21 24 23 26 1 29 25 31
REMARK Flexibility Score: inf
ROOT
ATOM      1  O   UNL     1     -96.577  26.228 -29.102  1.00  0.00    -0.310 OA
ENDROOT
BRANCH   1   2
ATOM      2  C   UNL     1     -95.480  26.981 -28.617  1.00  0.00     0.315 C 
ATOM      3  C   UNL     1     -94.203  29.132 -27.275  1.00  0.00     0.018 C 
ATOM      4  C   UNL     1     -94.884  29.354 -28.401  1.00  0.00     0.186 C 
ATOM      5  C   UNL     1     -94.278  27.814 -26.524  1.00  0.00     0.059 C 
ATOM      6  O   UNL     1     -95.657  28.346 -28.979  1.00  0.00    -0.472 OA
ATOM      7  C   UNL     1     -95.358  26.859 -27.082  1.00  0.00     0.105 C 
ATOM      8  C   UNL     1     -94.694  28.073 -25.067  1.00  0.00     0.154 C 
ATOM      9  C   UNL     1     -96.617  27.188 -26.262  1.00  0.00     0.130 C 
ATOM     10  C   UNL     1     -96.212  27.914 -25.041  1.00  0.00     0.183 C 
ATOM     11  O   UNL     1     -96.638  26.569 -24.996  1.00  0.00    -0.360 OA
BRANCH   8  12
ATOM     12  O   UNL     1     -94.088  27.130 -24.221  1.00  0.00    -0.390 OA
ATOM     13  H   UNL     1     -93.432  27.627 -23.665  1.00  0.00     0.211 HD
ENDBRANCH   8  12
BRANCH   9  14
ATOM     14  C   UNL     1     -98.015  27.476 -26.825  1.00  0.00     0.195 C 
BRANCH  14  15
ATOM     15  O   UNL     1     -98.683  26.268 -27.057  1.00  0.00    -0.393 OA
ATOM     16  H   UNL     1     -99.646  26.494 -27.131  1.00  0.00     0.210 HD
ENDBRANCH  14  15
ENDBRANCH   9  14
ENDBRANCH   1   2
BRANCH   1  17
ATOM     17  C   UNL     1     -96.145  25.073 -29.806  1.00  0.00     0.286 C 
ATOM     18  C   UNL     1     -95.776  23.958 -28.813  1.00  0.00     0.202 C 
ATOM     19  O   UNL     1     -97.132  24.626 -30.727  1.00  0.00    -0.341 OA
ATOM     20  C   UNL     1     -97.039  23.474 -28.073  1.00  0.00     0.179 C 
ATOM     21  C   UNL     1     -98.351  24.298 -30.075  1.00  0.00     0.178 C 
ATOM     22  C   UNL     1     -98.142  23.122 -29.087  1.00  0.00     0.177 C 
BRANCH  18  23
ATOM     23  O   UNL     1     -95.181  22.896 -29.515  1.00  0.00    -0.385 OA
ATOM     24  H   UNL     1     -95.715  22.083 -29.320  1.00  0.00     0.211 HD
ENDBRANCH  18  23
BRANCH  20  25
ATOM     25  O   UNL     1     -96.748  22.347 -27.285  1.00  0.00    -0.387 OA
ATOM     26  H   UNL     1     -97.612  22.026 -26.917  1.00  0.00     0.211 HD
ENDBRANCH  20  25
BRANCH  21  27
ATOM     27  C   UNL     1     -99.391  23.930 -31.143  1.00  0.00     0.191 C 
BRANCH  27  28
ATOM     28  O   UNL     1     -99.396  22.544 -31.360  1.00  0.00    -0.394 OA
ATOM     29  H   UNL     1     -98.584  22.181 -30.919  1.00  0.00     0.210 HD
ENDBRANCH  27  28
ENDBRANCH  21  27
BRANCH  22  30
ATOM     30  O   UNL     1     -99.336  22.794 -28.419  1.00  0.00    -0.387 OA
ATOM     31  H   UNL     1     -99.411  23.386 -27.626  1.00  0.00     0.211 HD
ENDBRANCH  22  30
ENDBRANCH   1  17
TORSDOF 10
ENDMDL
MODEL 7
REMARK VINA RESULT:    -3.688      3.877      6.603
REMARK INTER + INTRA:          -6.352
REMARK INTER:                  -5.157
REMARK INTRA:                  -1.195
REMARK UNBOUND:                -1.154
REMARK SMILES OC[C@@H]1O[C@@H](O[C@H]2OC=C[C@H]3[C@H](O)[C@@H]4O[C@]4(CO)[C@@H]23)[C@H](O)[C@H](O)[C@H]1O
REMARK SMILES IDX 6 1 7 2 10 3 9 4 11 5 8 6 19 7 12 8 16 9 14 10 15 11 13 12
REMARK SMILES IDX 17 14 18 15 5 17 20 18 4 19 22 20 3 21 24 22 21 23 23 25
REMARK SMILES IDX 2 27 1 28 25 30
REMARK H PARENT 13 13 18 16 21 24 23 26 1 29 25 31
REMARK Flexibility Score: inf
ROOT
ATOM      1  O   UNL     1     -99.966  26.379 -27.242  1.00  0.00    -0.310 OA
ENDROOT
BRANCH   1   2
ATOM      2  C   UNL     1    -101.016  26.156 -28.166  1.00  0.00     0.315 C 
ATOM      3  C   UNL     1    -103.371  24.927 -29.169  1.00  0.00     0.018 C 
ATOM      4  C   UNL     1    -102.240  24.225 -29.063  1.00  0.00     0.186 C 
ATOM      5  C   UNL     1    -103.536  26.302 -28.544  1.00  0.00     0.059 C 
ATOM      6  O   UNL     1    -101.125  24.759 -28.416  1.00  0.00    -0.472 OA
ATOM      7  C   UNL     1    -102.358  26.697 -27.626  1.00  0.00     0.105 C 
ATOM      8  C   UNL     1    -104.771  26.306 -27.627  1.00  0.00     0.154 C 
ATOM      9  C   UNL     1    -102.784  26.212 -26.229  1.00  0.00     0.130 C 
ATOM     10  C   UNL     1    -104.244  25.985 -26.232  1.00  0.00     0.183 C 
ATOM     11  O   UNL     1    -103.667  27.095 -25.576  1.00  0.00    -0.360 OA
BRANCH   8  12
ATOM     12  O   UNL     1    -105.375  27.575 -27.644  1.00  0.00    -0.390 OA
ATOM     13  H   UNL     1    -104.712  28.199 -28.040  1.00  0.00     0.211 HD
ENDBRANCH   8  12
BRANCH   9  14
ATOM     14  C   UNL     1    -101.938  25.369 -25.266  1.00  0.00     0.195 C 
BRANCH  14  15
ATOM     15  O   UNL     1    -101.074  26.205 -24.549  1.00  0.00    -0.393 OA
ATOM     16  H   UNL     1    -101.066  25.862 -23.619  1.00  0.00     0.210 HD
ENDBRANCH  14  15
ENDBRANCH   9  14
ENDBRANCH   1   2
BRANCH   1  17
ATOM     17  C   UNL     1     -98.863  27.028 -27.853  1.00  0.00     0.286 C 
ATOM     18  C   UNL     1     -98.189  27.981 -26.850  1.00  0.00     0.202 C 
ATOM     19  O   UNL     1     -97.927  26.089 -28.367  1.00  0.00    -0.341 OA
ATOM     20  C   UNL     1     -97.540  27.172 -25.710  1.00  0.00     0.179 C 
ATOM     21  C   UNL     1     -97.414  25.245 -27.347  1.00  0.00     0.178 C 
ATOM     22  C   UNL     1     -96.634  26.073 -26.294  1.00  0.00     0.177 C 
BRANCH  18  23
ATOM     23  O   UNL     1     -97.220  28.746 -27.523  1.00  0.00    -0.385 OA
ATOM     24  H   UNL     1     -96.667  28.114 -28.051  1.00  0.00     0.211 HD
ENDBRANCH  18  23
BRANCH  20  25
ATOM     25  O   UNL     1     -96.783  28.012 -24.878  1.00  0.00    -0.387 OA
ATOM     26  H   UNL     1     -96.430  28.740 -25.453  1.00  0.00     0.211 HD
ENDBRANCH  20  25
BRANCH  21  27
ATOM     27  C   UNL     1     -96.498  24.197 -27.997  1.00  0.00     0.191 C 
BRANCH  27  28
ATOM     28  O   UNL     1     -96.506  23.012 -27.247  1.00  0.00    -0.394 OA
ATOM     29  H   UNL     1     -97.447  22.850 -26.975  1.00  0.00     0.210 HD
ENDBRANCH  27  28
ENDBRANCH  21  27
BRANCH  22  30
ATOM     30  O   UNL     1     -96.133  25.254 -25.266  1.00  0.00    -0.387 OA
ATOM     31  H   UNL     1     -96.783  25.276 -24.516  1.00  0.00     0.211 HD
ENDBRANCH  22  30
ENDBRANCH   1  17
TORSDOF 10
ENDMDL
MODEL 8
REMARK VINA RESULT:    -3.686     12.182     14.717
REMARK INTER + INTRA:          -6.348
REMARK INTER:                  -5.215
REMARK INTRA:                  -1.134
REMARK UNBOUND:                -1.154
REMARK SMILES OC[C@@H]1O[C@@H](O[C@H]2OC=C[C@H]3[C@H](O)[C@@H]4O[C@]4(CO)[C@@H]23)[C@H](O)[C@H](O)[C@H]1O
REMARK SMILES IDX 6 1 7 2 10 3 9 4 11 5 8 6 19 7 12 8 16 9 14 10 15 11 13 12
REMARK SMILES IDX 17 14 18 15 5 17 20 18 4 19 22 20 3 21 24 22 21 23 23 25
REMARK SMILES IDX 2 27 1 28 25 30
REMARK H PARENT 13 13 18 16 21 24 23 26 1 29 25 31
REMARK Flexibility Score: inf
ROOT
ATOM      1  O   UNL     1     -99.240  25.882 -39.891  1.00  0.00    -0.310 OA
ENDROOT
BRANCH   1   2
ATOM      2  C   UNL     1    -100.369  25.237 -40.452  1.00  0.00     0.315 C 
ATOM      3  C   UNL     1    -103.127  24.854 -41.007  1.00  0.00     0.018 C 
ATOM      4  C   UNL     1    -102.668  24.715 -39.762  1.00  0.00     0.186 C 
ATOM      5  C   UNL     1    -102.288  25.456 -42.122  1.00  0.00     0.059 C 
ATOM      6  O   UNL     1    -101.355  25.064 -39.441  1.00  0.00    -0.472 OA
ATOM      7  C   UNL     1    -100.956  26.059 -41.620  1.00  0.00     0.105 C 
ATOM      8  C   UNL     1    -103.043  26.636 -42.756  1.00  0.00     0.154 C 
ATOM      9  C   UNL     1    -101.292  27.531 -41.326  1.00  0.00     0.130 C 
ATOM     10  C   UNL     1    -102.549  27.879 -42.020  1.00  0.00     0.183 C 
ATOM     11  O   UNL     1    -101.296  28.345 -42.477  1.00  0.00    -0.360 OA
BRANCH   8  12
ATOM     12  O   UNL     1    -102.735  26.721 -44.124  1.00  0.00    -0.390 OA
ATOM     13  H   UNL     1    -102.214  27.557 -44.246  1.00  0.00     0.211 HD
ENDBRANCH   8  12
BRANCH   9  14
ATOM     14  C   UNL     1    -100.960  28.296 -40.038  1.00  0.00     0.195 C 
BRANCH  14  15
ATOM     15  O   UNL     1     -99.605  28.644 -40.037  1.00  0.00    -0.393 OA
ATOM     16  H   UNL     1     -99.573  29.631 -39.943  1.00  0.00     0.210 HD
ENDBRANCH  14  15
ENDBRANCH   9  14
ENDBRANCH   1   2
BRANCH   1  17
ATOM     17  C   UNL     1     -98.304  24.944 -39.382  1.00  0.00     0.286 C 
ATOM     18  C   UNL     1     -98.028  23.852 -40.430  1.00  0.00     0.202 C 
ATOM     19  O   UNL     1     -97.096  25.580 -38.982  1.00  0.00    -0.341 OA
ATOM     20  C   UNL     1     -97.299  24.460 -41.644  1.00  0.00     0.179 C 
ATOM     21  C   UNL     1     -96.475  26.258 -40.064  1.00  0.00     0.178 C 
ATOM     22  C   UNL     1     -96.068  25.257 -41.175  1.00  0.00     0.177 C 
BRANCH  18  23
ATOM     23  O   UNL     1     -97.247  22.840 -39.844  1.00  0.00    -0.385 OA
ATOM     24  H   UNL     1     -97.478  21.992 -40.304  1.00  0.00     0.211 HD
ENDBRANCH  18  23
BRANCH  20  25
ATOM     25  O   UNL     1     -96.895  23.451 -42.533  1.00  0.00    -0.387 OA
ATOM     26  H   UNL     1     -96.127  23.814 -43.047  1.00  0.00     0.211 HD
ENDBRANCH  20  25
BRANCH  21  27
ATOM     27  C   UNL     1     -95.243  27.002 -39.529  1.00  0.00     0.191 C 
BRANCH  27  28
ATOM     28  O   UNL     1     -95.029  28.180 -40.261  1.00  0.00    -0.394 OA
ATOM     29  H   UNL     1     -95.824  28.305 -40.843  1.00  0.00     0.210 HD
ENDBRANCH  27  28
ENDBRANCH  21  27
BRANCH  22  30
ATOM     30  O   UNL     1     -95.466  25.914 -42.264  1.00  0.00    -0.387 OA
ATOM     31  H   UNL     1     -94.859  25.268 -42.710  1.00  0.00     0.211 HD
ENDBRANCH  22  30
ENDBRANCH   1  17
TORSDOF 10
ENDMDL
MODEL 9
REMARK VINA RESULT:    -3.678      1.712      3.575
REMARK INTER + INTRA:          -6.337
REMARK INTER:                  -5.089
REMARK INTRA:                  -1.248
REMARK UNBOUND:                -1.154
REMARK SMILES OC[C@@H]1O[C@@H](O[C@H]2OC=C[C@H]3[C@H](O)[C@@H]4O[C@]4(CO)[C@@H]23)[C@H](O)[C@H](O)[C@H]1O
REMARK SMILES IDX 6 1 7 2 10 3 9 4 11 5 8 6 19 7 12 8 16 9 14 10 15 11 13 12
REMARK SMILES IDX 17 14 18 15 5 17 20 18 4 19 22 20 3 21 24 22 21 23 23 25
REMARK SMILES IDX 2 27 1 28 25 30
REMARK H PARENT 13 13 18 16 21 24 23 26 1 29 25 31
REMARK Flexibility Score: inf
ROOT
ATOM      1  O   UNL     1     -95.458  25.486 -28.139  1.00  0.00    -0.310 OA
ENDROOT
BRANCH   1   2
ATOM      2  C   UNL     1     -95.368  25.898 -26.787  1.00  0.00     0.315 C 
ATOM      3  C   UNL     1     -94.881  27.708 -24.654  1.00  0.00     0.018 C 
ATOM      4  C   UNL     1     -93.875  27.300 -25.431  1.00  0.00     0.186 C 
ATOM      5  C   UNL     1     -96.336  27.447 -25.003  1.00  0.00     0.059 C 
ATOM      6  O   UNL     1     -94.120  26.550 -26.582  1.00  0.00    -0.472 OA
ATOM      7  C   UNL     1     -96.524  26.854 -26.418  1.00  0.00     0.105 C 
ATOM      8  C   UNL     1     -97.107  28.777 -25.026  1.00  0.00     0.154 C 
ATOM      9  C   UNL     1     -96.717  28.083 -27.324  1.00  0.00     0.130 C 
ATOM     10  C   UNL     1     -97.078  29.241 -26.480  1.00  0.00     0.183 C 
ATOM     11  O   UNL     1     -98.030  28.595 -27.299  1.00  0.00    -0.360 OA
BRANCH   8  12
ATOM     12  O   UNL     1     -98.432  28.570 -24.605  1.00  0.00    -0.390 OA
ATOM     13  H   UNL     1     -98.527  27.596 -24.439  1.00  0.00     0.211 HD
ENDBRANCH   8  12
BRANCH   9  14
ATOM     14  C   UNL     1     -95.974  28.367 -28.636  1.00  0.00     0.195 C 
BRANCH  14  15
ATOM     15  O   UNL     1     -96.571  27.647 -29.676  1.00  0.00    -0.393 OA
ATOM     16  H   UNL     1     -97.511  27.489 -29.400  1.00  0.00     0.210 HD
ENDBRANCH  14  15
ENDBRANCH   9  14
ENDBRANCH   1   2
BRANCH   1  17
ATOM     17  C   UNL     1     -95.509  24.073 -28.251  1.00  0.00     0.286 C 
ATOM     18  C   UNL     1     -96.858  23.550 -27.725  1.00  0.00     0.202 C 
ATOM     19  O   UNL     1     -95.289  23.649 -29.590  1.00  0.00    -0.341 OA
ATOM     20  C   UNL     1     -98.000  24.023 -28.646  1.00  0.00     0.179 C 
ATOM     21  C   UNL     1     -96.260  24.182 -30.478  1.00  0.00     0.178 C 
ATOM     22  C   UNL     1     -97.676  23.671 -30.109  1.00  0.00     0.177 C 
BRANCH  18  23
ATOM     23  O   UNL     1     -96.817  22.146 -27.672  1.00  0.00    -0.385 OA
ATOM     24  H   UNL     1     -97.352  21.870 -26.884  1.00  0.00     0.211 HD
ENDBRANCH  18  23
BRANCH  20  25
ATOM     25  O   UNL     1     -99.214  23.420 -28.275  1.00  0.00    -0.387 OA
ATOM     26  H   UNL     1     -99.928  23.879 -28.790  1.00  0.00     0.211 HD
ENDBRANCH  20  25
BRANCH  21  27
ATOM     27  C   UNL     1     -95.891  23.767 -31.910  1.00  0.00     0.191 C 
BRANCH  27  28
ATOM     28  O   UNL     1     -96.435  24.671 -32.835  1.00  0.00    -0.394 OA
ATOM     29  H   UNL     1     -95.936  25.523 -32.732  1.00  0.00     0.210 HD
ENDBRANCH  27  28
ENDBRANCH  21  27
BRANCH  22  30
ATOM     30  O   UNL     1     -98.654  24.204 -30.969  1.00  0.00    -0.387 OA
ATOM     31  H   UNL     1     -98.243  24.959 -31.464  1.00  0.00     0.211 HD
ENDBRANCH  22  30
ENDBRANCH   1  17
TORSDOF 10
ENDMDL
