MODEL 1
REMARK VINA RESULT:    -3.104      0.000      0.000
REMARK INTER + INTRA:          -3.839
REMARK INTER:                  -3.648
REMARK INTRA:                  -0.190
REMARK UNBOUND:                -0.190
REMARK SMILES O=C([O-])CCC(=O)[O-]
REMARK SMILES IDX 4 1 2 2 1 3 3 4 5 5 6 6 7 7 8 8
REMARK H PARENT
REMARK Flexibility Score: inf
ROOT
ATOM      1  C   UNL     1       3.973  -7.778  -5.684  1.00  0.00     0.059 C 
ENDROOT
BRANCH   1   2
ATOM      2  C   UNL     1       3.262  -6.561  -6.193  1.00  0.00     0.042 C 
ATOM      3  O   UNL     1       2.468  -6.652  -7.166  1.00  0.00    -0.550 OA
ATOM      4  O   UNL     1       3.444  -5.335  -5.566  1.00  0.00    -0.550 OA
ENDBRANCH   1   2
BRANCH   1   5
ATOM      5  C   UNL     1       5.495  -7.620  -5.767  1.00  0.00     0.059 C 
BRANCH   5   6
ATOM      6  C   UNL     1       5.946  -7.357  -7.172  1.00  0.00     0.042 C 
ATOM      7  O   UNL     1       5.780  -8.229  -8.065  1.00  0.00    -0.550 OA
ATOM      8  O   UNL     1       6.515  -6.133  -7.502  1.00  0.00    -0.550 OA
ENDBRANCH   5   6
ENDBRANCH   1   5
TORSDOF 3
ENDMDL
MODEL 2
REMARK VINA RESULT:    -3.093      0.102      3.310
REMARK INTER + INTRA:          -3.826
REMARK INTER:                  -3.638
REMARK INTRA:                  -0.188
REMARK UNBOUND:                -0.190
REMARK SMILES O=C([O-])CCC(=O)[O-]
REMARK SMILES IDX 4 1 2 2 1 3 3 4 5 5 6 6 7 7 8 8
REMARK H PARENT
REMARK Flexibility Score: inf
ROOT
ATOM      1  C   UNL     1       5.552  -7.526  -5.815  1.00  0.00     0.059 C 
ENDROOT
BRANCH   1   2
ATOM      2  C   UNL     1       5.967  -7.212  -7.220  1.00  0.00     0.042 C 
ATOM      3  O   UNL     1       6.535  -6.119  -7.483  1.00  0.00    -0.550 OA
ATOM      4  O   UNL     1       5.764  -8.142  -8.230  1.00  0.00    -0.550 OA
ENDBRANCH   1   2
BRANCH   1   5
ATOM      5  C   UNL     1       4.039  -7.739  -5.706  1.00  0.00     0.059 C 
BRANCH   5   6
ATOM      6  C   UNL     1       3.277  -6.548  -6.202  1.00  0.00     0.042 C 
ATOM      7  O   UNL     1       2.480  -6.664  -7.170  1.00  0.00    -0.550 OA
ATOM      8  O   UNL     1       3.417  -5.319  -5.570  1.00  0.00    -0.550 OA
ENDBRANCH   5   6
ENDBRANCH   1   5
TORSDOF 3
ENDMDL
MODEL 3
REMARK VINA RESULT:    -3.055      0.113      1.621
REMARK INTER + INTRA:          -3.782
REMARK INTER:                  -3.592
REMARK INTRA:                  -0.189
REMARK UNBOUND:                -0.190
REMARK SMILES O=C([O-])CCC(=O)[O-]
REMARK SMILES IDX 4 1 2 2 1 3 3 4 5 5 6 6 7 7 8 8
REMARK H PARENT
REMARK Flexibility Score: inf
ROOT
ATOM      1  C   UNL     1       3.963  -7.725  -5.655  1.00  0.00     0.059 C 
ENDROOT
BRANCH   1   2
ATOM      2  C   UNL     1       3.264  -6.493  -6.143  1.00  0.00     0.042 C 
ATOM      3  O   UNL     1       3.426  -5.395  -5.547  1.00  0.00    -0.550 OA
ATOM      4  O   UNL     1       2.469  -6.548  -7.279  1.00  0.00    -0.550 OA
ENDBRANCH   1   2
BRANCH   1   5
ATOM      5  C   UNL     1       5.486  -7.595  -5.773  1.00  0.00     0.059 C 
BRANCH   5   6
ATOM      6  C   UNL     1       5.911  -7.354  -7.190  1.00  0.00     0.042 C 
ATOM      7  O   UNL     1       6.532  -6.302  -7.495  1.00  0.00    -0.550 OA
ATOM      8  O   UNL     1       5.656  -8.311  -8.164  1.00  0.00    -0.550 OA
ENDBRANCH   5   6
ENDBRANCH   1   5
TORSDOF 3
ENDMDL
MODEL 4
REMARK VINA RESULT:    -2.968      1.746      3.163
REMARK INTER + INTRA:          -3.679
REMARK INTER:                  -3.559
REMARK INTRA:                  -0.120
REMARK UNBOUND:                -0.190
REMARK SMILES O=C([O-])CCC(=O)[O-]
REMARK SMILES IDX 4 1 2 2 1 3 3 4 5 5 6 6 7 7 8 8
REMARK H PARENT
REMARK Flexibility Score: inf
ROOT
ATOM      1  C   UNL     1       5.428  -7.455  -5.641  1.00  0.00     0.059 C 
ENDROOT
BRANCH   1   2
ATOM      2  C   UNL     1       4.790  -8.759  -6.014  1.00  0.00     0.042 C 
ATOM      3  O   UNL     1       3.558  -8.937  -5.822  1.00  0.00    -0.550 OA
ATOM      4  O   UNL     1       5.545  -9.758  -6.613  1.00  0.00    -0.550 OA
ENDBRANCH   1   2
BRANCH   1   5
ATOM      5  C   UNL     1       5.375  -6.449  -6.795  1.00  0.00     0.059 C 
BRANCH   5   6
ATOM      6  C   UNL     1       4.185  -5.545  -6.685  1.00  0.00     0.042 C 
ATOM      7  O   UNL     1       3.585  -5.418  -5.585  1.00  0.00    -0.550 OA
ATOM      8  O   UNL     1       3.763  -4.813  -7.788  1.00  0.00    -0.550 OA
ENDBRANCH   5   6
ENDBRANCH   1   5
TORSDOF 3
ENDMDL
MODEL 5
REMARK VINA RESULT:    -2.914     13.573     15.081
REMARK INTER + INTRA:          -3.615
REMARK INTER:                  -3.560
REMARK INTRA:                  -0.055
REMARK UNBOUND:                -0.190
REMARK SMILES O=C([O-])CCC(=O)[O-]
REMARK SMILES IDX 4 1 2 2 1 3 3 4 5 5 6 6 7 7 8 8
REMARK H PARENT
REMARK Flexibility Score: inf
ROOT
ATOM      1  C   UNL     1      -7.185   0.607  -5.926  1.00  0.00     0.059 C 
ENDROOT
BRANCH   1   2
ATOM      2  C   UNL     1      -7.759  -0.672  -6.455  1.00  0.00     0.042 C 
ATOM      3  O   UNL     1      -7.104  -1.368  -7.275  1.00  0.00    -0.550 OA
ATOM      4  O   UNL     1      -8.997  -1.117  -6.009  1.00  0.00    -0.550 OA
ENDBRANCH   1   2
BRANCH   1   5
ATOM      5  C   UNL     1      -7.026   1.655  -7.034  1.00  0.00     0.059 C 
BRANCH   5   6
ATOM      6  C   UNL     1      -7.683   2.951  -6.666  1.00  0.00     0.042 C 
ATOM      7  O   UNL     1      -7.539   3.964  -7.399  1.00  0.00    -0.550 OA
ATOM      8  O   UNL     1      -8.487   3.027  -5.536  1.00  0.00    -0.550 OA
ENDBRANCH   5   6
ENDBRANCH   1   5
TORSDOF 3
ENDMDL
MODEL 6
REMARK VINA RESULT:    -2.898     13.584     14.983
REMARK INTER + INTRA:          -3.597
REMARK INTER:                  -3.544
REMARK INTRA:                  -0.054
REMARK UNBOUND:                -0.190
REMARK SMILES O=C([O-])CCC(=O)[O-]
REMARK SMILES IDX 4 1 2 2 1 3 3 4 5 5 6 6 7 7 8 8
REMARK H PARENT
REMARK Flexibility Score: inf
ROOT
ATOM      1  C   UNL     1      -7.104   1.635  -7.079  1.00  0.00     0.059 C 
ENDROOT
BRANCH   1   2
ATOM      2  C   UNL     1      -7.689   2.955  -6.677  1.00  0.00     0.042 C 
ATOM      3  O   UNL     1      -7.497   3.975  -7.390  1.00  0.00    -0.550 OA
ATOM      4  O   UNL     1      -8.480   3.049  -5.540  1.00  0.00    -0.550 OA
ENDBRANCH   1   2
BRANCH   1   5
ATOM      5  C   UNL     1      -7.209   0.604  -5.950  1.00  0.00     0.059 C 
BRANCH   5   6
ATOM      6  C   UNL     1      -7.798  -0.687  -6.434  1.00  0.00     0.042 C 
ATOM      7  O   UNL     1      -7.132  -1.443  -7.190  1.00  0.00    -0.550 OA
ATOM      8  O   UNL     1      -9.066  -1.072  -6.018  1.00  0.00    -0.550 OA
ENDBRANCH   5   6
ENDBRANCH   1   5
TORSDOF 3
ENDMDL
MODEL 7
REMARK VINA RESULT:    -2.844     12.587     13.445
REMARK INTER + INTRA:          -3.533
REMARK INTER:                  -3.400
REMARK INTRA:                  -0.133
REMARK UNBOUND:                -0.190
REMARK SMILES O=C([O-])CCC(=O)[O-]
REMARK SMILES IDX 4 1 2 2 1 3 3 4 5 5 6 6 7 7 8 8
REMARK H PARENT
REMARK Flexibility Score: inf
ROOT
ATOM      1  C   UNL     1       9.120  -3.466   6.149  1.00  0.00     0.059 C 
ENDROOT
BRANCH   1   2
ATOM      2  C   UNL     1       8.791  -2.522   5.033  1.00  0.00     0.042 C 
ATOM      3  O   UNL     1       8.596  -1.301   5.273  1.00  0.00    -0.550 OA
ATOM      4  O   UNL     1       8.741  -2.982   3.724  1.00  0.00    -0.550 OA
ENDBRANCH   1   2
BRANCH   1   5
ATOM      5  C   UNL     1       7.858  -3.937   6.881  1.00  0.00     0.059 C 
BRANCH   5   6
ATOM      6  C   UNL     1       7.186  -5.063   6.156  1.00  0.00     0.042 C 
ATOM      7  O   UNL     1       7.873  -5.911   5.528  1.00  0.00    -0.550 OA
ATOM      8  O   UNL     1       5.805  -5.198   6.208  1.00  0.00    -0.550 OA
ENDBRANCH   5   6
ENDBRANCH   1   5
TORSDOF 3
ENDMDL
MODEL 8
REMARK VINA RESULT:    -2.778      2.050      2.572
REMARK INTER + INTRA:          -3.456
REMARK INTER:                  -3.287
REMARK INTRA:                  -0.169
REMARK UNBOUND:                -0.190
REMARK SMILES O=C([O-])CCC(=O)[O-]
REMARK SMILES IDX 4 1 2 2 1 3 3 4 5 5 6 6 7 7 8 8
REMARK H PARENT
REMARK Flexibility Score: inf
ROOT
ATOM      1  C   UNL     1       5.266  -6.255  -6.631  1.00  0.00     0.059 C 
ENDROOT
BRANCH   1   2
ATOM      2  C   UNL     1       4.002  -6.436  -5.846  1.00  0.00     0.042 C 
ATOM      3  O   UNL     1       3.343  -5.431  -5.468  1.00  0.00    -0.550 OA
ATOM      4  O   UNL     1       3.531  -7.712  -5.570  1.00  0.00    -0.550 OA
ENDBRANCH   1   2
BRANCH   1   5
ATOM      5  C   UNL     1       5.102  -6.719  -8.082  1.00  0.00     0.059 C 
BRANCH   5   6
ATOM      6  C   UNL     1       4.030  -5.948  -8.790  1.00  0.00     0.042 C 
ATOM      7  O   UNL     1       3.036  -6.547  -9.278  1.00  0.00    -0.550 OA
ATOM      8  O   UNL     1       4.109  -4.564  -8.874  1.00  0.00    -0.550 OA
ENDBRANCH   5   6
ENDBRANCH   1   5
TORSDOF 3
ENDMDL
