MODEL 1
REMARK VINA RESULT:    -1.988      0.000      0.000
REMARK INTER + INTRA:          -1.988
REMARK INTER:                  -1.988
REMARK INTRA:                   0.000
REMARK UNBOUND:                 0.000
REMARK SMILES CC1=CC(=O)[C@@H]2C[C@H]1C2(C)C
REMARK SMILES IDX 1 1 2 2 3 3 4 4 5 5 6 6 7 7 8 8 9 9 10 10 11 11
REMARK H PARENT
REMARK Flexibility Score: inf
ROOT
ATOM      1  C   UNL     1     137.334  48.875  26.594  1.00  0.00     0.040 C 
ATOM      2  C   UNL     1     136.130  49.611  26.098  1.00  0.00    -0.066 C 
ATOM      3  C   UNL     1     135.621  50.695  26.750  1.00  0.00     0.047 C 
ATOM      4  C   UNL     1     134.412  51.331  26.132  1.00  0.00     0.159 C 
ATOM      5  O   UNL     1     133.875  52.361  26.614  1.00  0.00    -0.295 OA
ATOM      6  C   UNL     1     133.878  50.639  24.877  1.00  0.00     0.067 C 
ATOM      7  C   UNL     1     133.880  49.139  25.243  1.00  0.00     0.021 C 
ATOM      8  C   UNL     1     135.374  49.133  24.842  1.00  0.00     0.022 C 
ATOM      9  C   UNL     1     135.073  50.353  23.924  1.00  0.00    -0.019 C 
ATOM     10  C   UNL     1     134.609  49.925  22.508  1.00  0.00     0.012 C 
ATOM     11  C   UNL     1     136.171  51.443  23.767  1.00  0.00     0.012 C 
ENDROOT
TORSDOF 0
ENDMDL
MODEL 2
REMARK VINA RESULT:    -1.609      1.611      3.713
REMARK INTER + INTRA:          -1.609
REMARK INTER:                  -1.609
REMARK INTRA:                   0.000
REMARK UNBOUND:                 0.000
REMARK SMILES CC1=CC(=O)[C@@H]2C[C@H]1C2(C)C
REMARK SMILES IDX 1 1 2 2 3 3 4 4 5 5 6 6 7 7 8 8 9 9 10 10 11 11
REMARK H PARENT
REMARK Flexibility Score: inf
ROOT
ATOM      1  C   UNL     1     134.069  50.826  20.803  1.00  0.00     0.040 C 
ATOM      2  C   UNL     1     134.491  51.346  22.140  1.00  0.00    -0.066 C 
ATOM      3  C   UNL     1     133.876  52.407  22.735  1.00  0.00     0.047 C 
ATOM      4  C   UNL     1     134.407  52.812  24.077  1.00  0.00     0.159 C 
ATOM      5  O   UNL     1     133.897  53.748  24.746  1.00  0.00    -0.295 OA
ATOM      6  C   UNL     1     135.610  52.010  24.575  1.00  0.00     0.067 C 
ATOM      7  C   UNL     1     136.544  51.931  23.348  1.00  0.00     0.021 C 
ATOM      8  C   UNL     1     135.691  50.727  22.885  1.00  0.00     0.022 C 
ATOM      9  C   UNL     1     135.312  50.497  24.377  1.00  0.00    -0.019 C 
ATOM     10  C   UNL     1     136.334  49.593  25.112  1.00  0.00     0.012 C 
ATOM     11  C   UNL     1     133.882  49.977  24.700  1.00  0.00     0.012 C 
ENDROOT
TORSDOF 0
ENDMDL
MODEL 3
REMARK VINA RESULT:    -1.543      2.005      3.703
REMARK INTER + INTRA:          -1.543
REMARK INTER:                  -1.543
REMARK INTRA:                   0.000
REMARK UNBOUND:                 0.000
REMARK SMILES CC1=CC(=O)[C@@H]2C[C@H]1C2(C)C
REMARK SMILES IDX 1 1 2 2 3 3 4 4 5 5 6 6 7 7 8 8 9 9 10 10 11 11
REMARK H PARENT
REMARK Flexibility Score: inf
ROOT
ATOM      1  C   UNL     1     133.953  51.081  23.755  1.00  0.00     0.040 C 
ATOM      2  C   UNL     1     134.608  50.496  24.966  1.00  0.00    -0.066 C 
ATOM      3  C   UNL     1     135.847  49.928  24.920  1.00  0.00     0.047 C 
ATOM      4  C   UNL     1     136.375  49.386  26.214  1.00  0.00     0.159 C 
ATOM      5  O   UNL     1     137.521  48.877  26.311  1.00  0.00    -0.295 OA
ATOM      6  C   UNL     1     135.423  49.495  27.407  1.00  0.00     0.067 C 
ATOM      7  C   UNL     1     134.064  49.021  26.849  1.00  0.00     0.021 C 
ATOM      8  C   UNL     1     133.875  50.462  26.322  1.00  0.00     0.022 C 
ATOM      9  C   UNL     1     134.842  50.937  27.445  1.00  0.00    -0.019 C 
ATOM     10  C   UNL     1     134.102  51.239  28.773  1.00  0.00     0.012 C 
ATOM     11  C   UNL     1     135.797  52.127  27.139  1.00  0.00     0.012 C 
ENDROOT
TORSDOF 0
ENDMDL
MODEL 4
REMARK VINA RESULT:    -1.265      4.907      6.670
REMARK INTER + INTRA:          -1.265
REMARK INTER:                  -1.265
REMARK INTRA:                   0.000
REMARK UNBOUND:                 0.000
REMARK SMILES CC1=CC(=O)[C@@H]2C[C@H]1C2(C)C
REMARK SMILES IDX 1 1 2 2 3 3 4 4 5 5 6 6 7 7 8 8 9 9 10 10 11 11
REMARK H PARENT
REMARK Flexibility Score: inf
ROOT
ATOM      1  C   UNL     1     133.972  57.074  29.021  1.00  0.00     0.040 C 
ATOM      2  C   UNL     1     134.447  55.761  29.558  1.00  0.00    -0.066 C 
ATOM      3  C   UNL     1     133.878  55.173  30.649  1.00  0.00     0.047 C 
ATOM      4  C   UNL     1     134.459  53.856  31.069  1.00  0.00     0.159 C 
ATOM      5  O   UNL     1     133.995  53.195  32.034  1.00  0.00    -0.295 OA
ATOM      6  C   UNL     1     135.654  53.375  30.245  1.00  0.00     0.067 C 
ATOM      7  C   UNL     1     136.549  54.626  30.113  1.00  0.00     0.021 C 
ATOM      8  C   UNL     1     135.651  55.037  28.923  1.00  0.00     0.022 C 
ATOM      9  C   UNL     1     135.309  53.530  28.737  1.00  0.00    -0.019 C 
ATOM     10  C   UNL     1     136.327  52.803  27.821  1.00  0.00     0.012 C 
ATOM     11  C   UNL     1     133.875  53.154  28.264  1.00  0.00     0.012 C 
ENDROOT
TORSDOF 0
ENDMDL
MODEL 5
REMARK VINA RESULT:    -0.858      2.965      4.708
REMARK INTER + INTRA:          -0.858
REMARK INTER:                  -0.858
REMARK INTRA:                   0.000
REMARK UNBOUND:                 0.000
REMARK SMILES CC1=CC(=O)[C@@H]2C[C@H]1C2(C)C
REMARK SMILES IDX 1 1 2 2 3 3 4 4 5 5 6 6 7 7 8 8 9 9 10 10 11 11
REMARK H PARENT
REMARK Flexibility Score: inf
ROOT
ATOM      1  C   UNL     1     134.223  54.407  22.421  1.00  0.00     0.040 C 
ATOM      2  C   UNL     1     134.621  52.982  22.199  1.00  0.00    -0.066 C 
ATOM      3  C   UNL     1     134.966  52.507  20.968  1.00  0.00     0.047 C 
ATOM      4  C   UNL     1     135.345  51.059  20.900  1.00  0.00     0.159 C 
ATOM      5  O   UNL     1     135.723  50.513  19.832  1.00  0.00    -0.295 OA
ATOM      6  C   UNL     1     135.239  50.292  22.220  1.00  0.00     0.067 C 
ATOM      7  C   UNL     1     133.875  50.724  22.799  1.00  0.00     0.021 C 
ATOM      8  C   UNL     1     134.605  51.967  23.359  1.00  0.00     0.022 C 
ATOM      9  C   UNL     1     135.919  51.134  23.336  1.00  0.00    -0.019 C 
ATOM     10  C   UNL     1     136.126  50.324  24.642  1.00  0.00     0.012 C 
ATOM     11  C   UNL     1     137.249  51.868  23.003  1.00  0.00     0.012 C 
ENDROOT
TORSDOF 0
ENDMDL
MODEL 6
REMARK VINA RESULT:    -0.814      4.841      6.658
REMARK INTER + INTRA:          -0.814
REMARK INTER:                  -0.814
REMARK INTRA:                   0.000
REMARK UNBOUND:                 0.000
REMARK SMILES CC1=CC(=O)[C@@H]2C[C@H]1C2(C)C
REMARK SMILES IDX 1 1 2 2 3 3 4 4 5 5 6 6 7 7 8 8 9 9 10 10 11 11
REMARK H PARENT
REMARK Flexibility Score: inf
ROOT
ATOM      1  C   UNL     1     133.908  52.051  28.097  1.00  0.00     0.040 C 
ATOM      2  C   UNL     1     134.770  53.082  28.753  1.00  0.00    -0.066 C 
ATOM      3  C   UNL     1     135.967  53.472  28.228  1.00  0.00     0.047 C 
ATOM      4  C   UNL     1     136.718  54.517  28.996  1.00  0.00     0.159 C 
ATOM      5  O   UNL     1     137.812  54.990  28.593  1.00  0.00    -0.295 OA
ATOM      6  C   UNL     1     136.062  54.967  30.302  1.00  0.00     0.067 C 
ATOM      7  C   UNL     1     135.628  53.650  30.980  1.00  0.00     0.021 C 
ATOM      8  C   UNL     1     134.360  53.715  30.098  1.00  0.00     0.022 C 
ATOM      9  C   UNL     1     134.559  55.257  30.027  1.00  0.00    -0.019 C 
ATOM     10  C   UNL     1     133.875  55.996  31.206  1.00  0.00     0.012 C 
ATOM     11  C   UNL     1     134.177  55.988  28.708  1.00  0.00     0.012 C 
ENDROOT
TORSDOF 0
ENDMDL
MODEL 7
REMARK VINA RESULT:    -0.809      2.067      3.373
REMARK INTER + INTRA:          -0.809
REMARK INTER:                  -0.809
REMARK INTRA:                   0.000
REMARK UNBOUND:                 0.000
REMARK SMILES CC1=CC(=O)[C@@H]2C[C@H]1C2(C)C
REMARK SMILES IDX 1 1 2 2 3 3 4 4 5 5 6 6 7 7 8 8 9 9 10 10 11 11
REMARK H PARENT
REMARK Flexibility Score: inf
ROOT
ATOM      1  C   UNL     1     134.129  53.531  25.321  1.00  0.00     0.040 C 
ATOM      2  C   UNL     1     134.299  52.203  24.655  1.00  0.00    -0.066 C 
ATOM      3  C   UNL     1     133.946  51.990  23.356  1.00  0.00     0.047 C 
ATOM      4  C   UNL     1     134.178  50.607  22.825  1.00  0.00     0.159 C 
ATOM      5  O   UNL     1     133.933  50.297  21.631  1.00  0.00    -0.295 OA
ATOM      6  C   UNL     1     134.732  49.602  23.837  1.00  0.00     0.067 C 
ATOM      7  C   UNL     1     133.875  49.828  25.101  1.00  0.00     0.021 C 
ATOM      8  C   UNL     1     134.838  50.989  25.440  1.00  0.00     0.022 C 
ATOM      9  C   UNL     1     135.921  50.263  24.590  1.00  0.00    -0.019 C 
ATOM     10  C   UNL     1     136.734  49.238  25.421  1.00  0.00     0.012 C 
ATOM     11  C   UNL     1     136.921  51.132  23.775  1.00  0.00     0.012 C 
ENDROOT
TORSDOF 0
ENDMDL
MODEL 8
REMARK VINA RESULT:    -0.716      1.653      2.252
REMARK INTER + INTRA:          -0.716
REMARK INTER:                  -0.716
REMARK INTRA:                   0.000
REMARK UNBOUND:                 0.000
REMARK SMILES CC1=CC(=O)[C@@H]2C[C@H]1C2(C)C
REMARK SMILES IDX 1 1 2 2 3 3 4 4 5 5 6 6 7 7 8 8 9 9 10 10 11 11
REMARK H PARENT
REMARK Flexibility Score: inf
ROOT
ATOM      1  C   UNL     1     136.119  49.106  25.263  1.00  0.00     0.040 C 
ATOM      2  C   UNL     1     135.521  50.207  24.447  1.00  0.00    -0.066 C 
ATOM      3  C   UNL     1     135.083  51.372  25.006  1.00  0.00     0.047 C 
ATOM      4  C   UNL     1     134.510  52.385  24.061  1.00  0.00     0.159 C 
ATOM      5  O   UNL     1     134.111  53.513  24.448  1.00  0.00    -0.295 OA
ATOM      6  C   UNL     1     134.443  51.950  22.596  1.00  0.00     0.067 C 
ATOM      7  C   UNL     1     133.875  50.515  22.654  1.00  0.00     0.021 C 
ATOM      8  C   UNL     1     135.323  50.046  22.926  1.00  0.00     0.022 C 
ATOM      9  C   UNL     1     135.814  51.333  22.201  1.00  0.00    -0.019 C 
ATOM     10  C   UNL     1     135.951  51.131  20.670  1.00  0.00     0.012 C 
ATOM     11  C   UNL     1     137.111  52.019  22.718  1.00  0.00     0.012 C 
ENDROOT
TORSDOF 0
ENDMDL
MODEL 9
REMARK VINA RESULT:    -0.538      1.774      3.373
REMARK INTER + INTRA:          -0.538
REMARK INTER:                  -0.538
REMARK INTRA:                   0.000
REMARK UNBOUND:                 0.000
REMARK SMILES CC1=CC(=O)[C@@H]2C[C@H]1C2(C)C
REMARK SMILES IDX 1 1 2 2 3 3 4 4 5 5 6 6 7 7 8 8 9 9 10 10 11 11
REMARK H PARENT
REMARK Flexibility Score: inf
ROOT
ATOM      1  C   UNL     1     136.361  53.060  24.474  1.00  0.00     0.040 C 
ATOM      2  C   UNL     1     135.635  51.778  24.731  1.00  0.00    -0.066 C 
ATOM      3  C   UNL     1     135.137  51.010  23.720  1.00  0.00     0.047 C 
ATOM      4  C   UNL     1     134.436  49.750  24.131  1.00  0.00     0.159 C 
ATOM      5  O   UNL     1     133.970  48.937  23.292  1.00  0.00    -0.295 OA
ATOM      6  C   UNL     1     134.325  49.525  25.640  1.00  0.00     0.067 C 
ATOM      7  C   UNL     1     133.876  50.894  26.194  1.00  0.00     0.021 C 
ATOM      8  C   UNL     1     135.369  51.295  26.171  1.00  0.00     0.022 C 
ATOM      9  C   UNL     1     135.717  49.783  26.282  1.00  0.00    -0.019 C 
ATOM     10  C   UNL     1     135.787  49.300  27.753  1.00  0.00     0.012 C 
ATOM     11  C   UNL     1     136.981  49.262  25.539  1.00  0.00     0.012 C 
ENDROOT
TORSDOF 0
ENDMDL
