MODEL 1
REMARK VINA RESULT:    -4.242      0.000      0.000
REMARK INTER + INTRA:          -5.146
REMARK INTER:                  -5.977
REMARK INTRA:                   0.832
REMARK UNBOUND:                 0.832
REMARK SMILES CC1=CCC(=C(C)C)C(=O)CC(C)=CCC1
REMARK SMILES IDX 12 1 14 2 13 3 15 4 16 5 2 6 1 7 3 8 11 10 9 11 10 12 5 13
REMARK SMILES IDX 6 14 7 15 8 16 4 17
REMARK H PARENT
REMARK Flexibility Score: 60.00
ROOT
ATOM      1  C   UNL     1     -12.436 -18.546  30.250  1.00  0.00    -0.070 C 
ATOM      2  C   UNL     1     -12.801 -18.902  28.998  1.00  0.00    -0.027 C 
ATOM      3  C   UNL     1     -11.276 -19.276  30.881  1.00  0.00     0.039 C 
ENDROOT
BRANCH   2   4
ATOM      4  C   UNL     1     -13.992 -18.359  28.237  1.00  0.00     0.032 C 
BRANCH   4   5
ATOM      5  C   UNL     1     -13.645 -17.330  27.141  1.00  0.00     0.034 C 
BRANCH   5   6
ATOM      6  C   UNL     1     -12.329 -16.614  27.388  1.00  0.00    -0.077 C 
ATOM      7  C   UNL     1     -11.081 -17.219  26.797  1.00  0.00     0.039 C 
ATOM      8  C   UNL     1     -12.193 -15.508  28.160  1.00  0.00    -0.023 CG0
ATOM      9  G   UNL     1     -13.301 -14.723  28.834  1.00  0.00     0.000 G0
ENDBRANCH   5   6
ENDBRANCH   4   5
ENDBRANCH   2   4
BRANCH   1  10
ATOM     10  C   UNL     1     -13.188 -17.523  31.077  1.00  0.00     0.111 C 
BRANCH  10  11
ATOM     11  C   UNL     1     -12.651 -16.133  30.863  1.00  0.00     0.163 C 
ATOM     12  O   UNL     1     -11.466 -15.892  31.223  1.00  0.00    -0.294 OA
BRANCH  11  13
ATOM     13  C   UNL     1     -13.485 -15.028  30.302  1.00  0.00    -0.002 C 
ATOM     14  C   UNL     1     -14.431 -14.407  31.070  1.00  0.00    -0.069 C 
ATOM     15  C   UNL     1     -14.558 -14.702  32.548  1.00  0.00     0.039 C 
ATOM     16  C   UNL     1     -15.396 -13.398  30.488  1.00  0.00     0.039 C 
BRANCH  13  17
ATOM     17  C   UNL     1     -13.302 -14.699  28.829  1.00  0.00     0.066 CG0
ATOM     18  G   UNL     1     -12.191 -15.510  28.192  1.00  0.00     0.000 G0
ENDBRANCH  13  17
ENDBRANCH  11  13
ENDBRANCH  10  11
ENDBRANCH   1  10
TORSDOF 0
ENDMDL
MODEL 2
REMARK VINA RESULT:    -4.145      1.509      3.306
REMARK INTER + INTRA:          -5.010
REMARK INTER:                  -5.922
REMARK INTRA:                   0.912
REMARK UNBOUND:                 0.832
REMARK SMILES CC1=CCC(=C(C)C)C(=O)CC(C)=CCC1
REMARK SMILES IDX 12 1 14 2 13 3 15 4 16 5 2 6 1 7 3 8 11 10 9 11 10 12 5 13
REMARK SMILES IDX 6 14 7 15 8 16 4 17
REMARK H PARENT
REMARK Flexibility Score: 60.00
ROOT
ATOM      1  C   UNL     1     -13.001 -16.652  31.260  1.00  0.00    -0.070 C 
ATOM      2  C   UNL     1     -13.575 -17.860  31.461  1.00  0.00    -0.027 C 
ATOM      3  C   UNL     1     -13.866 -15.426  31.412  1.00  0.00     0.039 C 
ENDROOT
BRANCH   2   4
ATOM      4  C   UNL     1     -12.902 -19.201  31.263  1.00  0.00     0.032 C 
BRANCH   4   5
ATOM      5  C   UNL     1     -12.185 -19.372  29.907  1.00  0.00     0.034 C 
BRANCH   5   6
ATOM      6  C   UNL     1     -13.120 -19.241  28.718  1.00  0.00    -0.077 C 
ATOM      7  C   UNL     1     -14.276 -20.205  28.626  1.00  0.00     0.039 C 
ATOM      8  C   UNL     1     -12.945 -18.362  27.701  1.00  0.00    -0.023 CG0
ATOM      9  G   UNL     1     -11.874 -17.295  27.590  1.00  0.00     0.000 G0
ENDBRANCH   5   6
ENDBRANCH   4   5
ENDBRANCH   2   4
BRANCH   1  10
ATOM     10  C   UNL     1     -11.567 -16.478  30.804  1.00  0.00     0.111 C 
BRANCH  10  11
ATOM     11  C   UNL     1     -11.481 -15.667  29.538  1.00  0.00     0.163 C 
ATOM     12  O   UNL     1     -10.758 -14.634  29.543  1.00  0.00    -0.294 OA
BRANCH  11  13
ATOM     13  C   UNL     1     -12.263 -16.009  28.313  1.00  0.00    -0.002 C 
ATOM     14  C   UNL     1     -13.326 -15.242  27.925  1.00  0.00    -0.069 C 
ATOM     15  C   UNL     1     -13.651 -13.941  28.625  1.00  0.00     0.039 C 
ATOM     16  C   UNL     1     -14.232 -15.649  26.784  1.00  0.00     0.039 C 
BRANCH  13  17
ATOM     17  C   UNL     1     -11.885 -17.288  27.582  1.00  0.00     0.066 CG0
ATOM     18  G   UNL     1     -12.953 -18.356  27.703  1.00  0.00     0.000 G0
ENDBRANCH  13  17
ENDBRANCH  11  13
ENDBRANCH  10  11
ENDBRANCH   1  10
TORSDOF 0
ENDMDL
MODEL 3
REMARK VINA RESULT:    -4.049      2.085      3.765
REMARK INTER + INTRA:          -4.875
REMARK INTER:                  -5.493
REMARK INTRA:                   0.618
REMARK UNBOUND:                 0.832
REMARK SMILES CC1=CCC(=C(C)C)C(=O)CC(C)=CCC1
REMARK SMILES IDX 12 1 14 2 13 3 15 4 16 5 2 6 1 7 3 8 11 10 9 11 10 12 5 13
REMARK SMILES IDX 6 14 7 15 8 16 4 17
REMARK H PARENT
REMARK Flexibility Score: 60.00
ROOT
ATOM      1  C   UNL     1     -10.345 -15.787  29.432  1.00  0.00    -0.070 C 
ATOM      2  C   UNL     1      -9.918 -16.783  30.241  1.00  0.00    -0.027 C 
ATOM      3  C   UNL     1     -10.009 -14.369  29.821  1.00  0.00     0.039 C 
ENDROOT
BRANCH   2   4
ATOM      4  C   UNL     1     -10.235 -18.253  30.074  1.00  0.00     0.032 C 
BRANCH   4   5
ATOM      5  C   UNL     1     -10.965 -18.898  31.271  1.00  0.00     0.034 C 
BRANCH   5   6
ATOM      6  C   UNL     1     -12.440 -19.142  31.009  1.00  0.00    -0.077 C 
ATOM      7  C   UNL     1     -12.885 -20.565  30.781  1.00  0.00     0.039 C 
ATOM      8  C   UNL     1     -13.370 -18.162  30.899  1.00  0.00    -0.023 CG0
ATOM      9  G   UNL     1     -13.158 -16.675  31.105  1.00  0.00     0.000 G0
ENDBRANCH   5   6
ENDBRANCH   4   5
ENDBRANCH   2   4
BRANCH   1  10
ATOM     10  C   UNL     1     -11.215 -16.021  28.214  1.00  0.00     0.111 C 
BRANCH  10  11
ATOM     11  C   UNL     1     -12.618 -16.411  28.600  1.00  0.00     0.163 C 
ATOM     12  O   UNL     1     -13.252 -17.183  27.831  1.00  0.00    -0.294 OA
BRANCH  11  13
ATOM     13  C   UNL     1     -13.294 -15.870  29.816  1.00  0.00    -0.002 C 
ATOM     14  C   UNL     1     -13.942 -14.667  29.780  1.00  0.00    -0.069 C 
ATOM     15  C   UNL     1     -14.133 -13.919  28.480  1.00  0.00     0.039 C 
ATOM     16  C   UNL     1     -14.498 -14.020  31.030  1.00  0.00     0.039 C 
BRANCH  13  17
ATOM     17  C   UNL     1     -13.146 -16.665  31.104  1.00  0.00     0.066 CG0
ATOM     18  G   UNL     1     -13.376 -18.149  30.894  1.00  0.00     0.000 G0
ENDBRANCH  13  17
ENDBRANCH  11  13
ENDBRANCH  10  11
ENDBRANCH   1  10
TORSDOF 0
ENDMDL
MODEL 4
REMARK VINA RESULT:    -4.005      1.504      3.693
REMARK INTER + INTRA:          -4.812
REMARK INTER:                  -5.402
REMARK INTRA:                   0.590
REMARK UNBOUND:                 0.832
REMARK SMILES CC1=CCC(=C(C)C)C(=O)CC(C)=CCC1
REMARK SMILES IDX 12 1 14 2 13 3 15 4 16 5 2 6 1 7 3 8 11 10 9 11 10 12 5 13
REMARK SMILES IDX 6 14 7 15 8 16 4 17
REMARK H PARENT
REMARK Flexibility Score: 60.00
ROOT
ATOM      1  C   UNL     1     -13.289 -15.533  31.120  1.00  0.00    -0.070 C 
ATOM      2  C   UNL     1     -14.100 -14.794  30.332  1.00  0.00    -0.027 C 
ATOM      3  C   UNL     1     -13.889 -16.176  32.346  1.00  0.00     0.039 C 
ENDROOT
BRANCH   2   4
ATOM      4  C   UNL     1     -13.667 -13.996  29.120  1.00  0.00     0.032 C 
BRANCH   4   5
ATOM      5  C   UNL     1     -12.667 -14.718  28.193  1.00  0.00     0.034 C 
BRANCH   5   6
ATOM      6  C   UNL     1     -13.306 -15.823  27.371  1.00  0.00    -0.077 C 
ATOM      7  C   UNL     1     -14.488 -15.459  26.508  1.00  0.00     0.039 C 
ATOM      8  C   UNL     1     -12.928 -17.124  27.413  1.00  0.00    -0.023 CG0
ATOM      9  G   UNL     1     -11.765 -17.713  28.186  1.00  0.00     0.000 G0
ENDBRANCH   5   6
ENDBRANCH   4   5
ENDBRANCH   2   4
BRANCH   1  10
ATOM     10  C   UNL     1     -11.798 -15.669  30.884  1.00  0.00     0.111 C 
BRANCH  10  11
ATOM     11  C   UNL     1     -11.401 -17.103  30.650  1.00  0.00     0.163 C 
ATOM     12  O   UNL     1     -10.423 -17.563  31.300  1.00  0.00    -0.294 OA
BRANCH  11  13
ATOM     13  C   UNL     1     -12.082 -17.969  29.641  1.00  0.00    -0.002 C 
ATOM     14  C   UNL     1     -12.890 -18.999  30.035  1.00  0.00    -0.069 C 
ATOM     15  C   UNL     1     -13.250 -19.201  31.490  1.00  0.00     0.039 C 
ATOM     16  C   UNL     1     -13.465 -19.988  29.045  1.00  0.00     0.039 C 
BRANCH  13  17
ATOM     17  C   UNL     1     -11.759 -17.714  28.178  1.00  0.00     0.066 CG0
ATOM     18  G   UNL     1     -12.940 -17.139  27.420  1.00  0.00     0.000 G0
ENDBRANCH  13  17
ENDBRANCH  11  13
ENDBRANCH  10  11
ENDBRANCH   1  10
TORSDOF 0
ENDMDL
MODEL 5
REMARK VINA RESULT:    -3.730      2.345      4.768
REMARK INTER + INTRA:          -4.425
REMARK INTER:                  -5.793
REMARK INTRA:                   1.368
REMARK UNBOUND:                 0.832
REMARK SMILES CC1=CCC(=C(C)C)C(=O)CC(C)=CCC1
REMARK SMILES IDX 12 1 14 2 13 3 15 4 16 5 2 6 1 7 3 8 11 10 9 11 10 12 5 13
REMARK SMILES IDX 6 14 7 15 8 16 4 17
REMARK H PARENT
REMARK Flexibility Score: 60.00
ROOT
ATOM      1  C   UNL     1     -13.641 -15.615  27.672  1.00  0.00    -0.070 C 
ATOM      2  C   UNL     1     -13.180 -14.683  28.536  1.00  0.00    -0.027 C 
ATOM      3  C   UNL     1     -14.373 -15.137  26.443  1.00  0.00     0.039 C 
ENDROOT
BRANCH   2   4
ATOM      4  C   UNL     1     -12.511 -14.965  29.864  1.00  0.00     0.032 C 
BRANCH   4   5
ATOM      5  C   UNL     1     -10.968 -14.998  29.818  1.00  0.00     0.034 C 
BRANCH   5   6
ATOM      6  C   UNL     1     -10.357 -15.843  30.921  1.00  0.00    -0.077 C 
ATOM      7  C   UNL     1     -10.126 -15.187  32.260  1.00  0.00     0.039 C 
ATOM      8  C   UNL     1      -9.943 -17.124  30.764  1.00  0.00    -0.023 CG0
ATOM      9  G   UNL     1     -10.089 -17.985  29.524  1.00  0.00     0.000 G0
ENDBRANCH   5   6
ENDBRANCH   4   5
ENDBRANCH   2   4
BRANCH   1  10
ATOM     10  C   UNL     1     -13.540 -17.105  27.925  1.00  0.00     0.111 C 
BRANCH  10  11
ATOM     11  C   UNL     1     -12.107 -17.561  27.995  1.00  0.00     0.163 C 
ATOM     12  O   UNL     1     -11.373 -17.371  26.987  1.00  0.00    -0.294 OA
BRANCH  11  13
ATOM     13  C   UNL     1     -11.550 -18.278  29.181  1.00  0.00    -0.002 C 
ATOM     14  C   UNL     1     -12.348 -19.073  29.955  1.00  0.00    -0.069 C 
ATOM     15  C   UNL     1     -13.773 -19.383  29.553  1.00  0.00     0.039 C 
ATOM     16  C   UNL     1     -11.855 -19.683  31.249  1.00  0.00     0.039 C 
BRANCH  13  17
ATOM     17  C   UNL     1     -10.098 -18.006  29.538  1.00  0.00     0.066 CG0
ATOM     18  G   UNL     1      -9.961 -17.144  30.778  1.00  0.00     0.000 G0
ENDBRANCH  13  17
ENDBRANCH  11  13
ENDBRANCH  10  11
ENDBRANCH   1  10
TORSDOF 0
ENDMDL
MODEL 6
REMARK VINA RESULT:    -3.326      1.724      3.732
REMARK INTER + INTRA:          -3.855
REMARK INTER:                  -6.816
REMARK INTRA:                   2.961
REMARK UNBOUND:                 0.832
REMARK SMILES CC1=CCC(=C(C)C)C(=O)CC(C)=CCC1
REMARK SMILES IDX 12 1 14 2 13 3 15 4 16 5 2 6 1 7 3 8 11 10 9 11 10 12 5 13
REMARK SMILES IDX 6 14 7 15 8 16 4 17
REMARK H PARENT
REMARK Flexibility Score: 60.00
ROOT
ATOM      1  C   UNL     1     -14.058 -14.174  28.622  1.00  0.00    -0.070 C 
ATOM      2  C   UNL     1     -14.417 -14.793  27.475  1.00  0.00    -0.027 C 
ATOM      3  C   UNL     1     -14.932 -13.051  29.122  1.00  0.00     0.039 C 
ENDROOT
BRANCH   2   4
ATOM      4  C   UNL     1     -13.623 -15.869  26.765  1.00  0.00     0.032 C 
BRANCH   4   5
ATOM      5  C   UNL     1     -12.928 -16.882  27.699  1.00  0.00     0.034 C 
BRANCH   5   6
ATOM      6  C   UNL     1     -11.445 -17.035  27.414  1.00  0.00    -0.077 C 
ATOM      7  C   UNL     1     -11.033 -17.363  26.000  1.00  0.00     0.039 C 
ATOM      8  C   UNL     1     -10.473 -16.964  28.357  1.00  0.00    -0.023 CG0
ATOM      9  G   UNL     1     -10.648 -16.630  29.825  1.00  0.00     0.000 G0
ENDBRANCH   5   6
ENDBRANCH   4   5
ENDBRANCH   2   4
BRANCH   1  10
ATOM     10  C   UNL     1     -12.780 -14.491  29.372  1.00  0.00     0.111 C 
BRANCH  10  11
ATOM     11  C   UNL     1     -12.966 -15.642  30.325  1.00  0.00     0.163 C 
ATOM     12  O   UNL     1     -13.890 -15.562  31.180  1.00  0.00    -0.294 OA
BRANCH  11  13
ATOM     13  C   UNL     1     -12.065 -16.833  30.329  1.00  0.00    -0.002 C 
ATOM     14  C   UNL     1     -12.490 -18.030  30.834  1.00  0.00    -0.069 C 
ATOM     15  C   UNL     1     -13.927 -18.236  31.258  1.00  0.00     0.039 C 
ATOM     16  C   UNL     1     -11.554 -19.207  30.998  1.00  0.00     0.039 C 
BRANCH  13  17
ATOM     17  C   UNL     1     -10.640 -16.627  29.842  1.00  0.00     0.066 CG0
ATOM     18  G   UNL     1     -10.479 -16.967  28.373  1.00  0.00     0.000 G0
ENDBRANCH  13  17
ENDBRANCH  11  13
ENDBRANCH  10  11
ENDBRANCH   1  10
TORSDOF 0
ENDMDL
MODEL 7
REMARK VINA RESULT:    -3.324      1.640      3.321
REMARK INTER + INTRA:          -3.852
REMARK INTER:                  -5.641
REMARK INTRA:                   1.788
REMARK UNBOUND:                 0.832
REMARK SMILES CC1=CCC(=C(C)C)C(=O)CC(C)=CCC1
REMARK SMILES IDX 12 1 14 2 13 3 15 4 16 5 2 6 1 7 3 8 11 10 9 11 10 12 5 13
REMARK SMILES IDX 6 14 7 15 8 16 4 17
REMARK H PARENT
REMARK Flexibility Score: 60.00
ROOT
ATOM      1  C   UNL     1     -13.294 -15.915  27.680  1.00  0.00    -0.070 C 
ATOM      2  C   UNL     1     -12.572 -17.056  27.601  1.00  0.00    -0.027 C 
ATOM      3  C   UNL     1     -14.448 -15.743  26.725  1.00  0.00     0.039 C 
ENDROOT
BRANCH   2   4
ATOM      4  C   UNL     1     -11.326 -17.370  28.401  1.00  0.00     0.032 C 
BRANCH   4   5
ATOM      5  C   UNL     1     -11.433 -18.618  29.303  1.00  0.00     0.034 C 
BRANCH   5   6
ATOM      6  C   UNL     1     -12.861 -18.951  29.693  1.00  0.00    -0.077 C 
ATOM      7  C   UNL     1     -13.565 -20.037  28.917  1.00  0.00     0.039 C 
ATOM      8  C   UNL     1     -13.568 -18.293  30.645  1.00  0.00    -0.023 CG0
ATOM      9  G   UNL     1     -13.065 -17.191  31.556  1.00  0.00     0.000 G0
ENDBRANCH   5   6
ENDBRANCH   4   5
ENDBRANCH   2   4
BRANCH   1  10
ATOM     10  C   UNL     1     -12.944 -14.773  28.612  1.00  0.00     0.111 C 
BRANCH  10  11
ATOM     11  C   UNL     1     -12.448 -15.273  29.943  1.00  0.00     0.163 C 
ATOM     12  O   UNL     1     -11.204 -15.291  30.145  1.00  0.00    -0.294 OA
BRANCH  11  13
ATOM     13  C   UNL     1     -13.369 -15.800  30.994  1.00  0.00    -0.002 C 
ATOM     14  C   UNL     1     -14.382 -15.026  31.488  1.00  0.00    -0.069 C 
ATOM     15  C   UNL     1     -14.706 -13.678  30.883  1.00  0.00     0.039 C 
ATOM     16  C   UNL     1     -15.229 -15.470  32.660  1.00  0.00     0.039 C 
BRANCH  13  17
ATOM     17  C   UNL     1     -13.069 -17.183  31.550  1.00  0.00     0.066 CG0
ATOM     18  G   UNL     1     -13.565 -18.289  30.640  1.00  0.00     0.000 G0
ENDBRANCH  13  17
ENDBRANCH  11  13
ENDBRANCH  10  11
ENDBRANCH   1  10
TORSDOF 0
ENDMDL
MODEL 8
REMARK VINA RESULT:    -3.312      1.913      4.787
REMARK INTER + INTRA:          -3.835
REMARK INTER:                  -4.135
REMARK INTRA:                   0.300
REMARK UNBOUND:                 0.832
REMARK SMILES CC1=CCC(=C(C)C)C(=O)CC(C)=CCC1
REMARK SMILES IDX 12 1 14 2 13 3 15 4 16 5 2 6 1 7 3 8 11 10 9 11 10 12 5 13
REMARK SMILES IDX 6 14 7 15 8 16 4 17
REMARK H PARENT
REMARK Flexibility Score: 60.00
ROOT
ATOM      1  C   UNL     1     -13.940 -15.728  27.050  1.00  0.00    -0.070 C 
ATOM      2  C   UNL     1     -14.049 -14.476  27.549  1.00  0.00    -0.027 C 
ATOM      3  C   UNL     1     -13.711 -15.880  25.567  1.00  0.00     0.039 C 
ENDROOT
BRANCH   2   4
ATOM      4  C   UNL     1     -14.374 -14.123  28.984  1.00  0.00     0.032 C 
BRANCH   4   5
ATOM      5  C   UNL     1     -13.249 -14.424  29.996  1.00  0.00     0.034 C 
BRANCH   5   6
ATOM      6  C   UNL     1     -13.706 -15.289  31.157  1.00  0.00    -0.077 C 
ATOM      7  C   UNL     1     -14.804 -14.752  32.041  1.00  0.00     0.039 C 
ATOM      8  C   UNL     1     -13.148 -16.478  31.491  1.00  0.00    -0.023 CG0
ATOM      9  G   UNL     1     -12.054 -17.216  30.744  1.00  0.00     0.000 G0
ENDBRANCH   5   6
ENDBRANCH   4   5
ENDBRANCH   2   4
BRANCH   1  10
ATOM     10  C   UNL     1     -14.128 -16.976  27.888  1.00  0.00     0.111 C 
BRANCH  10  11
ATOM     11  C   UNL     1     -12.808 -17.564  28.313  1.00  0.00     0.163 C 
ATOM     12  O   UNL     1     -11.878 -17.612  27.463  1.00  0.00    -0.294 OA
BRANCH  11  13
ATOM     13  C   UNL     1     -12.588 -18.140  29.673  1.00  0.00    -0.002 C 
ATOM     14  C   UNL     1     -12.959 -19.425  29.957  1.00  0.00    -0.069 C 
ATOM     15  C   UNL     1     -13.455 -20.355  28.873  1.00  0.00     0.039 C 
ATOM     16  C   UNL     1     -12.895 -19.984  31.361  1.00  0.00     0.039 C 
BRANCH  13  17
ATOM     17  C   UNL     1     -12.029 -17.211  30.739  1.00  0.00     0.066 CG0
ATOM     18  G   UNL     1     -13.121 -16.480  31.495  1.00  0.00     0.000 G0
ENDBRANCH  13  17
ENDBRANCH  11  13
ENDBRANCH  10  11
ENDBRANCH   1  10
TORSDOF 0
ENDMDL
MODEL 9
REMARK VINA RESULT:    -3.260      1.455      2.073
REMARK INTER + INTRA:          -3.763
REMARK INTER:                  -4.482
REMARK INTRA:                   0.719
REMARK UNBOUND:                 0.832
REMARK SMILES CC1=CCC(=C(C)C)C(=O)CC(C)=CCC1
REMARK SMILES IDX 12 1 14 2 13 3 15 4 16 5 2 6 1 7 3 8 11 10 9 11 10 12 5 13
REMARK SMILES IDX 6 14 7 15 8 16 4 17
REMARK H PARENT
REMARK Flexibility Score: 60.00
ROOT
ATOM      1  C   UNL     1     -12.367 -18.483  30.276  1.00  0.00    -0.070 C 
ATOM      2  C   UNL     1     -12.641 -18.757  28.981  1.00  0.00    -0.027 C 
ATOM      3  C   UNL     1     -11.071 -19.001  30.849  1.00  0.00     0.039 C 
ENDROOT
BRANCH   2   4
ATOM      4  C   UNL     1     -13.924 -18.410  28.257  1.00  0.00     0.032 C 
BRANCH   4   5
ATOM      5  C   UNL     1     -13.754 -17.445  27.065  1.00  0.00     0.034 C 
BRANCH   5   6
ATOM      6  C   UNL     1     -12.354 -16.869  26.958  1.00  0.00    -0.077 C 
ATOM      7  C   UNL     1     -11.432 -17.457  25.919  1.00  0.00     0.039 C 
ATOM      8  C   UNL     1     -11.856 -15.912  27.778  1.00  0.00    -0.023 CG0
ATOM      9  G   UNL     1     -12.598 -15.169  28.872  1.00  0.00     0.000 G0
ENDBRANCH   5   6
ENDBRANCH   4   5
ENDBRANCH   2   4
BRANCH   1  10
ATOM     10  C   UNL     1     -13.334 -17.765  31.197  1.00  0.00     0.111 C 
BRANCH  10  11
ATOM     11  C   UNL     1     -13.143 -16.272  31.147  1.00  0.00     0.163 C 
ATOM     12  O   UNL     1     -13.910 -15.552  31.843  1.00  0.00    -0.294 OA
BRANCH  11  13
ATOM     13  C   UNL     1     -12.129 -15.622  30.265  1.00  0.00    -0.002 C 
ATOM     14  C   UNL     1     -10.871 -15.352  30.726  1.00  0.00    -0.069 C 
ATOM     15  C   UNL     1     -10.412 -15.840  32.082  1.00  0.00     0.039 C 
ATOM     16  C   UNL     1      -9.875 -14.555  29.913  1.00  0.00     0.039 C 
BRANCH  13  17
ATOM     17  C   UNL     1     -12.587 -15.192  28.880  1.00  0.00     0.066 CG0
ATOM     18  G   UNL     1     -11.850 -15.926  27.777  1.00  0.00     0.000 G0
ENDBRANCH  13  17
ENDBRANCH  11  13
ENDBRANCH  10  11
ENDBRANCH   1  10
TORSDOF 0
ENDMDL
