MODEL 1
REMARK VINA RESULT:    -8.984      0.000      0.000
REMARK INTER + INTRA:         -10.056
REMARK INTER:                 -10.560
REMARK INTRA:                   0.504
REMARK UNBOUND:                 0.504
REMARK SMILES O=c1c(O)c(-c2ccc(O)cc2)oc2cc(O)cc(O)c12
REMARK SMILES IDX 5 1 3 2 2 3 1 4 21 5 19 6 18 7 16 8 15 9 14 10 13 11 6 12
REMARK SMILES IDX 7 13 8 14 9 15 12 16 11 17 10 18 4 20 20 22 17 24
REMARK H PARENT 10 19 4 21 20 23 17 25
REMARK Flexibility Score: inf
ROOT
ATOM      1  C   UNL     1     -12.880 -30.579 -10.896  1.00  0.00     0.180 A 
ATOM      2  C   UNL     1     -14.037 -31.295 -11.249  1.00  0.00     0.208 A 
ATOM      3  C   UNL     1     -14.995 -30.681 -12.070  1.00  0.00     0.238 A 
ATOM      4  O   UNL     1     -16.002 -31.346 -12.427  1.00  0.00    -0.285 OA
ATOM      5  C   UNL     1     -14.793 -29.352 -12.515  1.00  0.00     0.111 A 
ATOM      6  C   UNL     1     -15.717 -28.617 -13.317  1.00  0.00     0.134 A 
ATOM      7  C   UNL     1     -15.355 -27.356 -13.807  1.00  0.00     0.093 A 
ATOM      8  C   UNL     1     -14.129 -26.777 -13.470  1.00  0.00     0.123 A 
ATOM      9  C   UNL     1     -13.245 -27.461 -12.638  1.00  0.00     0.094 A 
ATOM     10  C   UNL     1     -13.563 -28.736 -12.163  1.00  0.00     0.146 A 
ATOM     11  O   UNL     1     -12.689 -29.359 -11.383  1.00  0.00    -0.452 OA
ENDROOT
BRANCH   1  12
ATOM     12  C   UNL     1     -11.837 -31.151 -10.014  1.00  0.00     0.021 A 
ATOM     13  C   UNL     1     -10.762 -30.345  -9.600  1.00  0.00     0.016 A 
ATOM     14  C   UNL     1      -9.779 -30.858  -8.750  1.00  0.00     0.047 A 
ATOM     15  C   UNL     1      -9.863 -32.175  -8.290  1.00  0.00     0.115 A 
ATOM     16  C   UNL     1     -11.926 -32.470  -9.531  1.00  0.00     0.016 A 
ATOM     17  C   UNL     1     -10.942 -32.979  -8.680  1.00  0.00     0.047 A 
BRANCH  15  18
ATOM     18  O   UNL     1      -8.875 -32.673  -7.443  1.00  0.00    -0.508 OA
ATOM     19  H   UNL     1      -7.912 -32.762  -7.747  1.00  0.00     0.293 HD
ENDBRANCH  15  18
ENDBRANCH   1  12
BRANCH   2  20
ATOM     20  O   UNL     1     -14.206 -32.614 -10.817  1.00  0.00    -0.502 OA
ATOM     21  H   UNL     1     -14.857 -32.868 -10.085  1.00  0.00     0.293 HD
ENDBRANCH   2  20
BRANCH   6  22
ATOM     22  O   UNL     1     -17.002 -29.064 -13.635  1.00  0.00    -0.507 OA
ATOM     23  H   UNL     1     -17.233 -29.619 -14.445  1.00  0.00     0.293 HD
ENDBRANCH   6  22
BRANCH   8  24
ATOM     24  O   UNL     1     -13.783 -25.515 -13.948  1.00  0.00    -0.508 OA
ATOM     25  H   UNL     1     -14.139 -24.669 -13.517  1.00  0.00     0.293 HD
ENDBRANCH   8  24
TORSDOF 5
ENDMDL
MODEL 2
REMARK VINA RESULT:    -8.979      3.725      6.883
REMARK INTER + INTRA:         -10.050
REMARK INTER:                  -9.964
REMARK INTRA:                  -0.086
REMARK UNBOUND:                 0.504
REMARK SMILES O=c1c(O)c(-c2ccc(O)cc2)oc2cc(O)cc(O)c12
REMARK SMILES IDX 5 1 3 2 2 3 1 4 21 5 19 6 18 7 16 8 15 9 14 10 13 11 6 12
REMARK SMILES IDX 7 13 8 14 9 15 12 16 11 17 10 18 4 20 20 22 17 24
REMARK H PARENT 10 19 4 21 20 23 17 25
REMARK Flexibility Score: inf
ROOT
ATOM      1  C   UNL     1     -15.087 -30.972 -13.575  1.00  0.00     0.180 A 
ATOM      2  C   UNL     1     -15.203 -31.620 -12.333  1.00  0.00     0.208 A 
ATOM      3  C   UNL     1     -15.177 -33.023 -12.292  1.00  0.00     0.238 A 
ATOM      4  O   UNL     1     -15.226 -33.596 -11.173  1.00  0.00    -0.285 OA
ATOM      5  C   UNL     1     -15.052 -33.760 -13.495  1.00  0.00     0.111 A 
ATOM      6  C   UNL     1     -15.056 -35.185 -13.574  1.00  0.00     0.134 A 
ATOM      7  C   UNL     1     -14.795 -35.809 -14.802  1.00  0.00     0.093 A 
ATOM      8  C   UNL     1     -14.595 -35.058 -15.963  1.00  0.00     0.123 A 
ATOM      9  C   UNL     1     -14.649 -33.667 -15.905  1.00  0.00     0.094 A 
ATOM     10  C   UNL     1     -14.872 -33.016 -14.690  1.00  0.00     0.146 A 
ATOM     11  O   UNL     1     -14.905 -31.689 -14.677  1.00  0.00    -0.452 OA
ENDROOT
BRANCH   1  12
ATOM     12  C   UNL     1     -15.130 -29.497 -13.701  1.00  0.00     0.021 A 
ATOM     13  C   UNL     1     -14.075 -28.825 -14.342  1.00  0.00     0.016 A 
ATOM     14  C   UNL     1     -14.107 -27.436 -14.492  1.00  0.00     0.047 A 
ATOM     15  C   UNL     1     -15.198 -26.702 -14.018  1.00  0.00     0.115 A 
ATOM     16  C   UNL     1     -16.234 -28.754 -13.244  1.00  0.00     0.016 A 
ATOM     17  C   UNL     1     -16.264 -27.365 -13.396  1.00  0.00     0.047 A 
BRANCH  15  18
ATOM     18  O   UNL     1     -15.216 -25.317 -14.173  1.00  0.00    -0.508 OA
ATOM     19  H   UNL     1     -15.149 -24.694 -13.377  1.00  0.00     0.293 HD
ENDBRANCH  15  18
ENDBRANCH   1  12
BRANCH   2  20
ATOM     20  O   UNL     1     -15.302 -30.872 -11.157  1.00  0.00    -0.502 OA
ATOM     21  H   UNL     1     -15.198 -29.865 -11.141  1.00  0.00     0.293 HD
ENDBRANCH   2  20
BRANCH   6  22
ATOM     22  O   UNL     1     -15.335 -36.027 -12.494  1.00  0.00    -0.507 OA
ATOM     23  H   UNL     1     -16.012 -36.776 -12.509  1.00  0.00     0.293 HD
ENDBRANCH   6  22
BRANCH   8  24
ATOM     24  O   UNL     1     -14.352 -35.686 -17.183  1.00  0.00    -0.508 OA
ATOM     25  H   UNL     1     -13.777 -36.519 -17.244  1.00  0.00     0.293 HD
ENDBRANCH   8  24
TORSDOF 5
ENDMDL
MODEL 3
REMARK VINA RESULT:    -7.569      3.697      4.805
REMARK INTER + INTRA:          -8.393
REMARK INTER:                  -8.747
REMARK INTRA:                   0.355
REMARK UNBOUND:                 0.504
REMARK SMILES O=c1c(O)c(-c2ccc(O)cc2)oc2cc(O)cc(O)c12
REMARK SMILES IDX 5 1 3 2 2 3 1 4 21 5 19 6 18 7 16 8 15 9 14 10 13 11 6 12
REMARK SMILES IDX 7 13 8 14 9 15 12 16 11 17 10 18 4 20 20 22 17 24
REMARK H PARENT 10 19 4 21 20 23 17 25
REMARK Flexibility Score: inf
ROOT
ATOM      1  C   UNL     1     -15.032 -30.812 -13.206  1.00  0.00     0.180 A 
ATOM      2  C   UNL     1     -15.311 -30.341 -11.912  1.00  0.00     0.208 A 
ATOM      3  C   UNL     1     -15.211 -28.965 -11.651  1.00  0.00     0.238 A 
ATOM      4  O   UNL     1     -15.514 -28.543 -10.505  1.00  0.00    -0.285 OA
ATOM      5  C   UNL     1     -14.817 -28.079 -12.684  1.00  0.00     0.111 A 
ATOM      6  C   UNL     1     -14.644 -26.672 -12.521  1.00  0.00     0.134 A 
ATOM      7  C   UNL     1     -14.379 -25.875 -13.642  1.00  0.00     0.093 A 
ATOM      8  C   UNL     1     -14.217 -26.444 -14.908  1.00  0.00     0.123 A 
ATOM      9  C   UNL     1     -14.325 -27.824 -15.066  1.00  0.00     0.094 A 
ATOM     10  C   UNL     1     -14.625 -28.640 -13.973  1.00  0.00     0.146 A 
ATOM     11  O   UNL     1     -14.730 -29.949 -14.169  1.00  0.00    -0.452 OA
ENDROOT
BRANCH   1  12
ATOM     12  C   UNL     1     -15.092 -32.251 -13.551  1.00  0.00     0.021 A 
ATOM     13  C   UNL     1     -15.222 -32.635 -14.897  1.00  0.00     0.016 A 
ATOM     14  C   UNL     1     -15.258 -33.988 -15.247  1.00  0.00     0.047 A 
ATOM     15  C   UNL     1     -15.149 -34.973 -14.261  1.00  0.00     0.115 A 
ATOM     16  C   UNL     1     -14.964 -33.247 -12.566  1.00  0.00     0.016 A 
ATOM     17  C   UNL     1     -14.999 -34.599 -12.919  1.00  0.00     0.047 A 
BRANCH  15  18
ATOM     18  O   UNL     1     -15.187 -36.317 -14.624  1.00  0.00    -0.508 OA
ATOM     19  H   UNL     1     -14.669 -36.666 -15.422  1.00  0.00     0.293 HD
ENDBRANCH  15  18
ENDBRANCH   1  12
BRANCH   2  20
ATOM     20  O   UNL     1     -15.719 -31.229 -10.913  1.00  0.00    -0.502 OA
ATOM     21  H   UNL     1     -16.695 -31.412 -10.714  1.00  0.00     0.293 HD
ENDBRANCH   2  20
BRANCH   6  22
ATOM     22  O   UNL     1     -14.693 -26.017 -11.288  1.00  0.00    -0.507 OA
ATOM     23  H   UNL     1     -14.583 -25.021 -11.161  1.00  0.00     0.293 HD
ENDBRANCH   6  22
BRANCH   8  24
ATOM     24  O   UNL     1     -13.938 -25.646 -16.016  1.00  0.00    -0.508 OA
ATOM     25  H   UNL     1     -14.368 -24.735 -16.134  1.00  0.00     0.293 HD
ENDBRANCH   8  24
TORSDOF 5
ENDMDL
MODEL 4
REMARK VINA RESULT:    -7.531      1.228      6.407
REMARK INTER + INTRA:          -8.348
REMARK INTER:                  -8.050
REMARK INTRA:                  -0.299
REMARK UNBOUND:                 0.504
REMARK SMILES O=c1c(O)c(-c2ccc(O)cc2)oc2cc(O)cc(O)c12
REMARK SMILES IDX 5 1 3 2 2 3 1 4 21 5 19 6 18 7 16 8 15 9 14 10 13 11 6 12
REMARK SMILES IDX 7 13 8 14 9 15 12 16 11 17 10 18 4 20 20 22 17 24
REMARK H PARENT 10 19 4 21 20 23 17 25
REMARK Flexibility Score: inf
ROOT
ATOM      1  C   UNL     1     -13.815 -29.326 -12.174  1.00  0.00     0.180 A 
ATOM      2  C   UNL     1     -14.843 -30.257 -11.952  1.00  0.00     0.208 A 
ATOM      3  C   UNL     1     -14.598 -31.355 -11.111  1.00  0.00     0.238 A 
ATOM      4  O   UNL     1     -15.539 -32.156 -10.873  1.00  0.00    -0.285 OA
ATOM      5  C   UNL     1     -13.323 -31.516 -10.516  1.00  0.00     0.111 A 
ATOM      6  C   UNL     1     -12.953 -32.611  -9.681  1.00  0.00     0.134 A 
ATOM      7  C   UNL     1     -11.706 -32.601  -9.041  1.00  0.00     0.093 A 
ATOM      8  C   UNL     1     -10.793 -31.566  -9.260  1.00  0.00     0.123 A 
ATOM      9  C   UNL     1     -11.123 -30.523 -10.121  1.00  0.00     0.094 A 
ATOM     10  C   UNL     1     -12.373 -30.487 -10.745  1.00  0.00     0.146 A 
ATOM     11  O   UNL     1     -12.652 -29.469 -11.550  1.00  0.00    -0.452 OA
ENDROOT
BRANCH   1  12
ATOM     12  C   UNL     1     -13.989 -28.157 -13.067  1.00  0.00     0.021 A 
ATOM     13  C   UNL     1     -14.351 -26.914 -12.519  1.00  0.00     0.016 A 
ATOM     14  C   UNL     1     -14.499 -25.794 -13.341  1.00  0.00     0.047 A 
ATOM     15  C   UNL     1     -14.272 -25.895 -14.716  1.00  0.00     0.115 A 
ATOM     16  C   UNL     1     -13.743 -28.248 -14.450  1.00  0.00     0.016 A 
ATOM     17  C   UNL     1     -13.891 -27.125 -15.269  1.00  0.00     0.047 A 
BRANCH  15  18
ATOM     18  O   UNL     1     -14.424 -24.770 -15.524  1.00  0.00    -0.508 OA
ATOM     19  H   UNL     1     -15.337 -24.369 -15.707  1.00  0.00     0.293 HD
ENDBRANCH  15  18
ENDBRANCH   1  12
BRANCH   2  20
ATOM     20  O   UNL     1     -16.101 -30.067 -12.531  1.00  0.00    -0.502 OA
ATOM     21  H   UNL     1     -16.228 -29.571 -13.404  1.00  0.00     0.293 HD
ENDBRANCH   2  20
BRANCH   6  22
ATOM     22  O   UNL     1     -13.753 -33.738  -9.469  1.00  0.00    -0.507 OA
ATOM     23  H   UNL     1     -13.955 -34.137  -8.564  1.00  0.00     0.293 HD
ENDBRANCH   6  22
BRANCH   8  24
ATOM     24  O   UNL     1      -9.549 -31.571  -8.632  1.00  0.00    -0.508 OA
ATOM     25  H   UNL     1      -8.740 -31.131  -9.057  1.00  0.00     0.293 HD
ENDBRANCH   8  24
TORSDOF 5
ENDMDL
MODEL 5
REMARK VINA RESULT:    -7.124      3.891      5.780
REMARK INTER + INTRA:          -7.870
REMARK INTER:                  -7.716
REMARK INTRA:                  -0.154
REMARK UNBOUND:                 0.504
REMARK SMILES O=c1c(O)c(-c2ccc(O)cc2)oc2cc(O)cc(O)c12
REMARK SMILES IDX 5 1 3 2 2 3 1 4 21 5 19 6 18 7 16 8 15 9 14 10 13 11 6 12
REMARK SMILES IDX 7 13 8 14 9 15 12 16 11 17 10 18 4 20 20 22 17 24
REMARK H PARENT 10 19 4 21 20 23 17 25
REMARK Flexibility Score: inf
ROOT
ATOM      1  C   UNL     1     -15.012 -33.113 -13.491  1.00  0.00     0.180 A 
ATOM      2  C   UNL     1     -15.159 -33.439 -12.132  1.00  0.00     0.208 A 
ATOM      3  C   UNL     1     -15.268 -32.404 -11.190  1.00  0.00     0.238 A 
ATOM      4  O   UNL     1     -15.454 -32.701  -9.982  1.00  0.00    -0.285 OA
ATOM      5  C   UNL     1     -15.211 -31.055 -11.618  1.00  0.00     0.111 A 
ATOM      6  C   UNL     1     -15.269 -29.926 -10.746  1.00  0.00     0.134 A 
ATOM      7  C   UNL     1     -15.335 -28.637 -11.290  1.00  0.00     0.093 A 
ATOM      8  C   UNL     1     -15.279 -28.434 -12.671  1.00  0.00     0.123 A 
ATOM      9  C   UNL     1     -15.162 -29.527 -13.527  1.00  0.00     0.094 A 
ATOM     10  C   UNL     1     -15.130 -30.826 -13.016  1.00  0.00     0.146 A 
ATOM     11  O   UNL     1     -15.028 -31.840 -13.867  1.00  0.00    -0.452 OA
ENDROOT
BRANCH   1  12
ATOM     12  C   UNL     1     -14.867 -34.150 -14.539  1.00  0.00     0.021 A 
ATOM     13  C   UNL     1     -13.631 -34.307 -15.191  1.00  0.00     0.016 A 
ATOM     14  C   UNL     1     -13.467 -35.293 -16.167  1.00  0.00     0.047 A 
ATOM     15  C   UNL     1     -14.526 -36.144 -16.495  1.00  0.00     0.115 A 
ATOM     16  C   UNL     1     -15.924 -35.022 -14.860  1.00  0.00     0.016 A 
ATOM     17  C   UNL     1     -15.755 -36.007 -15.836  1.00  0.00     0.047 A 
BRANCH  15  18
ATOM     18  O   UNL     1     -14.348 -37.121 -17.471  1.00  0.00    -0.508 OA
ATOM     19  H   UNL     1     -14.652 -36.977 -18.427  1.00  0.00     0.293 HD
ENDBRANCH  15  18
ENDBRANCH   1  12
BRANCH   2  20
ATOM     20  O   UNL     1     -15.236 -34.777 -11.734  1.00  0.00    -0.502 OA
ATOM     21  H   UNL     1     -15.154 -35.063 -10.766  1.00  0.00     0.293 HD
ENDBRANCH   2  20
BRANCH   6  22
ATOM     22  O   UNL     1     -15.236 -30.014  -9.352  1.00  0.00    -0.507 OA
ATOM     23  H   UNL     1     -14.564 -30.552  -8.825  1.00  0.00     0.293 HD
ENDBRANCH   6  22
BRANCH   8  24
ATOM     24  O   UNL     1     -15.330 -27.147 -13.204  1.00  0.00    -0.508 OA
ATOM     25  H   UNL     1     -15.670 -26.362 -12.660  1.00  0.00     0.293 HD
ENDBRANCH   8  24
TORSDOF 5
ENDMDL
MODEL 6
REMARK VINA RESULT:    -6.296      3.920      6.782
REMARK INTER + INTRA:          -6.896
REMARK INTER:                  -6.634
REMARK INTRA:                  -0.262
REMARK UNBOUND:                 0.504
REMARK SMILES O=c1c(O)c(-c2ccc(O)cc2)oc2cc(O)cc(O)c12
REMARK SMILES IDX 5 1 3 2 2 3 1 4 21 5 19 6 18 7 16 8 15 9 14 10 13 11 6 12
REMARK SMILES IDX 7 13 8 14 9 15 12 16 11 17 10 18 4 20 20 22 17 24
REMARK H PARENT 10 19 4 21 20 23 17 25
REMARK Flexibility Score: inf
ROOT
ATOM      1  C   UNL     1     -14.763 -30.677 -14.088  1.00  0.00     0.180 A 
ATOM      2  C   UNL     1     -14.472 -30.798 -15.457  1.00  0.00     0.208 A 
ATOM      3  C   UNL     1     -14.395 -32.078 -16.028  1.00  0.00     0.238 A 
ATOM      4  O   UNL     1     -14.188 -32.178 -17.265  1.00  0.00    -0.285 OA
ATOM      5  C   UNL     1     -14.593 -33.223 -15.218  1.00  0.00     0.111 A 
ATOM      6  C   UNL     1     -14.497 -34.569 -15.681  1.00  0.00     0.134 A 
ATOM      7  C   UNL     1     -14.841 -35.621 -14.823  1.00  0.00     0.093 A 
ATOM      8  C   UNL     1     -15.214 -35.378 -13.499  1.00  0.00     0.123 A 
ATOM      9  C   UNL     1     -15.252 -34.070 -13.020  1.00  0.00     0.094 A 
ATOM     10  C   UNL     1     -14.950 -32.998 -13.863  1.00  0.00     0.146 A 
ATOM     11  O   UNL     1     -15.009 -31.767 -13.370  1.00  0.00    -0.452 OA
ENDROOT
BRANCH   1  12
ATOM     12  C   UNL     1     -14.837 -29.363 -13.410  1.00  0.00     0.021 A 
ATOM     13  C   UNL     1     -13.716 -28.878 -12.714  1.00  0.00     0.016 A 
ATOM     14  C   UNL     1     -13.757 -27.631 -12.086  1.00  0.00     0.047 A 
ATOM     15  C   UNL     1     -14.910 -26.844 -12.157  1.00  0.00     0.115 A 
ATOM     16  C   UNL     1     -15.988 -28.558 -13.494  1.00  0.00     0.016 A 
ATOM     17  C   UNL     1     -16.026 -27.311 -12.865  1.00  0.00     0.047 A 
BRANCH  15  18
ATOM     18  O   UNL     1     -14.938 -25.603 -11.525  1.00  0.00    -0.508 OA
ATOM     19  H   UNL     1     -14.184 -25.300 -10.919  1.00  0.00     0.293 HD
ENDBRANCH  15  18
ENDBRANCH   1  12
BRANCH   2  20
ATOM     20  O   UNL     1     -14.303 -29.655 -16.243  1.00  0.00    -0.502 OA
ATOM     21  H   UNL     1     -14.841 -29.487 -17.084  1.00  0.00     0.293 HD
ENDBRANCH   2  20
BRANCH   6  22
ATOM     22  O   UNL     1     -14.047 -34.926 -16.956  1.00  0.00    -0.507 OA
ATOM     23  H   UNL     1     -14.262 -34.423 -17.803  1.00  0.00     0.293 HD
ENDBRANCH   6  22
BRANCH   8  24
ATOM     24  O   UNL     1     -15.539 -36.431 -12.646  1.00  0.00    -0.508 OA
ATOM     25  H   UNL     1     -16.504 -36.686 -12.464  1.00  0.00     0.293 HD
ENDBRANCH   8  24
TORSDOF 5
ENDMDL
