MODEL 1
REMARK VINA RESULT:    -6.302      0.000      0.000
REMARK INTER + INTRA:          -8.882
REMARK INTER:                  -8.513
REMARK INTRA:                  -0.369
REMARK UNBOUND:                -0.369
REMARK SMILES O=c1c(-c2ccc(O)cc2)coc2c([C@@H]3O[C@H](CO)[C@@H](O)[C@@H](O)[C@H]3O)c(O)ccc12
REMARK SMILES IDX 3 1 11 2 12 3 13 4 30 5 2 6 1 7 29 8 28 9 26 10 14 11 4 12
REMARK SMILES IDX 5 13 6 14 7 15 10 16 9 17 8 18 15 20 24 21 16 22 22 23 17 24
REMARK SMILES IDX 20 25 25 26 23 28 18 30 19 31 21 33 27 35
REMARK H PARENT 8 19 25 27 23 29 19 32 21 34 27 36
REMARK Flexibility Score: inf
ROOT
ATOM      1  C   UNL     1      -8.231  83.148  -7.606  1.00  0.00     0.065 A 
ATOM      2  C   UNL     1      -9.280  83.185  -8.533  1.00  0.00     0.208 A 
ATOM      3  O   UNL     1     -10.391  82.488  -8.330  1.00  0.00    -0.463 OA
ATOM      4  C   UNL     1     -10.595  81.731  -7.253  1.00  0.00     0.147 A 
ATOM      5  C   UNL     1      -9.595  81.659  -6.256  1.00  0.00     0.066 A 
ATOM      6  C   UNL     1      -8.397  82.372  -6.446  1.00  0.00     0.200 A 
ATOM      7  O   UNL     1      -7.478  82.321  -5.580  1.00  0.00    -0.288 OA
ATOM      8  C   UNL     1      -9.806  80.868  -5.120  1.00  0.00     0.020 A 
ATOM      9  C   UNL     1     -10.986  80.147  -4.981  1.00  0.00     0.047 A 
ATOM     10  C   UNL     1     -11.981  80.185  -5.963  1.00  0.00     0.125 A 
ATOM     11  C   UNL     1     -11.804  80.997  -7.124  1.00  0.00     0.069 A 
ENDROOT
BRANCH   1  12
ATOM     12  C   UNL     1      -6.973  83.885  -7.884  1.00  0.00    -0.011 A 
ATOM     13  C   UNL     1      -5.950  83.289  -8.644  1.00  0.00     0.013 A 
ATOM     14  C   UNL     1      -4.754  83.975  -8.879  1.00  0.00     0.047 A 
ATOM     15  C   UNL     1      -4.559  85.261  -8.353  1.00  0.00     0.115 A 
ATOM     16  C   UNL     1      -6.769  85.174  -7.356  1.00  0.00     0.013 A 
ATOM     17  C   UNL     1      -5.571  85.858  -7.592  1.00  0.00     0.047 A 
BRANCH  15  18
ATOM     18  O   UNL     1      -3.365  85.946  -8.577  1.00  0.00    -0.508 OA
ATOM     19  H   UNL     1      -2.509  85.442  -8.759  1.00  0.00     0.293 HD
ENDBRANCH  15  18
ENDBRANCH   1  12
BRANCH  11  20
ATOM     20  C   UNL     1     -12.785  81.021  -8.301  1.00  0.00     0.188 C 
ATOM     21  C   UNL     1     -13.818  82.180  -8.112  1.00  0.00     0.179 C 
ATOM     22  O   UNL     1     -12.087  81.044  -9.539  1.00  0.00    -0.362 OA
ATOM     23  C   UNL     1     -13.437  83.381  -8.998  1.00  0.00     0.177 C 
ATOM     24  C   UNL     1     -12.920  81.455 -10.609  1.00  0.00     0.176 C 
ATOM     25  C   UNL     1     -13.251  82.968 -10.484  1.00  0.00     0.177 C 
BRANCH  21  26
ATOM     26  O   UNL     1     -15.103  81.717  -8.462  1.00  0.00    -0.387 OA
ATOM     27  H   UNL     1     -15.254  80.860  -7.983  1.00  0.00     0.211 HD
ENDBRANCH  21  26
BRANCH  23  28
ATOM     28  O   UNL     1     -14.338  84.452  -8.842  1.00  0.00    -0.387 OA
ATOM     29  H   UNL     1     -15.052  84.177  -8.208  1.00  0.00     0.211 HD
ENDBRANCH  23  28
BRANCH  24  30
ATOM     30  C   UNL     1     -12.212  81.163 -11.939  1.00  0.00     0.191 C 
BRANCH  30  31
ATOM     31  O   UNL     1     -10.828  81.042 -11.744  1.00  0.00    -0.394 OA
ATOM     32  H   UNL     1     -10.638  81.348 -10.822  1.00  0.00     0.210 HD
ENDBRANCH  30  31
ENDBRANCH  24  30
BRANCH  25  33
ATOM     33  O   UNL     1     -14.417  83.236 -11.227  1.00  0.00    -0.388 OA
ATOM     34  H   UNL     1     -15.130  82.628 -10.900  1.00  0.00     0.211 HD
ENDBRANCH  25  33
ENDBRANCH  11  20
BRANCH  10  35
ATOM     35  O   UNL     1     -13.110  79.394  -5.719  1.00  0.00    -0.507 OA
ATOM     36  H   UNL     1     -13.291  78.484  -6.106  1.00  0.00     0.293 HD
ENDBRANCH  10  35
TORSDOF 9
ENDMDL
MODEL 2
REMARK VINA RESULT:    -6.152      5.463      9.338
REMARK INTER + INTRA:          -8.679
REMARK INTER:                  -8.416
REMARK INTRA:                  -0.263
REMARK UNBOUND:                -0.369
REMARK SMILES O=c1c(-c2ccc(O)cc2)coc2c([C@@H]3O[C@H](CO)[C@@H](O)[C@@H](O)[C@H]3O)c(O)ccc12
REMARK SMILES IDX 3 1 11 2 12 3 13 4 30 5 2 6 1 7 29 8 28 9 26 10 14 11 4 12
REMARK SMILES IDX 5 13 6 14 7 15 10 16 9 17 8 18 15 20 24 21 16 22 22 23 17 24
REMARK SMILES IDX 20 25 25 26 23 28 18 30 19 31 21 33 27 35
REMARK H PARENT 8 19 25 27 23 29 19 32 21 34 27 36
REMARK Flexibility Score: inf
ROOT
ATOM      1  C   UNL     1     -15.885  88.752 -10.739  1.00  0.00     0.065 A 
ATOM      2  C   UNL     1     -16.005  87.482 -10.160  1.00  0.00     0.208 A 
ATOM      3  O   UNL     1     -14.928  86.799  -9.792  1.00  0.00    -0.463 OA
ATOM      4  C   UNL     1     -13.685  87.261  -9.929  1.00  0.00     0.147 A 
ATOM      5  C   UNL     1     -13.478  88.545 -10.481  1.00  0.00     0.066 A 
ATOM      6  C   UNL     1     -14.597  89.291 -10.898  1.00  0.00     0.200 A 
ATOM      7  O   UNL     1     -14.448  90.438 -11.406  1.00  0.00    -0.288 OA
ATOM      8  C   UNL     1     -12.175  89.036 -10.623  1.00  0.00     0.020 A 
ATOM      9  C   UNL     1     -11.090  88.259 -10.235  1.00  0.00     0.047 A 
ATOM     10  C   UNL     1     -11.267  86.977  -9.706  1.00  0.00     0.125 A 
ATOM     11  C   UNL     1     -12.585  86.455  -9.531  1.00  0.00     0.069 A 
ENDROOT
BRANCH   1  12
ATOM     12  C   UNL     1     -17.099  89.471 -11.201  1.00  0.00    -0.011 A 
ATOM     13  C   UNL     1     -18.095  89.851 -10.283  1.00  0.00     0.013 A 
ATOM     14  C   UNL     1     -19.252  90.502 -10.726  1.00  0.00     0.047 A 
ATOM     15  C   UNL     1     -19.433  90.776 -12.090  1.00  0.00     0.115 A 
ATOM     16  C   UNL     1     -17.288  89.747 -12.568  1.00  0.00     0.013 A 
ATOM     17  C   UNL     1     -18.446  90.397 -13.008  1.00  0.00     0.047 A 
BRANCH  15  18
ATOM     18  O   UNL     1     -20.587  91.417 -12.537  1.00  0.00    -0.508 OA
ATOM     19  H   UNL     1     -21.369  90.884 -12.891  1.00  0.00     0.293 HD
ENDBRANCH  15  18
ENDBRANCH   1  12
BRANCH  11  20
ATOM     20  C   UNL     1     -12.877  85.026  -9.061  1.00  0.00     0.188 C 
ATOM     21  C   UNL     1     -14.029  84.407  -9.917  1.00  0.00     0.179 C 
ATOM     22  O   UNL     1     -11.683  84.254  -9.025  1.00  0.00    -0.362 OA
ATOM     23  C   UNL     1     -13.449  83.453 -10.978  1.00  0.00     0.177 C 
ATOM     24  C   UNL     1     -11.954  82.863  -8.982  1.00  0.00     0.176 C 
ATOM     25  C   UNL     1     -12.519  82.381 -10.346  1.00  0.00     0.177 C 
BRANCH  21  26
ATOM     26  O   UNL     1     -14.909  83.702  -9.070  1.00  0.00    -0.387 OA
ATOM     27  H   UNL     1     -14.976  84.209  -8.219  1.00  0.00     0.211 HD
ENDBRANCH  21  26
BRANCH  23  28
ATOM     28  O   UNL     1     -14.460  82.887 -11.781  1.00  0.00    -0.387 OA
ATOM     29  H   UNL     1     -15.326  82.961 -11.300  1.00  0.00     0.211 HD
ENDBRANCH  23  28
BRANCH  24  30
ATOM     30  C   UNL     1     -10.662  82.110  -8.633  1.00  0.00     0.191 C 
BRANCH  30  31
ATOM     31  O   UNL     1     -10.219  81.358  -9.731  1.00  0.00    -0.394 OA
ATOM     32  H   UNL     1     -10.086  81.992 -10.480  1.00  0.00     0.210 HD
ENDBRANCH  30  31
ENDBRANCH  24  30
BRANCH  25  33
ATOM     33  O   UNL     1     -13.214  81.173 -10.143  1.00  0.00    -0.388 OA
ATOM     34  H   UNL     1     -12.545  80.473  -9.928  1.00  0.00     0.211 HD
ENDBRANCH  25  33
ENDBRANCH  11  20
BRANCH  10  35
ATOM     35  O   UNL     1     -10.096  86.284  -9.380  1.00  0.00    -0.507 OA
ATOM     36  H   UNL     1      -9.379  86.597  -8.748  1.00  0.00     0.293 HD
ENDBRANCH  10  35
TORSDOF 9
ENDMDL
MODEL 3
REMARK VINA RESULT:    -6.012      5.222      9.098
REMARK INTER + INTRA:          -8.490
REMARK INTER:                  -7.757
REMARK INTRA:                  -0.733
REMARK UNBOUND:                -0.369
REMARK SMILES O=c1c(-c2ccc(O)cc2)coc2c([C@@H]3O[C@H](CO)[C@@H](O)[C@@H](O)[C@H]3O)c(O)ccc12
REMARK SMILES IDX 3 1 11 2 12 3 13 4 30 5 2 6 1 7 29 8 28 9 26 10 14 11 4 12
REMARK SMILES IDX 5 13 6 14 7 15 10 16 9 17 8 18 15 20 24 21 16 22 22 23 17 24
REMARK SMILES IDX 20 25 25 26 23 28 18 30 19 31 21 33 27 35
REMARK H PARENT 8 19 25 27 23 29 19 32 21 34 27 36
REMARK Flexibility Score: inf
ROOT
ATOM      1  C   UNL     1      -4.929  91.111  -9.496  1.00  0.00     0.065 A 
ATOM      2  C   UNL     1      -5.474  90.074 -10.264  1.00  0.00     0.208 A 
ATOM      3  O   UNL     1      -5.654  88.865  -9.745  1.00  0.00    -0.463 OA
ATOM      4  C   UNL     1      -5.353  88.558  -8.484  1.00  0.00     0.147 A 
ATOM      5  C   UNL     1      -4.823  89.554  -7.633  1.00  0.00     0.066 A 
ATOM      6  C   UNL     1      -4.603  90.843  -8.155  1.00  0.00     0.200 A 
ATOM      7  O   UNL     1      -4.120  91.754  -7.426  1.00  0.00    -0.288 OA
ATOM      8  C   UNL     1      -4.509  89.236  -6.306  1.00  0.00     0.020 A 
ATOM      9  C   UNL     1      -4.705  87.945  -5.833  1.00  0.00     0.047 A 
ATOM     10  C   UNL     1      -5.208  86.936  -6.660  1.00  0.00     0.125 A 
ATOM     11  C   UNL     1      -5.556  87.233  -8.013  1.00  0.00     0.069 A 
ENDROOT
BRANCH   1  12
ATOM     12  C   UNL     1      -4.677  92.436 -10.115  1.00  0.00    -0.011 A 
ATOM     13  C   UNL     1      -4.832  93.615  -9.364  1.00  0.00     0.013 A 
ATOM     14  C   UNL     1      -4.622  94.864  -9.959  1.00  0.00     0.047 A 
ATOM     15  C   UNL     1      -4.263  94.952 -11.313  1.00  0.00     0.115 A 
ATOM     16  C   UNL     1      -4.320  92.532 -11.473  1.00  0.00     0.013 A 
ATOM     17  C   UNL     1      -4.112  93.782 -12.066  1.00  0.00     0.047 A 
BRANCH  15  18
ATOM     18  O   UNL     1      -4.061  96.195 -11.913  1.00  0.00    -0.508 OA
ATOM     19  H   UNL     1      -3.342  96.818 -11.577  1.00  0.00     0.293 HD
ENDBRANCH  15  18
ENDBRANCH   1  12
BRANCH  11  20
ATOM     20  C   UNL     1      -6.011  86.175  -9.024  1.00  0.00     0.188 C 
ATOM     21  C   UNL     1      -4.768  85.490  -9.678  1.00  0.00     0.179 C 
ATOM     22  O   UNL     1      -6.941  85.277  -8.431  1.00  0.00    -0.362 OA
ATOM     23  C   UNL     1      -4.521  84.112  -9.036  1.00  0.00     0.177 C 
ATOM     24  C   UNL     1      -7.080  84.085  -9.185  1.00  0.00     0.176 C 
ATOM     25  C   UNL     1      -5.794  83.221  -9.071  1.00  0.00     0.177 C 
BRANCH  21  26
ATOM     26  O   UNL     1      -4.995  85.339 -11.061  1.00  0.00    -0.387 OA
ATOM     27  H   UNL     1      -4.142  85.045 -11.475  1.00  0.00     0.211 HD
ENDBRANCH  21  26
BRANCH  23  28
ATOM     28  O   UNL     1      -3.396  83.471  -9.590  1.00  0.00    -0.387 OA
ATOM     29  H   UNL     1      -3.008  84.059 -10.290  1.00  0.00     0.211 HD
ENDBRANCH  23  28
BRANCH  24  30
ATOM     30  C   UNL     1      -8.302  83.308  -8.675  1.00  0.00     0.191 C 
BRANCH  30  31
ATOM     31  O   UNL     1      -8.767  82.422  -9.659  1.00  0.00    -0.394 OA
ATOM     32  H   UNL     1      -8.213  81.604  -9.596  1.00  0.00     0.210 HD
ENDBRANCH  30  31
ENDBRANCH  24  30
BRANCH  25  33
ATOM     33  O   UNL     1      -5.752  82.333 -10.163  1.00  0.00    -0.388 OA
ATOM     34  H   UNL     1      -6.678  82.225 -10.500  1.00  0.00     0.211 HD
ENDBRANCH  25  33
ENDBRANCH  11  20
BRANCH  10  35
ATOM     35  O   UNL     1      -5.334  85.671  -6.074  1.00  0.00    -0.507 OA
ATOM     36  H   UNL     1      -5.694  85.477  -5.155  1.00  0.00     0.293 HD
ENDBRANCH  10  35
TORSDOF 9
ENDMDL
MODEL 4
REMARK VINA RESULT:    -5.940      2.375      8.818
REMARK INTER + INTRA:          -8.392
REMARK INTER:                  -7.204
REMARK INTRA:                  -1.188
REMARK UNBOUND:                -0.369
REMARK SMILES O=c1c(-c2ccc(O)cc2)coc2c([C@@H]3O[C@H](CO)[C@@H](O)[C@@H](O)[C@H]3O)c(O)ccc12
REMARK SMILES IDX 3 1 11 2 12 3 13 4 30 5 2 6 1 7 29 8 28 9 26 10 14 11 4 12
REMARK SMILES IDX 5 13 6 14 7 15 10 16 9 17 8 18 15 20 24 21 16 22 22 23 17 24
REMARK SMILES IDX 20 25 25 26 23 28 18 30 19 31 21 33 27 35
REMARK H PARENT 8 19 25 27 23 29 19 32 21 34 27 36
REMARK Flexibility Score: inf
ROOT
ATOM      1  C   UNL     1     -10.152  83.759  -8.515  1.00  0.00     0.065 A 
ATOM      2  C   UNL     1      -9.864  85.031  -8.004  1.00  0.00     0.208 A 
ATOM      3  O   UNL     1      -8.636  85.530  -8.076  1.00  0.00    -0.463 OA
ATOM      4  C   UNL     1      -7.614  84.884  -8.637  1.00  0.00     0.147 A 
ATOM      5  C   UNL     1      -7.826  83.605  -9.199  1.00  0.00     0.066 A 
ATOM      6  C   UNL     1      -9.112  83.038  -9.126  1.00  0.00     0.200 A 
ATOM      7  O   UNL     1      -9.334  81.892  -9.609  1.00  0.00    -0.288 OA
ATOM      8  C   UNL     1      -6.757  82.924  -9.793  1.00  0.00     0.020 A 
ATOM      9  C   UNL     1      -5.491  83.498  -9.817  1.00  0.00     0.047 A 
ATOM     10  C   UNL     1      -5.251  84.753  -9.248  1.00  0.00     0.125 A 
ATOM     11  C   UNL     1      -6.325  85.480  -8.652  1.00  0.00     0.069 A 
ENDROOT
BRANCH   1  12
ATOM     12  C   UNL     1     -11.517  83.195  -8.366  1.00  0.00    -0.011 A 
ATOM     13  C   UNL     1     -11.843  82.402  -7.252  1.00  0.00     0.013 A 
ATOM     14  C   UNL     1     -13.122  81.847  -7.130  1.00  0.00     0.047 A 
ATOM     15  C   UNL     1     -14.089  82.071  -8.122  1.00  0.00     0.115 A 
ATOM     16  C   UNL     1     -12.491  83.413  -9.359  1.00  0.00     0.013 A 
ATOM     17  C   UNL     1     -13.769  82.856  -9.235  1.00  0.00     0.047 A 
BRANCH  15  18
ATOM     18  O   UNL     1     -15.362  81.514  -8.009  1.00  0.00    -0.508 OA
ATOM     19  H   UNL     1     -15.549  80.786  -7.334  1.00  0.00     0.293 HD
ENDBRANCH  15  18
ENDBRANCH   1  12
BRANCH  11  20
ATOM     20  C   UNL     1      -6.142  86.809  -7.910  1.00  0.00     0.188 C 
ATOM     21  C   UNL     1      -5.538  86.551  -6.491  1.00  0.00     0.179 C 
ATOM     22  O   UNL     1      -5.412  87.734  -8.707  1.00  0.00    -0.362 OA
ATOM     23  C   UNL     1      -4.030  86.866  -6.490  1.00  0.00     0.177 C 
ATOM     24  C   UNL     1      -4.890  88.801  -7.934  1.00  0.00     0.176 C 
ATOM     25  C   UNL     1      -3.738  88.295  -7.024  1.00  0.00     0.177 C 
BRANCH  21  26
ATOM     26  O   UNL     1      -6.198  87.368  -5.551  1.00  0.00    -0.387 OA
ATOM     27  H   UNL     1      -5.504  87.873  -5.052  1.00  0.00     0.211 HD
ENDBRANCH  21  26
BRANCH  23  28
ATOM     28  O   UNL     1      -3.448  86.628  -5.229  1.00  0.00    -0.387 OA
ATOM     29  H   UNL     1      -3.645  87.402  -4.638  1.00  0.00     0.211 HD
ENDBRANCH  23  28
BRANCH  24  30
ATOM     30  C   UNL     1      -4.393  89.908  -8.875  1.00  0.00     0.191 C 
BRANCH  30  31
ATOM     31  O   UNL     1      -3.666  90.872  -8.160  1.00  0.00    -0.394 OA
ATOM     32  H   UNL     1      -2.819  90.444  -7.877  1.00  0.00     0.210 HD
ENDBRANCH  30  31
ENDBRANCH  24  30
BRANCH  25  33
ATOM     33  O   UNL     1      -3.574  89.202  -5.959  1.00  0.00    -0.388 OA
ATOM     34  H   UNL     1      -3.024  89.959  -6.289  1.00  0.00     0.211 HD
ENDBRANCH  25  33
ENDBRANCH  11  20
BRANCH  10  35
ATOM     35  O   UNL     1      -3.929  85.208  -9.311  1.00  0.00    -0.507 OA
ATOM     36  H   UNL     1      -3.521  85.739 -10.062  1.00  0.00     0.293 HD
ENDBRANCH  10  35
TORSDOF 9
ENDMDL
MODEL 5
REMARK VINA RESULT:    -5.912      5.507      9.741
REMARK INTER + INTRA:          -8.354
REMARK INTER:                  -7.047
REMARK INTRA:                  -1.307
REMARK UNBOUND:                -0.369
REMARK SMILES O=c1c(-c2ccc(O)cc2)coc2c([C@@H]3O[C@H](CO)[C@@H](O)[C@@H](O)[C@H]3O)c(O)ccc12
REMARK SMILES IDX 3 1 11 2 12 3 13 4 30 5 2 6 1 7 29 8 28 9 26 10 14 11 4 12
REMARK SMILES IDX 5 13 6 14 7 15 10 16 9 17 8 18 15 20 24 21 16 22 22 23 17 24
REMARK SMILES IDX 20 25 25 26 23 28 18 30 19 31 21 33 27 35
REMARK H PARENT 8 19 25 27 23 29 19 32 21 34 27 36
REMARK Flexibility Score: inf
ROOT
ATOM      1  C   UNL     1      -5.408  90.819 -11.188  1.00  0.00     0.065 A 
ATOM      2  C   UNL     1      -5.924  89.532 -11.390  1.00  0.00     0.208 A 
ATOM      3  O   UNL     1      -5.867  88.619 -10.428  1.00  0.00    -0.463 OA
ATOM      4  C   UNL     1      -5.343  88.853  -9.226  1.00  0.00     0.147 A 
ATOM      5  C   UNL     1      -4.823  90.134  -8.932  1.00  0.00     0.066 A 
ATOM      6  C   UNL     1      -4.851  91.122  -9.934  1.00  0.00     0.200 A 
ATOM      7  O   UNL     1      -4.385  92.274  -9.709  1.00  0.00    -0.288 OA
ATOM      8  C   UNL     1      -4.274  90.385  -7.669  1.00  0.00     0.020 A 
ATOM      9  C   UNL     1      -4.228  89.376  -6.714  1.00  0.00     0.047 A 
ATOM     10  C   UNL     1      -4.717  88.094  -6.987  1.00  0.00     0.125 A 
ATOM     11  C   UNL     1      -5.300  87.812  -8.260  1.00  0.00     0.069 A 
ENDROOT
BRANCH   1  12
ATOM     12  C   UNL     1      -5.425  91.804 -12.298  1.00  0.00    -0.011 A 
ATOM     13  C   UNL     1      -6.464  92.747 -12.399  1.00  0.00     0.013 A 
ATOM     14  C   UNL     1      -6.492  93.655 -13.463  1.00  0.00     0.047 A 
ATOM     15  C   UNL     1      -5.489  93.630 -14.444  1.00  0.00     0.115 A 
ATOM     16  C   UNL     1      -4.423  91.783 -13.287  1.00  0.00     0.013 A 
ATOM     17  C   UNL     1      -4.455  92.691 -14.350  1.00  0.00     0.047 A 
BRANCH  15  18
ATOM     18  O   UNL     1      -5.517  94.527 -15.511  1.00  0.00    -0.508 OA
ATOM     19  H   UNL     1      -4.936  94.379 -16.324  1.00  0.00     0.293 HD
ENDBRANCH  15  18
ENDBRANCH   1  12
BRANCH  11  20
ATOM     20  C   UNL     1      -5.763  86.416  -8.691  1.00  0.00     0.188 C 
ATOM     21  C   UNL     1      -4.596  85.664  -9.410  1.00  0.00     0.179 C 
ATOM     22  O   UNL     1      -6.335  85.714  -7.594  1.00  0.00    -0.362 OA
ATOM     23  C   UNL     1      -3.944  84.652  -8.449  1.00  0.00     0.177 C 
ATOM     24  C   UNL     1      -6.411  84.320  -7.840  1.00  0.00     0.176 C 
ATOM     25  C   UNL     1      -4.991  83.691  -7.823  1.00  0.00     0.177 C 
BRANCH  21  26
ATOM     26  O   UNL     1      -5.105  84.991 -10.539  1.00  0.00    -0.387 OA
ATOM     27  H   UNL     1      -5.058  84.016 -10.355  1.00  0.00     0.211 HD
ENDBRANCH  21  26
BRANCH  23  28
ATOM     28  O   UNL     1      -2.875  83.966  -9.059  1.00  0.00    -0.387 OA
ATOM     29  H   UNL     1      -2.480  83.341  -8.396  1.00  0.00     0.211 HD
ENDBRANCH  23  28
BRANCH  24  30
ATOM     30  C   UNL     1      -7.306  83.670  -6.775  1.00  0.00     0.191 C 
BRANCH  30  31
ATOM     31  O   UNL     1      -6.596  82.686  -6.070  1.00  0.00    -0.394 OA
ATOM     32  H   UNL     1      -5.923  82.313  -6.693  1.00  0.00     0.210 HD
ENDBRANCH  30  31
ENDBRANCH  24  30
BRANCH  25  33
ATOM     33  O   UNL     1      -5.032  82.471  -8.524  1.00  0.00    -0.388 OA
ATOM     34  H   UNL     1      -5.515  82.627  -9.375  1.00  0.00     0.211 HD
ENDBRANCH  25  33
ENDBRANCH  11  20
BRANCH  10  35
ATOM     35  O   UNL     1      -4.589  87.159  -5.954  1.00  0.00    -0.507 OA
ATOM     36  H   UNL     1      -3.784  87.035  -5.364  1.00  0.00     0.293 HD
ENDBRANCH  10  35
TORSDOF 9
ENDMDL
MODEL 6
REMARK VINA RESULT:    -5.891      3.407      5.129
REMARK INTER + INTRA:          -8.326
REMARK INTER:                  -7.013
REMARK INTRA:                  -1.313
REMARK UNBOUND:                -0.369
REMARK SMILES O=c1c(-c2ccc(O)cc2)coc2c([C@@H]3O[C@H](CO)[C@@H](O)[C@@H](O)[C@H]3O)c(O)ccc12
REMARK SMILES IDX 3 1 11 2 12 3 13 4 30 5 2 6 1 7 29 8 28 9 26 10 14 11 4 12
REMARK SMILES IDX 5 13 6 14 7 15 10 16 9 17 8 18 15 20 24 21 16 22 22 23 17 24
REMARK SMILES IDX 20 25 25 26 23 28 18 30 19 31 21 33 27 35
REMARK H PARENT 8 19 25 27 23 29 19 32 21 34 27 36
REMARK Flexibility Score: inf
ROOT
ATOM      1  C   UNL     1      -7.485  87.487 -10.067  1.00  0.00     0.065 A 
ATOM      2  C   UNL     1      -8.766  87.787  -9.587  1.00  0.00     0.208 A 
ATOM      3  O   UNL     1      -9.580  86.822  -9.173  1.00  0.00    -0.463 OA
ATOM      4  C   UNL     1      -9.244  85.533  -9.168  1.00  0.00     0.147 A 
ATOM      5  C   UNL     1      -7.959  85.148  -9.613  1.00  0.00     0.066 A 
ATOM      6  C   UNL     1      -7.076  86.142 -10.075  1.00  0.00     0.200 A 
ATOM      7  O   UNL     1      -5.924  85.832 -10.490  1.00  0.00    -0.288 OA
ATOM      8  C   UNL     1      -7.601  83.794  -9.606  1.00  0.00     0.020 A 
ATOM      9  C   UNL     1      -8.510  82.834  -9.178  1.00  0.00     0.047 A 
ATOM     10  C   UNL     1      -9.795  83.187  -8.753  1.00  0.00     0.125 A 
ATOM     11  C   UNL     1     -10.183  84.561  -8.730  1.00  0.00     0.069 A 
ENDROOT
BRANCH   1  12
ATOM     12  C   UNL     1      -6.616  88.574 -10.584  1.00  0.00    -0.011 A 
ATOM     13  C   UNL     1      -5.880  89.381  -9.698  1.00  0.00     0.013 A 
ATOM     14  C   UNL     1      -5.086  90.424 -10.187  1.00  0.00     0.047 A 
ATOM     15  C   UNL     1      -5.021  90.679 -11.566  1.00  0.00     0.115 A 
ATOM     16  C   UNL     1      -6.549  88.837 -11.965  1.00  0.00     0.013 A 
ATOM     17  C   UNL     1      -5.755  89.881 -12.451  1.00  0.00     0.047 A 
BRANCH  15  18
ATOM     18  O   UNL     1      -4.237  91.722 -12.057  1.00  0.00    -0.508 OA
ATOM     19  H   UNL     1      -3.238  91.615 -12.153  1.00  0.00     0.293 HD
ENDBRANCH  15  18
ENDBRANCH   1  12
BRANCH  11  20
ATOM     20  C   UNL     1     -11.598  85.037  -8.385  1.00  0.00     0.188 C 
ATOM     21  C   UNL     1     -12.486  85.052  -9.672  1.00  0.00     0.179 C 
ATOM     22  O   UNL     1     -12.134  84.285  -7.303  1.00  0.00    -0.362 OA
ATOM     23  C   UNL     1     -13.401  83.814  -9.700  1.00  0.00     0.177 C 
ATOM     24  C   UNL     1     -13.542  84.417  -7.213  1.00  0.00     0.176 C 
ATOM     25  C   UNL     1     -14.229  83.676  -8.393  1.00  0.00     0.177 C 
BRANCH  21  26
ATOM     26  O   UNL     1     -13.268  86.225  -9.682  1.00  0.00    -0.387 OA
ATOM     27  H   UNL     1     -13.434  86.467 -10.631  1.00  0.00     0.211 HD
ENDBRANCH  21  26
BRANCH  23  28
ATOM     28  O   UNL     1     -14.206  83.785 -10.857  1.00  0.00    -0.387 OA
ATOM     29  H   UNL     1     -15.085  84.193 -10.642  1.00  0.00     0.211 HD
ENDBRANCH  23  28
BRANCH  24  30
ATOM     30  C   UNL     1     -14.015  83.849  -5.867  1.00  0.00     0.191 C 
BRANCH  30  31
ATOM     31  O   UNL     1     -14.869  82.755  -6.067  1.00  0.00    -0.394 OA
ATOM     32  H   UNL     1     -14.520  82.254  -6.847  1.00  0.00     0.210 HD
ENDBRANCH  30  31
ENDBRANCH  24  30
BRANCH  25  33
ATOM     33  O   UNL     1     -15.523  84.205  -8.563  1.00  0.00    -0.388 OA
ATOM     34  H   UNL     1     -15.663  84.357  -9.533  1.00  0.00     0.211 HD
ENDBRANCH  25  33
ENDBRANCH  11  20
BRANCH  10  35
ATOM     35  O   UNL     1     -10.625  82.127  -8.372  1.00  0.00    -0.507 OA
ATOM     36  H   UNL     1     -11.200  82.091  -7.548  1.00  0.00     0.293 HD
ENDBRANCH  10  35
TORSDOF 9
ENDMDL
MODEL 7
REMARK VINA RESULT:    -5.807     10.079     13.786
REMARK INTER + INTRA:          -8.212
REMARK INTER:                  -6.912
REMARK INTRA:                  -1.301
REMARK UNBOUND:                -0.369
REMARK SMILES O=c1c(-c2ccc(O)cc2)coc2c([C@@H]3O[C@H](CO)[C@@H](O)[C@@H](O)[C@H]3O)c(O)ccc12
REMARK SMILES IDX 3 1 11 2 12 3 13 4 30 5 2 6 1 7 29 8 28 9 26 10 14 11 4 12
REMARK SMILES IDX 5 13 6 14 7 15 10 16 9 17 8 18 15 20 24 21 16 22 22 23 17 24
REMARK SMILES IDX 20 25 25 26 23 28 18 30 19 31 21 33 27 35
REMARK H PARENT 8 19 25 27 23 29 19 32 21 34 27 36
REMARK Flexibility Score: inf
ROOT
ATOM      1  C   UNL     1      -5.376  91.515 -11.790  1.00  0.00     0.065 A 
ATOM      2  C   UNL     1      -4.494  91.218 -12.837  1.00  0.00     0.208 A 
ATOM      3  O   UNL     1      -4.655  91.766 -14.036  1.00  0.00    -0.463 OA
ATOM      4  C   UNL     1      -5.630  92.627 -14.323  1.00  0.00     0.147 A 
ATOM      5  C   UNL     1      -6.548  92.999 -13.315  1.00  0.00     0.066 A 
ATOM      6  C   UNL     1      -6.418  92.425 -12.036  1.00  0.00     0.200 A 
ATOM      7  O   UNL     1      -7.227  92.727 -11.114  1.00  0.00    -0.288 OA
ATOM      8  C   UNL     1      -7.572  93.906 -13.611  1.00  0.00     0.020 A 
ATOM      9  C   UNL     1      -7.694  94.427 -14.894  1.00  0.00     0.047 A 
ATOM     10  C   UNL     1      -6.812  94.058 -15.915  1.00  0.00     0.125 A 
ATOM     11  C   UNL     1      -5.745  93.149 -15.639  1.00  0.00     0.069 A 
ENDROOT
BRANCH   1  12
ATOM     12  C   UNL     1      -5.215  90.843 -10.476  1.00  0.00    -0.011 A 
ATOM     13  C   UNL     1      -5.803  89.587 -10.241  1.00  0.00     0.013 A 
ATOM     14  C   UNL     1      -5.675  88.970  -8.992  1.00  0.00     0.047 A 
ATOM     15  C   UNL     1      -4.964  89.600  -7.959  1.00  0.00     0.115 A 
ATOM     16  C   UNL     1      -4.506  91.471  -9.435  1.00  0.00     0.013 A 
ATOM     17  C   UNL     1      -4.380  90.852  -8.186  1.00  0.00     0.047 A 
BRANCH  15  18
ATOM     18  O   UNL     1      -4.840  88.993  -6.710  1.00  0.00    -0.508 OA
ATOM     19  H   UNL     1      -5.488  88.274  -6.421  1.00  0.00     0.293 HD
ENDBRANCH  15  18
ENDBRANCH   1  12
BRANCH  11  20
ATOM     20  C   UNL     1      -4.797  92.603 -16.712  1.00  0.00     0.188 C 
ATOM     21  C   UNL     1      -5.462  91.396 -17.449  1.00  0.00     0.179 C 
ATOM     22  O   UNL     1      -4.348  93.648 -17.567  1.00  0.00    -0.362 OA
ATOM     23  C   UNL     1      -6.014  91.846 -18.815  1.00  0.00     0.177 C 
ATOM     24  C   UNL     1      -3.805  93.145 -18.775  1.00  0.00     0.176 C 
ATOM     25  C   UNL     1      -4.930  92.558 -19.671  1.00  0.00     0.177 C 
BRANCH  21  26
ATOM     26  O   UNL     1      -4.502  90.379 -17.633  1.00  0.00    -0.387 OA
ATOM     27  H   UNL     1      -4.252  90.372 -18.593  1.00  0.00     0.211 HD
ENDBRANCH  21  26
BRANCH  23  28
ATOM     28  O   UNL     1      -6.636  90.785 -19.502  1.00  0.00    -0.387 OA
ATOM     29  H   UNL     1      -7.092  91.151 -20.305  1.00  0.00     0.211 HD
ENDBRANCH  23  28
BRANCH  24  30
ATOM     30  C   UNL     1      -3.067  94.277 -19.504  1.00  0.00     0.191 C 
BRANCH  30  31
ATOM     31  O   UNL     1      -3.604  94.471 -20.786  1.00  0.00    -0.394 OA
ATOM     32  H   UNL     1      -3.543  93.603 -21.258  1.00  0.00     0.210 HD
ENDBRANCH  30  31
ENDBRANCH  24  30
BRANCH  25  33
ATOM     33  O   UNL     1      -4.351  91.663 -20.591  1.00  0.00    -0.388 OA
ATOM     34  H   UNL     1      -4.689  90.754 -20.382  1.00  0.00     0.211 HD
ENDBRANCH  25  33
ENDBRANCH  11  20
BRANCH  10  35
ATOM     35  O   UNL     1      -7.057  94.629 -17.169  1.00  0.00    -0.507 OA
ATOM     36  H   UNL     1      -6.821  94.226 -18.059  1.00  0.00     0.293 HD
ENDBRANCH  10  35
TORSDOF 9
ENDMDL
MODEL 8
REMARK VINA RESULT:    -5.801      8.071     11.796
REMARK INTER + INTRA:          -8.204
REMARK INTER:                  -6.965
REMARK INTRA:                  -1.239
REMARK UNBOUND:                -0.369
REMARK SMILES O=c1c(-c2ccc(O)cc2)coc2c([C@@H]3O[C@H](CO)[C@@H](O)[C@@H](O)[C@H]3O)c(O)ccc12
REMARK SMILES IDX 3 1 11 2 12 3 13 4 30 5 2 6 1 7 29 8 28 9 26 10 14 11 4 12
REMARK SMILES IDX 5 13 6 14 7 15 10 16 9 17 8 18 15 20 24 21 16 22 22 23 17 24
REMARK SMILES IDX 20 25 25 26 23 28 18 30 19 31 21 33 27 35
REMARK H PARENT 8 19 25 27 23 29 19 32 21 34 27 36
REMARK Flexibility Score: inf
ROOT
ATOM      1  C   UNL     1      -4.789  91.239 -13.312  1.00  0.00     0.065 A 
ATOM      2  C   UNL     1      -5.304  90.141 -12.611  1.00  0.00     0.208 A 
ATOM      3  O   UNL     1      -5.430  90.176 -11.290  1.00  0.00    -0.463 OA
ATOM      4  C   UNL     1      -5.099  91.234 -10.550  1.00  0.00     0.147 A 
ATOM      5  C   UNL     1      -4.595  92.393 -11.183  1.00  0.00     0.066 A 
ATOM      6  C   UNL     1      -4.433  92.386 -12.581  1.00  0.00     0.200 A 
ATOM      7  O   UNL     1      -3.975  93.401 -13.177  1.00  0.00    -0.288 OA
ATOM      8  C   UNL     1      -4.250  93.509 -10.410  1.00  0.00     0.020 A 
ATOM      9  C   UNL     1      -4.388  93.471  -9.028  1.00  0.00     0.047 A 
ATOM     10  C   UNL     1      -4.864  92.328  -8.376  1.00  0.00     0.125 A 
ATOM     11  C   UNL     1      -5.243  91.181  -9.138  1.00  0.00     0.069 A 
ENDROOT
BRANCH   1  12
ATOM     12  C   UNL     1      -4.598  91.154 -14.781  1.00  0.00    -0.011 A 
ATOM     13  C   UNL     1      -3.308  91.025 -15.326  1.00  0.00     0.013 A 
ATOM     14  C   UNL     1      -3.129  90.976 -16.713  1.00  0.00     0.047 A 
ATOM     15  C   UNL     1      -4.234  91.061 -17.574  1.00  0.00     0.115 A 
ATOM     16  C   UNL     1      -5.701  91.243 -15.650  1.00  0.00     0.013 A 
ATOM     17  C   UNL     1      -5.519  91.193 -17.037  1.00  0.00     0.047 A 
BRANCH  15  18
ATOM     18  O   UNL     1      -4.060  91.020 -18.957  1.00  0.00    -0.508 OA
ATOM     19  H   UNL     1      -4.445  90.263 -19.502  1.00  0.00     0.293 HD
ENDBRANCH  15  18
ENDBRANCH   1  12
BRANCH  11  20
ATOM     20  C   UNL     1      -5.672  89.850  -8.511  1.00  0.00     0.188 C 
ATOM     21  C   UNL     1      -4.420  88.945  -8.268  1.00  0.00     0.179 C 
ATOM     22  O   UNL     1      -6.478  90.070  -7.361  1.00  0.00    -0.362 OA
ATOM     23  C   UNL     1      -4.012  88.990  -6.783  1.00  0.00     0.177 C 
ATOM     24  C   UNL     1      -6.563  88.915  -6.546  1.00  0.00     0.176 C 
ATOM     25  C   UNL     1      -5.203  88.645  -5.846  1.00  0.00     0.177 C 
BRANCH  21  26
ATOM     26  O   UNL     1      -4.725  87.621  -8.640  1.00  0.00    -0.387 OA
ATOM     27  H   UNL     1      -4.159  87.391  -9.423  1.00  0.00     0.211 HD
ENDBRANCH  21  26
BRANCH  23  28
ATOM     28  O   UNL     1      -2.875  88.199  -6.529  1.00  0.00    -0.387 OA
ATOM     29  H   UNL     1      -2.196  88.757  -6.067  1.00  0.00     0.211 HD
ENDBRANCH  23  28
BRANCH  24  30
ATOM     30  C   UNL     1      -7.677  89.113  -5.507  1.00  0.00     0.191 C 
BRANCH  30  31
ATOM     31  O   UNL     1      -7.989  87.897  -4.881  1.00  0.00    -0.394 OA
ATOM     32  H   UNL     1      -8.520  87.367  -5.527  1.00  0.00     0.210 HD
ENDBRANCH  30  31
ENDBRANCH  24  30
BRANCH  25  33
ATOM     33  O   UNL     1      -5.157  87.292  -5.458  1.00  0.00    -0.388 OA
ATOM     34  H   UNL     1      -5.615  86.761  -6.159  1.00  0.00     0.211 HD
ENDBRANCH  25  33
ENDBRANCH  11  20
BRANCH  10  35
ATOM     35  O   UNL     1      -4.932  92.405  -6.981  1.00  0.00    -0.507 OA
ATOM     36  H   UNL     1      -4.729  93.216  -6.422  1.00  0.00     0.293 HD
ENDBRANCH  10  35
TORSDOF 9
ENDMDL
