MODEL 1
REMARK VINA RESULT:    -3.284      0.000      0.000
REMARK INTER + INTRA:          -2.714
REMARK INTER:                  -4.052
REMARK INTRA:                   1.339
REMARK UNBOUND:                 1.339
REMARK SMILES C=C1CC[C@@H]2[C@H]([C@@H]3[C@H](C)CC[C@@H]13)C2(C)C
REMARK SMILES IDX 3 1 2 2 1 3 12 4 9 5 8 6 10 7 7 8 11 9 4 11 5 12 6 13 13 14
REMARK SMILES IDX 14 16 15 17
REMARK H PARENT
REMARK Flexibility Score: 80.00
ROOT
ATOM      1  C   UNL     1      31.482  23.125  14.038  1.00  0.00     0.031 C 
ENDROOT
BRANCH   1   2
ATOM      2  C   UNL     1      30.057  22.692  13.726  1.00  0.00    -0.074 C 
ATOM      3  C   UNL     1      29.755  21.380  13.808  1.00  0.00     0.008 C 
BRANCH   2   4
ATOM      4  C   UNL     1      28.988  23.769  13.503  1.00  0.00     0.018 C 
ATOM      5  C   UNL     1      27.722  26.700  11.739  1.00  0.00     0.008 C 
ATOM      6  C   UNL     1      27.948  25.179  11.761  1.00  0.00    -0.010 C 
ATOM      7  C   UNL     1      26.874  24.468  12.589  1.00  0.00     0.004 C 
ATOM      8  C   UNL     1      29.317  24.691  12.315  1.00  0.00     0.003 CG0
ATOM      9  C   UNL     1      27.573  23.272  13.202  1.00  0.00     0.008 C 
ATOM     10  G   UNL     1      30.275  25.826  12.764  1.00  0.00     0.000 G0
ENDBRANCH   2   4
ENDBRANCH   1   2
BRANCH   1  11
ATOM     11  C   UNL     1      32.119  23.935  12.898  1.00  0.00     0.009 C 
BRANCH  11  12
ATOM     12  C   UNL     1      31.757  25.430  13.017  1.00  0.00    -0.001 C 
ATOM     13  C   UNL     1      30.295  25.827  12.748  1.00  0.00     0.002 CG0
ATOM     14  C   UNL     1      31.408  26.295  11.792  1.00  0.00    -0.029 C 
ATOM     15  G   UNL     1      29.320  24.698  12.322  1.00  0.00     0.000 G0
ATOM     16  C   UNL     1      31.746  27.784  11.927  1.00  0.00     0.011 C 
ATOM     17  C   UNL     1      31.448  25.741  10.353  1.00  0.00     0.011 C 
ENDBRANCH  11  12
ENDBRANCH   1  11
TORSDOF 0
ENDMDL
MODEL 2
REMARK VINA RESULT:    -2.892      1.363      3.776
REMARK INTER + INTRA:          -2.229
REMARK INTER:                  -3.541
REMARK INTRA:                   1.312
REMARK UNBOUND:                 1.339
REMARK SMILES C=C1CC[C@@H]2[C@H]([C@@H]3[C@H](C)CC[C@@H]13)C2(C)C
REMARK SMILES IDX 3 1 2 2 1 3 12 4 9 5 8 6 10 7 7 8 11 9 4 11 5 12 6 13 13 14
REMARK SMILES IDX 14 16 15 17
REMARK H PARENT
REMARK Flexibility Score: 80.00
ROOT
ATOM      1  C   UNL     1      31.591  27.660  11.163  1.00  0.00     0.031 C 
ENDROOT
BRANCH   1   2
ATOM      2  C   UNL     1      30.197  28.035  11.644  1.00  0.00    -0.074 C 
ATOM      3  C   UNL     1      30.005  29.273  12.143  1.00  0.00     0.008 C 
BRANCH   2   4
ATOM      4  C   UNL     1      29.038  27.064  11.385  1.00  0.00     0.018 C 
ATOM      5  C   UNL     1      27.486  23.780  11.712  1.00  0.00     0.008 C 
ATOM      6  C   UNL     1      27.834  25.135  12.351  1.00  0.00    -0.010 C 
ATOM      7  C   UNL     1      26.847  26.224  11.919  1.00  0.00     0.004 C 
ATOM      8  C   UNL     1      29.254  25.695  12.054  1.00  0.00     0.003 CG0
ATOM      9  C   UNL     1      27.660  27.502  11.881  1.00  0.00     0.008 C 
ATOM     10  G   UNL     1      30.131  24.788  11.152  1.00  0.00     0.000 G0
ENDBRANCH   2   4
ENDBRANCH   1   2
BRANCH   1  11
ATOM     11  C   UNL     1      32.125  26.382  11.828  1.00  0.00     0.009 C 
BRANCH  11  12
ATOM     12  C   UNL     1      31.645  25.126  11.071  1.00  0.00    -0.001 C 
ATOM     13  C   UNL     1      30.150  24.774  11.162  1.00  0.00     0.002 CG0
ATOM     14  C   UNL     1      31.200  23.844  11.797  1.00  0.00    -0.029 C 
ATOM     15  G   UNL     1      29.261  25.677  12.057  1.00  0.00     0.000 G0
ATOM     16  C   UNL     1      31.419  22.542  11.016  1.00  0.00     0.011 C 
ATOM     17  C   UNL     1      31.254  23.704  13.332  1.00  0.00     0.011 C 
ENDBRANCH  11  12
ENDBRANCH   1  11
TORSDOF 0
ENDMDL
MODEL 3
REMARK VINA RESULT:    -2.800      1.875      3.653
REMARK INTER + INTRA:          -2.117
REMARK INTER:                  -3.483
REMARK INTRA:                   1.366
REMARK UNBOUND:                 1.339
REMARK SMILES C=C1CC[C@@H]2[C@H]([C@@H]3[C@H](C)CC[C@@H]13)C2(C)C
REMARK SMILES IDX 3 1 2 2 1 3 12 4 9 5 8 6 10 7 7 8 11 9 4 11 5 12 6 13 13 14
REMARK SMILES IDX 14 16 15 17
REMARK H PARENT
REMARK Flexibility Score: 80.00
ROOT
ATOM      1  C   UNL     1      27.311  26.728  12.073  1.00  0.00     0.031 C 
ENDROOT
BRANCH   1   2
ATOM      2  C   UNL     1      27.844  25.306  12.181  1.00  0.00    -0.074 C 
ATOM      3  C   UNL     1      27.266  24.473  13.071  1.00  0.00     0.008 C 
BRANCH   2   4
ATOM      4  C   UNL     1      28.889  24.827  11.165  1.00  0.00     0.018 C 
ATOM      5  C   UNL     1      32.125  25.151   9.514  1.00  0.00     0.008 C 
ATOM      6  C   UNL     1      31.321  24.712  10.750  1.00  0.00    -0.010 C 
ATOM      7  C   UNL     1      30.673  23.341  10.535  1.00  0.00     0.004 C 
ATOM      8  C   UNL     1      30.179  25.664  11.206  1.00  0.00     0.003 CG0
ATOM      9  C   UNL     1      29.379  23.387  11.321  1.00  0.00     0.008 C 
ATOM     10  G   UNL     1      30.020  26.943  10.343  1.00  0.00     0.000 G0
ENDBRANCH   2   4
ENDBRANCH   1   2
BRANCH   1  11
ATOM     11  C   UNL     1      28.409  27.788  12.252  1.00  0.00     0.009 C 
BRANCH  11  12
ATOM     12  C   UNL     1      29.132  28.063  10.918  1.00  0.00    -0.001 C 
ATOM     13  C   UNL     1      30.032  26.947  10.358  1.00  0.00     0.002 CG0
ATOM     14  C   UNL     1      30.655  28.274  10.831  1.00  0.00    -0.029 C 
ATOM     15  G   UNL     1      30.184  25.662  11.214  1.00  0.00     0.000 G0
ATOM     16  C   UNL     1      31.124  29.175   9.683  1.00  0.00     0.011 C 
ATOM     17  C   UNL     1      31.558  28.279  12.081  1.00  0.00     0.011 C 
ENDBRANCH  11  12
ENDBRANCH   1  11
TORSDOF 0
ENDMDL
MODEL 4
REMARK VINA RESULT:    -2.800      1.698      4.765
REMARK INTER + INTRA:          -2.116
REMARK INTER:                  -3.440
REMARK INTRA:                   1.324
REMARK UNBOUND:                 1.339
REMARK SMILES C=C1CC[C@@H]2[C@H]([C@@H]3[C@H](C)CC[C@@H]13)C2(C)C
REMARK SMILES IDX 3 1 2 2 1 3 12 4 9 5 8 6 10 7 7 8 11 9 4 11 5 12 6 13 13 14
REMARK SMILES IDX 14 16 15 17
REMARK H PARENT
REMARK Flexibility Score: 80.00
ROOT
ATOM      1  C   UNL     1      29.113  27.908  11.778  1.00  0.00     0.031 C 
ENDROOT
BRANCH   1   2
ATOM      2  C   UNL     1      30.108  27.492  10.705  1.00  0.00    -0.074 C 
ATOM      3  C   UNL     1      30.391  28.370   9.721  1.00  0.00     0.008 C 
BRANCH   2   4
ATOM      4  C   UNL     1      30.872  26.173  10.874  1.00  0.00     0.018 C 
ATOM      5  C   UNL     1      30.942  22.551  11.303  1.00  0.00     0.008 C 
ATOM      6  C   UNL     1      30.767  23.757  10.366  1.00  0.00    -0.010 C 
ATOM      7  C   UNL     1      32.121  24.338   9.946  1.00  0.00     0.004 C 
ATOM      8  C   UNL     1      29.938  24.951  10.921  1.00  0.00     0.003 CG0
ATOM      9  C   UNL     1      31.881  25.824   9.779  1.00  0.00     0.008 C 
ATOM     10  G   UNL     1      29.391  24.745  12.358  1.00  0.00     0.000 G0
ENDBRANCH   2   4
ENDBRANCH   1   2
BRANCH   1  11
ATOM     11  C   UNL     1      27.953  26.913  11.931  1.00  0.00     0.009 C 
BRANCH  11  12
ATOM     12  C   UNL     1      28.341  25.756  12.874  1.00  0.00    -0.001 C 
ATOM     13  C   UNL     1      29.388  24.750  12.364  1.00  0.00     0.002 CG0
ATOM     14  C   UNL     1      27.935  24.296  12.599  1.00  0.00    -0.029 C 
ATOM     15  G   UNL     1      29.921  24.950  10.921  1.00  0.00     0.000 G0
ATOM     16  C   UNL     1      27.760  23.422  13.848  1.00  0.00     0.011 C 
ATOM     17  C   UNL     1      27.065  23.895  11.391  1.00  0.00     0.011 C 
ENDBRANCH  11  12
ENDBRANCH   1  11
TORSDOF 0
ENDMDL
MODEL 5
REMARK VINA RESULT:    -2.445      1.585      3.283
REMARK INTER + INTRA:          -1.678
REMARK INTER:                  -3.021
REMARK INTRA:                   1.343
REMARK UNBOUND:                 1.339
REMARK SMILES C=C1CC[C@@H]2[C@H]([C@@H]3[C@H](C)CC[C@@H]13)C2(C)C
REMARK SMILES IDX 3 1 2 2 1 3 12 4 9 5 8 6 10 7 7 8 11 9 4 11 5 12 6 13 13 14
REMARK SMILES IDX 14 16 15 17
REMARK H PARENT
REMARK Flexibility Score: 80.00
ROOT
ATOM      1  C   UNL     1      28.006  23.907  13.052  1.00  0.00     0.031 C 
ENDROOT
BRANCH   1   2
ATOM      2  C   UNL     1      29.267  23.121  12.723  1.00  0.00    -0.074 C 
ATOM      3  C   UNL     1      29.548  22.026  13.459  1.00  0.00     0.008 C 
BRANCH   2   4
ATOM      4  C   UNL     1      30.070  23.498  11.472  1.00  0.00     0.018 C 
ATOM      5  C   UNL     1      31.936  25.918   9.480  1.00  0.00     0.008 C 
ATOM      6  C   UNL     1      31.904  24.947  10.672  1.00  0.00    -0.010 C 
ATOM      7  C   UNL     1      32.124  23.501  10.220  1.00  0.00     0.004 C 
ATOM      8  C   UNL     1      30.603  24.941  11.524  1.00  0.00     0.003 CG0
ATOM      9  C   UNL     1      31.312  22.657  11.180  1.00  0.00     0.008 C 
ATOM     10  G   UNL     1      29.513  25.936  11.048  1.00  0.00     0.000 G0
ENDBRANCH   2   4
ENDBRANCH   1   2
BRANCH   1  11
ATOM     11  C   UNL     1      28.284  25.397  13.305  1.00  0.00     0.009 C 
BRANCH  11  12
ATOM     12  C   UNL     1      28.308  26.185  11.979  1.00  0.00    -0.001 C 
ATOM     13  C   UNL     1      29.489  25.930  11.026  1.00  0.00     0.002 CG0
ATOM     14  C   UNL     1      29.328  27.305  11.702  1.00  0.00    -0.029 C 
ATOM     15  G   UNL     1      30.589  24.947  11.506  1.00  0.00     0.000 G0
ATOM     16  C   UNL     1      28.845  28.404  10.748  1.00  0.00     0.011 C 
ATOM     17  C   UNL     1      30.363  27.755  12.752  1.00  0.00     0.011 C 
ENDBRANCH  11  12
ENDBRANCH   1  11
TORSDOF 0
ENDMDL
MODEL 6
REMARK VINA RESULT:    -2.284      1.198      4.316
REMARK INTER + INTRA:          -1.480
REMARK INTER:                  -2.796
REMARK INTRA:                   1.316
REMARK UNBOUND:                 1.339
REMARK SMILES C=C1CC[C@@H]2[C@H]([C@@H]3[C@H](C)CC[C@@H]13)C2(C)C
REMARK SMILES IDX 3 1 2 2 1 3 12 4 9 5 8 6 10 7 7 8 11 9 4 11 5 12 6 13 13 14
REMARK SMILES IDX 14 16 15 17
REMARK H PARENT
REMARK Flexibility Score: 80.00
ROOT
ATOM      1  C   UNL     1      29.650  27.505  12.169  1.00  0.00     0.031 C 
ENDROOT
BRANCH   1   2
ATOM      2  C   UNL     1      30.923  26.823  12.648  1.00  0.00    -0.074 C 
ATOM      3  C   UNL     1      32.088  27.494  12.535  1.00  0.00     0.008 C 
BRANCH   2   4
ATOM      4  C   UNL     1      30.814  25.486  13.391  1.00  0.00     0.018 C 
ATOM      5  C   UNL     1      29.775  21.993  13.551  1.00  0.00     0.008 C 
ATOM      6  C   UNL     1      30.784  23.040  13.048  1.00  0.00    -0.010 C 
ATOM      7  C   UNL     1      31.787  23.417  14.142  1.00  0.00     0.004 C 
ATOM      8  C   UNL     1      30.189  24.378  12.526  1.00  0.00     0.003 CG0
ATOM      9  C   UNL     1      32.124  24.872  13.886  1.00  0.00     0.008 C 
ATOM     10  G   UNL     1      28.640  24.462  12.578  1.00  0.00     0.000 G0
ENDBRANCH   2   4
ENDBRANCH   1   2
BRANCH   1  11
ATOM     11  C   UNL     1      28.870  26.658  11.152  1.00  0.00     0.009 C 
BRANCH  11  12
ATOM     12  C   UNL     1      27.949  25.648  11.867  1.00  0.00    -0.001 C 
ATOM     13  C   UNL     1      28.622  24.478  12.607  1.00  0.00     0.002 CG0
ATOM     14  C   UNL     1      27.755  24.206  11.364  1.00  0.00    -0.029 C 
ATOM     15  G   UNL     1      30.168  24.379  12.520  1.00  0.00     0.000 G0
ATOM     16  C   UNL     1      26.394  23.579  11.690  1.00  0.00     0.011 C 
ATOM     17  C   UNL     1      28.425  23.685  10.076  1.00  0.00     0.011 C 
ENDBRANCH  11  12
ENDBRANCH   1  11
TORSDOF 0
ENDMDL
MODEL 7
REMARK VINA RESULT:    -1.444      1.939      3.468
REMARK INTER + INTRA:          -0.444
REMARK INTER:                  -1.744
REMARK INTRA:                   1.301
REMARK UNBOUND:                 1.339
REMARK SMILES C=C1CC[C@@H]2[C@H]([C@@H]3[C@H](C)CC[C@@H]13)C2(C)C
REMARK SMILES IDX 3 1 2 2 1 3 12 4 9 5 8 6 10 7 7 8 11 9 4 11 5 12 6 13 13 14
REMARK SMILES IDX 14 16 15 17
REMARK H PARENT
REMARK Flexibility Score: 80.00
ROOT
ATOM      1  C   UNL     1      31.921  22.921  10.029  1.00  0.00     0.031 C 
ENDROOT
BRANCH   1   2
ATOM      2  C   UNL     1      31.900  21.853  11.112  1.00  0.00    -0.074 C 
ATOM      3  C   UNL     1      32.125  20.573  10.752  1.00  0.00     0.008 C 
BRANCH   2   4
ATOM      4  C   UNL     1      31.796  22.287  12.579  1.00  0.00     0.018 C 
ATOM      5  C   UNL     1      30.069  24.015  15.288  1.00  0.00     0.008 C 
ATOM      6  C   UNL     1      30.174  22.781  14.377  1.00  0.00    -0.010 C 
ATOM      7  C   UNL     1      31.250  21.811  14.874  1.00  0.00     0.004 C 
ATOM      8  C   UNL     1      30.495  23.052  12.879  1.00  0.00     0.003 CG0
ATOM      9  C   UNL     1      31.815  21.170  13.623  1.00  0.00     0.008 C 
ATOM     10  G   UNL     1      30.654  24.551  12.513  1.00  0.00     0.000 G0
ENDBRANCH   2   4
ENDBRANCH   1   2
BRANCH   1  11
ATOM     11  C   UNL     1      30.630  23.753   9.990  1.00  0.00     0.009 C 
BRANCH  11  12
ATOM     12  C   UNL     1      30.694  24.916  11.002  1.00  0.00    -0.001 C 
ATOM     13  C   UNL     1      30.653  24.556  12.497  1.00  0.00     0.002 CG0
ATOM     14  C   UNL     1      29.485  25.332  11.860  1.00  0.00    -0.029 C 
ATOM     15  G   UNL     1      30.491  23.057  12.861  1.00  0.00     0.000 G0
ATOM     16  C   UNL     1      29.445  26.813  12.255  1.00  0.00     0.011 C 
ATOM     17  C   UNL     1      28.109  24.650  11.731  1.00  0.00     0.011 C 
ENDBRANCH  11  12
ENDBRANCH   1  11
TORSDOF 0
ENDMDL
MODEL 8
REMARK VINA RESULT:    -1.375      1.426      3.687
REMARK INTER + INTRA:          -0.358
REMARK INTER:                  -1.667
REMARK INTRA:                   1.309
REMARK UNBOUND:                 1.339
REMARK SMILES C=C1CC[C@@H]2[C@H]([C@@H]3[C@H](C)CC[C@@H]13)C2(C)C
REMARK SMILES IDX 3 1 2 2 1 3 12 4 9 5 8 6 10 7 7 8 11 9 4 11 5 12 6 13 13 14
REMARK SMILES IDX 14 16 15 17
REMARK H PARENT
REMARK Flexibility Score: 80.00
ROOT
ATOM      1  C   UNL     1      31.159  25.133  10.555  1.00  0.00     0.031 C 
ENDROOT
BRANCH   1   2
ATOM      2  C   UNL     1      29.790  25.611  11.015  1.00  0.00    -0.074 C 
ATOM      3  C   UNL     1      29.407  26.862  10.689  1.00  0.00     0.008 C 
BRANCH   2   4
ATOM      4  C   UNL     1      28.838  24.606  11.675  1.00  0.00     0.018 C 
ATOM      5  C   UNL     1      28.062  22.170  14.276  1.00  0.00     0.008 C 
ATOM      6  C   UNL     1      28.195  23.644  13.858  1.00  0.00    -0.010 C 
ATOM      7  C   UNL     1      26.956  24.120  13.094  1.00  0.00     0.004 C 
ATOM      8  C   UNL     1      29.418  24.001  12.965  1.00  0.00     0.003 CG0
ATOM      9  C   UNL     1      27.471  25.143  12.102  1.00  0.00     0.008 C 
ATOM     10  G   UNL     1      30.346  22.804  12.630  1.00  0.00     0.000 G0
ENDBRANCH   2   4
ENDBRANCH   1   2
BRANCH   1  11
ATOM     11  C   UNL     1      32.034  24.632  11.715  1.00  0.00     0.009 C 
BRANCH  11  12
ATOM     12  C   UNL     1      31.739  23.150  12.026  1.00  0.00    -0.001 C 
ATOM     13  C   UNL     1      30.376  22.818  12.657  1.00  0.00     0.002 CG0
ATOM     14  C   UNL     1      31.669  22.607  13.465  1.00  0.00    -0.029 C 
ATOM     15  G   UNL     1      29.435  24.009  12.981  1.00  0.00     0.000 G0
ATOM     16  C   UNL     1      32.059  21.133  13.626  1.00  0.00     0.011 C 
ATOM     17  C   UNL     1      31.942  23.496  14.696  1.00  0.00     0.011 C 
ENDBRANCH  11  12
ENDBRANCH   1  11
TORSDOF 0
ENDMDL
MODEL 9
REMARK VINA RESULT:    -0.986      1.265      4.798
REMARK INTER + INTRA:           0.122
REMARK INTER:                  -1.235
REMARK INTRA:                   1.356
REMARK UNBOUND:                 1.339
REMARK SMILES C=C1CC[C@@H]2[C@H]([C@@H]3[C@H](C)CC[C@@H]13)C2(C)C
REMARK SMILES IDX 3 1 2 2 1 3 12 4 9 5 8 6 10 7 7 8 11 9 4 11 5 12 6 13 13 14
REMARK SMILES IDX 14 16 15 17
REMARK H PARENT
REMARK Flexibility Score: 80.00
ROOT
ATOM      1  C   UNL     1      27.214  27.301  11.902  1.00  0.00     0.031 C 
ENDROOT
BRANCH   1   2
ATOM      2  C   UNL     1      28.533  28.050  11.776  1.00  0.00    -0.074 C 
ATOM      3  C   UNL     1      28.549  29.199  11.070  1.00  0.00     0.008 C 
BRANCH   2   4
ATOM      4  C   UNL     1      29.740  27.567  12.588  1.00  0.00     0.018 C 
ATOM      5  C   UNL     1      32.125  24.975  13.538  1.00  0.00     0.008 C 
ATOM      6  C   UNL     1      31.676  26.033  12.516  1.00  0.00    -0.010 C 
ATOM      7  C   UNL     1      32.117  27.438  12.938  1.00  0.00     0.004 C 
ATOM      8  C   UNL     1      30.148  26.124  12.241  1.00  0.00     0.003 CG0
ATOM      9  C   UNL     1      31.034  28.365  12.425  1.00  0.00     0.008 C 
ATOM     10  G   UNL     1      29.285  25.113  13.040  1.00  0.00     0.000 G0
ENDBRANCH   2   4
ENDBRANCH   1   2
BRANCH   1  11
ATOM     11  C   UNL     1      27.316  25.837  11.448  1.00  0.00     0.009 C 
BRANCH  11  12
ATOM     12  C   UNL     1      27.821  24.938  12.596  1.00  0.00    -0.001 C 
ATOM     13  C   UNL     1      29.288  25.102  13.029  1.00  0.00     0.002 CG0
ATOM     14  C   UNL     1      28.822  23.791  12.367  1.00  0.00    -0.029 C 
ATOM     15  G   UNL     1      30.154  26.115  12.234  1.00  0.00     0.000 G0
ATOM     16  C   UNL     1      28.704  22.618  13.347  1.00  0.00     0.011 C 
ATOM     17  C   UNL     1      29.350  23.425  10.966  1.00  0.00     0.011 C 
ENDBRANCH  11  12
ENDBRANCH   1  11
TORSDOF 0
ENDMDL
