MODEL 1
REMARK VINA RESULT:    -4.996      0.000      0.000
REMARK INTER + INTRA:          -5.870
REMARK INTER:                  -5.726
REMARK INTRA:                  -0.144
REMARK UNBOUND:                -0.144
REMARK SMILES O=C([O-])C=Cc1ccc(O)cc1
REMARK SMILES IDX 6 1 7 2 12 3 8 4 11 5 9 6 5 7 4 8 2 9 1 10 3 11 10 12
REMARK H PARENT 10 13
REMARK Flexibility Score: inf
ROOT
ATOM      1  C   UNL     1     -12.055  35.446  -3.282  1.00  0.00    -0.025 A 
ATOM      2  C   UNL     1     -12.502  35.799  -1.997  1.00  0.00     0.012 A 
ATOM      3  C   UNL     1     -12.460  34.210  -3.826  1.00  0.00     0.012 A 
ATOM      4  C   UNL     1     -13.353  34.952  -1.281  1.00  0.00     0.047 A 
ATOM      5  C   UNL     1     -13.311  33.364  -3.107  1.00  0.00     0.047 A 
ATOM      6  C   UNL     1     -13.761  33.735  -1.834  1.00  0.00     0.115 A 
ENDROOT
BRANCH   1   7
ATOM      7  C   UNL     1     -11.144  36.374  -3.997  1.00  0.00     0.010 C 
ATOM      8  C   UNL     1     -10.102  36.987  -3.420  1.00  0.00     0.025 C 
BRANCH   8   9
ATOM      9  C   UNL     1      -9.219  37.891  -4.173  1.00  0.00     0.064 C 
ATOM     10  O   UNL     1      -8.371  37.409  -4.970  1.00  0.00    -0.545 OA
ATOM     11  O   UNL     1      -9.302  39.270  -4.019  1.00  0.00    -0.545 OA
ENDBRANCH   8   9
ENDBRANCH   1   7
BRANCH   6  12
ATOM     12  O   UNL     1     -14.610  32.901  -1.110  1.00  0.00    -0.508 OA
ATOM     13  H   UNL     1     -14.417  32.656  -0.145  1.00  0.00     0.293 HD
ENDBRANCH   6  12
TORSDOF 3
ENDMDL
MODEL 2
REMARK VINA RESULT:    -4.996      4.147      6.272
REMARK INTER + INTRA:          -5.870
REMARK INTER:                  -5.725
REMARK INTRA:                  -0.146
REMARK UNBOUND:                -0.144
REMARK SMILES O=C([O-])C=Cc1ccc(O)cc1
REMARK SMILES IDX 6 1 7 2 12 3 8 4 11 5 9 6 5 7 4 8 2 9 1 10 3 11 10 12
REMARK H PARENT 10 13
REMARK Flexibility Score: inf
ROOT
ATOM      1  C   UNL     1     -15.426  35.285  -2.903  1.00  0.00    -0.025 A 
ATOM      2  C   UNL     1     -15.033  35.880  -4.114  1.00  0.00     0.012 A 
ATOM      3  C   UNL     1     -14.969  33.985  -2.606  1.00  0.00     0.012 A 
ATOM      4  C   UNL     1     -14.187  35.204  -4.998  1.00  0.00     0.047 A 
ATOM      5  C   UNL     1     -14.122  33.312  -3.492  1.00  0.00     0.047 A 
ATOM      6  C   UNL     1     -13.727  33.921  -4.689  1.00  0.00     0.115 A 
ENDROOT
BRANCH   1   7
ATOM      7  C   UNL     1     -16.335  36.039  -2.004  1.00  0.00     0.010 C 
ATOM      8  C   UNL     1     -17.323  36.832  -2.438  1.00  0.00     0.025 C 
BRANCH   8   9
ATOM      9  C   UNL     1     -18.208  37.550  -1.508  1.00  0.00     0.064 C 
ATOM     10  O   UNL     1     -18.021  38.778  -1.296  1.00  0.00    -0.545 OA
ATOM     11  O   UNL     1     -19.247  36.897  -0.855  1.00  0.00    -0.545 OA
ENDBRANCH   8   9
ENDBRANCH   1   7
BRANCH   6  12
ATOM     12  O   UNL     1     -12.882  33.260  -5.577  1.00  0.00    -0.508 OA
ATOM     13  H   UNL     1     -12.351  33.763  -6.278  1.00  0.00     0.293 HD
ENDBRANCH   6  12
TORSDOF 3
ENDMDL
MODEL 3
REMARK VINA RESULT:    -4.954      4.557      6.318
REMARK INTER + INTRA:          -5.822
REMARK INTER:                  -5.679
REMARK INTRA:                  -0.143
REMARK UNBOUND:                -0.144
REMARK SMILES O=C([O-])C=Cc1ccc(O)cc1
REMARK SMILES IDX 6 1 7 2 12 3 8 4 11 5 9 6 5 7 4 8 2 9 1 10 3 11 10 12
REMARK H PARENT 10 13
REMARK Flexibility Score: inf
ROOT
ATOM      1  C   UNL     1     -15.859  36.238  -3.283  1.00  0.00    -0.025 A 
ATOM      2  C   UNL     1     -16.935  37.114  -3.058  1.00  0.00     0.012 A 
ATOM      3  C   UNL     1     -15.210  36.268  -4.534  1.00  0.00     0.012 A 
ATOM      4  C   UNL     1     -17.339  38.014  -4.048  1.00  0.00     0.047 A 
ATOM      5  C   UNL     1     -15.617  37.169  -5.523  1.00  0.00     0.047 A 
ATOM      6  C   UNL     1     -16.681  38.047  -5.281  1.00  0.00     0.115 A 
ENDROOT
BRANCH   1   7
ATOM      7  C   UNL     1     -15.475  35.293  -2.205  1.00  0.00     0.010 C 
ATOM      8  C   UNL     1     -14.711  34.210  -2.401  1.00  0.00     0.025 C 
BRANCH   8   9
ATOM      9  C   UNL     1     -14.346  33.308  -1.298  1.00  0.00     0.064 C 
ATOM     10  O   UNL     1     -14.703  33.586  -0.123  1.00  0.00    -0.545 OA
ATOM     11  O   UNL     1     -13.610  32.151  -1.531  1.00  0.00    -0.545 OA
ENDBRANCH   8   9
ENDBRANCH   1   7
BRANCH   6  12
ATOM     12  O   UNL     1     -17.094  38.950  -6.258  1.00  0.00    -0.508 OA
ATOM     13  H   UNL     1     -16.897  39.941  -6.180  1.00  0.00     0.293 HD
ENDBRANCH   6  12
TORSDOF 3
ENDMDL
MODEL 4
REMARK VINA RESULT:    -4.947      6.556      8.644
REMARK INTER + INTRA:          -5.814
REMARK INTER:                  -5.663
REMARK INTRA:                  -0.151
REMARK UNBOUND:                -0.144
REMARK SMILES O=C([O-])C=Cc1ccc(O)cc1
REMARK SMILES IDX 6 1 7 2 12 3 8 4 11 5 9 6 5 7 4 8 2 9 1 10 3 11 10 12
REMARK H PARENT 10 13
REMARK Flexibility Score: inf
ROOT
ATOM      1  C   UNL     1     -14.382  38.228   2.712  1.00  0.00    -0.025 A 
ATOM      2  C   UNL     1     -13.741  38.878   1.644  1.00  0.00     0.012 A 
ATOM      3  C   UNL     1     -13.684  38.070   3.927  1.00  0.00     0.012 A 
ATOM      4  C   UNL     1     -12.445  39.380   1.790  1.00  0.00     0.047 A 
ATOM      5  C   UNL     1     -12.387  38.574   4.070  1.00  0.00     0.047 A 
ATOM      6  C   UNL     1     -11.766  39.233   3.002  1.00  0.00     0.115 A 
ENDROOT
BRANCH   1   7
ATOM      7  C   UNL     1     -15.754  37.702   2.504  1.00  0.00     0.010 C 
ATOM      8  C   UNL     1     -16.507  37.989   1.434  1.00  0.00     0.025 C 
BRANCH   8   9
ATOM      9  C   UNL     1     -17.859  37.434   1.265  1.00  0.00     0.064 C 
ATOM     10  O   UNL     1     -18.840  38.215   1.142  1.00  0.00    -0.545 OA
ATOM     11  O   UNL     1     -18.074  36.061   1.241  1.00  0.00    -0.545 OA
ENDBRANCH   8   9
ENDBRANCH   1   7
BRANCH   6  12
ATOM     12  O   UNL     1     -10.475  39.740   3.135  1.00  0.00    -0.508 OA
ATOM     13  H   UNL     1     -10.301  40.642   3.562  1.00  0.00     0.293 HD
ENDBRANCH   6  12
TORSDOF 3
ENDMDL
MODEL 5
REMARK VINA RESULT:    -4.885      4.350      5.803
REMARK INTER + INTRA:          -5.742
REMARK INTER:                  -5.593
REMARK INTRA:                  -0.150
REMARK UNBOUND:                -0.144
REMARK SMILES O=C([O-])C=Cc1ccc(O)cc1
REMARK SMILES IDX 6 1 7 2 12 3 8 4 11 5 9 6 5 7 4 8 2 9 1 10 3 11 10 12
REMARK H PARENT 10 13
REMARK Flexibility Score: inf
ROOT
ATOM      1  C   UNL     1     -16.038  36.095  -2.738  1.00  0.00    -0.025 A 
ATOM      2  C   UNL     1     -16.585  36.866  -3.777  1.00  0.00     0.012 A 
ATOM      3  C   UNL     1     -16.329  36.448  -1.404  1.00  0.00     0.012 A 
ATOM      4  C   UNL     1     -17.423  37.949  -3.495  1.00  0.00     0.047 A 
ATOM      5  C   UNL     1     -17.167  37.532  -1.125  1.00  0.00     0.047 A 
ATOM      6  C   UNL     1     -17.718  38.283  -2.171  1.00  0.00     0.115 A 
ENDROOT
BRANCH   1   7
ATOM      7  C   UNL     1     -15.145  34.962  -3.088  1.00  0.00     0.010 C 
ATOM      8  C   UNL     1     -14.505  34.852  -4.259  1.00  0.00     0.025 C 
BRANCH   8   9
ATOM      9  C   UNL     1     -13.620  33.716  -4.558  1.00  0.00     0.064 C 
ATOM     10  O   UNL     1     -12.418  33.749  -4.184  1.00  0.00    -0.545 OA
ATOM     11  O   UNL     1     -14.088  32.604  -5.248  1.00  0.00    -0.545 OA
ENDBRANCH   8   9
ENDBRANCH   1   7
BRANCH   6  12
ATOM     12  O   UNL     1     -18.556  39.364  -1.904  1.00  0.00    -0.508 OA
ATOM     13  H   UNL     1     -19.473  39.235  -1.494  1.00  0.00     0.293 HD
ENDBRANCH   6  12
TORSDOF 3
ENDMDL
MODEL 6
REMARK VINA RESULT:    -4.884      2.749      3.432
REMARK INTER + INTRA:          -5.742
REMARK INTER:                  -5.602
REMARK INTRA:                  -0.140
REMARK UNBOUND:                -0.144
REMARK SMILES O=C([O-])C=Cc1ccc(O)cc1
REMARK SMILES IDX 6 1 7 2 12 3 8 4 11 5 9 6 5 7 4 8 2 9 1 10 3 11 10 12
REMARK H PARENT 10 13
REMARK Flexibility Score: inf
ROOT
ATOM      1  C   UNL     1     -12.952  34.197  -5.095  1.00  0.00    -0.025 A 
ATOM      2  C   UNL     1     -14.068  33.344  -5.101  1.00  0.00     0.012 A 
ATOM      3  C   UNL     1     -12.409  34.597  -3.857  1.00  0.00     0.012 A 
ATOM      4  C   UNL     1     -14.616  32.881  -3.900  1.00  0.00     0.047 A 
ATOM      5  C   UNL     1     -12.959  34.132  -2.659  1.00  0.00     0.047 A 
ATOM      6  C   UNL     1     -14.063  33.271  -2.678  1.00  0.00     0.115 A 
ENDROOT
BRANCH   1   7
ATOM      7  C   UNL     1     -12.413  34.670  -6.395  1.00  0.00     0.010 C 
ATOM      8  C   UNL     1     -11.792  35.845  -6.560  1.00  0.00     0.025 C 
BRANCH   8   9
ATOM      9  C   UNL     1     -11.264  36.268  -7.866  1.00  0.00     0.064 C 
ATOM     10  O   UNL     1     -11.781  37.253  -8.456  1.00  0.00    -0.545 OA
ATOM     11  O   UNL     1     -10.203  35.597  -8.463  1.00  0.00    -0.545 OA
ENDBRANCH   8   9
ENDBRANCH   1   7
BRANCH   6  12
ATOM     12  O   UNL     1     -14.618  32.801  -1.490  1.00  0.00    -0.508 OA
ATOM     13  H   UNL     1     -15.594  32.533  -1.430  1.00  0.00     0.293 HD
ENDBRANCH   6  12
TORSDOF 3
ENDMDL
MODEL 7
REMARK VINA RESULT:    -4.824      4.162      5.710
REMARK INTER + INTRA:          -5.673
REMARK INTER:                  -5.530
REMARK INTRA:                  -0.143
REMARK UNBOUND:                -0.144
REMARK SMILES O=C([O-])C=Cc1ccc(O)cc1
REMARK SMILES IDX 6 1 7 2 12 3 8 4 11 5 9 6 5 7 4 8 2 9 1 10 3 11 10 12
REMARK H PARENT 10 13
REMARK Flexibility Score: inf
ROOT
ATOM      1  C   UNL     1     -16.112  36.198  -2.771  1.00  0.00    -0.025 A 
ATOM      2  C   UNL     1     -16.004  36.154  -1.371  1.00  0.00     0.012 A 
ATOM      3  C   UNL     1     -17.165  36.937  -3.348  1.00  0.00     0.012 A 
ATOM      4  C   UNL     1     -16.910  36.849  -0.564  1.00  0.00     0.047 A 
ATOM      5  C   UNL     1     -18.070  37.631  -2.538  1.00  0.00     0.047 A 
ATOM      6  C   UNL     1     -17.942  37.591  -1.144  1.00  0.00     0.115 A 
ENDROOT
BRANCH   1   7
ATOM      7  C   UNL     1     -15.133  35.434  -3.584  1.00  0.00     0.010 C 
ATOM      8  C   UNL     1     -14.814  34.153  -3.357  1.00  0.00     0.025 C 
BRANCH   8   9
ATOM      9  C   UNL     1     -13.846  33.433  -4.197  1.00  0.00     0.064 C 
ATOM     10  O   UNL     1     -12.620  33.710  -4.110  1.00  0.00    -0.545 OA
ATOM     11  O   UNL     1     -14.260  32.450  -5.089  1.00  0.00    -0.545 OA
ENDBRANCH   8   9
ENDBRANCH   1   7
BRANCH   6  12
ATOM     12  O   UNL     1     -18.836  38.280  -0.329  1.00  0.00    -0.508 OA
ATOM     13  H   UNL     1     -18.557  39.110   0.181  1.00  0.00     0.293 HD
ENDBRANCH   6  12
TORSDOF 3
ENDMDL
MODEL 8
REMARK VINA RESULT:    -4.780      1.274      5.680
REMARK INTER + INTRA:          -5.622
REMARK INTER:                  -5.473
REMARK INTRA:                  -0.149
REMARK UNBOUND:                -0.144
REMARK SMILES O=C([O-])C=Cc1ccc(O)cc1
REMARK SMILES IDX 6 1 7 2 12 3 8 4 11 5 9 6 5 7 4 8 2 9 1 10 3 11 10 12
REMARK H PARENT 10 13
REMARK Flexibility Score: inf
ROOT
ATOM      1  C   UNL     1     -11.323  36.196  -3.753  1.00  0.00    -0.025 A 
ATOM      2  C   UNL     1     -10.916  36.768  -2.536  1.00  0.00     0.012 A 
ATOM      3  C   UNL     1     -10.968  36.838  -4.957  1.00  0.00     0.012 A 
ATOM      4  C   UNL     1     -10.151  37.939  -2.520  1.00  0.00     0.047 A 
ATOM      5  C   UNL     1     -10.204  38.009  -4.937  1.00  0.00     0.047 A 
ATOM      6  C   UNL     1      -9.791  38.560  -3.718  1.00  0.00     0.115 A 
ENDROOT
BRANCH   1   7
ATOM      7  C   UNL     1     -12.143  34.959  -3.718  1.00  0.00     0.010 C 
ATOM      8  C   UNL     1     -12.902  34.598  -2.675  1.00  0.00     0.025 C 
BRANCH   8   9
ATOM      9  C   UNL     1     -13.707  33.367  -2.689  1.00  0.00     0.064 C 
ATOM     10  O   UNL     1     -14.697  33.282  -3.463  1.00  0.00    -0.545 OA
ATOM     11  O   UNL     1     -13.396  32.295  -1.862  1.00  0.00    -0.545 OA
ENDBRANCH   8   9
ENDBRANCH   1   7
BRANCH   6  12
ATOM     12  O   UNL     1      -9.028  39.725  -3.687  1.00  0.00    -0.508 OA
ATOM     13  H   UNL     1      -8.377  39.952  -4.430  1.00  0.00     0.293 HD
ENDBRANCH   6  12
TORSDOF 3
ENDMDL
MODEL 9
REMARK VINA RESULT:    -4.719      3.278      5.971
REMARK INTER + INTRA:          -5.552
REMARK INTER:                  -5.417
REMARK INTRA:                  -0.135
REMARK UNBOUND:                -0.144
REMARK SMILES O=C([O-])C=Cc1ccc(O)cc1
REMARK SMILES IDX 6 1 7 2 12 3 8 4 11 5 9 6 5 7 4 8 2 9 1 10 3 11 10 12
REMARK H PARENT 10 13
REMARK Flexibility Score: inf
ROOT
ATOM      1  C   UNL     1     -14.042  34.243  -1.747  1.00  0.00    -0.025 A 
ATOM      2  C   UNL     1     -14.631  33.330  -2.639  1.00  0.00     0.012 A 
ATOM      3  C   UNL     1     -12.904  34.962  -2.166  1.00  0.00     0.012 A 
ATOM      4  C   UNL     1     -14.113  33.156  -3.925  1.00  0.00     0.047 A 
ATOM      5  C   UNL     1     -12.388  34.785  -3.454  1.00  0.00     0.047 A 
ATOM      6  C   UNL     1     -12.994  33.883  -4.337  1.00  0.00     0.115 A 
ENDROOT
BRANCH   1   7
ATOM      7  C   UNL     1     -14.622  34.384  -0.389  1.00  0.00     0.010 C 
ATOM      8  C   UNL     1     -15.357  35.434   0.002  1.00  0.00     0.025 C 
BRANCH   8   9
ATOM      9  C   UNL     1     -15.922  35.525   1.357  1.00  0.00     0.064 C 
ATOM     10  O   UNL     1     -16.397  34.495   1.903  1.00  0.00    -0.545 OA
ATOM     11  O   UNL     1     -15.942  36.732   2.047  1.00  0.00    -0.545 OA
ENDBRANCH   8   9
ENDBRANCH   1   7
BRANCH   6  12
ATOM     12  O   UNL     1     -12.489  33.700  -5.623  1.00  0.00    -0.508 OA
ATOM     13  H   UNL     1     -12.732  32.887  -6.177  1.00  0.00     0.293 HD
ENDBRANCH   6  12
TORSDOF 3
ENDMDL
