MODEL 1
REMARK VINA RESULT:    -4.401      0.000      0.000
REMARK INTER + INTRA:          -6.080
REMARK INTER:                  -5.945
REMARK INTRA:                  -0.135
REMARK UNBOUND:                -0.135
REMARK SMILES CCCCCCC=CC(=O)[O-]
REMARK SMILES IDX 5 1 6 2 7 3 8 4 9 5 10 6 11 7 4 8 3 9 2 10 1 11
REMARK H PARENT
REMARK Flexibility Score: inf
ROOT
ATOM      1  C   UNL     1      31.879   5.676  48.188  1.00  0.00     0.004 C 
ENDROOT
BRANCH   1   2
ATOM      2  C   UNL     1      33.321   6.157  47.981  1.00  0.00     0.027 C 
BRANCH   2   3
ATOM      3  C   UNL     1      33.561   6.561  46.551  1.00  0.00    -0.025 C 
ATOM      4  C   UNL     1      34.394   5.953  45.689  1.00  0.00     0.020 C 
BRANCH   4   5
ATOM      5  C   UNL     1      35.212   4.750  45.950  1.00  0.00     0.064 C 
ATOM      6  O   UNL     1      35.284   3.799  45.128  1.00  0.00    -0.545 OA
ATOM      7  O   UNL     1      35.941   4.677  47.128  1.00  0.00    -0.545 OA
ENDBRANCH   4   5
ENDBRANCH   2   3
ENDBRANCH   1   2
BRANCH   1   8
ATOM      8  C   UNL     1      30.876   6.719  47.681  1.00  0.00     0.000 C 
BRANCH   8   9
ATOM      9  C   UNL     1      29.687   6.852  48.639  1.00  0.00    -0.000 C 
BRANCH   9  10
ATOM     10  C   UNL     1      28.847   5.569  48.655  1.00  0.00    -0.003 C 
ATOM     11  C   UNL     1      27.893   5.519  47.464  1.00  0.00     0.004 C 
ENDBRANCH   9  10
ENDBRANCH   8   9
ENDBRANCH   1   8
TORSDOF 6
ENDMDL
MODEL 2
REMARK VINA RESULT:    -4.281      1.708      2.654
REMARK INTER + INTRA:          -5.918
REMARK INTER:                  -5.403
REMARK INTRA:                  -0.515
REMARK UNBOUND:                -0.135
REMARK SMILES CCCCCCC=CC(=O)[O-]
REMARK SMILES IDX 5 1 6 2 7 3 8 4 9 5 10 6 11 7 4 8 3 9 2 10 1 11
REMARK H PARENT
REMARK Flexibility Score: inf
ROOT
ATOM      1  C   UNL     1      31.399   6.446  47.502  1.00  0.00     0.004 C 
ENDROOT
BRANCH   1   2
ATOM      2  C   UNL     1      32.162   5.181  47.914  1.00  0.00     0.027 C 
BRANCH   2   3
ATOM      3  C   UNL     1      33.543   5.515  48.410  1.00  0.00    -0.025 C 
ATOM      4  C   UNL     1      34.668   5.510  47.675  1.00  0.00     0.020 C 
BRANCH   4   5
ATOM      5  C   UNL     1      34.778   5.215  46.231  1.00  0.00     0.064 C 
ATOM      6  O   UNL     1      35.257   4.133  45.803  1.00  0.00    -0.545 OA
ATOM      7  O   UNL     1      34.318   6.153  45.318  1.00  0.00    -0.545 OA
ENDBRANCH   4   5
ENDBRANCH   2   3
ENDBRANCH   1   2
BRANCH   1   8
ATOM      8  C   UNL     1      30.171   6.661  48.396  1.00  0.00     0.000 C 
BRANCH   8   9
ATOM      9  C   UNL     1      30.166   8.071  48.996  1.00  0.00    -0.000 C 
BRANCH   9  10
ATOM     10  C   UNL     1      31.594   8.609  49.151  1.00  0.00    -0.003 C 
ATOM     11  C   UNL     1      31.719  10.016  48.573  1.00  0.00     0.004 C 
ENDBRANCH   9  10
ENDBRANCH   8   9
ENDBRANCH   1   8
TORSDOF 6
ENDMDL
MODEL 3
REMARK VINA RESULT:    -4.277      3.175      5.420
REMARK INTER + INTRA:          -5.913
REMARK INTER:                  -5.334
REMARK INTRA:                  -0.579
REMARK UNBOUND:                -0.135
REMARK SMILES CCCCCCC=CC(=O)[O-]
REMARK SMILES IDX 5 1 6 2 7 3 8 4 9 5 10 6 11 7 4 8 3 9 2 10 1 11
REMARK H PARENT
REMARK Flexibility Score: inf
ROOT
ATOM      1  C   UNL     1      32.018   5.518  48.170  1.00  0.00     0.004 C 
ENDROOT
BRANCH   1   2
ATOM      2  C   UNL     1      30.986   6.439  47.507  1.00  0.00     0.027 C 
BRANCH   2   3
ATOM      3  C   UNL     1      30.043   7.022  48.525  1.00  0.00    -0.025 C 
ATOM      4  C   UNL     1      30.282   8.095  49.298  1.00  0.00     0.020 C 
BRANCH   4   5
ATOM      5  C   UNL     1      31.493   8.942  49.283  1.00  0.00     0.064 C 
ATOM      6  O   UNL     1      32.489   8.699  50.013  1.00  0.00    -0.545 OA
ATOM      7  O   UNL     1      31.542  10.028  48.420  1.00  0.00    -0.545 OA
ENDBRANCH   4   5
ENDBRANCH   2   3
ENDBRANCH   1   2
BRANCH   1   8
ATOM      8  C   UNL     1      33.422   5.773  47.608  1.00  0.00     0.000 C 
BRANCH   8   9
ATOM      9  C   UNL     1      33.433   6.998  46.686  1.00  0.00    -0.000 C 
BRANCH   9  10
ATOM     10  C   UNL     1      33.951   6.632  45.291  1.00  0.00    -0.003 C 
ATOM     11  C   UNL     1      34.230   7.882  44.460  1.00  0.00     0.004 C 
ENDBRANCH   9  10
ENDBRANCH   8   9
ENDBRANCH   1   8
TORSDOF 6
ENDMDL
MODEL 4
REMARK VINA RESULT:    -4.244      1.244      1.572
REMARK INTER + INTRA:          -5.869
REMARK INTER:                  -5.492
REMARK INTRA:                  -0.376
REMARK UNBOUND:                -0.135
REMARK SMILES CCCCCCC=CC(=O)[O-]
REMARK SMILES IDX 5 1 6 2 7 3 8 4 9 5 10 6 11 7 4 8 3 9 2 10 1 11
REMARK H PARENT
REMARK Flexibility Score: inf
ROOT
ATOM      1  C   UNL     1      32.164   6.925  47.712  1.00  0.00     0.004 C 
ENDROOT
BRANCH   1   2
ATOM      2  C   UNL     1      32.593   5.467  47.917  1.00  0.00     0.027 C 
BRANCH   2   3
ATOM      3  C   UNL     1      34.048   5.376  48.294  1.00  0.00    -0.025 C 
ATOM      4  C   UNL     1      35.068   5.147  47.451  1.00  0.00     0.020 C 
BRANCH   4   5
ATOM      5  C   UNL     1      34.982   4.976  45.985  1.00  0.00     0.064 C 
ATOM      6  O   UNL     1      35.350   3.918  45.411  1.00  0.00    -0.545 OA
ATOM      7  O   UNL     1      34.455   6.007  45.220  1.00  0.00    -0.545 OA
ENDBRANCH   4   5
ENDBRANCH   2   3
ENDBRANCH   1   2
BRANCH   1   8
ATOM      8  C   UNL     1      31.658   7.537  49.024  1.00  0.00     0.000 C 
BRANCH   8   9
ATOM      9  C   UNL     1      30.136   7.722  48.995  1.00  0.00    -0.000 C 
BRANCH   9  10
ATOM     10  C   UNL     1      29.419   6.461  49.493  1.00  0.00    -0.003 C 
ATOM     11  C   UNL     1      28.785   5.693  48.337  1.00  0.00     0.004 C 
ENDBRANCH   9  10
ENDBRANCH   8   9
ENDBRANCH   1   8
TORSDOF 6
ENDMDL
MODEL 5
REMARK VINA RESULT:    -4.146      1.711      2.586
REMARK INTER + INTRA:          -5.735
REMARK INTER:                  -5.121
REMARK INTRA:                  -0.614
REMARK UNBOUND:                -0.135
REMARK SMILES CCCCCCC=CC(=O)[O-]
REMARK SMILES IDX 5 1 6 2 7 3 8 4 9 5 10 6 11 7 4 8 3 9 2 10 1 11
REMARK H PARENT
REMARK Flexibility Score: inf
ROOT
ATOM      1  C   UNL     1      30.262   5.834  48.431  1.00  0.00     0.004 C 
ENDROOT
BRANCH   1   2
ATOM      2  C   UNL     1      31.698   5.372  48.153  1.00  0.00     0.027 C 
BRANCH   2   3
ATOM      3  C   UNL     1      32.420   6.345  47.260  1.00  0.00    -0.025 C 
ATOM      4  C   UNL     1      33.698   6.249  46.860  1.00  0.00     0.020 C 
BRANCH   4   5
ATOM      5  C   UNL     1      34.645   5.159  47.179  1.00  0.00     0.064 C 
ATOM      6  O   UNL     1      35.031   4.333  46.311  1.00  0.00    -0.545 OA
ATOM      7  O   UNL     1      35.140   5.057  48.471  1.00  0.00    -0.545 OA
ENDBRANCH   4   5
ENDBRANCH   2   3
ENDBRANCH   1   2
BRANCH   1   8
ATOM      8  C   UNL     1      30.135   7.355  48.277  1.00  0.00     0.000 C 
BRANCH   8   9
ATOM      9  C   UNL     1      30.174   8.052  49.642  1.00  0.00    -0.000 C 
BRANCH   9  10
ATOM     10  C   UNL     1      31.505   8.784  49.848  1.00  0.00    -0.003 C 
ATOM     11  C   UNL     1      31.782   9.758  48.705  1.00  0.00     0.004 C 
ENDBRANCH   9  10
ENDBRANCH   8   9
ENDBRANCH   1   8
TORSDOF 6
ENDMDL
MODEL 6
REMARK VINA RESULT:    -4.130      4.106      5.971
REMARK INTER + INTRA:          -5.714
REMARK INTER:                  -5.396
REMARK INTRA:                  -0.318
REMARK UNBOUND:                -0.135
REMARK SMILES CCCCCCC=CC(=O)[O-]
REMARK SMILES IDX 5 1 6 2 7 3 8 4 9 5 10 6 11 7 4 8 3 9 2 10 1 11
REMARK H PARENT
REMARK Flexibility Score: inf
ROOT
ATOM      1  C   UNL     1      32.314   9.706  48.119  1.00  0.00     0.004 C 
ENDROOT
BRANCH   1   2
ATOM      2  C   UNL     1      31.303   8.623  48.515  1.00  0.00     0.027 C 
BRANCH   2   3
ATOM      3  C   UNL     1      31.708   7.276  47.978  1.00  0.00    -0.025 C 
ATOM      4  C   UNL     1      30.971   6.154  48.025  1.00  0.00     0.020 C 
BRANCH   4   5
ATOM      5  C   UNL     1      29.605   6.016  48.574  1.00  0.00     0.064 C 
ATOM      6  O   UNL     1      28.594   5.899  47.833  1.00  0.00    -0.545 OA
ATOM      7  O   UNL     1      29.435   5.992  49.951  1.00  0.00    -0.545 OA
ENDBRANCH   4   5
ENDBRANCH   2   3
ENDBRANCH   1   2
BRANCH   1   8
ATOM      8  C   UNL     1      33.461   9.109  47.294  1.00  0.00     0.000 C 
BRANCH   8   9
ATOM      9  C   UNL     1      34.243  10.206  46.563  1.00  0.00    -0.000 C 
BRANCH   9  10
ATOM     10  C   UNL     1      34.594   9.773  45.135  1.00  0.00    -0.003 C 
ATOM     11  C   UNL     1      34.347  10.903  44.139  1.00  0.00     0.004 C 
ENDBRANCH   9  10
ENDBRANCH   8   9
ENDBRANCH   1   8
TORSDOF 6
ENDMDL
MODEL 7
REMARK VINA RESULT:    -4.097     17.140     18.810
REMARK INTER + INTRA:          -5.670
REMARK INTER:                  -4.940
REMARK INTRA:                  -0.729
REMARK UNBOUND:                -0.135
REMARK SMILES CCCCCCC=CC(=O)[O-]
REMARK SMILES IDX 5 1 6 2 7 3 8 4 9 5 10 6 11 7 4 8 3 9 2 10 1 11
REMARK H PARENT
REMARK Flexibility Score: inf
ROOT
ATOM      1  C   UNL     1      20.709  13.079  35.867  1.00  0.00     0.004 C 
ENDROOT
BRANCH   1   2
ATOM      2  C   UNL     1      19.910  13.834  34.796  1.00  0.00     0.027 C 
BRANCH   2   3
ATOM      3  C   UNL     1      20.824  14.470  33.783  1.00  0.00    -0.025 C 
ATOM      4  C   UNL     1      21.267  13.898  32.652  1.00  0.00     0.020 C 
BRANCH   4   5
ATOM      5  C   UNL     1      20.924  12.550  32.150  1.00  0.00     0.064 C 
ATOM      6  O   UNL     1      19.839  12.312  31.559  1.00  0.00    -0.545 OA
ATOM      7  O   UNL     1      21.838  11.519  32.317  1.00  0.00    -0.545 OA
ENDBRANCH   4   5
ENDBRANCH   2   3
ENDBRANCH   1   2
BRANCH   1   8
ATOM      8  C   UNL     1      20.390  11.580  35.832  1.00  0.00     0.000 C 
BRANCH   8   9
ATOM      9  C   UNL     1      21.675  10.744  35.816  1.00  0.00    -0.000 C 
BRANCH   9  10
ATOM     10  C   UNL     1      22.908  11.633  35.616  1.00  0.00    -0.003 C 
ATOM     11  C   UNL     1      24.197  10.826  35.745  1.00  0.00     0.004 C 
ENDBRANCH   9  10
ENDBRANCH   8   9
ENDBRANCH   1   8
TORSDOF 6
ENDMDL
MODEL 8
REMARK VINA RESULT:    -4.065     17.306     18.302
REMARK INTER + INTRA:          -5.626
REMARK INTER:                  -4.999
REMARK INTRA:                  -0.626
REMARK UNBOUND:                -0.135
REMARK SMILES CCCCCCC=CC(=O)[O-]
REMARK SMILES IDX 5 1 6 2 7 3 8 4 9 5 10 6 11 7 4 8 3 9 2 10 1 11
REMARK H PARENT
REMARK Flexibility Score: inf
ROOT
ATOM      1  C   UNL     1      21.839  10.390  35.828  1.00  0.00     0.004 C 
ENDROOT
BRANCH   1   2
ATOM      2  C   UNL     1      22.209  11.850  35.534  1.00  0.00     0.027 C 
BRANCH   2   3
ATOM      3  C   UNL     1      21.089  12.782  35.911  1.00  0.00    -0.025 C 
ATOM      4  C   UNL     1      20.421  13.592  35.073  1.00  0.00     0.020 C 
BRANCH   4   5
ATOM      5  C   UNL     1      20.618  13.708  33.612  1.00  0.00     0.064 C 
ATOM      6  O   UNL     1      20.283  12.793  32.817  1.00  0.00    -0.545 OA
ATOM      7  O   UNL     1      21.169  14.874  33.100  1.00  0.00    -0.545 OA
ENDBRANCH   4   5
ENDBRANCH   2   3
ENDBRANCH   1   2
BRANCH   1   8
ATOM      8  C   UNL     1      21.079   9.769  34.650  1.00  0.00     0.000 C 
BRANCH   8   9
ATOM      9  C   UNL     1      19.678   9.316  35.074  1.00  0.00    -0.000 C 
BRANCH   9  10
ATOM     10  C   UNL     1      19.479   9.483  36.585  1.00  0.00    -0.003 C 
ATOM     11  C   UNL     1      19.137   8.151  37.248  1.00  0.00     0.004 C 
ENDBRANCH   9  10
ENDBRANCH   8   9
ENDBRANCH   1   8
TORSDOF 6
ENDMDL
MODEL 9
REMARK VINA RESULT:    -3.960      3.708      4.208
REMARK INTER + INTRA:          -5.485
REMARK INTER:                  -5.135
REMARK INTRA:                  -0.350
REMARK UNBOUND:                -0.135
REMARK SMILES CCCCCCC=CC(=O)[O-]
REMARK SMILES IDX 5 1 6 2 7 3 8 4 9 5 10 6 11 7 4 8 3 9 2 10 1 11
REMARK H PARENT
REMARK Flexibility Score: inf
ROOT
ATOM      1  C   UNL     1      33.303   8.138  48.120  1.00  0.00     0.004 C 
ENDROOT
BRANCH   1   2
ATOM      2  C   UNL     1      33.057   9.511  47.481  1.00  0.00     0.027 C 
BRANCH   2   3
ATOM      3  C   UNL     1      34.325  10.320  47.425  1.00  0.00    -0.025 C 
ATOM      4  C   UNL     1      34.992  10.663  46.311  1.00  0.00     0.020 C 
BRANCH   4   5
ATOM      5  C   UNL     1      34.605  10.355  44.918  1.00  0.00     0.064 C 
ATOM      6  O   UNL     1      34.263  11.251  44.104  1.00  0.00    -0.545 OA
ATOM      7  O   UNL     1      34.643   9.036  44.488  1.00  0.00    -0.545 OA
ENDBRANCH   4   5
ENDBRANCH   2   3
ENDBRANCH   1   2
BRANCH   1   8
ATOM      8  C   UNL     1      32.869   7.009  47.177  1.00  0.00     0.000 C 
BRANCH   8   9
ATOM      9  C   UNL     1      31.842   6.092  47.852  1.00  0.00    -0.000 C 
BRANCH   9  10
ATOM     10  C   UNL     1      30.491   6.800  48.009  1.00  0.00    -0.003 C 
ATOM     11  C   UNL     1      29.443   5.863  48.604  1.00  0.00     0.004 C 
ENDBRANCH   9  10
ENDBRANCH   8   9
ENDBRANCH   1   8
TORSDOF 6
ENDMDL
