MODEL 1
REMARK VINA RESULT:    -5.080      0.000      0.000
REMARK INTER + INTRA:          -9.591
REMARK INTER:                  -8.197
REMARK INTRA:                  -1.394
REMARK UNBOUND:                -1.394
REMARK SMILES CCCCCCCCCCCCO
REMARK SMILES IDX 7 1 6 2 5 3 4 4 3 5 2 6 1 7 8 8 9 9 10 10 11 11 12 12 13 13
REMARK H PARENT 13 14
REMARK Flexibility Score: inf
ROOT
ATOM      1  C   UNL     1      10.239   3.189  -1.404  1.00  0.00     0.000 C 
ENDROOT
BRANCH   1   2
ATOM      2  C   UNL     1      11.310   3.429  -2.488  1.00  0.00    -0.000 C 
BRANCH   2   3
ATOM      3  C   UNL     1      11.894   4.852  -2.520  1.00  0.00    -0.000 C 
BRANCH   3   4
ATOM      4  C   UNL     1      11.661   5.565  -3.861  1.00  0.00    -0.000 C 
BRANCH   4   5
ATOM      5  C   UNL     1      10.734   4.740  -4.766  1.00  0.00    -0.000 C 
BRANCH   5   6
ATOM      6  C   UNL     1       9.273   5.215  -4.703  1.00  0.00    -0.003 C 
ATOM      7  C   UNL     1       8.291   4.073  -4.446  1.00  0.00     0.004 C 
ENDBRANCH   5   6
ENDBRANCH   4   5
ENDBRANCH   3   4
ENDBRANCH   2   3
ENDBRANCH   1   2
BRANCH   1   8
ATOM      8  C   UNL     1       9.820   4.443  -0.611  1.00  0.00     0.000 C 
BRANCH   8   9
ATOM      9  C   UNL     1       8.449   5.029  -1.002  1.00  0.00     0.000 C 
BRANCH   9  10
ATOM     10  C   UNL     1       8.313   6.554  -0.813  1.00  0.00     0.002 C 
BRANCH  10  11
ATOM     11  C   UNL     1       9.050   7.406  -1.861  1.00  0.00     0.028 C 
BRANCH  11  12
ATOM     12  C   UNL     1       8.501   8.833  -1.965  1.00  0.00     0.156 C 
BRANCH  12  13
ATOM     13  O   UNL     1       8.278   9.359  -0.685  1.00  0.00    -0.396 OA
ATOM     14  H   UNL     1       7.943   8.611  -0.124  1.00  0.00     0.210 HD
ENDBRANCH  12  13
ENDBRANCH  11  12
ENDBRANCH  10  11
ENDBRANCH   9  10
ENDBRANCH   8   9
ENDBRANCH   1   8
TORSDOF 11
ENDMDL
MODEL 2
REMARK VINA RESULT:    -5.024      1.518      1.926
REMARK INTER + INTRA:          -9.502
REMARK INTER:                  -8.175
REMARK INTRA:                  -1.327
REMARK UNBOUND:                -1.394
REMARK SMILES CCCCCCCCCCCCO
REMARK SMILES IDX 7 1 6 2 5 3 4 4 3 5 2 6 1 7 8 8 9 9 10 10 11 11 12 12 13 13
REMARK H PARENT 13 14
REMARK Flexibility Score: inf
ROOT
ATOM      1  C   UNL     1      10.090   3.693  -0.556  1.00  0.00     0.000 C 
ENDROOT
BRANCH   1   2
ATOM      2  C   UNL     1      10.174   2.873  -1.860  1.00  0.00    -0.000 C 
BRANCH   2   3
ATOM      3  C   UNL     1      11.270   3.323  -2.841  1.00  0.00    -0.000 C 
BRANCH   3   4
ATOM      4  C   UNL     1      11.986   4.606  -2.393  1.00  0.00    -0.000 C 
BRANCH   4   5
ATOM      5  C   UNL     1      12.044   5.630  -3.536  1.00  0.00    -0.000 C 
BRANCH   5   6
ATOM      6  C   UNL     1      10.925   5.423  -4.570  1.00  0.00    -0.003 C 
ATOM      7  C   UNL     1      11.243   6.061  -5.921  1.00  0.00     0.004 C 
ENDBRANCH   5   6
ENDBRANCH   4   5
ENDBRANCH   3   4
ENDBRANCH   2   3
ENDBRANCH   1   2
BRANCH   1   8
ATOM      8  C   UNL     1       8.776   4.474  -0.359  1.00  0.00     0.000 C 
BRANCH   8   9
ATOM      9  C   UNL     1       8.265   5.211  -1.612  1.00  0.00     0.000 C 
BRANCH   9  10
ATOM     10  C   UNL     1       8.153   6.742  -1.469  1.00  0.00     0.002 C 
BRANCH  10  11
ATOM     11  C   UNL     1       9.395   7.530  -1.920  1.00  0.00     0.028 C 
BRANCH  11  12
ATOM     12  C   UNL     1       9.108   8.487  -3.082  1.00  0.00     0.156 C 
BRANCH  12  13
ATOM     13  O   UNL     1      10.302   8.835  -3.728  1.00  0.00    -0.396 OA
ATOM     14  H   UNL     1      10.152   8.691  -4.700  1.00  0.00     0.210 HD
ENDBRANCH  12  13
ENDBRANCH  11  12
ENDBRANCH  10  11
ENDBRANCH   9  10
ENDBRANCH   8   9
ENDBRANCH   1   8
TORSDOF 11
ENDMDL
MODEL 3
REMARK VINA RESULT:    -5.001      1.703      3.687
REMARK INTER + INTRA:          -9.465
REMARK INTER:                  -8.117
REMARK INTRA:                  -1.347
REMARK UNBOUND:                -1.394
REMARK SMILES CCCCCCCCCCCCO
REMARK SMILES IDX 7 1 6 2 5 3 4 4 3 5 2 6 1 7 8 8 9 9 10 10 11 11 12 12 13 13
REMARK H PARENT 13 14
REMARK Flexibility Score: inf
ROOT
ATOM      1  C   UNL     1      11.977   4.656  -2.744  1.00  0.00     0.000 C 
ENDROOT
BRANCH   1   2
ATOM      2  C   UNL     1      11.333   3.262  -2.888  1.00  0.00    -0.000 C 
BRANCH   2   3
ATOM      3  C   UNL     1      10.188   2.969  -1.903  1.00  0.00    -0.000 C 
BRANCH   3   4
ATOM      4  C   UNL     1      10.235   3.855  -0.649  1.00  0.00    -0.000 C 
BRANCH   4   5
ATOM      5  C   UNL     1       8.847   4.430  -0.330  1.00  0.00    -0.000 C 
BRANCH   5   6
ATOM      6  C   UNL     1       8.319   5.347  -1.445  1.00  0.00    -0.003 C 
ATOM      7  C   UNL     1       8.972   6.729  -1.433  1.00  0.00     0.004 C 
ENDBRANCH   5   6
ENDBRANCH   4   5
ENDBRANCH   3   4
ENDBRANCH   2   3
ENDBRANCH   1   2
BRANCH   1   8
ATOM      8  C   UNL     1      11.669   5.639  -3.891  1.00  0.00     0.000 C 
BRANCH   8   9
ATOM      9  C   UNL     1      10.492   5.229  -4.798  1.00  0.00     0.000 C 
BRANCH   9  10
ATOM     10  C   UNL     1       9.483   6.352  -5.107  1.00  0.00     0.002 C 
BRANCH  10  11
ATOM     11  C   UNL     1      10.082   7.595  -5.787  1.00  0.00     0.028 C 
BRANCH  11  12
ATOM     12  C   UNL     1       9.739   8.900  -5.059  1.00  0.00     0.156 C 
BRANCH  12  13
ATOM     13  O   UNL     1      10.362   8.930  -3.804  1.00  0.00    -0.396 OA
ATOM     14  H   UNL     1      10.730   8.021  -3.647  1.00  0.00     0.210 HD
ENDBRANCH  12  13
ENDBRANCH  11  12
ENDBRANCH  10  11
ENDBRANCH   9  10
ENDBRANCH   8   9
ENDBRANCH   1   8
TORSDOF 11
ENDMDL
MODEL 4
REMARK VINA RESULT:    -4.874      0.919      1.639
REMARK INTER + INTRA:          -9.261
REMARK INTER:                  -8.014
REMARK INTRA:                  -1.247
REMARK UNBOUND:                -1.394
REMARK SMILES CCCCCCCCCCCCO
REMARK SMILES IDX 7 1 6 2 5 3 4 4 3 5 2 6 1 7 8 8 9 9 10 10 11 11 12 12 13 13
REMARK H PARENT 13 14
REMARK Flexibility Score: inf
ROOT
ATOM      1  C   UNL     1      11.511   3.377  -2.747  1.00  0.00     0.000 C 
ENDROOT
BRANCH   1   2
ATOM      2  C   UNL     1      12.052   4.771  -2.371  1.00  0.00    -0.000 C 
BRANCH   2   3
ATOM      3  C   UNL     1      11.441   5.941  -3.162  1.00  0.00    -0.000 C 
BRANCH   3   4
ATOM      4  C   UNL     1      11.696   5.840  -4.674  1.00  0.00    -0.000 C 
BRANCH   4   5
ATOM      5  C   UNL     1      10.406   5.477  -5.425  1.00  0.00    -0.000 C 
BRANCH   5   6
ATOM      6  C   UNL     1       9.160   5.556  -4.527  1.00  0.00    -0.003 C 
ATOM      7  C   UNL     1       8.403   4.231  -4.448  1.00  0.00     0.004 C 
ENDBRANCH   5   6
ENDBRANCH   4   5
ENDBRANCH   3   4
ENDBRANCH   2   3
ENDBRANCH   1   2
BRANCH   1   8
ATOM      8  C   UNL     1      10.371   2.856  -1.851  1.00  0.00     0.000 C 
BRANCH   8   9
ATOM      9  C   UNL     1      10.041   3.746  -0.637  1.00  0.00     0.000 C 
BRANCH   9  10
ATOM     10  C   UNL     1       8.655   4.420  -0.677  1.00  0.00     0.002 C 
BRANCH  10  11
ATOM     11  C   UNL     1       8.604   5.839  -0.085  1.00  0.00     0.028 C 
BRANCH  11  12
ATOM     12  C   UNL     1       8.440   6.927  -1.152  1.00  0.00     0.156 C 
BRANCH  12  13
ATOM     13  O   UNL     1       7.887   8.082  -0.583  1.00  0.00    -0.396 OA
ATOM     14  H   UNL     1       7.013   8.229  -1.032  1.00  0.00     0.210 HD
ENDBRANCH  12  13
ENDBRANCH  11  12
ENDBRANCH  10  11
ENDBRANCH   9  10
ENDBRANCH   8   9
ENDBRANCH   1   8
TORSDOF 11
ENDMDL
MODEL 5
REMARK VINA RESULT:    -4.772      1.710      4.053
REMARK INTER + INTRA:          -9.096
REMARK INTER:                  -7.838
REMARK INTRA:                  -1.258
REMARK UNBOUND:                -1.394
REMARK SMILES CCCCCCCCCCCCO
REMARK SMILES IDX 7 1 6 2 5 3 4 4 3 5 2 6 1 7 8 8 9 9 10 10 11 11 12 12 13 13
REMARK H PARENT 13 14
REMARK Flexibility Score: inf
ROOT
ATOM      1  C   UNL     1      10.085   3.118  -2.711  1.00  0.00     0.000 C 
ENDROOT
BRANCH   1   2
ATOM      2  C   UNL     1      10.130   3.266  -1.177  1.00  0.00    -0.000 C 
BRANCH   2   3
ATOM      3  C   UNL     1       8.941   4.023  -0.561  1.00  0.00    -0.000 C 
BRANCH   3   4
ATOM      4  C   UNL     1       9.281   5.477  -0.197  1.00  0.00    -0.000 C 
BRANCH   4   5
ATOM      5  C   UNL     1       8.304   6.453  -0.870  1.00  0.00    -0.000 C 
BRANCH   5   6
ATOM      6  C   UNL     1       8.992   7.352  -1.910  1.00  0.00    -0.003 C 
ATOM      7  C   UNL     1       7.997   8.122  -2.777  1.00  0.00     0.004 C 
ENDBRANCH   5   6
ENDBRANCH   4   5
ENDBRANCH   3   4
ENDBRANCH   2   3
ENDBRANCH   1   2
BRANCH   1   8
ATOM      8  C   UNL     1       8.889   3.806  -3.398  1.00  0.00     0.000 C 
BRANCH   8   9
ATOM      9  C   UNL     1       9.263   4.759  -4.550  1.00  0.00     0.000 C 
BRANCH   9  10
ATOM     10  C   UNL     1      10.764   4.804  -4.900  1.00  0.00     0.002 C 
BRANCH  10  11
ATOM     11  C   UNL     1      11.544   5.970  -4.268  1.00  0.00     0.028 C 
BRANCH  11  12
ATOM     12  C   UNL     1      12.585   5.508  -3.242  1.00  0.00     0.156 C 
BRANCH  12  13
ATOM     13  O   UNL     1      12.185   5.872  -1.949  1.00  0.00    -0.396 OA
ATOM     14  H   UNL     1      11.654   5.113  -1.591  1.00  0.00     0.210 HD
ENDBRANCH  12  13
ENDBRANCH  11  12
ENDBRANCH  10  11
ENDBRANCH   9  10
ENDBRANCH   8   9
ENDBRANCH   1   8
TORSDOF 11
ENDMDL
MODEL 6
REMARK VINA RESULT:    -4.744      1.959      4.830
REMARK INTER + INTRA:          -9.050
REMARK INTER:                  -7.824
REMARK INTRA:                  -1.226
REMARK UNBOUND:                -1.394
REMARK SMILES CCCCCCCCCCCCO
REMARK SMILES IDX 7 1 6 2 5 3 4 4 3 5 2 6 1 7 8 8 9 9 10 10 11 11 12 12 13 13
REMARK H PARENT 13 14
REMARK Flexibility Score: inf
ROOT
ATOM      1  C   UNL     1      10.102   8.258  -4.574  1.00  0.00     0.000 C 
ENDROOT
BRANCH   1   2
ATOM      2  C   UNL     1       9.660   8.121  -3.103  1.00  0.00    -0.000 C 
BRANCH   2   3
ATOM      3  C   UNL     1       8.473   7.171  -2.866  1.00  0.00    -0.000 C 
BRANCH   3   4
ATOM      4  C   UNL     1       8.452   6.581  -1.448  1.00  0.00    -0.000 C 
BRANCH   4   5
ATOM      5  C   UNL     1       8.297   5.053  -1.492  1.00  0.00    -0.000 C 
BRANCH   5   6
ATOM      6  C   UNL     1       8.877   4.366  -0.244  1.00  0.00    -0.003 C 
ATOM      7  C   UNL     1       9.898   3.282  -0.586  1.00  0.00     0.004 C 
ENDBRANCH   5   6
ENDBRANCH   4   5
ENDBRANCH   3   4
ENDBRANCH   2   3
ENDBRANCH   1   2
BRANCH   1   8
ATOM      8  C   UNL     1       9.916   6.992  -5.432  1.00  0.00     0.000 C 
BRANCH   8   9
ATOM      9  C   UNL     1      11.041   5.947  -5.300  1.00  0.00     0.000 C 
BRANCH   9  10
ATOM     10  C   UNL     1      10.633   4.632  -4.605  1.00  0.00     0.002 C 
BRANCH  10  11
ATOM     11  C   UNL     1      11.501   4.240  -3.397  1.00  0.00     0.028 C 
BRANCH  11  12
ATOM     12  C   UNL     1      12.433   5.368  -2.939  1.00  0.00     0.156 C 
BRANCH  12  13
ATOM     13  O   UNL     1      11.955   5.937  -1.751  1.00  0.00    -0.396 OA
ATOM     14  H   UNL     1      12.704   5.903  -1.098  1.00  0.00     0.210 HD
ENDBRANCH  12  13
ENDBRANCH  11  12
ENDBRANCH  10  11
ENDBRANCH   9  10
ENDBRANCH   8   9
ENDBRANCH   1   8
TORSDOF 11
ENDMDL
MODEL 7
REMARK VINA RESULT:    -4.739      2.015      4.022
REMARK INTER + INTRA:          -9.042
REMARK INTER:                  -7.741
REMARK INTRA:                  -1.301
REMARK UNBOUND:                -1.394
REMARK SMILES CCCCCCCCCCCCO
REMARK SMILES IDX 7 1 6 2 5 3 4 4 3 5 2 6 1 7 8 8 9 9 10 10 11 11 12 12 13 13
REMARK H PARENT 13 14
REMARK Flexibility Score: inf
ROOT
ATOM      1  C   UNL     1      11.254   3.299  -2.939  1.00  0.00     0.000 C 
ENDROOT
BRANCH   1   2
ATOM      2  C   UNL     1      10.135   2.915  -1.950  1.00  0.00    -0.000 C 
BRANCH   2   3
ATOM      3  C   UNL     1      10.132   3.708  -0.632  1.00  0.00    -0.000 C 
BRANCH   3   4
ATOM      4  C   UNL     1       8.791   4.405  -0.355  1.00  0.00    -0.000 C 
BRANCH   4   5
ATOM      5  C   UNL     1       8.444   5.393  -1.479  1.00  0.00    -0.000 C 
BRANCH   5   6
ATOM      6  C   UNL     1       8.283   6.834  -0.969  1.00  0.00    -0.003 C 
ATOM      7  C   UNL     1       8.659   7.879  -2.018  1.00  0.00     0.004 C 
ENDBRANCH   5   6
ENDBRANCH   4   5
ENDBRANCH   3   4
ENDBRANCH   2   3
ENDBRANCH   1   2
BRANCH   1   8
ATOM      8  C   UNL     1      12.006   4.602  -2.601  1.00  0.00     0.000 C 
BRANCH   8   9
ATOM      9  C   UNL     1      11.553   5.839  -3.402  1.00  0.00     0.000 C 
BRANCH   9  10
ATOM     10  C   UNL     1      10.972   5.536  -4.797  1.00  0.00     0.002 C 
BRANCH  10  11
ATOM     11  C   UNL     1       9.540   6.049  -5.029  1.00  0.00     0.028 C 
BRANCH  11  12
ATOM     12  C   UNL     1       9.496   7.374  -5.798  1.00  0.00     0.156 C 
BRANCH  12  13
ATOM     13  O   UNL     1      10.731   7.615  -6.416  1.00  0.00    -0.396 OA
ATOM     14  H   UNL     1      10.683   7.202  -7.318  1.00  0.00     0.210 HD
ENDBRANCH  12  13
ENDBRANCH  11  12
ENDBRANCH  10  11
ENDBRANCH   9  10
ENDBRANCH   8   9
ENDBRANCH   1   8
TORSDOF 11
ENDMDL
MODEL 8
REMARK VINA RESULT:    -4.664      2.104      3.965
REMARK INTER + INTRA:          -8.921
REMARK INTER:                  -7.615
REMARK INTRA:                  -1.306
REMARK UNBOUND:                -1.394
REMARK SMILES CCCCCCCCCCCCO
REMARK SMILES IDX 7 1 6 2 5 3 4 4 3 5 2 6 1 7 8 8 9 9 10 10 11 11 12 12 13 13
REMARK H PARENT 13 14
REMARK Flexibility Score: inf
ROOT
ATOM      1  C   UNL     1      10.501   4.761  -4.813  1.00  0.00     0.000 C 
ENDROOT
BRANCH   1   2
ATOM      2  C   UNL     1      10.925   6.184  -5.228  1.00  0.00    -0.000 C 
BRANCH   2   3
ATOM      3  C   UNL     1       9.769   7.112  -5.644  1.00  0.00    -0.000 C 
BRANCH   3   4
ATOM      4  C   UNL     1       9.706   8.401  -4.810  1.00  0.00    -0.000 C 
BRANCH   4   5
ATOM      5  C   UNL     1       9.550   8.080  -3.316  1.00  0.00    -0.000 C 
BRANCH   5   6
ATOM      6  C   UNL     1       8.086   8.139  -2.850  1.00  0.00    -0.003 C 
ATOM      7  C   UNL     1       7.914   7.724  -1.390  1.00  0.00     0.004 C 
ENDBRANCH   5   6
ENDBRANCH   4   5
ENDBRANCH   3   4
ENDBRANCH   2   3
ENDBRANCH   1   2
BRANCH   1   8
ATOM      8  C   UNL     1       9.043   4.629  -4.330  1.00  0.00     0.000 C 
BRANCH   8   9
ATOM      9  C   UNL     1       8.881   4.364  -2.820  1.00  0.00     0.000 C 
BRANCH   9  10
ATOM     10  C   UNL     1       9.935   3.422  -2.205  1.00  0.00     0.002 C 
BRANCH  10  11
ATOM     11  C   UNL     1      10.703   4.002  -1.005  1.00  0.00     0.028 C 
BRANCH  11  12
ATOM     12  C   UNL     1      10.834   5.529  -1.060  1.00  0.00     0.156 C 
BRANCH  12  13
ATOM     13  O   UNL     1      11.984   5.889  -1.776  1.00  0.00    -0.396 OA
ATOM     14  H   UNL     1      12.014   6.883  -1.784  1.00  0.00     0.210 HD
ENDBRANCH  12  13
ENDBRANCH  11  12
ENDBRANCH  10  11
ENDBRANCH   9  10
ENDBRANCH   8   9
ENDBRANCH   1   8
TORSDOF 11
ENDMDL
MODEL 9
REMARK VINA RESULT:    -4.662      2.125      4.324
REMARK INTER + INTRA:          -8.918
REMARK INTER:                  -7.759
REMARK INTRA:                  -1.158
REMARK UNBOUND:                -1.394
REMARK SMILES CCCCCCCCCCCCO
REMARK SMILES IDX 7 1 6 2 5 3 4 4 3 5 2 6 1 7 8 8 9 9 10 10 11 11 12 12 13 13
REMARK H PARENT 13 14
REMARK Flexibility Score: inf
ROOT
ATOM      1  C   UNL     1      10.993   4.578  -1.136  1.00  0.00     0.000 C 
ENDROOT
BRANCH   1   2
ATOM      2  C   UNL     1       9.786   3.668  -0.832  1.00  0.00    -0.000 C 
BRANCH   2   3
ATOM      3  C   UNL     1       8.482   4.409  -0.490  1.00  0.00    -0.000 C 
BRANCH   3   4
ATOM      4  C   UNL     1       8.682   5.923  -0.318  1.00  0.00    -0.000 C 
BRANCH   4   5
ATOM      5  C   UNL     1       8.049   6.696  -1.485  1.00  0.00    -0.000 C 
BRANCH   5   6
ATOM      6  C   UNL     1       8.788   8.008  -1.794  1.00  0.00    -0.003 C 
ATOM      7  C   UNL     1       8.654   8.432  -3.255  1.00  0.00     0.004 C 
ENDBRANCH   5   6
ENDBRANCH   4   5
ENDBRANCH   3   4
ENDBRANCH   2   3
ENDBRANCH   1   2
BRANCH   1   8
ATOM      8  C   UNL     1      11.769   4.226  -2.421  1.00  0.00     0.000 C 
BRANCH   8   9
ATOM      9  C   UNL     1      12.231   5.439  -3.252  1.00  0.00     0.000 C 
BRANCH   9  10
ATOM     10  C   UNL     1      11.200   5.965  -4.271  1.00  0.00     0.002 C 
BRANCH  10  11
ATOM     11  C   UNL     1      10.409   4.875  -5.015  1.00  0.00     0.028 C 
BRANCH  11  12
ATOM     12  C   UNL     1       8.973   4.721  -4.500  1.00  0.00     0.156 C 
BRANCH  12  13
ATOM     13  O   UNL     1       8.638   3.364  -4.404  1.00  0.00    -0.396 OA
ATOM     14  H   UNL     1       9.290   2.953  -3.777  1.00  0.00     0.210 HD
ENDBRANCH  12  13
ENDBRANCH  11  12
ENDBRANCH  10  11
ENDBRANCH   9  10
ENDBRANCH   8   9
ENDBRANCH   1   8
TORSDOF 11
ENDMDL
