MODEL 1
REMARK VINA RESULT:    -3.224      0.000      0.000
REMARK INTER + INTRA:          -4.229
REMARK INTER:                  -4.920
REMARK INTRA:                   0.691
REMARK UNBOUND:                 0.691
REMARK SMILES CC1=CCC[C@H](C)C(=O)C[C@H](C(C)C)C(=O)C1
REMARK SMILES IDX 8 1 9 2 6 3 7 4 5 5 4 6 3 7 2 8 1 9 10 11 11 12 15 13 16 14
REMARK SMILES IDX 17 15 12 17 13 18 14 19
REMARK H PARENT
REMARK Flexibility Score: 70.00
ROOT
ATOM      1  C   UNL     1      -5.716 -13.689  -6.703  1.00  0.00     0.136 C 
ATOM      2  O   UNL     1      -6.284 -13.117  -5.782  1.00  0.00    -0.299 OA
ENDROOT
BRANCH   1   3
ATOM      3  C   UNL     1      -5.441 -12.893  -7.974  1.00  0.00     0.053 C 
ATOM      4  C   UNL     1      -6.569 -12.921  -9.017  1.00  0.00     0.016 C 
BRANCH   3   5
ATOM      5  C   UNL     1      -4.977 -11.446  -7.658  1.00  0.00     0.015 C 
BRANCH   5   6
ATOM      6  C   UNL     1      -3.460 -11.199  -7.761  1.00  0.00     0.028 C 
BRANCH   6   7
ATOM      7  C   UNL     1      -2.750 -12.307  -8.500  1.00  0.00    -0.028 C 
ATOM      8  C   UNL     1      -2.088 -13.337  -7.924  1.00  0.00    -0.070 CG0
ATOM      9  C   UNL     1      -1.458 -14.366  -8.828  1.00  0.00     0.039 C 
ATOM     10  G   UNL     1      -1.898 -13.471  -6.425  1.00  0.00     0.000 G0
ENDBRANCH   6   7
ENDBRANCH   5   6
ENDBRANCH   3   5
ENDBRANCH   1   3
BRANCH   1  11
ATOM     11  C   UNL     1      -5.314 -15.134  -6.488  1.00  0.00     0.087 C 
BRANCH  11  12
ATOM     12  C   UNL     1      -3.779 -15.335  -6.601  1.00  0.00     0.066 C 
BRANCH  12  13
ATOM     13  C   UNL     1      -3.031 -14.271  -5.813  1.00  0.00     0.140 C 
ATOM     14  O   UNL     1      -3.332 -14.057  -4.646  1.00  0.00    -0.299 OA
BRANCH  13  15
ATOM     15  C   UNL     1      -1.899 -13.486  -6.421  1.00  0.00     0.106 CG0
ATOM     16  G   UNL     1      -2.097 -13.335  -7.917  1.00  0.00     0.000 G0
ENDBRANCH  13  15
ENDBRANCH  12  13
BRANCH  12  17
ATOM     17  C   UNL     1      -3.347 -16.779  -6.203  1.00  0.00    -0.006 C 
ATOM     18  C   UNL     1      -4.210 -17.410  -5.096  1.00  0.00     0.008 C 
ATOM     19  C   UNL     1      -1.862 -16.834  -5.810  1.00  0.00     0.008 C 
ENDBRANCH  12  17
ENDBRANCH  11  12
ENDBRANCH   1  11
TORSDOF 1
ENDMDL
MODEL 2
REMARK VINA RESULT:    -2.484      2.060      3.538
REMARK INTER + INTRA:          -3.099
REMARK INTER:                  -3.941
REMARK INTRA:                   0.842
REMARK UNBOUND:                 0.691
REMARK SMILES CC1=CCC[C@H](C)C(=O)C[C@H](C(C)C)C(=O)C1
REMARK SMILES IDX 8 1 9 2 6 3 7 4 5 5 4 6 3 7 2 8 1 9 10 11 11 12 15 13 16 14
REMARK SMILES IDX 17 15 12 17 13 18 14 19
REMARK H PARENT
REMARK Flexibility Score: 70.00
ROOT
ATOM      1  C   UNL     1      -2.576 -12.589  -7.326  1.00  0.00     0.136 C 
ATOM      2  O   UNL     1      -2.177 -12.414  -6.183  1.00  0.00    -0.299 OA
ENDROOT
BRANCH   1   3
ATOM      3  C   UNL     1      -3.010 -11.364  -8.125  1.00  0.00     0.053 C 
ATOM      4  C   UNL     1      -1.868 -10.585  -8.794  1.00  0.00     0.016 C 
BRANCH   3   5
ATOM      5  C   UNL     1      -4.148 -11.702  -9.124  1.00  0.00     0.015 C 
BRANCH   5   6
ATOM      6  C   UNL     1      -5.579 -11.475  -8.602  1.00  0.00     0.028 C 
BRANCH   6   7
ATOM      7  C   UNL     1      -5.762 -11.992  -7.196  1.00  0.00    -0.028 C 
ATOM      8  C   UNL     1      -5.972 -13.285  -6.855  1.00  0.00    -0.070 CG0
ATOM      9  C   UNL     1      -6.108 -13.616  -5.390  1.00  0.00     0.039 C 
ATOM     10  G   UNL     1      -6.135 -14.399  -7.872  1.00  0.00     0.000 G0
ENDBRANCH   6   7
ENDBRANCH   5   6
ENDBRANCH   3   5
ENDBRANCH   1   3
BRANCH   1  11
ATOM     11  C   UNL     1      -2.582 -14.008  -7.857  1.00  0.00     0.087 C 
BRANCH  11  12
ATOM     12  C   UNL     1      -3.632 -14.896  -7.137  1.00  0.00     0.066 C 
BRANCH  12  13
ATOM     13  C   UNL     1      -4.833 -15.155  -8.032  1.00  0.00     0.140 C 
ATOM     14  O   UNL     1      -4.770 -16.019  -8.897  1.00  0.00    -0.299 OA
BRANCH  13  15
ATOM     15  C   UNL     1      -6.122 -14.393  -7.867  1.00  0.00     0.106 CG0
ATOM     16  G   UNL     1      -5.958 -13.281  -6.849  1.00  0.00     0.000 G0
ENDBRANCH  13  15
ENDBRANCH  12  13
BRANCH  12  17
ATOM     17  C   UNL     1      -3.007 -16.216  -6.590  1.00  0.00    -0.006 C 
ATOM     18  C   UNL     1      -3.986 -17.085  -5.779  1.00  0.00     0.008 C 
ATOM     19  C   UNL     1      -1.739 -15.940  -5.767  1.00  0.00     0.008 C 
ENDBRANCH  12  17
ENDBRANCH  11  12
ENDBRANCH   1  11
TORSDOF 1
ENDMDL
MODEL 3
REMARK VINA RESULT:    -2.289      1.670      3.098
REMARK INTER + INTRA:          -2.802
REMARK INTER:                  -4.128
REMARK INTRA:                   1.326
REMARK UNBOUND:                 0.691
REMARK SMILES CC1=CCC[C@H](C)C(=O)C[C@H](C(C)C)C(=O)C1
REMARK SMILES IDX 8 1 9 2 6 3 7 4 5 5 4 6 3 7 2 8 1 9 10 11 11 12 15 13 16 14
REMARK SMILES IDX 17 15 12 17 13 18 14 19
REMARK H PARENT
REMARK Flexibility Score: 70.00
ROOT
ATOM      1  C   UNL     1      -2.759 -14.005  -5.367  1.00  0.00     0.136 C 
ATOM      2  O   UNL     1      -3.550 -13.338  -4.715  1.00  0.00    -0.299 OA
ENDROOT
BRANCH   1   3
ATOM      3  C   UNL     1      -1.972 -13.302  -6.467  1.00  0.00     0.053 C 
ATOM      4  C   UNL     1      -1.111 -14.226  -7.344  1.00  0.00     0.016 C 
BRANCH   3   5
ATOM      5  C   UNL     1      -2.876 -12.371  -7.317  1.00  0.00     0.015 C 
BRANCH   5   6
ATOM      6  C   UNL     1      -3.075 -12.797  -8.784  1.00  0.00     0.028 C 
BRANCH   6   7
ATOM      7  C   UNL     1      -4.501 -13.198  -9.072  1.00  0.00    -0.028 C 
ATOM      8  C   UNL     1      -5.084 -14.359  -8.690  1.00  0.00    -0.070 CG0
ATOM      9  C   UNL     1      -6.532 -14.574  -9.050  1.00  0.00     0.039 C 
ATOM     10  G   UNL     1      -4.338 -15.469  -7.975  1.00  0.00     0.000 G0
ENDBRANCH   6   7
ENDBRANCH   5   6
ENDBRANCH   3   5
ENDBRANCH   1   3
BRANCH   1  11
ATOM     11  C   UNL     1      -2.614 -15.470  -5.006  1.00  0.00     0.087 C 
BRANCH  11  12
ATOM     12  C   UNL     1      -3.805 -16.319  -5.524  1.00  0.00     0.066 C 
BRANCH  12  13
ATOM     13  C   UNL     1      -4.653 -15.526  -6.505  1.00  0.00     0.140 C 
ATOM     14  O   UNL     1      -5.602 -14.871  -6.095  1.00  0.00    -0.299 OA
BRANCH  13  15
ATOM     15  C   UNL     1      -4.342 -15.499  -7.979  1.00  0.00     0.106 CG0
ATOM     16  G   UNL     1      -5.110 -14.387  -8.667  1.00  0.00     0.000 G0
ENDBRANCH  13  15
ENDBRANCH  12  13
BRANCH  12  17
ATOM     17  C   UNL     1      -3.337 -17.684  -6.116  1.00  0.00    -0.006 C 
ATOM     18  C   UNL     1      -4.240 -18.873  -5.740  1.00  0.00     0.008 C 
ATOM     19  C   UNL     1      -1.878 -17.989  -5.743  1.00  0.00     0.008 C 
ENDBRANCH  12  17
ENDBRANCH  11  12
ENDBRANCH   1  11
TORSDOF 1
ENDMDL
MODEL 4
REMARK VINA RESULT:    -2.180      2.014      4.256
REMARK INTER + INTRA:          -2.636
REMARK INTER:                  -4.252
REMARK INTRA:                   1.616
REMARK UNBOUND:                 0.691
REMARK SMILES CC1=CCC[C@H](C)C(=O)C[C@H](C(C)C)C(=O)C1
REMARK SMILES IDX 8 1 9 2 6 3 7 4 5 5 4 6 3 7 2 8 1 9 10 11 11 12 15 13 16 14
REMARK SMILES IDX 17 15 12 17 13 18 14 19
REMARK H PARENT
REMARK Flexibility Score: 70.00
ROOT
ATOM      1  C   UNL     1      -2.954 -13.568  -8.670  1.00  0.00     0.136 C 
ATOM      2  O   UNL     1      -2.530 -14.674  -8.973  1.00  0.00    -0.299 OA
ENDROOT
BRANCH   1   3
ATOM      3  C   UNL     1      -2.031 -12.642  -7.884  1.00  0.00     0.053 C 
ATOM      4  C   UNL     1      -2.626 -11.267  -7.542  1.00  0.00     0.016 C 
BRANCH   3   5
ATOM      5  C   UNL     1      -1.436 -13.345  -6.636  1.00  0.00     0.015 C 
BRANCH   5   6
ATOM      6  C   UNL     1      -2.463 -13.836  -5.598  1.00  0.00     0.028 C 
BRANCH   6   7
ATOM      7  C   UNL     1      -2.608 -15.338  -5.604  1.00  0.00    -0.028 C 
ATOM      8  C   UNL     1      -3.746 -16.017  -5.882  1.00  0.00    -0.070 CG0
ATOM      9  C   UNL     1      -3.692 -17.523  -5.863  1.00  0.00     0.039 C 
ATOM     10  G   UNL     1      -5.076 -15.339  -6.149  1.00  0.00     0.000 G0
ENDBRANCH   6   7
ENDBRANCH   5   6
ENDBRANCH   3   5
ENDBRANCH   1   3
BRANCH   1  11
ATOM     11  C   UNL     1      -4.353 -13.205  -9.125  1.00  0.00     0.087 C 
BRANCH  11  12
ATOM     12  C   UNL     1      -5.424 -13.571  -8.064  1.00  0.00     0.066 C 
BRANCH  12  13
ATOM     13  C   UNL     1      -5.261 -15.009  -7.598  1.00  0.00     0.140 C 
ATOM     14  O   UNL     1      -5.232 -15.914  -8.421  1.00  0.00    -0.299 OA
BRANCH  13  15
ATOM     15  C   UNL     1      -5.101 -15.355  -6.140  1.00  0.00     0.106 CG0
ATOM     16  G   UNL     1      -3.765 -16.027  -5.894  1.00  0.00     0.000 G0
ENDBRANCH  13  15
ENDBRANCH  12  13
BRANCH  12  17
ATOM     17  C   UNL     1      -5.440 -12.563  -6.874  1.00  0.00    -0.006 C 
ATOM     18  C   UNL     1      -6.339 -12.991  -5.700  1.00  0.00     0.008 C 
ATOM     19  C   UNL     1      -5.818 -11.148  -7.341  1.00  0.00     0.008 C 
ENDBRANCH  12  17
ENDBRANCH  11  12
ENDBRANCH   1  11
TORSDOF 1
ENDMDL
MODEL 5
REMARK VINA RESULT:    -2.051      1.859      3.438
REMARK INTER + INTRA:          -2.438
REMARK INTER:                  -3.124
REMARK INTRA:                   0.686
REMARK UNBOUND:                 0.691
REMARK SMILES CC1=CCC[C@H](C)C(=O)C[C@H](C(C)C)C(=O)C1
REMARK SMILES IDX 8 1 9 2 6 3 7 4 5 5 4 6 3 7 2 8 1 9 10 11 11 12 15 13 16 14
REMARK SMILES IDX 17 15 12 17 13 18 14 19
REMARK H PARENT
REMARK Flexibility Score: 70.00
ROOT
ATOM      1  C   UNL     1      -2.190 -13.542  -6.688  1.00  0.00     0.136 C 
ATOM      2  O   UNL     1      -2.333 -12.720  -5.793  1.00  0.00    -0.299 OA
ENDROOT
BRANCH   1   3
ATOM      3  C   UNL     1      -1.645 -13.052  -8.025  1.00  0.00     0.053 C 
ATOM      4  C   UNL     1      -1.558 -14.122  -9.124  1.00  0.00     0.016 C 
BRANCH   3   5
ATOM      5  C   UNL     1      -2.379 -11.775  -8.513  1.00  0.00     0.015 C 
BRANCH   5   6
ATOM      6  C   UNL     1      -3.850 -11.971  -8.924  1.00  0.00     0.028 C 
BRANCH   6   7
ATOM      7  C   UNL     1      -4.789 -11.879  -7.746  1.00  0.00    -0.028 C 
ATOM      8  C   UNL     1      -5.626 -12.858  -7.331  1.00  0.00    -0.070 CG0
ATOM      9  C   UNL     1      -6.475 -12.591  -6.113  1.00  0.00     0.039 C 
ATOM     10  G   UNL     1      -5.793 -14.177  -8.061  1.00  0.00     0.000 G0
ENDBRANCH   6   7
ENDBRANCH   5   6
ENDBRANCH   3   5
ENDBRANCH   1   3
BRANCH   1  11
ATOM     11  C   UNL     1      -2.548 -14.982  -6.380  1.00  0.00     0.087 C 
BRANCH  11  12
ATOM     12  C   UNL     1      -4.083 -15.207  -6.345  1.00  0.00     0.066 C 
BRANCH  12  13
ATOM     13  C   UNL     1      -4.678 -15.126  -7.741  1.00  0.00     0.140 C 
ATOM     14  O   UNL     1      -4.256 -15.861  -8.624  1.00  0.00    -0.299 OA
BRANCH  13  15
ATOM     15  C   UNL     1      -5.803 -14.179  -8.068  1.00  0.00     0.106 CG0
ATOM     16  G   UNL     1      -5.624 -12.864  -7.334  1.00  0.00     0.000 G0
ENDBRANCH  13  15
ENDBRANCH  12  13
BRANCH  12  17
ATOM     17  C   UNL     1      -4.464 -16.532  -5.616  1.00  0.00    -0.006 C 
ATOM     18  C   UNL     1      -4.551 -16.404  -4.085  1.00  0.00     0.008 C 
ATOM     19  C   UNL     1      -3.513 -17.678  -5.998  1.00  0.00     0.008 C 
ENDBRANCH  12  17
ENDBRANCH  11  12
ENDBRANCH   1  11
TORSDOF 1
ENDMDL
MODEL 6
REMARK VINA RESULT:    -1.923      1.432      1.885
REMARK INTER + INTRA:          -2.243
REMARK INTER:                  -4.383
REMARK INTRA:                   2.140
REMARK UNBOUND:                 0.691
REMARK SMILES CC1=CCC[C@H](C)C(=O)C[C@H](C(C)C)C(=O)C1
REMARK SMILES IDX 8 1 9 2 6 3 7 4 5 5 4 6 3 7 2 8 1 9 10 11 11 12 15 13 16 14
REMARK SMILES IDX 17 15 12 17 13 18 14 19
REMARK H PARENT
REMARK Flexibility Score: 70.00
ROOT
ATOM      1  C   UNL     1      -5.555 -12.993  -6.538  1.00  0.00     0.136 C 
ATOM      2  O   UNL     1      -6.375 -12.600  -5.720  1.00  0.00    -0.299 OA
ENDROOT
BRANCH   1   3
ATOM      3  C   UNL     1      -5.715 -12.533  -7.984  1.00  0.00     0.053 C 
ATOM      4  C   UNL     1      -7.149 -12.171  -8.397  1.00  0.00     0.016 C 
BRANCH   3   5
ATOM      5  C   UNL     1      -4.704 -11.413  -8.347  1.00  0.00     0.015 C 
BRANCH   5   6
ATOM      6  C   UNL     1      -3.453 -11.873  -9.118  1.00  0.00     0.028 C 
BRANCH   6   7
ATOM      7  C   UNL     1      -2.422 -12.501  -8.212  1.00  0.00    -0.028 C 
ATOM      8  C   UNL     1      -2.164 -13.826  -8.116  1.00  0.00    -0.070 CG0
ATOM      9  C   UNL     1      -1.076 -14.267  -7.170  1.00  0.00     0.039 C 
ATOM     10  G   UNL     1      -2.951 -14.885  -8.865  1.00  0.00     0.000 G0
ENDBRANCH   6   7
ENDBRANCH   5   6
ENDBRANCH   3   5
ENDBRANCH   1   3
BRANCH   1  11
ATOM     11  C   UNL     1      -4.436 -13.884  -6.037  1.00  0.00     0.087 C 
BRANCH  11  12
ATOM     12  C   UNL     1      -4.455 -15.280  -6.714  1.00  0.00     0.066 C 
BRANCH  12  13
ATOM     13  C   UNL     1      -4.303 -15.157  -8.222  1.00  0.00     0.140 C 
ATOM     14  O   UNL     1      -5.288 -15.251  -8.941  1.00  0.00    -0.299 OA
BRANCH  13  15
ATOM     15  C   UNL     1      -2.966 -14.890  -8.863  1.00  0.00     0.106 CG0
ATOM     16  G   UNL     1      -2.200 -13.839  -8.082  1.00  0.00     0.000 G0
ENDBRANCH  13  15
ENDBRANCH  12  13
BRANCH  12  17
ATOM     17  C   UNL     1      -3.403 -16.248  -6.091  1.00  0.00    -0.006 C 
ATOM     18  C   UNL     1      -3.785 -17.736  -6.187  1.00  0.00     0.008 C 
ATOM     19  C   UNL     1      -3.089 -15.875  -4.634  1.00  0.00     0.008 C 
ENDBRANCH  12  17
ENDBRANCH  11  12
ENDBRANCH   1  11
TORSDOF 1
ENDMDL
MODEL 7
REMARK VINA RESULT:    -1.785      1.620      4.146
REMARK INTER + INTRA:          -2.033
REMARK INTER:                  -2.538
REMARK INTRA:                   0.504
REMARK UNBOUND:                 0.691
REMARK SMILES CC1=CCC[C@H](C)C(=O)C[C@H](C(C)C)C(=O)C1
REMARK SMILES IDX 8 1 9 2 6 3 7 4 5 5 4 6 3 7 2 8 1 9 10 11 11 12 15 13 16 14
REMARK SMILES IDX 17 15 12 17 13 18 14 19
REMARK H PARENT
REMARK Flexibility Score: 70.00
ROOT
ATOM      1  C   UNL     1      -4.315 -15.419  -6.060  1.00  0.00     0.136 C 
ATOM      2  O   UNL     1      -4.416 -16.099  -5.049  1.00  0.00    -0.299 OA
ENDROOT
BRANCH   1   3
ATOM      3  C   UNL     1      -2.936 -15.288  -6.696  1.00  0.00     0.053 C 
ATOM      4  C   UNL     1      -1.816 -16.068  -5.990  1.00  0.00     0.016 C 
BRANCH   3   5
ATOM      5  C   UNL     1      -2.974 -15.578  -8.220  1.00  0.00     0.015 C 
BRANCH   5   6
ATOM      6  C   UNL     1      -2.385 -14.476  -9.120  1.00  0.00     0.028 C 
BRANCH   6   7
ATOM      7  C   UNL     1      -2.191 -13.176  -8.379  1.00  0.00    -0.028 C 
ATOM      8  C   UNL     1      -3.083 -12.159  -8.331  1.00  0.00    -0.070 CG0
ATOM      9  C   UNL     1      -2.724 -10.942  -7.515  1.00  0.00     0.039 C 
ATOM     10  G   UNL     1      -4.390 -12.159  -9.102  1.00  0.00     0.000 G0
ENDBRANCH   6   7
ENDBRANCH   5   6
ENDBRANCH   3   5
ENDBRANCH   1   3
BRANCH   1  11
ATOM     11  C   UNL     1      -5.578 -14.784  -6.606  1.00  0.00     0.087 C 
BRANCH  11  12
ATOM     12  C   UNL     1      -5.381 -13.280  -6.934  1.00  0.00     0.066 C 
BRANCH  12  13
ATOM     13  C   UNL     1      -5.412 -13.041  -8.435  1.00  0.00     0.140 C 
ATOM     14  O   UNL     1      -6.303 -13.539  -9.110  1.00  0.00    -0.299 OA
BRANCH  13  15
ATOM     15  C   UNL     1      -4.387 -12.176  -9.120  1.00  0.00     0.106 CG0
ATOM     16  G   UNL     1      -3.098 -12.142  -8.321  1.00  0.00     0.000 G0
ENDBRANCH  13  15
ENDBRANCH  12  13
BRANCH  12  17
ATOM     17  C   UNL     1      -6.396 -12.376  -6.170  1.00  0.00    -0.006 C 
ATOM     18  C   UNL     1      -6.181 -10.868  -6.390  1.00  0.00     0.008 C 
ATOM     19  C   UNL     1      -6.412 -12.694  -4.666  1.00  0.00     0.008 C 
ENDBRANCH  12  17
ENDBRANCH  11  12
ENDBRANCH   1  11
TORSDOF 1
ENDMDL
MODEL 8
REMARK VINA RESULT:    -1.746      2.203      3.424
REMARK INTER + INTRA:          -1.973
REMARK INTER:                  -2.496
REMARK INTRA:                   0.522
REMARK UNBOUND:                 0.691
REMARK SMILES CC1=CCC[C@H](C)C(=O)C[C@H](C(C)C)C(=O)C1
REMARK SMILES IDX 8 1 9 2 6 3 7 4 5 5 4 6 3 7 2 8 1 9 10 11 11 12 15 13 16 14
REMARK SMILES IDX 17 15 12 17 13 18 14 19
REMARK H PARENT
REMARK Flexibility Score: 70.00
ROOT
ATOM      1  C   UNL     1      -2.401 -13.081  -8.026  1.00  0.00     0.136 C 
ATOM      2  O   UNL     1      -1.877 -12.966  -9.125  1.00  0.00    -0.299 OA
ENDROOT
BRANCH   1   3
ATOM      3  C   UNL     1      -3.321 -11.960  -7.554  1.00  0.00     0.053 C 
ATOM      4  C   UNL     1      -2.604 -10.724  -6.988  1.00  0.00     0.016 C 
BRANCH   3   5
ATOM      5  C   UNL     1      -4.368 -11.581  -8.635  1.00  0.00     0.015 C 
BRANCH   5   6
ATOM      6  C   UNL     1      -5.696 -12.358  -8.573  1.00  0.00     0.028 C 
BRANCH   6   7
ATOM      7  C   UNL     1      -5.564 -13.757  -9.125  1.00  0.00    -0.028 C 
ATOM      8  C   UNL     1      -5.533 -14.893  -8.388  1.00  0.00    -0.070 CG0
ATOM      9  C   UNL     1      -5.421 -16.206  -9.120  1.00  0.00     0.039 C 
ATOM     10  G   UNL     1      -5.546 -14.902  -6.872  1.00  0.00     0.000 G0
ENDBRANCH   6   7
ENDBRANCH   5   6
ENDBRANCH   3   5
ENDBRANCH   1   3
BRANCH   1  11
ATOM     11  C   UNL     1      -2.109 -14.343  -7.239  1.00  0.00     0.087 C 
BRANCH  11  12
ATOM     12  C   UNL     1      -3.051 -14.499  -6.016  1.00  0.00     0.066 C 
BRANCH  12  13
ATOM     13  C   UNL     1      -4.224 -15.409  -6.344  1.00  0.00     0.140 C 
ATOM     14  O   UNL     1      -4.127 -16.614  -6.155  1.00  0.00    -0.299 OA
BRANCH  13  15
ATOM     15  C   UNL     1      -5.525 -14.864  -6.872  1.00  0.00     0.106 CG0
ATOM     16  G   UNL     1      -5.551 -14.919  -8.388  1.00  0.00     0.000 G0
ENDBRANCH  13  15
ENDBRANCH  12  13
BRANCH  12  17
ATOM     17  C   UNL     1      -2.284 -14.961  -4.739  1.00  0.00    -0.006 C 
ATOM     18  C   UNL     1      -1.530 -16.292  -4.908  1.00  0.00     0.008 C 
ATOM     19  C   UNL     1      -3.214 -15.032  -3.518  1.00  0.00     0.008 C 
ENDBRANCH  12  17
ENDBRANCH  11  12
ENDBRANCH   1  11
TORSDOF 1
ENDMDL
MODEL 9
REMARK VINA RESULT:    -0.653      1.919      4.677
REMARK INTER + INTRA:          -0.305
REMARK INTER:                  -4.717
REMARK INTRA:                   4.412
REMARK UNBOUND:                 0.691
REMARK SMILES CC1=CCC[C@H](C)C(=O)C[C@H](C(C)C)C(=O)C1
REMARK SMILES IDX 8 1 9 2 6 3 7 4 5 5 4 6 3 7 2 8 1 9 10 11 11 12 15 13 16 14
REMARK SMILES IDX 17 15 12 17 13 18 14 19
REMARK H PARENT
REMARK Flexibility Score: 70.00
ROOT
ATOM      1  C   UNL     1      -2.335 -14.711  -6.591  1.00  0.00     0.136 C 
ATOM      2  O   UNL     1      -2.001 -14.084  -5.596  1.00  0.00    -0.299 OA
ENDROOT
BRANCH   1   3
ATOM      3  C   UNL     1      -3.309 -15.870  -6.411  1.00  0.00     0.053 C 
ATOM      4  C   UNL     1      -2.676 -17.181  -5.918  1.00  0.00     0.016 C 
BRANCH   3   5
ATOM      5  C   UNL     1      -4.539 -15.462  -5.558  1.00  0.00     0.015 C 
BRANCH   5   6
ATOM      6  C   UNL     1      -5.801 -15.079  -6.353  1.00  0.00     0.028 C 
BRANCH   6   7
ATOM      7  C   UNL     1      -5.915 -13.589  -6.560  1.00  0.00    -0.028 C 
ATOM      8  C   UNL     1      -5.801 -12.949  -7.748  1.00  0.00    -0.070 CG0
ATOM      9  C   UNL     1      -5.971 -11.451  -7.762  1.00  0.00     0.039 C 
ATOM     10  G   UNL     1      -5.454 -13.655  -9.044  1.00  0.00     0.000 G0
ENDBRANCH   6   7
ENDBRANCH   5   6
ENDBRANCH   3   5
ENDBRANCH   1   3
BRANCH   1  11
ATOM     11  C   UNL     1      -1.769 -14.262  -7.924  1.00  0.00     0.087 C 
BRANCH  11  12
ATOM     12  C   UNL     1      -2.814 -13.487  -8.770  1.00  0.00     0.066 C 
BRANCH  12  13
ATOM     13  C   UNL     1      -4.079 -14.309  -8.961  1.00  0.00     0.140 C 
ATOM     14  O   UNL     1      -4.007 -15.530  -9.006  1.00  0.00    -0.299 OA
BRANCH  13  15
ATOM     15  C   UNL     1      -5.435 -13.662  -9.069  1.00  0.00     0.106 CG0
ATOM     16  G   UNL     1      -5.800 -12.968  -7.771  1.00  0.00     0.000 G0
ENDBRANCH  13  15
ENDBRANCH  12  13
BRANCH  12  17
ATOM     17  C   UNL     1      -3.112 -12.073  -8.182  1.00  0.00    -0.006 C 
ATOM     18  C   UNL     1      -2.690 -10.912  -9.099  1.00  0.00     0.008 C 
ATOM     19  C   UNL     1      -2.488 -11.901  -6.789  1.00  0.00     0.008 C 
ENDBRANCH  12  17
ENDBRANCH  11  12
ENDBRANCH   1  11
TORSDOF 1
ENDMDL
