MODEL 1
REMARK VINA RESULT:    -3.783      0.000      0.000
REMARK INTER + INTRA:          -4.871
REMARK INTER:                  -4.668
REMARK INTRA:                  -0.204
REMARK UNBOUND:                -0.204
REMARK SMILES CCCCC=CC(C)=O
REMARK SMILES IDX 4 1 3 2 2 3 1 4 5 5 6 6 7 7 9 8 8 9
REMARK H PARENT
REMARK Flexibility Score: inf
ROOT
ATOM      1  C   UNL     1     -17.623  -3.098   9.265  1.00  0.00     0.027 C 
ENDROOT
BRANCH   1   2
ATOM      2  C   UNL     1     -18.872  -3.902   9.659  1.00  0.00     0.004 C 
BRANCH   2   3
ATOM      3  C   UNL     1     -19.263  -4.941   8.598  1.00  0.00    -0.003 C 
ATOM      4  C   UNL     1     -18.380  -4.874   7.353  1.00  0.00     0.004 C 
ENDBRANCH   2   3
ENDBRANCH   1   2
BRANCH   1   5
ATOM      5  C   UNL     1     -17.371  -1.979  10.233  1.00  0.00    -0.023 C 
ATOM      6  C   UNL     1     -18.361  -1.187  10.659  1.00  0.00     0.042 C 
BRANCH   6   7
ATOM      7  C   UNL     1     -18.132  -0.074  11.599  1.00  0.00     0.152 C 
ATOM      8  O   UNL     1     -18.898   0.928  11.611  1.00  0.00    -0.295 OA
ATOM      9  C   UNL     1     -16.977  -0.132  12.547  1.00  0.00     0.093 C 
ENDBRANCH   6   7
ENDBRANCH   1   5
TORSDOF 4
ENDMDL
MODEL 2
REMARK VINA RESULT:    -3.741      2.509      5.266
REMARK INTER + INTRA:          -4.819
REMARK INTER:                  -4.618
REMARK INTRA:                  -0.201
REMARK UNBOUND:                -0.204
REMARK SMILES CCCCC=CC(C)=O
REMARK SMILES IDX 4 1 3 2 2 3 1 4 5 5 6 6 7 7 9 8 8 9
REMARK H PARENT
REMARK Flexibility Score: inf
ROOT
ATOM      1  C   UNL     1     -17.317  -2.039  10.258  1.00  0.00     0.027 C 
ENDROOT
BRANCH   1   2
ATOM      2  C   UNL     1     -18.472  -1.044  10.457  1.00  0.00     0.004 C 
BRANCH   2   3
ATOM      3  C   UNL     1     -18.222  -0.078  11.625  1.00  0.00    -0.003 C 
ATOM      4  C   UNL     1     -16.961  -0.422  12.416  1.00  0.00     0.004 C 
ENDBRANCH   2   3
ENDBRANCH   1   2
BRANCH   1   5
ATOM      5  C   UNL     1     -17.706  -3.136   9.310  1.00  0.00    -0.023 C 
ATOM      6  C   UNL     1     -18.698  -3.987   9.595  1.00  0.00     0.042 C 
BRANCH   6   7
ATOM      7  C   UNL     1     -19.086  -5.079   8.683  1.00  0.00     0.152 C 
ATOM      8  O   UNL     1     -19.692  -6.097   9.117  1.00  0.00    -0.295 OA
ATOM      9  C   UNL     1     -18.755  -4.982   7.229  1.00  0.00     0.093 C 
ENDBRANCH   6   7
ENDBRANCH   1   5
TORSDOF 4
ENDMDL
MODEL 3
REMARK VINA RESULT:    -3.645     17.479     18.053
REMARK INTER + INTRA:          -4.701
REMARK INTER:                  -4.523
REMARK INTRA:                  -0.179
REMARK UNBOUND:                -0.204
REMARK SMILES CCCCC=CC(C)=O
REMARK SMILES IDX 4 1 3 2 2 3 1 4 5 5 6 6 7 7 9 8 8 9
REMARK H PARENT
REMARK Flexibility Score: inf
ROOT
ATOM      1  C   UNL     1      -4.810 -11.230  18.685  1.00  0.00     0.027 C 
ENDROOT
BRANCH   1   2
ATOM      2  C   UNL     1      -5.705 -12.477  18.764  1.00  0.00     0.004 C 
BRANCH   2   3
ATOM      3  C   UNL     1      -5.054 -13.620  19.558  1.00  0.00    -0.003 C 
ATOM      4  C   UNL     1      -4.841 -13.270  21.030  1.00  0.00     0.004 C 
ENDBRANCH   2   3
ENDBRANCH   1   2
BRANCH   1   5
ATOM      5  C   UNL     1      -4.992 -10.515  17.378  1.00  0.00    -0.023 C 
ATOM      6  C   UNL     1      -4.856 -11.151  16.209  1.00  0.00     0.042 C 
BRANCH   6   7
ATOM      7  C   UNL     1      -5.017 -10.465  14.914  1.00  0.00     0.152 C 
ATOM      8  O   UNL     1      -4.831 -11.081  13.829  1.00  0.00    -0.295 OA
ATOM      9  C   UNL     1      -5.402  -9.020  14.885  1.00  0.00     0.093 C 
ENDBRANCH   6   7
ENDBRANCH   1   5
TORSDOF 4
ENDMDL
MODEL 4
REMARK VINA RESULT:    -3.589     17.286     17.842
REMARK INTER + INTRA:          -4.632
REMARK INTER:                  -4.420
REMARK INTRA:                  -0.212
REMARK UNBOUND:                -0.204
REMARK SMILES CCCCC=CC(C)=O
REMARK SMILES IDX 4 1 3 2 2 3 1 4 5 5 6 6 7 7 9 8 8 9
REMARK H PARENT
REMARK Flexibility Score: inf
ROOT
ATOM      1  C   UNL     1      -4.162  -9.526  17.060  1.00  0.00     0.027 C 
ENDROOT
BRANCH   1   2
ATOM      2  C   UNL     1      -3.906 -10.154  15.681  1.00  0.00     0.004 C 
BRANCH   2   3
ATOM      3  C   UNL     1      -5.142 -10.101  14.771  1.00  0.00    -0.003 C 
ATOM      4  C   UNL     1      -5.742  -8.699  14.671  1.00  0.00     0.004 C 
ENDBRANCH   2   3
ENDBRANCH   1   2
BRANCH   1   5
ATOM      5  C   UNL     1      -5.004 -10.427  17.916  1.00  0.00    -0.023 C 
ATOM      6  C   UNL     1      -4.540 -11.599  18.365  1.00  0.00     0.042 C 
BRANCH   6   7
ATOM      7  C   UNL     1      -5.355 -12.505  19.196  1.00  0.00     0.152 C 
ATOM      8  O   UNL     1      -6.539 -12.791  18.868  1.00  0.00    -0.295 OA
ATOM      9  C   UNL     1      -4.774 -13.087  20.444  1.00  0.00     0.093 C 
ENDBRANCH   6   7
ENDBRANCH   1   5
TORSDOF 4
ENDMDL
MODEL 5
REMARK VINA RESULT:    -3.408     17.405     18.108
REMARK INTER + INTRA:          -4.409
REMARK INTER:                  -4.170
REMARK INTRA:                  -0.239
REMARK UNBOUND:                -0.204
REMARK SMILES CCCCC=CC(C)=O
REMARK SMILES IDX 4 1 3 2 2 3 1 4 5 5 6 6 7 7 9 8 8 9
REMARK H PARENT
REMARK Flexibility Score: inf
ROOT
ATOM      1  C   UNL     1      -4.983 -10.865  17.748  1.00  0.00     0.027 C 
ENDROOT
BRANCH   1   2
ATOM      2  C   UNL     1      -4.848  -9.625  16.850  1.00  0.00     0.004 C 
BRANCH   2   3
ATOM      3  C   UNL     1      -5.081  -9.945  15.366  1.00  0.00    -0.003 C 
ATOM      4  C   UNL     1      -5.746  -8.795  14.612  1.00  0.00     0.004 C 
ENDBRANCH   2   3
ENDBRANCH   1   2
BRANCH   1   5
ATOM      5  C   UNL     1      -4.799 -12.128  16.958  1.00  0.00    -0.023 C 
ATOM      6  C   UNL     1      -5.583 -13.195  17.153  1.00  0.00     0.042 C 
BRANCH   6   7
ATOM      7  C   UNL     1      -5.411 -14.449  16.398  1.00  0.00     0.152 C 
ATOM      8  O   UNL     1      -6.099 -15.469  16.675  1.00  0.00    -0.295 OA
ATOM      9  C   UNL     1      -4.406 -14.515  15.293  1.00  0.00     0.093 C 
ENDBRANCH   6   7
ENDBRANCH   1   5
TORSDOF 4
ENDMDL
MODEL 6
REMARK VINA RESULT:    -3.381      2.571      4.893
REMARK INTER + INTRA:          -4.375
REMARK INTER:                  -4.090
REMARK INTRA:                  -0.285
REMARK UNBOUND:                -0.204
REMARK SMILES CCCCC=CC(C)=O
REMARK SMILES IDX 4 1 3 2 2 3 1 4 5 5 6 6 7 7 9 8 8 9
REMARK H PARENT
REMARK Flexibility Score: inf
ROOT
ATOM      1  C   UNL     1     -16.944  -1.599  11.005  1.00  0.00     0.027 C 
ENDROOT
BRANCH   1   2
ATOM      2  C   UNL     1     -17.780  -0.510  11.697  1.00  0.00     0.004 C 
BRANCH   2   3
ATOM      3  C   UNL     1     -18.745   0.194  10.731  1.00  0.00    -0.003 C 
ATOM      4  C   UNL     1     -20.191   0.178  11.225  1.00  0.00     0.004 C 
ENDBRANCH   2   3
ENDBRANCH   1   2
BRANCH   1   5
ATOM      5  C   UNL     1     -17.642  -2.122   9.783  1.00  0.00    -0.023 C 
ATOM      6  C   UNL     1     -18.119  -3.371   9.731  1.00  0.00     0.042 C 
BRANCH   6   7
ATOM      7  C   UNL     1     -18.796  -3.909   8.537  1.00  0.00     0.152 C 
ATOM      8  O   UNL     1     -18.221  -4.751   7.794  1.00  0.00    -0.295 OA
ATOM      9  C   UNL     1     -20.177  -3.448   8.199  1.00  0.00     0.093 C 
ENDBRANCH   6   7
ENDBRANCH   1   5
TORSDOF 4
ENDMDL
MODEL 7
REMARK VINA RESULT:    -3.338      1.486      2.205
REMARK INTER + INTRA:          -4.322
REMARK INTER:                  -4.039
REMARK INTRA:                  -0.283
REMARK UNBOUND:                -0.204
REMARK SMILES CCCCC=CC(C)=O
REMARK SMILES IDX 4 1 3 2 2 3 1 4 5 5 6 6 7 7 9 8 8 9
REMARK H PARENT
REMARK Flexibility Score: inf
ROOT
ATOM      1  C   UNL     1     -17.135  -1.841  10.883  1.00  0.00     0.027 C 
ENDROOT
BRANCH   1   2
ATOM      2  C   UNL     1     -17.617  -2.462   9.563  1.00  0.00     0.004 C 
BRANCH   2   3
ATOM      3  C   UNL     1     -18.390  -3.773   9.777  1.00  0.00    -0.003 C 
ATOM      4  C   UNL     1     -19.868  -3.654   9.410  1.00  0.00     0.004 C 
ENDBRANCH   2   3
ENDBRANCH   1   2
BRANCH   1   5
ATOM      5  C   UNL     1     -17.808  -0.524  11.139  1.00  0.00    -0.023 C 
ATOM      6  C   UNL     1     -19.122  -0.445  11.377  1.00  0.00     0.042 C 
BRANCH   6   7
ATOM      7  C   UNL     1     -19.806   0.839  11.618  1.00  0.00     0.152 C 
ATOM      8  O   UNL     1     -20.969   0.870  12.104  1.00  0.00    -0.295 OA
ATOM      9  C   UNL     1     -19.113   2.120  11.277  1.00  0.00     0.093 C 
ENDBRANCH   6   7
ENDBRANCH   1   5
TORSDOF 4
ENDMDL
MODEL 8
REMARK VINA RESULT:    -3.335      2.793      4.927
REMARK INTER + INTRA:          -4.318
REMARK INTER:                  -4.146
REMARK INTRA:                  -0.172
REMARK UNBOUND:                -0.204
REMARK SMILES CCCCC=CC(C)=O
REMARK SMILES IDX 4 1 3 2 2 3 1 4 5 5 6 6 7 7 9 8 8 9
REMARK H PARENT
REMARK Flexibility Score: inf
ROOT
ATOM      1  C   UNL     1     -17.491  -2.763   9.513  1.00  0.00     0.027 C 
ENDROOT
BRANCH   1   2
ATOM      2  C   UNL     1     -17.729  -1.505  10.362  1.00  0.00     0.004 C 
BRANCH   2   3
ATOM      3  C   UNL     1     -16.682  -1.337  11.473  1.00  0.00    -0.003 C 
ATOM      4  C   UNL     1     -17.051  -0.240  12.471  1.00  0.00     0.004 C 
ENDBRANCH   2   3
ENDBRANCH   1   2
BRANCH   1   5
ATOM      5  C   UNL     1     -18.729  -3.609   9.438  1.00  0.00    -0.023 C 
ATOM      6  C   UNL     1     -19.927  -3.125   9.784  1.00  0.00     0.042 C 
BRANCH   6   7
ATOM      7  C   UNL     1     -21.153  -3.943   9.731  1.00  0.00     0.152 C 
ATOM      8  O   UNL     1     -21.094  -5.181   9.496  1.00  0.00    -0.295 OA
ATOM      9  C   UNL     1     -22.483  -3.297   9.954  1.00  0.00     0.093 C 
ENDBRANCH   6   7
ENDBRANCH   1   5
TORSDOF 4
ENDMDL
MODEL 9
REMARK VINA RESULT:    -3.266     17.249     17.725
REMARK INTER + INTRA:          -4.234
REMARK INTER:                  -4.005
REMARK INTRA:                  -0.228
REMARK UNBOUND:                -0.204
REMARK SMILES CCCCC=CC(C)=O
REMARK SMILES IDX 4 1 3 2 2 3 1 4 5 5 6 6 7 7 9 8 8 9
REMARK H PARENT
REMARK Flexibility Score: inf
ROOT
ATOM      1  C   UNL     1      -4.693  -9.137  16.087  1.00  0.00     0.027 C 
ENDROOT
BRANCH   1   2
ATOM      2  C   UNL     1      -4.904  -9.698  14.672  1.00  0.00     0.004 C 
BRANCH   2   3
ATOM      3  C   UNL     1      -3.957 -10.866  14.355  1.00  0.00    -0.003 C 
ATOM      4  C   UNL     1      -4.698 -12.110  13.865  1.00  0.00     0.004 C 
ENDBRANCH   2   3
ENDBRANCH   1   2
BRANCH   1   5
ATOM      5  C   UNL     1      -4.359 -10.231  17.059  1.00  0.00    -0.023 C 
ATOM      6  C   UNL     1      -5.259 -10.680  17.942  1.00  0.00     0.042 C 
BRANCH   6   7
ATOM      7  C   UNL     1      -4.947 -11.744  18.914  1.00  0.00     0.152 C 
ATOM      8  O   UNL     1      -3.875 -11.718  19.578  1.00  0.00    -0.295 OA
ATOM      9  C   UNL     1      -5.911 -12.870  19.112  1.00  0.00     0.093 C 
ENDBRANCH   6   7
ENDBRANCH   1   5
TORSDOF 4
ENDMDL
