MODEL 1
REMARK VINA RESULT:    -3.746      0.000      0.000
REMARK INTER + INTRA:          -5.110
REMARK INTER:                  -4.841
REMARK INTRA:                  -0.269
REMARK UNBOUND:                -0.269
REMARK SMILES CCOC(=O)C=Cc1ccc(O)c(O)c1
REMARK SMILES IDX 6 1 7 2 4 3 5 4 3 5 2 6 1 7 8 8 15 9 9 10 13 11 10 12 11 13
REMARK SMILES IDX 14 14 12 16
REMARK H PARENT 14 15 12 17
REMARK Flexibility Score: inf
ROOT
ATOM      1  C   UNL     1       8.477 -21.164  14.026  1.00  0.00     0.094 C 
ATOM      2  C   UNL     1       7.907 -21.719  12.947  1.00  0.00     0.016 C 
ENDROOT
BRANCH   1   3
ATOM      3  C   UNL     1       8.331 -21.736  15.375  1.00  0.00     0.330 C 
ATOM      4  O   UNL     1       8.784 -22.884  15.641  1.00  0.00    -0.247 OA
BRANCH   3   5
ATOM      5  O   UNL     1       7.671 -20.989  16.356  1.00  0.00    -0.463 OA
BRANCH   5   6
ATOM      6  C   UNL     1       7.043 -21.570  17.498  1.00  0.00     0.230 C 
ATOM      7  C   UNL     1       5.613 -21.988  17.173  1.00  0.00     0.049 C 
ENDBRANCH   5   6
ENDBRANCH   3   5
ENDBRANCH   1   3
BRANCH   2   8
ATOM      8  C   UNL     1       8.044 -21.177  11.572  1.00  0.00    -0.021 A 
ATOM      9  C   UNL     1       7.177 -20.149  11.166  1.00  0.00     0.058 A 
ATOM     10  C   UNL     1       9.030 -21.630  10.674  1.00  0.00     0.012 A 
ATOM     11  C   UNL     1       7.272 -19.596   9.880  1.00  0.00     0.157 A 
ATOM     12  C   UNL     1       9.124 -21.080   9.392  1.00  0.00     0.051 A 
ATOM     13  C   UNL     1       8.249 -20.068   8.989  1.00  0.00     0.157 A 
BRANCH  11  14
ATOM     14  O   UNL     1       6.399 -18.584   9.486  1.00  0.00    -0.504 OA
ATOM     15  H   UNL     1       5.476 -18.489   9.895  1.00  0.00     0.293 HD
ENDBRANCH  11  14
BRANCH  13  16
ATOM     16  O   UNL     1       8.369 -19.541   7.703  1.00  0.00    -0.504 OA
ATOM     17  H   UNL     1       7.879 -18.701   7.419  1.00  0.00     0.293 HD
ENDBRANCH  13  16
ENDBRANCH   2   8
TORSDOF 6
ENDMDL
MODEL 2
REMARK VINA RESULT:    -3.478     15.973     19.011
REMARK INTER + INTRA:          -4.764
REMARK INTER:                  -4.393
REMARK INTRA:                  -0.370
REMARK UNBOUND:                -0.269
REMARK SMILES CCOC(=O)C=Cc1ccc(O)c(O)c1
REMARK SMILES IDX 6 1 7 2 4 3 5 4 3 5 2 6 1 7 8 8 15 9 9 10 13 11 10 12 11 13
REMARK SMILES IDX 14 14 12 16
REMARK H PARENT 14 15 12 17
REMARK Flexibility Score: inf
ROOT
ATOM      1  C   UNL     1      -7.566 -22.041  17.680  1.00  0.00     0.094 C 
ATOM      2  C   UNL     1      -8.767 -21.883  18.254  1.00  0.00     0.016 C 
ENDROOT
BRANCH   1   3
ATOM      3  C   UNL     1      -7.393 -22.095  16.219  1.00  0.00     0.330 C 
ATOM      4  O   UNL     1      -6.916 -23.123  15.664  1.00  0.00    -0.247 OA
BRANCH   3   5
ATOM      5  O   UNL     1      -7.758 -20.980  15.456  1.00  0.00    -0.463 OA
BRANCH   5   6
ATOM      6  C   UNL     1      -8.902 -20.951  14.604  1.00  0.00     0.230 C 
ATOM      7  C   UNL     1     -10.063 -20.234  15.285  1.00  0.00     0.049 C 
ENDBRANCH   5   6
ENDBRANCH   3   5
ENDBRANCH   1   3
BRANCH   2   8
ATOM      8  C   UNL     1      -8.977 -21.811  19.721  1.00  0.00    -0.021 A 
ATOM      9  C   UNL     1      -9.814 -20.805  20.232  1.00  0.00     0.058 A 
ATOM     10  C   UNL     1      -8.397 -22.733  20.615  1.00  0.00     0.012 A 
ATOM     11  C   UNL     1     -10.052 -20.702  21.611  1.00  0.00     0.157 A 
ATOM     12  C   UNL     1      -8.633 -22.629  21.989  1.00  0.00     0.051 A 
ATOM     13  C   UNL     1      -9.455 -21.617  22.493  1.00  0.00     0.157 A 
BRANCH  11  14
ATOM     14  O   UNL     1     -10.876 -19.693  22.106  1.00  0.00    -0.504 OA
ATOM     15  H   UNL     1     -11.604 -19.274  21.536  1.00  0.00     0.293 HD
ENDBRANCH  11  14
BRANCH  13  16
ATOM     16  O   UNL     1      -9.670 -21.540  23.868  1.00  0.00    -0.504 OA
ATOM     17  H   UNL     1      -9.922 -20.672  24.325  1.00  0.00     0.293 HD
ENDBRANCH  13  16
ENDBRANCH   2   8
TORSDOF 6
ENDMDL
MODEL 3
REMARK VINA RESULT:    -3.369      1.897      2.346
REMARK INTER + INTRA:          -4.623
REMARK INTER:                  -4.450
REMARK INTRA:                  -0.172
REMARK UNBOUND:                -0.269
REMARK SMILES CCOC(=O)C=Cc1ccc(O)c(O)c1
REMARK SMILES IDX 6 1 7 2 4 3 5 4 3 5 2 6 1 7 8 8 15 9 9 10 13 11 10 12 11 13
REMARK SMILES IDX 14 14 12 16
REMARK H PARENT 14 15 12 17
REMARK Flexibility Score: inf
ROOT
ATOM      1  C   UNL     1       6.366 -22.532  13.257  1.00  0.00     0.094 C 
ATOM      2  C   UNL     1       7.624 -22.237  12.902  1.00  0.00     0.016 C 
ENDROOT
BRANCH   1   3
ATOM      3  C   UNL     1       6.010 -22.936  14.628  1.00  0.00     0.330 C 
ATOM      4  O   UNL     1       4.805 -23.125  14.952  1.00  0.00    -0.247 OA
BRANCH   3   5
ATOM      5  O   UNL     1       7.032 -23.096  15.569  1.00  0.00    -0.463 OA
BRANCH   5   6
ATOM      6  C   UNL     1       7.516 -22.035  16.392  1.00  0.00     0.230 C 
ATOM      7  C   UNL     1       6.508 -21.698  17.484  1.00  0.00     0.049 C 
ENDBRANCH   5   6
ENDBRANCH   3   5
ENDBRANCH   1   3
BRANCH   2   8
ATOM      8  C   UNL     1       8.017 -21.814  11.534  1.00  0.00    -0.021 A 
ATOM      9  C   UNL     1       7.599 -22.595  10.443  1.00  0.00     0.058 A 
ATOM     10  C   UNL     1       8.760 -20.643  11.287  1.00  0.00     0.012 A 
ATOM     11  C   UNL     1       7.936 -22.232   9.130  1.00  0.00     0.157 A 
ATOM     12  C   UNL     1       9.096 -20.282   9.980  1.00  0.00     0.051 A 
ATOM     13  C   UNL     1       8.691 -21.071   8.900  1.00  0.00     0.157 A 
BRANCH  11  14
ATOM     14  O   UNL     1       7.524 -23.021   8.058  1.00  0.00    -0.504 OA
ATOM     15  H   UNL     1       6.544 -23.127   7.822  1.00  0.00     0.293 HD
ENDBRANCH  11  14
BRANCH  13  16
ATOM     16  O   UNL     1       9.044 -20.684   7.607  1.00  0.00    -0.504 OA
ATOM     17  H   UNL     1       8.757 -21.211   6.791  1.00  0.00     0.293 HD
ENDBRANCH  13  16
ENDBRANCH   2   8
TORSDOF 6
ENDMDL
MODEL 4
REMARK VINA RESULT:    -3.353     18.003     20.362
REMARK INTER + INTRA:          -4.602
REMARK INTER:                  -4.300
REMARK INTRA:                  -0.302
REMARK UNBOUND:                -0.269
REMARK SMILES CCOC(=O)C=Cc1ccc(O)c(O)c1
REMARK SMILES IDX 6 1 7 2 4 3 5 4 3 5 2 6 1 7 8 8 15 9 9 10 13 11 10 12 11 13
REMARK SMILES IDX 14 14 12 16
REMARK H PARENT 14 15 12 17
REMARK Flexibility Score: inf
ROOT
ATOM      1  C   UNL     1     -10.955 -20.450  18.391  1.00  0.00     0.094 C 
ATOM      2  C   UNL     1      -9.773 -20.604  19.006  1.00  0.00     0.016 C 
ENDROOT
BRANCH   1   3
ATOM      3  C   UNL     1     -11.069 -19.904  17.029  1.00  0.00     0.330 C 
ATOM      4  O   UNL     1     -11.125 -18.657  16.837  1.00  0.00    -0.247 OA
BRANCH   3   5
ATOM      5  O   UNL     1     -11.124 -20.792  15.950  1.00  0.00    -0.463 OA
BRANCH   5   6
ATOM      6  C   UNL     1     -10.593 -20.495  14.659  1.00  0.00     0.230 C 
ATOM      7  C   UNL     1      -9.069 -20.558  14.677  1.00  0.00     0.049 C 
ENDBRANCH   5   6
ENDBRANCH   3   5
ENDBRANCH   1   3
BRANCH   2   8
ATOM      8  C   UNL     1      -9.620 -21.163  20.371  1.00  0.00    -0.021 A 
ATOM      9  C   UNL     1     -10.136 -20.436  21.458  1.00  0.00     0.058 A 
ATOM     10  C   UNL     1      -9.010 -22.409  20.616  1.00  0.00     0.012 A 
ATOM     11  C   UNL     1     -10.026 -20.927  22.767  1.00  0.00     0.157 A 
ATOM     12  C   UNL     1      -8.900 -22.898  21.921  1.00  0.00     0.051 A 
ATOM     13  C   UNL     1      -9.401 -22.163  22.998  1.00  0.00     0.157 A 
BRANCH  11  14
ATOM     14  O   UNL     1     -10.533 -20.191  23.836  1.00  0.00    -0.504 OA
ATOM     15  H   UNL     1      -9.923 -19.758  24.521  1.00  0.00     0.293 HD
ENDBRANCH  11  14
BRANCH  13  16
ATOM     16  O   UNL     1      -9.274 -22.678  24.288  1.00  0.00    -0.504 OA
ATOM     17  H   UNL     1      -8.386 -22.692  24.776  1.00  0.00     0.293 HD
ENDBRANCH  13  16
ENDBRANCH   2   8
TORSDOF 6
ENDMDL
MODEL 5
REMARK VINA RESULT:    -3.332     16.769     18.469
REMARK INTER + INTRA:          -4.575
REMARK INTER:                  -4.216
REMARK INTRA:                  -0.359
REMARK UNBOUND:                -0.269
REMARK SMILES CCOC(=O)C=Cc1ccc(O)c(O)c1
REMARK SMILES IDX 6 1 7 2 4 3 5 4 3 5 2 6 1 7 8 8 15 9 9 10 13 11 10 12 11 13
REMARK SMILES IDX 14 14 12 16
REMARK H PARENT 14 15 12 17
REMARK Flexibility Score: inf
ROOT
ATOM      1  C   UNL     1      -9.689 -20.178  20.408  1.00  0.00     0.094 C 
ATOM      2  C   UNL     1     -10.152 -21.050  19.501  1.00  0.00     0.016 C 
ENDROOT
BRANCH   1   3
ATOM      3  C   UNL     1      -9.975 -20.313  21.846  1.00  0.00     0.330 C 
ATOM      4  O   UNL     1     -11.125 -20.062  22.301  1.00  0.00    -0.247 OA
BRANCH   3   5
ATOM      5  O   UNL     1      -8.944 -20.714  22.703  1.00  0.00    -0.463 OA
BRANCH   5   6
ATOM      6  C   UNL     1      -8.774 -22.057  23.154  1.00  0.00     0.230 C 
ATOM      7  C   UNL     1      -8.041 -22.889  22.108  1.00  0.00     0.049 C 
ENDBRANCH   5   6
ENDBRANCH   3   5
ENDBRANCH   1   3
BRANCH   2   8
ATOM      8  C   UNL     1      -9.872 -20.953  18.047  1.00  0.00    -0.021 A 
ATOM      9  C   UNL     1      -8.756 -21.632  17.529  1.00  0.00     0.058 A 
ATOM     10  C   UNL     1     -10.702 -20.236  17.163  1.00  0.00     0.012 A 
ATOM     11  C   UNL     1      -8.456 -21.579  16.160  1.00  0.00     0.157 A 
ATOM     12  C   UNL     1     -10.402 -20.183  15.798  1.00  0.00     0.051 A 
ATOM     13  C   UNL     1      -9.282 -20.848  15.292  1.00  0.00     0.157 A 
BRANCH  11  14
ATOM     14  O   UNL     1      -7.340 -22.249  15.662  1.00  0.00    -0.504 OA
ATOM     15  H   UNL     1      -6.931 -22.006  14.766  1.00  0.00     0.293 HD
ENDBRANCH  11  14
BRANCH  13  16
ATOM     16  O   UNL     1      -9.010 -20.774  13.927  1.00  0.00    -0.504 OA
ATOM     17  H   UNL     1      -9.724 -20.936  13.226  1.00  0.00     0.293 HD
ENDBRANCH  13  16
ENDBRANCH   2   8
TORSDOF 6
ENDMDL
MODEL 6
REMARK VINA RESULT:    -3.317     16.030     19.610
REMARK INTER + INTRA:          -4.556
REMARK INTER:                  -4.284
REMARK INTRA:                  -0.272
REMARK UNBOUND:                -0.269
REMARK SMILES CCOC(=O)C=Cc1ccc(O)c(O)c1
REMARK SMILES IDX 6 1 7 2 4 3 5 4 3 5 2 6 1 7 8 8 15 9 9 10 13 11 10 12 11 13
REMARK SMILES IDX 14 14 12 16
REMARK H PARENT 14 15 12 17
REMARK Flexibility Score: inf
ROOT
ATOM      1  C   UNL     1      -8.991 -21.518  17.850  1.00  0.00     0.094 C 
ATOM      2  C   UNL     1     -10.102 -21.418  18.594  1.00  0.00     0.016 C 
ENDROOT
BRANCH   1   3
ATOM      3  C   UNL     1      -8.989 -21.260  16.401  1.00  0.00     0.330 C 
ATOM      4  O   UNL     1      -9.974 -20.700  15.844  1.00  0.00    -0.247 OA
BRANCH   3   5
ATOM      5  O   UNL     1      -7.878 -21.657  15.648  1.00  0.00    -0.463 OA
BRANCH   5   6
ATOM      6  C   UNL     1      -6.998 -22.708  16.041  1.00  0.00     0.230 C 
ATOM      7  C   UNL     1      -5.657 -22.145  16.500  1.00  0.00     0.049 C 
ENDBRANCH   5   6
ENDBRANCH   3   5
ENDBRANCH   1   3
BRANCH   2   8
ATOM      8  C   UNL     1     -10.139 -21.657  20.058  1.00  0.00    -0.021 A 
ATOM      9  C   UNL     1      -9.667 -20.650  20.917  1.00  0.00     0.058 A 
ATOM     10  C   UNL     1     -10.660 -22.840  20.619  1.00  0.00     0.012 A 
ATOM     11  C   UNL     1      -9.689 -20.825  22.308  1.00  0.00     0.157 A 
ATOM     12  C   UNL     1     -10.682 -23.014  22.006  1.00  0.00     0.051 A 
ATOM     13  C   UNL     1     -10.197 -22.015  22.854  1.00  0.00     0.157 A 
BRANCH  11  14
ATOM     14  O   UNL     1      -9.208 -19.822  23.148  1.00  0.00    -0.504 OA
ATOM     15  H   UNL     1      -8.450 -19.992  23.799  1.00  0.00     0.293 HD
ENDBRANCH  11  14
BRANCH  13  16
ATOM     16  O   UNL     1     -10.231 -22.220  24.233  1.00  0.00    -0.504 OA
ATOM     17  H   UNL     1      -9.558 -22.812  24.705  1.00  0.00     0.293 HD
ENDBRANCH  13  16
ENDBRANCH   2   8
TORSDOF 6
ENDMDL
MODEL 7
REMARK VINA RESULT:    -3.314     16.908     18.713
REMARK INTER + INTRA:          -4.552
REMARK INTER:                  -4.243
REMARK INTRA:                  -0.309
REMARK UNBOUND:                -0.269
REMARK SMILES CCOC(=O)C=Cc1ccc(O)c(O)c1
REMARK SMILES IDX 6 1 7 2 4 3 5 4 3 5 2 6 1 7 8 8 15 9 9 10 13 11 10 12 11 13
REMARK SMILES IDX 14 14 12 16
REMARK H PARENT 14 15 12 17
REMARK Flexibility Score: inf
ROOT
ATOM      1  C   UNL     1      -9.664 -20.433  20.865  1.00  0.00     0.094 C 
ATOM      2  C   UNL     1      -9.859 -21.430  19.991  1.00  0.00     0.016 C 
ENDROOT
BRANCH   1   3
ATOM      3  C   UNL     1      -9.963 -20.574  22.299  1.00  0.00     0.330 C 
ATOM      4  O   UNL     1     -11.125 -20.355  22.740  1.00  0.00    -0.247 OA
BRANCH   3   5
ATOM      5  O   UNL     1      -8.932 -20.946  23.169  1.00  0.00    -0.463 OA
BRANCH   5   6
ATOM      6  C   UNL     1      -8.465 -22.287  23.306  1.00  0.00     0.230 C 
ATOM      7  C   UNL     1      -9.452 -23.121  24.116  1.00  0.00     0.049 C 
ENDBRANCH   5   6
ENDBRANCH   3   5
ENDBRANCH   1   3
BRANCH   2   8
ATOM      8  C   UNL     1      -9.557 -21.327  18.542  1.00  0.00    -0.021 A 
ATOM      9  C   UNL     1     -10.460 -20.640  17.713  1.00  0.00     0.058 A 
ATOM     10  C   UNL     1      -8.384 -21.861  17.972  1.00  0.00     0.012 A 
ATOM     11  C   UNL     1     -10.215 -20.507  16.338  1.00  0.00     0.157 A 
ATOM     12  C   UNL     1      -8.140 -21.729  16.602  1.00  0.00     0.051 A 
ATOM     13  C   UNL     1      -9.050 -21.058  15.782  1.00  0.00     0.157 A 
BRANCH  11  14
ATOM     14  O   UNL     1     -11.124 -19.831  15.527  1.00  0.00    -0.504 OA
ATOM     15  H   UNL     1     -10.881 -19.535  14.588  1.00  0.00     0.293 HD
ENDBRANCH  11  14
BRANCH  13  16
ATOM     16  O   UNL     1      -8.777 -20.944  14.418  1.00  0.00    -0.504 OA
ATOM     17  H   UNL     1      -8.399 -21.714  13.880  1.00  0.00     0.293 HD
ENDBRANCH  13  16
ENDBRANCH   2   8
TORSDOF 6
ENDMDL
MODEL 8
REMARK VINA RESULT:    -2.805      1.901      6.581
REMARK INTER + INTRA:          -3.894
REMARK INTER:                  -3.721
REMARK INTRA:                  -0.173
REMARK UNBOUND:                -0.269
REMARK SMILES CCOC(=O)C=Cc1ccc(O)c(O)c1
REMARK SMILES IDX 6 1 7 2 4 3 5 4 3 5 2 6 1 7 8 8 15 9 9 10 13 11 10 12 11 13
REMARK SMILES IDX 14 14 12 16
REMARK H PARENT 14 15 12 17
REMARK Flexibility Score: inf
ROOT
ATOM      1  C   UNL     1       6.751 -22.179  10.776  1.00  0.00     0.094 C 
ATOM      2  C   UNL     1       7.655 -22.464  11.724  1.00  0.00     0.016 C 
ENDROOT
BRANCH   1   3
ATOM      3  C   UNL     1       7.086 -22.188   9.342  1.00  0.00     0.330 C 
ATOM      4  O   UNL     1       6.694 -23.125   8.594  1.00  0.00    -0.247 OA
BRANCH   3   5
ATOM      5  O   UNL     1       7.859 -21.142   8.825  1.00  0.00    -0.463 OA
BRANCH   5   6
ATOM      6  C   UNL     1       7.913 -19.841   9.409  1.00  0.00     0.230 C 
ATOM      7  C   UNL     1       6.598 -19.100   9.196  1.00  0.00     0.049 C 
ENDBRANCH   5   6
ENDBRANCH   3   5
ENDBRANCH   1   3
BRANCH   2   8
ATOM      8  C   UNL     1       7.349 -22.478  13.176  1.00  0.00    -0.021 A 
ATOM      9  C   UNL     1       8.300 -21.954  14.069  1.00  0.00     0.058 A 
ATOM     10  C   UNL     1       6.130 -22.962  13.690  1.00  0.00     0.012 A 
ATOM     11  C   UNL     1       8.054 -21.935  15.450  1.00  0.00     0.157 A 
ATOM     12  C   UNL     1       5.885 -22.944  15.066  1.00  0.00     0.051 A 
ATOM     13  C   UNL     1       6.841 -22.436  15.949  1.00  0.00     0.157 A 
BRANCH  11  14
ATOM     14  O   UNL     1       9.010 -21.422  16.324  1.00  0.00    -0.504 OA
ATOM     15  H   UNL     1       9.987 -21.685  16.258  1.00  0.00     0.293 HD
ENDBRANCH  11  14
BRANCH  13  16
ATOM     16  O   UNL     1       6.567 -22.433  17.317  1.00  0.00    -0.504 OA
ATOM     17  H   UNL     1       6.000 -23.150  17.753  1.00  0.00     0.293 HD
ENDBRANCH  13  16
ENDBRANCH   2   8
TORSDOF 6
ENDMDL
MODEL 9
REMARK VINA RESULT:    -2.674      2.099      6.643
REMARK INTER + INTRA:          -3.724
REMARK INTER:                  -3.453
REMARK INTRA:                  -0.271
REMARK UNBOUND:                -0.269
REMARK SMILES CCOC(=O)C=Cc1ccc(O)c(O)c1
REMARK SMILES IDX 6 1 7 2 4 3 5 4 3 5 2 6 1 7 8 8 15 9 9 10 13 11 10 12 11 13
REMARK SMILES IDX 14 14 12 16
REMARK H PARENT 14 15 12 17
REMARK Flexibility Score: inf
ROOT
ATOM      1  C   UNL     1       7.278 -22.065  11.810  1.00  0.00     0.094 C 
ATOM      2  C   UNL     1       8.015 -22.337  12.896  1.00  0.00     0.016 C 
ENDROOT
BRANCH   1   3
ATOM      3  C   UNL     1       7.811 -22.196  10.444  1.00  0.00     0.330 C 
ATOM      4  O   UNL     1       8.664 -23.085  10.168  1.00  0.00    -0.247 OA
BRANCH   3   5
ATOM      5  O   UNL     1       7.364 -21.310   9.458  1.00  0.00    -0.463 OA
BRANCH   5   6
ATOM      6  C   UNL     1       7.722 -19.930   9.420  1.00  0.00     0.230 C 
ATOM      7  C   UNL     1       6.485 -19.057   9.234  1.00  0.00     0.049 C 
ENDBRANCH   5   6
ENDBRANCH   3   5
ENDBRANCH   1   3
BRANCH   2   8
ATOM      8  C   UNL     1       7.506 -22.228  14.286  1.00  0.00    -0.021 A 
ATOM      9  C   UNL     1       6.194 -22.651  14.557  1.00  0.00     0.058 A 
ATOM     10  C   UNL     1       8.299 -21.750  15.348  1.00  0.00     0.012 A 
ATOM     11  C   UNL     1       5.671 -22.578  15.857  1.00  0.00     0.157 A 
ATOM     12  C   UNL     1       7.777 -21.676  16.642  1.00  0.00     0.051 A 
ATOM     13  C   UNL     1       6.467 -22.084  16.902  1.00  0.00     0.157 A 
BRANCH  11  14
ATOM     14  O   UNL     1       4.364 -22.992  16.110  1.00  0.00    -0.504 OA
ATOM     15  H   UNL     1       3.602 -22.757  15.484  1.00  0.00     0.293 HD
ENDBRANCH  11  14
BRANCH  13  16
ATOM     16  O   UNL     1       5.975 -21.996  18.205  1.00  0.00    -0.504 OA
ATOM     17  H   UNL     1       6.440 -21.449  18.919  1.00  0.00     0.293 HD
ENDBRANCH  13  16
ENDBRANCH   2   8
TORSDOF 6
ENDMDL
