MODEL 1
REMARK VINA RESULT:    -6.056      0.000      0.000
REMARK INTER + INTRA:          -9.148
REMARK INTER:                  -8.888
REMARK INTRA:                  -0.260
REMARK UNBOUND:                -0.260
REMARK SMILES CC(C)COC(=O)c1ccccc1C(=O)OCC(C)C
REMARK SMILES IDX 8 1 9 2 10 3 11 4 12 5 13 6 6 7 7 8 5 9 4 10 2 11 1 12 3 13
REMARK SMILES IDX 14 14 15 15 16 16 17 17 18 18 19 19 20 20
REMARK H PARENT
REMARK Flexibility Score: inf
ROOT
ATOM      1  C   UNL     1      94.611  95.914  79.182  1.00  0.00     0.074 A 
ATOM      2  C   UNL     1      93.205  95.875  79.204  1.00  0.00     0.016 A 
ATOM      3  C   UNL     1      92.457  96.717  78.381  1.00  0.00     0.001 A 
ATOM      4  C   UNL     1      93.100  97.607  77.521  1.00  0.00     0.001 A 
ATOM      5  C   UNL     1      94.495  97.676  77.502  1.00  0.00     0.016 A 
ATOM      6  C   UNL     1      95.264  96.854  78.344  1.00  0.00     0.074 A 
ENDROOT
BRANCH   1   7
ATOM      7  C   UNL     1      95.353  94.908  79.972  1.00  0.00     0.339 C 
ATOM      8  O   UNL     1      95.941  93.960  79.382  1.00  0.00    -0.246 OA
BRANCH   7   9
ATOM      9  O   UNL     1      95.464  95.055  81.362  1.00  0.00    -0.462 OA
BRANCH   9  10
ATOM     10  C   UNL     1      94.435  94.669  82.273  1.00  0.00     0.236 C 
BRANCH  10  11
ATOM     11  C   UNL     1      94.632  95.344  83.644  1.00  0.00     0.021 C 
ATOM     12  C   UNL     1      93.444  96.256  83.970  1.00  0.00     0.011 C 
ATOM     13  C   UNL     1      94.810  94.294  84.749  1.00  0.00     0.011 C 
ENDBRANCH  10  11
ENDBRANCH   9  10
ENDBRANCH   7   9
ENDBRANCH   1   7
BRANCH   6  14
ATOM     14  C   UNL     1      96.726  97.060  78.375  1.00  0.00     0.339 C 
ATOM     15  O   UNL     1      97.345  97.027  79.474  1.00  0.00    -0.246 OA
BRANCH  14  16
ATOM     16  O   UNL     1      97.409  97.346  77.190  1.00  0.00    -0.462 OA
BRANCH  16  17
ATOM     17  C   UNL     1      98.132  98.559  76.992  1.00  0.00     0.236 C 
BRANCH  17  18
ATOM     18  C   UNL     1      99.607  98.249  76.699  1.00  0.00     0.021 C 
ATOM     19  C   UNL     1     100.170  99.246  75.679  1.00  0.00     0.011 C 
ATOM     20  C   UNL     1     100.442  98.275  77.987  1.00  0.00     0.011 C 
ENDBRANCH  17  18
ENDBRANCH  16  17
ENDBRANCH  14  16
ENDBRANCH   6  14
TORSDOF 8
ENDMDL
MODEL 2
REMARK VINA RESULT:    -6.001     12.220     15.008
REMARK INTER + INTRA:          -9.067
REMARK INTER:                  -8.611
REMARK INTRA:                  -0.456
REMARK UNBOUND:                -0.260
REMARK SMILES CC(C)COC(=O)c1ccccc1C(=O)OCC(C)C
REMARK SMILES IDX 8 1 9 2 10 3 11 4 12 5 13 6 6 7 7 8 5 9 4 10 2 11 1 12 3 13
REMARK SMILES IDX 14 14 15 15 16 16 17 17 18 18 19 19 20 20
REMARK H PARENT
REMARK Flexibility Score: inf
ROOT
ATOM      1  C   UNL     1      87.893  86.711  79.238  1.00  0.00     0.074 A 
ATOM      2  C   UNL     1      89.297  86.783  79.285  1.00  0.00     0.016 A 
ATOM      3  C   UNL     1      90.080  85.943  78.493  1.00  0.00     0.001 A 
ATOM      4  C   UNL     1      89.473  85.021  77.641  1.00  0.00     0.001 A 
ATOM      5  C   UNL     1      88.081  84.918  77.597  1.00  0.00     0.016 A 
ATOM      6  C   UNL     1      87.278  85.739  78.407  1.00  0.00     0.074 A 
ENDROOT
BRANCH   1   7
ATOM      7  C   UNL     1      87.113  87.715  79.993  1.00  0.00     0.339 C 
ATOM      8  O   UNL     1      87.103  87.680  81.255  1.00  0.00    -0.246 OA
BRANCH   7   9
ATOM      9  O   UNL     1      86.450  88.744  79.309  1.00  0.00    -0.462 OA
BRANCH   9  10
ATOM     10  C   UNL     1      86.914  90.095  79.290  1.00  0.00     0.236 C 
BRANCH  10  11
ATOM     11  C   UNL     1      85.937  91.022  80.039  1.00  0.00     0.021 C 
ATOM     12  C   UNL     1      84.521  90.434  80.025  1.00  0.00     0.011 C 
ATOM     13  C   UNL     1      86.399  91.251  81.483  1.00  0.00     0.011 C 
ENDBRANCH  10  11
ENDBRANCH   9  10
ENDBRANCH   7   9
ENDBRANCH   1   7
BRANCH   6  14
ATOM     14  C   UNL     1      85.820  85.499  78.416  1.00  0.00     0.339 C 
ATOM     15  O   UNL     1      85.192  85.472  79.509  1.00  0.00    -0.246 OA
BRANCH  14  16
ATOM     16  O   UNL     1      85.154  85.249  77.213  1.00  0.00    -0.462 OA
BRANCH  16  17
ATOM     17  C   UNL     1      84.685  83.953  76.850  1.00  0.00     0.236 C 
BRANCH  17  18
ATOM     18  C   UNL     1      83.233  83.770  77.317  1.00  0.00     0.021 C 
ATOM     19  C   UNL     1      82.273  83.854  76.124  1.00  0.00     0.011 C 
ATOM     20  C   UNL     1      83.055  82.435  78.052  1.00  0.00     0.011 C 
ENDBRANCH  17  18
ENDBRANCH  16  17
ENDBRANCH  14  16
ENDBRANCH   6  14
TORSDOF 8
ENDMDL
MODEL 3
REMARK VINA RESULT:    -5.942      1.910      6.041
REMARK INTER + INTRA:          -8.980
REMARK INTER:                  -8.615
REMARK INTRA:                  -0.365
REMARK UNBOUND:                -0.260
REMARK SMILES CC(C)COC(=O)c1ccccc1C(=O)OCC(C)C
REMARK SMILES IDX 8 1 9 2 10 3 11 4 12 5 13 6 6 7 7 8 5 9 4 10 2 11 1 12 3 13
REMARK SMILES IDX 14 14 15 15 16 16 17 17 18 18 19 19 20 20
REMARK H PARENT
REMARK Flexibility Score: inf
ROOT
ATOM      1  C   UNL     1      95.226  96.835  78.372  1.00  0.00     0.074 A 
ATOM      2  C   UNL     1      94.435  97.749  77.653  1.00  0.00     0.016 A 
ATOM      3  C   UNL     1      93.043  97.667  77.688  1.00  0.00     0.001 A 
ATOM      4  C   UNL     1      92.420  96.675  78.444  1.00  0.00     0.001 A 
ATOM      5  C   UNL     1      93.188  95.744  79.147  1.00  0.00     0.016 A 
ATOM      6  C   UNL     1      94.592  95.795  79.102  1.00  0.00     0.074 A 
ENDROOT
BRANCH   1   7
ATOM      7  C   UNL     1      96.688  97.049  78.410  1.00  0.00     0.339 C 
ATOM      8  O   UNL     1      97.309  96.931  79.503  1.00  0.00    -0.246 OA
BRANCH   7   9
ATOM      9  O   UNL     1      97.388  97.308  77.223  1.00  0.00    -0.462 OA
BRANCH   9  10
ATOM     10  C   UNL     1      98.092  98.526  76.981  1.00  0.00     0.236 C 
BRANCH  10  11
ATOM     11  C   UNL     1      99.584  98.254  76.709  1.00  0.00     0.021 C 
ATOM     12  C   UNL     1     100.147  99.285  75.724  1.00  0.00     0.011 C 
ATOM     13  C   UNL     1     100.390  98.278  78.015  1.00  0.00     0.011 C 
ENDBRANCH  10  11
ENDBRANCH   9  10
ENDBRANCH   7   9
ENDBRANCH   1   7
BRANCH   6  14
ATOM     14  C   UNL     1      95.351  94.711  79.757  1.00  0.00     0.339 C 
ATOM     15  O   UNL     1      95.628  94.788  80.985  1.00  0.00    -0.246 OA
BRANCH  14  16
ATOM     16  O   UNL     1      95.808  93.631  78.997  1.00  0.00    -0.462 OA
BRANCH  16  17
ATOM     17  C   UNL     1      95.656  92.277  79.417  1.00  0.00     0.236 C 
BRANCH  17  18
ATOM     18  C   UNL     1      96.981  91.521  79.240  1.00  0.00     0.021 C 
ATOM     19  C   UNL     1      98.048  92.080  80.188  1.00  0.00     0.011 C 
ATOM     20  C   UNL     1      96.792  90.016  79.477  1.00  0.00     0.011 C 
ENDBRANCH  17  18
ENDBRANCH  16  17
ENDBRANCH  14  16
ENDBRANCH   6  14
TORSDOF 8
ENDMDL
MODEL 4
REMARK VINA RESULT:    -5.928      9.501     11.391
REMARK INTER + INTRA:          -8.960
REMARK INTER:                  -8.642
REMARK INTRA:                  -0.318
REMARK UNBOUND:                -0.260
REMARK SMILES CC(C)COC(=O)c1ccccc1C(=O)OCC(C)C
REMARK SMILES IDX 8 1 9 2 10 3 11 4 12 5 13 6 6 7 7 8 5 9 4 10 2 11 1 12 3 13
REMARK SMILES IDX 14 14 15 15 16 16 17 17 18 18 19 19 20 20
REMARK H PARENT
REMARK Flexibility Score: inf
ROOT
ATOM      1  C   UNL     1      95.465  87.694  79.010  1.00  0.00     0.074 A 
ATOM      2  C   UNL     1      95.231  89.080  79.033  1.00  0.00     0.016 A 
ATOM      3  C   UNL     1      96.088  89.958  78.368  1.00  0.00     0.001 A 
ATOM      4  C   UNL     1      97.189  89.465  77.669  1.00  0.00     0.001 A 
ATOM      5  C   UNL     1      97.451  88.093  77.655  1.00  0.00     0.016 A 
ATOM      6  C   UNL     1      96.613  87.197  78.340  1.00  0.00     0.074 A 
ENDROOT
BRANCH   1   7
ATOM      7  C   UNL     1      94.453  86.801  79.613  1.00  0.00     0.339 C 
ATOM      8  O   UNL     1      94.608  86.389  80.796  1.00  0.00    -0.246 OA
BRANCH   7   9
ATOM      9  O   UNL     1      93.291  86.477  78.898  1.00  0.00    -0.462 OA
BRANCH   9  10
ATOM     10  C   UNL     1      91.981  86.552  79.461  1.00  0.00     0.236 C 
BRANCH  10  11
ATOM     11  C   UNL     1      91.169  85.284  79.136  1.00  0.00     0.021 C 
ATOM     12  C   UNL     1      90.865  84.498  80.418  1.00  0.00     0.011 C 
ATOM     13  C   UNL     1      89.863  85.641  78.414  1.00  0.00     0.011 C 
ENDBRANCH  10  11
ENDBRANCH   9  10
ENDBRANCH   7   9
ENDBRANCH   1   7
BRANCH   6  14
ATOM     14  C   UNL     1      97.010  85.775  78.398  1.00  0.00     0.339 C 
ATOM     15  O   UNL     1      97.067  85.181  79.509  1.00  0.00    -0.246 OA
BRANCH  14  16
ATOM     16  O   UNL     1      97.375  85.111  77.224  1.00  0.00    -0.462 OA
BRANCH  16  17
ATOM     17  C   UNL     1      98.557  84.322  77.123  1.00  0.00     0.236 C 
BRANCH  17  18
ATOM     18  C   UNL     1      98.195  82.880  76.738  1.00  0.00     0.021 C 
ATOM     19  C   UNL     1      99.181  82.340  75.695  1.00  0.00     0.011 C 
ATOM     20  C   UNL     1      98.171  81.969  77.972  1.00  0.00     0.011 C 
ENDBRANCH  17  18
ENDBRANCH  16  17
ENDBRANCH  14  16
ENDBRANCH   6  14
TORSDOF 8
ENDMDL
MODEL 5
REMARK VINA RESULT:    -5.818      2.805      5.584
REMARK INTER + INTRA:          -8.799
REMARK INTER:                  -7.194
REMARK INTRA:                  -1.606
REMARK UNBOUND:                -0.260
REMARK SMILES CC(C)COC(=O)c1ccccc1C(=O)OCC(C)C
REMARK SMILES IDX 8 1 9 2 10 3 11 4 12 5 13 6 6 7 7 8 5 9 4 10 2 11 1 12 3 13
REMARK SMILES IDX 14 14 15 15 16 16 17 17 18 18 19 19 20 20
REMARK H PARENT
REMARK Flexibility Score: inf
ROOT
ATOM      1  C   UNL     1      92.971  96.064  78.539  1.00  0.00     0.074 A 
ATOM      2  C   UNL     1      93.465  96.629  77.349  1.00  0.00     0.016 A 
ATOM      3  C   UNL     1      93.549  98.013  77.200  1.00  0.00     0.001 A 
ATOM      4  C   UNL     1      93.144  98.854  78.237  1.00  0.00     0.001 A 
ATOM      5  C   UNL     1      92.630  98.312  79.416  1.00  0.00     0.016 A 
ATOM      6  C   UNL     1      92.514  96.920  79.574  1.00  0.00     0.074 A 
ENDROOT
BRANCH   1   7
ATOM      7  C   UNL     1      93.032  94.595  78.696  1.00  0.00     0.339 C 
ATOM      8  O   UNL     1      92.168  93.869  78.129  1.00  0.00    -0.246 OA
BRANCH   7   9
ATOM      9  O   UNL     1      94.088  94.011  79.411  1.00  0.00    -0.462 OA
BRANCH   9  10
ATOM     10  C   UNL     1      95.461  94.197  79.066  1.00  0.00     0.236 C 
BRANCH  10  11
ATOM     11  C   UNL     1      96.153  95.153  80.056  1.00  0.00     0.021 C 
ATOM     12  C   UNL     1      97.340  94.458  80.733  1.00  0.00     0.011 C 
ATOM     13  C   UNL     1      96.623  96.429  79.346  1.00  0.00     0.011 C 
ENDBRANCH  10  11
ENDBRANCH   9  10
ENDBRANCH   7   9
ENDBRANCH   1   7
BRANCH   6  14
ATOM     14  C   UNL     1      91.845  96.408  80.787  1.00  0.00     0.339 C 
ATOM     15  O   UNL     1      90.628  96.079  80.745  1.00  0.00    -0.246 OA
BRANCH  14  16
ATOM     16  O   UNL     1      92.552  96.343  81.991  1.00  0.00    -0.462 OA
BRANCH  16  17
ATOM     17  C   UNL     1      93.027  95.116  82.537  1.00  0.00     0.236 C 
BRANCH  17  18
ATOM     18  C   UNL     1      94.399  95.330  83.193  1.00  0.00     0.021 C 
ATOM     19  C   UNL     1      94.273  96.253  84.411  1.00  0.00     0.011 C 
ATOM     20  C   UNL     1      95.029  93.991  83.602  1.00  0.00     0.011 C 
ENDBRANCH  17  18
ENDBRANCH  16  17
ENDBRANCH  14  16
ENDBRANCH   6  14
TORSDOF 8
ENDMDL
MODEL 6
REMARK VINA RESULT:    -5.741      3.134      6.302
REMARK INTER + INTRA:          -8.685
REMARK INTER:                  -7.613
REMARK INTRA:                  -1.072
REMARK UNBOUND:                -0.260
REMARK SMILES CC(C)COC(=O)c1ccccc1C(=O)OCC(C)C
REMARK SMILES IDX 8 1 9 2 10 3 11 4 12 5 13 6 6 7 7 8 5 9 4 10 2 11 1 12 3 13
REMARK SMILES IDX 14 14 15 15 16 16 17 17 18 18 19 19 20 20
REMARK H PARENT
REMARK Flexibility Score: inf
ROOT
ATOM      1  C   UNL     1      95.931  94.464  80.993  1.00  0.00     0.074 A 
ATOM      2  C   UNL     1      95.096  95.017  81.980  1.00  0.00     0.016 A 
ATOM      3  C   UNL     1      94.837  94.324  83.163  1.00  0.00     0.001 A 
ATOM      4  C   UNL     1      95.411  93.071  83.380  1.00  0.00     0.001 A 
ATOM      5  C   UNL     1      96.224  92.496  82.401  1.00  0.00     0.016 A 
ATOM      6  C   UNL     1      96.475  93.168  81.193  1.00  0.00     0.074 A 
ENDROOT
BRANCH   1   7
ATOM      7  C   UNL     1      96.281  95.297  79.823  1.00  0.00     0.339 C 
ATOM      8  O   UNL     1      97.166  96.190  79.933  1.00  0.00    -0.246 OA
BRANCH   7   9
ATOM      9  O   UNL     1      95.684  95.041  78.580  1.00  0.00    -0.462 OA
BRANCH   9  10
ATOM     10  C   UNL     1      94.334  95.393  78.274  1.00  0.00     0.236 C 
BRANCH  10  11
ATOM     11  C   UNL     1      93.997  96.798  78.809  1.00  0.00     0.021 C 
ATOM     12  C   UNL     1      93.909  97.805  77.657  1.00  0.00     0.011 C 
ATOM     13  C   UNL     1      92.681  96.781  79.597  1.00  0.00     0.011 C 
ENDBRANCH  10  11
ENDBRANCH   9  10
ENDBRANCH   7   9
ENDBRANCH   1   7
BRANCH   6  14
ATOM     14  C   UNL     1      97.235  92.459  80.144  1.00  0.00     0.339 C 
ATOM     15  O   UNL     1      98.496  92.487  80.150  1.00  0.00    -0.246 OA
BRANCH  14  16
ATOM     16  O   UNL     1      96.549  91.805  79.116  1.00  0.00    -0.462 OA
BRANCH  16  17
ATOM     17  C   UNL     1      96.149  90.440  79.207  1.00  0.00     0.236 C 
BRANCH  17  18
ATOM     18  C   UNL     1      96.637  89.667  77.974  1.00  0.00     0.021 C 
ATOM     19  C   UNL     1      98.157  89.468  78.033  1.00  0.00     0.011 C 
ATOM     20  C   UNL     1      95.927  88.311  77.856  1.00  0.00     0.011 C 
ENDBRANCH  17  18
ENDBRANCH  16  17
ENDBRANCH  14  16
ENDBRANCH   6  14
TORSDOF 8
ENDMDL
MODEL 7
REMARK VINA RESULT:    -5.730      5.689      8.060
REMARK INTER + INTRA:          -8.669
REMARK INTER:                  -7.657
REMARK INTRA:                  -1.012
REMARK UNBOUND:                -0.260
REMARK SMILES CC(C)COC(=O)c1ccccc1C(=O)OCC(C)C
REMARK SMILES IDX 8 1 9 2 10 3 11 4 12 5 13 6 6 7 7 8 5 9 4 10 2 11 1 12 3 13
REMARK SMILES IDX 14 14 15 15 16 16 17 17 18 18 19 19 20 20
REMARK H PARENT
REMARK Flexibility Score: inf
ROOT
ATOM      1  C   UNL     1      88.093  95.958  81.032  1.00  0.00     0.074 A 
ATOM      2  C   UNL     1      87.592  95.097  82.025  1.00  0.00     0.016 A 
ATOM      3  C   UNL     1      88.346  94.807  83.162  1.00  0.00     0.001 A 
ATOM      4  C   UNL     1      89.609  95.375  83.327  1.00  0.00     0.001 A 
ATOM      5  C   UNL     1      90.133  96.214  82.341  1.00  0.00     0.016 A 
ATOM      6  C   UNL     1      89.398  96.496  81.177  1.00  0.00     0.074 A 
ENDROOT
BRANCH   1   7
ATOM      7  C   UNL     1      87.200  96.338  79.917  1.00  0.00     0.339 C 
ATOM      8  O   UNL     1      86.395  97.300  80.060  1.00  0.00    -0.246 OA
BRANCH   7   9
ATOM      9  O   UNL     1      87.304  95.681  78.683  1.00  0.00    -0.462 OA
BRANCH   9  10
ATOM     10  C   UNL     1      86.170  95.239  77.935  1.00  0.00     0.236 C 
BRANCH  10  11
ATOM     11  C   UNL     1      85.497  94.033  78.617  1.00  0.00     0.021 C 
ATOM     12  C   UNL     1      84.304  93.543  77.788  1.00  0.00     0.011 C 
ATOM     13  C   UNL     1      86.501  92.891  78.821  1.00  0.00     0.011 C 
ENDBRANCH  10  11
ENDBRANCH   9  10
ENDBRANCH   7   9
ENDBRANCH   1   7
BRANCH   6  14
ATOM     14  C   UNL     1      90.052  97.284  80.112  1.00  0.00     0.339 C 
ATOM     15  O   UNL     1      90.008  98.544  80.142  1.00  0.00    -0.246 OA
BRANCH  14  16
ATOM     16  O   UNL     1      90.670  96.625  79.046  1.00  0.00    -0.462 OA
BRANCH  16  17
ATOM     17  C   UNL     1      92.015  96.158  79.106  1.00  0.00     0.236 C 
BRANCH  17  18
ATOM     18  C   UNL     1      92.828  96.748  77.945  1.00  0.00     0.021 C 
ATOM     19  C   UNL     1      93.049  98.251  78.154  1.00  0.00     0.011 C 
ATOM     20  C   UNL     1      94.175  96.027  77.793  1.00  0.00     0.011 C 
ENDBRANCH  17  18
ENDBRANCH  16  17
ENDBRANCH  14  16
ENDBRANCH   6  14
TORSDOF 8
ENDMDL
MODEL 8
REMARK VINA RESULT:    -5.710      3.012      5.721
REMARK INTER + INTRA:          -8.640
REMARK INTER:                  -7.632
REMARK INTRA:                  -1.008
REMARK UNBOUND:                -0.260
REMARK SMILES CC(C)COC(=O)c1ccccc1C(=O)OCC(C)C
REMARK SMILES IDX 8 1 9 2 10 3 11 4 12 5 13 6 6 7 7 8 5 9 4 10 2 11 1 12 3 13
REMARK SMILES IDX 14 14 15 15 16 16 17 17 18 18 19 19 20 20
REMARK H PARENT
REMARK Flexibility Score: inf
ROOT
ATOM      1  C   UNL     1      96.487  93.300  81.226  1.00  0.00     0.074 A 
ATOM      2  C   UNL     1      96.250  92.604  82.424  1.00  0.00     0.016 A 
ATOM      3  C   UNL     1      95.428  93.148  83.412  1.00  0.00     0.001 A 
ATOM      4  C   UNL     1      94.830  94.392  83.217  1.00  0.00     0.001 A 
ATOM      5  C   UNL     1      95.072  95.108  82.043  1.00  0.00     0.016 A 
ATOM      6  C   UNL     1      95.918  94.588  81.049  1.00  0.00     0.074 A 
ENDROOT
BRANCH   1   7
ATOM      7  C   UNL     1      97.253  92.620  80.159  1.00  0.00     0.339 C 
ATOM      8  O   UNL     1      98.511  92.551  80.239  1.00  0.00    -0.246 OA
BRANCH   7   9
ATOM      9  O   UNL     1      96.575  91.992  79.104  1.00  0.00    -0.462 OA
BRANCH   9  10
ATOM     10  C   UNL     1      95.826  90.787  79.265  1.00  0.00     0.236 C 
BRANCH  10  11
ATOM     11  C   UNL     1      96.745  89.553  79.180  1.00  0.00     0.021 C 
ATOM     12  C   UNL     1      95.915  88.276  79.005  1.00  0.00     0.011 C 
ATOM     13  C   UNL     1      97.745  89.695  78.025  1.00  0.00     0.011 C 
ENDBRANCH  10  11
ENDBRANCH   9  10
ENDBRANCH   7   9
ENDBRANCH   1   7
BRANCH   6  14
ATOM     14  C   UNL     1      96.241  95.443  79.889  1.00  0.00     0.339 C 
ATOM     15  O   UNL     1      97.198  96.262  79.956  1.00  0.00    -0.246 OA
BRANCH  14  16
ATOM     16  O   UNL     1      95.447  95.379  78.740  1.00  0.00    -0.462 OA
BRANCH  16  17
ATOM     17  C   UNL     1      95.032  96.541  78.027  1.00  0.00     0.236 C 
BRANCH  17  18
ATOM     18  C   UNL     1      93.742  97.102  78.642  1.00  0.00     0.021 C 
ATOM     19  C   UNL     1      93.372  98.437  77.984  1.00  0.00     0.011 C 
ATOM     20  C   UNL     1      92.586  96.102  78.508  1.00  0.00     0.011 C 
ENDBRANCH  17  18
ENDBRANCH  16  17
ENDBRANCH  14  16
ENDBRANCH   6  14
TORSDOF 8
ENDMDL
MODEL 9
REMARK VINA RESULT:    -5.699      4.134      6.469
REMARK INTER + INTRA:          -8.625
REMARK INTER:                  -7.386
REMARK INTRA:                  -1.238
REMARK UNBOUND:                -0.260
REMARK SMILES CC(C)COC(=O)c1ccccc1C(=O)OCC(C)C
REMARK SMILES IDX 8 1 9 2 10 3 11 4 12 5 13 6 6 7 7 8 5 9 4 10 2 11 1 12 3 13
REMARK SMILES IDX 14 14 15 15 16 16 17 17 18 18 19 19 20 20
REMARK H PARENT
REMARK Flexibility Score: inf
ROOT
ATOM      1  C   UNL     1      95.288  93.457  83.436  1.00  0.00     0.074 A 
ATOM      2  C   UNL     1      95.498  93.335  84.821  1.00  0.00     0.016 A 
ATOM      3  C   UNL     1      95.115  94.356  85.691  1.00  0.00     0.001 A 
ATOM      4  C   UNL     1      94.515  95.512  85.192  1.00  0.00     0.001 A 
ATOM      5  C   UNL     1      94.320  95.661  83.818  1.00  0.00     0.016 A 
ATOM      6  C   UNL     1      94.723  94.654  82.924  1.00  0.00     0.074 A 
ENDROOT
BRANCH   1   7
ATOM      7  C   UNL     1      95.586  92.292  82.575  1.00  0.00     0.339 C 
ATOM      8  O   UNL     1      96.700  92.218  81.987  1.00  0.00    -0.246 OA
BRANCH   7   9
ATOM      9  O   UNL     1      94.662  91.241  82.477  1.00  0.00    -0.462 OA
BRANCH   9  10
ATOM     10  C   UNL     1      95.001  89.878  82.732  1.00  0.00     0.236 C 
BRANCH  10  11
ATOM     11  C   UNL     1      95.532  89.703  84.168  1.00  0.00     0.021 C 
ATOM     12  C   UNL     1      94.388  89.814  85.182  1.00  0.00     0.011 C 
ATOM     13  C   UNL     1      96.247  88.354  84.325  1.00  0.00     0.011 C 
ENDBRANCH  10  11
ENDBRANCH   9  10
ENDBRANCH   7   9
ENDBRANCH   1   7
BRANCH   6  14
ATOM     14  C   UNL     1      94.610  94.920  81.475  1.00  0.00     0.339 C 
ATOM     15  O   UNL     1      95.635  95.232  80.810  1.00  0.00    -0.246 OA
BRANCH  14  16
ATOM     16  O   UNL     1      93.356  94.878  80.861  1.00  0.00    -0.462 OA
BRANCH  16  17
ATOM     17  C   UNL     1      92.828  95.972  80.115  1.00  0.00     0.236 C 
BRANCH  17  18
ATOM     18  C   UNL     1      92.119  96.956  81.056  1.00  0.00     0.021 C 
ATOM     19  C   UNL     1      91.466  98.088  80.253  1.00  0.00     0.011 C 
ATOM     20  C   UNL     1      91.070  96.238  81.916  1.00  0.00     0.011 C 
ENDBRANCH  17  18
ENDBRANCH  16  17
ENDBRANCH  14  16
ENDBRANCH   6  14
TORSDOF 8
ENDMDL
