MODEL 1
REMARK VINA RESULT:    -5.237      0.000      0.000
REMARK INTER + INTRA:          -5.769
REMARK INTER:                  -5.696
REMARK INTRA:                  -0.073
REMARK UNBOUND:                -0.073
REMARK SMILES CC(C)c1cc2c(cc1O)[C@]1(C)CCCC(C)(C)[C@@H]1CC2=O
REMARK SMILES IDX 4 1 9 2 8 3 7 4 6 5 5 6 21 7 22 8 20 9 19 10 11 11 13 12
REMARK SMILES IDX 14 13 15 14 16 15 17 16 18 17 12 18 2 19 1 20 3 21 10 22
REMARK H PARENT 10 23
REMARK Flexibility Score: inf
ROOT
ATOM      1  C   UNL     1       1.364 -15.106  10.490  1.00  0.00    -0.003 A 
ATOM      2  C   UNL     1       1.815 -16.440  10.538  1.00  0.00     0.119 A 
ATOM      3  C   UNL     1       2.106 -17.036  11.770  1.00  0.00     0.051 A 
ATOM      4  C   UNL     1       1.984 -16.331  12.989  1.00  0.00    -0.027 A 
ATOM      5  C   UNL     1       1.454 -15.025  12.936  1.00  0.00     0.022 A 
ATOM      6  C   UNL     1       1.174 -14.418  11.698  1.00  0.00     0.020 A 
ATOM      7  C   UNL     1       1.125 -14.319  14.177  1.00  0.00     0.163 C 
ATOM      8  O   UNL     1       0.825 -13.094  14.165  1.00  0.00    -0.294 OA
ATOM      9  C   UNL     1       1.073 -15.080  15.453  1.00  0.00     0.086 C 
ATOM     10  C   UNL     1       2.296 -16.023  15.584  1.00  0.00     0.013 C 
ATOM     11  C   UNL     1       2.385 -17.009  14.330  1.00  0.00    -0.003 C 
ATOM     12  C   UNL     1       1.428 -18.218  14.532  1.00  0.00     0.012 C 
ATOM     13  C   UNL     1       1.593 -18.926  15.875  1.00  0.00     0.001 C 
ATOM     14  C   UNL     1       1.388 -17.962  17.045  1.00  0.00     0.007 C 
ATOM     15  C   UNL     1       2.343 -16.741  17.014  1.00  0.00    -0.031 C 
ATOM     16  C   UNL     1       3.793 -17.179  17.395  1.00  0.00     0.011 C 
ATOM     17  C   UNL     1       1.892 -15.783  18.155  1.00  0.00     0.011 C 
ATOM     18  C   UNL     1       3.855 -17.491  14.157  1.00  0.00     0.017 C 
ENDROOT
BRANCH   1  19
ATOM     19  C   UNL     1       1.039 -14.399   9.180  1.00  0.00     0.017 C 
ATOM     20  C   UNL     1      -0.174 -15.025   8.479  1.00  0.00     0.012 C 
ATOM     21  C   UNL     1       0.860 -12.890   9.377  1.00  0.00     0.012 C 
ENDBRANCH   1  19
BRANCH   2  22
ATOM     22  O   UNL     1       1.973 -17.178   9.366  1.00  0.00    -0.508 OA
ATOM     23  H   UNL     1       1.326 -17.913   9.106  1.00  0.00     0.293 HD
ENDBRANCH   2  22
TORSDOF 2
ENDMDL
MODEL 2
REMARK VINA RESULT:    -5.072     12.475     14.781
REMARK INTER + INTRA:          -5.590
REMARK INTER:                  -5.347
REMARK INTRA:                  -0.243
REMARK UNBOUND:                -0.073
REMARK SMILES CC(C)c1cc2c(cc1O)[C@]1(C)CCCC(C)(C)[C@@H]1CC2=O
REMARK SMILES IDX 4 1 9 2 8 3 7 4 6 5 5 6 21 7 22 8 20 9 19 10 11 11 13 12
REMARK SMILES IDX 14 13 15 14 16 15 17 16 18 17 12 18 2 19 1 20 3 21 10 22
REMARK H PARENT 10 23
REMARK Flexibility Score: inf
ROOT
ATOM      1  C   UNL     1      -0.676 -28.597  11.919  1.00  0.00    -0.003 A 
ATOM      2  C   UNL     1      -1.202 -29.527  11.001  1.00  0.00     0.119 A 
ATOM      3  C   UNL     1      -2.543 -29.916  11.090  1.00  0.00     0.051 A 
ATOM      4  C   UNL     1      -3.400 -29.420  12.100  1.00  0.00    -0.027 A 
ATOM      5  C   UNL     1      -2.886 -28.430  12.962  1.00  0.00     0.022 A 
ATOM      6  C   UNL     1      -1.534 -28.047  12.883  1.00  0.00     0.020 A 
ATOM      7  C   UNL     1      -3.777 -27.743  13.898  1.00  0.00     0.163 C 
ATOM      8  O   UNL     1      -3.315 -26.991  14.800  1.00  0.00    -0.294 OA
ATOM      9  C   UNL     1      -5.248 -27.877  13.733  1.00  0.00     0.086 C 
ATOM     10  C   UNL     1      -5.642 -29.355  13.476  1.00  0.00     0.013 C 
ATOM     11  C   UNL     1      -4.865 -29.933  12.205  1.00  0.00    -0.003 C 
ATOM     12  C   UNL     1      -5.590 -29.509  10.897  1.00  0.00     0.012 C 
ATOM     13  C   UNL     1      -7.086 -29.816  10.886  1.00  0.00     0.001 C 
ATOM     14  C   UNL     1      -7.804 -29.148  12.060  1.00  0.00     0.007 C 
ATOM     15  C   UNL     1      -7.231 -29.550  13.444  1.00  0.00    -0.031 C 
ATOM     16  C   UNL     1      -7.641 -31.016  13.794  1.00  0.00     0.011 C 
ATOM     17  C   UNL     1      -7.942 -28.661  14.505  1.00  0.00     0.011 C 
ATOM     18  C   UNL     1      -4.781 -31.483  12.314  1.00  0.00     0.017 C 
ENDROOT
BRANCH   1  19
ATOM     19  C   UNL     1       0.777 -28.141  11.879  1.00  0.00     0.017 C 
ATOM     20  C   UNL     1       0.907 -26.691  11.394  1.00  0.00     0.012 C 
ATOM     21  C   UNL     1       1.477 -28.350  13.227  1.00  0.00     0.012 C 
ENDBRANCH   1  19
BRANCH   2  22
ATOM     22  O   UNL     1      -0.399 -30.064   9.996  1.00  0.00    -0.508 OA
ATOM     23  H   UNL     1      -0.425 -29.713   9.045  1.00  0.00     0.293 HD
ENDBRANCH   2  22
TORSDOF 2
ENDMDL
MODEL 3
REMARK VINA RESULT:    -4.950      1.609      6.321
REMARK INTER + INTRA:          -5.457
REMARK INTER:                  -5.215
REMARK INTRA:                  -0.241
REMARK UNBOUND:                -0.073
REMARK SMILES CC(C)c1cc2c(cc1O)[C@]1(C)CCCC(C)(C)[C@@H]1CC2=O
REMARK SMILES IDX 4 1 9 2 8 3 7 4 6 5 5 6 21 7 22 8 20 9 19 10 11 11 13 12
REMARK SMILES IDX 14 13 15 14 16 15 17 16 18 17 12 18 2 19 1 20 3 21 10 22
REMARK H PARENT 10 23
REMARK Flexibility Score: inf
ROOT
ATOM      1  C   UNL     1       2.449 -16.630  14.952  1.00  0.00    -0.003 A 
ATOM      2  C   UNL     1       3.052 -17.330  13.888  1.00  0.00     0.119 A 
ATOM      3  C   UNL     1       2.919 -16.860  12.577  1.00  0.00     0.051 A 
ATOM      4  C   UNL     1       2.169 -15.700  12.271  1.00  0.00    -0.027 A 
ATOM      5  C   UNL     1       1.639 -14.963  13.351  1.00  0.00     0.022 A 
ATOM      6  C   UNL     1       1.760 -15.442  14.668  1.00  0.00     0.020 A 
ATOM      7  C   UNL     1       1.021 -13.658  13.110  1.00  0.00     0.163 C 
ATOM      8  O   UNL     1       0.381 -13.066  14.022  1.00  0.00    -0.294 OA
ATOM      9  C   UNL     1       1.217 -12.993  11.795  1.00  0.00     0.086 C 
ATOM     10  C   UNL     1       1.013 -13.998  10.632  1.00  0.00     0.013 C 
ATOM     11  C   UNL     1       1.988 -15.253  10.793  1.00  0.00    -0.003 C 
ATOM     12  C   UNL     1       3.402 -14.904  10.247  1.00  0.00     0.012 C 
ATOM     13  C   UNL     1       3.398 -14.313   8.839  1.00  0.00     0.001 C 
ATOM     14  C   UNL     1       2.539 -13.050   8.763  1.00  0.00     0.007 C 
ATOM     15  C   UNL     1       1.070 -13.274   9.205  1.00  0.00    -0.031 C 
ATOM     16  C   UNL     1       0.296 -14.082   8.115  1.00  0.00     0.011 C 
ATOM     17  C   UNL     1       0.388 -11.875   9.240  1.00  0.00     0.011 C 
ATOM     18  C   UNL     1       1.387 -16.472  10.034  1.00  0.00     0.017 C 
ENDROOT
BRANCH   1  19
ATOM     19  C   UNL     1       2.551 -17.096  16.399  1.00  0.00     0.017 C 
ATOM     20  C   UNL     1       3.284 -16.074  17.278  1.00  0.00     0.012 C 
ATOM     21  C   UNL     1       1.179 -17.458  16.979  1.00  0.00     0.012 C 
ENDBRANCH   1  19
BRANCH   2  22
ATOM     22  O   UNL     1       3.788 -18.490  14.128  1.00  0.00    -0.508 OA
ATOM     23  H   UNL     1       4.724 -18.459  14.515  1.00  0.00     0.293 HD
ENDBRANCH   2  22
TORSDOF 2
ENDMDL
MODEL 4
REMARK VINA RESULT:    -4.862      2.559      6.370
REMARK INTER + INTRA:          -5.362
REMARK INTER:                  -5.118
REMARK INTRA:                  -0.244
REMARK UNBOUND:                -0.073
REMARK SMILES CC(C)c1cc2c(cc1O)[C@]1(C)CCCC(C)(C)[C@@H]1CC2=O
REMARK SMILES IDX 4 1 9 2 8 3 7 4 6 5 5 6 21 7 22 8 20 9 19 10 11 11 13 12
REMARK SMILES IDX 14 13 15 14 16 15 17 16 18 17 12 18 2 19 1 20 3 21 10 22
REMARK H PARENT 10 23
REMARK Flexibility Score: inf
ROOT
ATOM      1  C   UNL     1       1.900 -18.745  15.597  1.00  0.00    -0.003 A 
ATOM      2  C   UNL     1       0.772 -18.252  14.910  1.00  0.00     0.119 A 
ATOM      3  C   UNL     1       0.929 -17.288  13.908  1.00  0.00     0.051 A 
ATOM      4  C   UNL     1       2.198 -16.763  13.568  1.00  0.00    -0.027 A 
ATOM      5  C   UNL     1       3.326 -17.321  14.204  1.00  0.00     0.022 A 
ATOM      6  C   UNL     1       3.169 -18.280  15.221  1.00  0.00     0.020 A 
ATOM      7  C   UNL     1       4.671 -16.956  13.757  1.00  0.00     0.163 C 
ATOM      8  O   UNL     1       5.689 -17.294  14.421  1.00  0.00    -0.294 OA
ATOM      9  C   UNL     1       4.838 -16.241  12.464  1.00  0.00     0.086 C 
ATOM     10  C   UNL     1       3.809 -15.089  12.334  1.00  0.00     0.013 C 
ATOM     11  C   UNL     1       2.319 -15.642  12.497  1.00  0.00    -0.003 C 
ATOM     12  C   UNL     1       1.822 -16.243  11.152  1.00  0.00     0.012 C 
ATOM     13  C   UNL     1       1.998 -15.314   9.952  1.00  0.00     0.001 C 
ATOM     14  C   UNL     1       3.460 -14.902   9.772  1.00  0.00     0.007 C 
ATOM     15  C   UNL     1       4.065 -14.209  11.020  1.00  0.00    -0.031 C 
ATOM     16  C   UNL     1       3.489 -12.765  11.169  1.00  0.00     0.011 C 
ATOM     17  C   UNL     1       5.584 -14.017  10.741  1.00  0.00     0.011 C 
ATOM     18  C   UNL     1       1.389 -14.484  12.964  1.00  0.00     0.017 C 
ENDROOT
BRANCH   1  19
ATOM     19  C   UNL     1       1.793 -19.787  16.703  1.00  0.00     0.017 C 
ATOM     20  C   UNL     1       3.005 -20.726  16.721  1.00  0.00     0.012 C 
ATOM     21  C   UNL     1       1.558 -19.142  18.073  1.00  0.00     0.012 C 
ENDBRANCH   1  19
BRANCH   2  22
ATOM     22  O   UNL     1      -0.505 -18.720  15.216  1.00  0.00    -0.508 OA
ATOM     23  H   UNL     1      -1.019 -19.323  14.584  1.00  0.00     0.293 HD
ENDBRANCH   2  22
TORSDOF 2
ENDMDL
MODEL 5
REMARK VINA RESULT:    -4.844      1.729      3.639
REMARK INTER + INTRA:          -5.342
REMARK INTER:                  -5.099
REMARK INTRA:                  -0.243
REMARK UNBOUND:                -0.073
REMARK SMILES CC(C)c1cc2c(cc1O)[C@]1(C)CCCC(C)(C)[C@@H]1CC2=O
REMARK SMILES IDX 4 1 9 2 8 3 7 4 6 5 5 6 21 7 22 8 20 9 19 10 11 11 13 12
REMARK SMILES IDX 14 13 15 14 16 15 17 16 18 17 12 18 2 19 1 20 3 21 10 22
REMARK H PARENT 10 23
REMARK Flexibility Score: inf
ROOT
ATOM      1  C   UNL     1       1.834 -15.817  11.999  1.00  0.00    -0.003 A 
ATOM      2  C   UNL     1       1.382 -14.819  12.886  1.00  0.00     0.119 A 
ATOM      3  C   UNL     1       1.198 -15.118  14.240  1.00  0.00     0.051 A 
ATOM      4  C   UNL     1       1.430 -16.414  14.758  1.00  0.00    -0.027 A 
ATOM      5  C   UNL     1       1.960 -17.381  13.879  1.00  0.00     0.022 A 
ATOM      6  C   UNL     1       2.132 -17.087  12.515  1.00  0.00     0.020 A 
ATOM      7  C   UNL     1       2.399 -18.677  14.400  1.00  0.00     0.163 C 
ATOM      8  O   UNL     1       2.703 -19.620  13.619  1.00  0.00    -0.294 OA
ATOM      9  C   UNL     1       2.560 -18.854  15.867  1.00  0.00     0.086 C 
ATOM     10  C   UNL     1       1.348 -18.260  16.631  1.00  0.00     0.013 C 
ATOM     11  C   UNL     1       1.145 -16.720  16.256  1.00  0.00    -0.003 C 
ATOM     12  C   UNL     1       2.111 -15.834  17.093  1.00  0.00     0.012 C 
ATOM     13  C   UNL     1       2.062 -16.106  18.595  1.00  0.00     0.001 C 
ATOM     14  C   UNL     1       2.373 -17.570  18.910  1.00  0.00     0.007 C 
ATOM     15  C   UNL     1       1.424 -18.570  18.200  1.00  0.00    -0.031 C 
ATOM     16  C   UNL     1       0.012 -18.541  18.865  1.00  0.00     0.011 C 
ATOM     17  C   UNL     1       1.979 -19.998  18.479  1.00  0.00     0.011 C 
ATOM     18  C   UNL     1      -0.337 -16.319  16.513  1.00  0.00     0.017 C 
ENDROOT
BRANCH   1  19
ATOM     19  C   UNL     1       2.045 -15.555  10.513  1.00  0.00     0.017 C 
ATOM     20  C   UNL     1       3.458 -15.947  10.060  1.00  0.00     0.012 C 
ATOM     21  C   UNL     1       0.970 -16.233   9.657  1.00  0.00     0.012 C 
ENDBRANCH   1  19
BRANCH   2  22
ATOM     22  O   UNL     1       1.118 -13.529  12.427  1.00  0.00    -0.508 OA
ATOM     23  H   UNL     1       1.653 -13.109  11.676  1.00  0.00     0.293 HD
ENDBRANCH   2  22
TORSDOF 2
ENDMDL
MODEL 6
REMARK VINA RESULT:    -4.707     13.091     15.437
REMARK INTER + INTRA:          -5.193
REMARK INTER:                  -4.966
REMARK INTRA:                  -0.226
REMARK UNBOUND:                -0.073
REMARK SMILES CC(C)c1cc2c(cc1O)[C@]1(C)CCCC(C)(C)[C@@H]1CC2=O
REMARK SMILES IDX 4 1 9 2 8 3 7 4 6 5 5 6 21 7 22 8 20 9 19 10 11 11 13 12
REMARK SMILES IDX 14 13 15 14 16 15 17 16 18 17 12 18 2 19 1 20 3 21 10 22
REMARK H PARENT 10 23
REMARK Flexibility Score: inf
ROOT
ATOM      1  C   UNL     1      -0.253 -28.901  10.904  1.00  0.00    -0.003 A 
ATOM      2  C   UNL     1      -0.641 -28.520  12.204  1.00  0.00     0.119 A 
ATOM      3  C   UNL     1      -1.953 -28.743  12.636  1.00  0.00     0.051 A 
ATOM      4  C   UNL     1      -2.929 -29.325  11.794  1.00  0.00    -0.027 A 
ATOM      5  C   UNL     1      -2.509 -29.777  10.525  1.00  0.00     0.022 A 
ATOM      6  C   UNL     1      -1.194 -29.541  10.084  1.00  0.00     0.020 A 
ATOM      7  C   UNL     1      -3.423 -30.557   9.689  1.00  0.00     0.163 C 
ATOM      8  O   UNL     1      -3.142 -30.814   8.486  1.00  0.00    -0.294 OA
ATOM      9  C   UNL     1      -4.662 -31.114  10.292  1.00  0.00     0.086 C 
ATOM     10  C   UNL     1      -5.378 -30.052  11.165  1.00  0.00     0.013 C 
ATOM     11  C   UNL     1      -4.393 -29.490  12.290  1.00  0.00    -0.003 C 
ATOM     12  C   UNL     1      -4.356 -30.464  13.502  1.00  0.00     0.012 C 
ATOM     13  C   UNL     1      -5.734 -30.848  14.036  1.00  0.00     0.001 C 
ATOM     14  C   UNL     1      -6.600 -31.483  12.947  1.00  0.00     0.007 C 
ATOM     15  C   UNL     1      -6.791 -30.578  11.703  1.00  0.00    -0.031 C 
ATOM     16  C   UNL     1      -7.760 -29.399  12.036  1.00  0.00     0.011 C 
ATOM     17  C   UNL     1      -7.535 -31.429  10.632  1.00  0.00     0.011 C 
ATOM     18  C   UNL     1      -4.870 -28.075  12.732  1.00  0.00     0.017 C 
ENDROOT
BRANCH   1  19
ATOM     19  C   UNL     1       1.158 -28.677  10.373  1.00  0.00     0.017 C 
ATOM     20  C   UNL     1       1.538 -29.716   9.310  1.00  0.00     0.012 C 
ATOM     21  C   UNL     1       1.352 -27.247   9.859  1.00  0.00     0.012 C 
ENDBRANCH   1  19
BRANCH   2  22
ATOM     22  O   UNL     1       0.274 -27.924  13.071  1.00  0.00    -0.508 OA
ATOM     23  H   UNL     1       0.739 -27.054  12.841  1.00  0.00     0.293 HD
ENDBRANCH   2  22
TORSDOF 2
ENDMDL
MODEL 7
REMARK VINA RESULT:    -4.644      2.327      3.571
REMARK INTER + INTRA:          -5.124
REMARK INTER:                  -4.880
REMARK INTRA:                  -0.244
REMARK UNBOUND:                -0.073
REMARK SMILES CC(C)c1cc2c(cc1O)[C@]1(C)CCCC(C)(C)[C@@H]1CC2=O
REMARK SMILES IDX 4 1 9 2 8 3 7 4 6 5 5 6 21 7 22 8 20 9 19 10 11 11 13 12
REMARK SMILES IDX 14 13 15 14 16 15 17 16 18 17 12 18 2 19 1 20 3 21 10 22
REMARK H PARENT 10 23
REMARK Flexibility Score: inf
ROOT
ATOM      1  C   UNL     1       2.544 -16.424  12.645  1.00  0.00    -0.003 A 
ATOM      2  C   UNL     1       3.850 -16.792  13.026  1.00  0.00     0.119 A 
ATOM      3  C   UNL     1       4.050 -17.583  14.162  1.00  0.00     0.051 A 
ATOM      4  C   UNL     1       2.974 -18.017  14.970  1.00  0.00    -0.027 A 
ATOM      5  C   UNL     1       1.667 -17.713  14.534  1.00  0.00     0.022 A 
ATOM      6  C   UNL     1       1.464 -16.905  13.400  1.00  0.00     0.020 A 
ATOM      7  C   UNL     1       0.514 -18.296  15.221  1.00  0.00     0.163 C 
ATOM      8  O   UNL     1      -0.658 -17.900  14.972  1.00  0.00    -0.294 OA
ATOM      9  C   UNL     1       0.725 -19.421  16.170  1.00  0.00     0.086 C 
ATOM     10  C   UNL     1       1.924 -19.132  17.110  1.00  0.00     0.013 C 
ATOM     11  C   UNL     1       3.247 -18.836  16.264  1.00  0.00    -0.003 C 
ATOM     12  C   UNL     1       3.910 -20.172  15.824  1.00  0.00     0.012 C 
ATOM     13  C   UNL     1       4.127 -21.165  16.964  1.00  0.00     0.001 C 
ATOM     14  C   UNL     1       2.813 -21.502  17.672  1.00  0.00     0.007 C 
ATOM     15  C   UNL     1       2.080 -20.258  18.238  1.00  0.00    -0.031 C 
ATOM     16  C   UNL     1       2.827 -19.716  19.498  1.00  0.00     0.011 C 
ATOM     17  C   UNL     1       0.697 -20.745  18.761  1.00  0.00     0.011 C 
ATOM     18  C   UNL     1       4.228 -17.987  17.123  1.00  0.00     0.017 C 
ENDROOT
BRANCH   1  19
ATOM     19  C   UNL     1       2.262 -15.557  11.423  1.00  0.00     0.017 C 
ATOM     20  C   UNL     1       1.707 -16.381  10.255  1.00  0.00     0.012 C 
ATOM     21  C   UNL     1       1.349 -14.374  11.764  1.00  0.00     0.012 C 
ENDBRANCH   1  19
BRANCH   2  22
ATOM     22  O   UNL     1       4.951 -16.377  12.278  1.00  0.00    -0.508 OA
ATOM     23  H   UNL     1       5.900 -16.503  12.609  1.00  0.00     0.293 HD
ENDBRANCH   2  22
TORSDOF 2
ENDMDL
MODEL 8
REMARK VINA RESULT:    -4.573     13.445     14.969
REMARK INTER + INTRA:          -5.046
REMARK INTER:                  -4.800
REMARK INTRA:                  -0.247
REMARK UNBOUND:                -0.073
REMARK SMILES CC(C)c1cc2c(cc1O)[C@]1(C)CCCC(C)(C)[C@@H]1CC2=O
REMARK SMILES IDX 4 1 9 2 8 3 7 4 6 5 5 6 21 7 22 8 20 9 19 10 11 11 13 12
REMARK SMILES IDX 14 13 15 14 16 15 17 16 18 17 12 18 2 19 1 20 3 21 10 22
REMARK H PARENT 10 23
REMARK Flexibility Score: inf
ROOT
ATOM      1  C   UNL     1       1.021 -30.110   9.041  1.00  0.00    -0.003 A 
ATOM      2  C   UNL     1      -0.074 -30.616   8.313  1.00  0.00     0.119 A 
ATOM      3  C   UNL     1      -1.356 -30.595   8.873  1.00  0.00     0.051 A 
ATOM      4  C   UNL     1      -1.595 -30.097  10.175  1.00  0.00    -0.027 A 
ATOM      5  C   UNL     1      -0.507 -29.519  10.862  1.00  0.00     0.022 A 
ATOM      6  C   UNL     1       0.785 -29.552  10.306  1.00  0.00     0.020 A 
ATOM      7  C   UNL     1      -0.732 -28.818  12.127  1.00  0.00     0.163 C 
ATOM      8  O   UNL     1       0.238 -28.454  12.848  1.00  0.00    -0.294 OA
ATOM      9  C   UNL     1      -2.120 -28.466  12.527  1.00  0.00     0.086 C 
ATOM     10  C   UNL     1      -3.078 -29.665  12.305  1.00  0.00     0.013 C 
ATOM     11  C   UNL     1      -3.024 -30.158  10.786  1.00  0.00    -0.003 C 
ATOM     12  C   UNL     1      -3.935 -29.262   9.901  1.00  0.00     0.012 C 
ATOM     13  C   UNL     1      -5.356 -29.097  10.436  1.00  0.00     0.001 C 
ATOM     14  C   UNL     1      -5.358 -28.517  11.852  1.00  0.00     0.007 C 
ATOM     15  C   UNL     1      -4.547 -29.363  12.867  1.00  0.00    -0.031 C 
ATOM     16  C   UNL     1      -5.316 -30.678  13.212  1.00  0.00     0.011 C 
ATOM     17  C   UNL     1      -4.501 -28.555  14.197  1.00  0.00     0.011 C 
ATOM     18  C   UNL     1      -3.471 -31.647  10.713  1.00  0.00     0.017 C 
ENDROOT
BRANCH   1  19
ATOM     19  C   UNL     1       2.442 -30.113   8.489  1.00  0.00     0.017 C 
ATOM     20  C   UNL     1       3.224 -28.866   8.922  1.00  0.00     0.012 C 
ATOM     21  C   UNL     1       3.189 -31.402   8.847  1.00  0.00     0.012 C 
ENDBRANCH   1  19
BRANCH   2  22
ATOM     22  O   UNL     1       0.105 -31.137   7.032  1.00  0.00    -0.508 OA
ATOM     23  H   UNL     1      -0.299 -30.695   6.214  1.00  0.00     0.293 HD
ENDBRANCH   2  22
TORSDOF 2
ENDMDL
MODEL 9
REMARK VINA RESULT:    -4.511     13.048     14.651
REMARK INTER + INTRA:          -4.980
REMARK INTER:                  -4.733
REMARK INTRA:                  -0.247
REMARK UNBOUND:                -0.073
REMARK SMILES CC(C)c1cc2c(cc1O)[C@]1(C)CCCC(C)(C)[C@@H]1CC2=O
REMARK SMILES IDX 4 1 9 2 8 3 7 4 6 5 5 6 21 7 22 8 20 9 19 10 11 11 13 12
REMARK SMILES IDX 14 13 15 14 16 15 17 16 18 17 12 18 2 19 1 20 3 21 10 22
REMARK H PARENT 10 23
REMARK Flexibility Score: inf
ROOT
ATOM      1  C   UNL     1      -3.050 -29.770  10.395  1.00  0.00    -0.003 A 
ATOM      2  C   UNL     1      -4.099 -28.831  10.348  1.00  0.00     0.119 A 
ATOM      3  C   UNL     1      -4.677 -28.366  11.535  1.00  0.00     0.051 A 
ATOM      4  C   UNL     1      -4.254 -28.829  12.803  1.00  0.00    -0.027 A 
ATOM      5  C   UNL     1      -3.149 -29.706  12.841  1.00  0.00     0.022 A 
ATOM      6  C   UNL     1      -2.577 -30.185  11.649  1.00  0.00     0.020 A 
ATOM      7  C   UNL     1      -2.548 -30.065  14.127  1.00  0.00     0.163 C 
ATOM      8  O   UNL     1      -1.684 -30.982  14.204  1.00  0.00    -0.294 OA
ATOM      9  C   UNL     1      -2.907 -29.287  15.341  1.00  0.00     0.086 C 
ATOM     10  C   UNL     1      -4.439 -29.060  15.417  1.00  0.00     0.013 C 
ATOM     11  C   UNL     1      -4.970 -28.340  14.093  1.00  0.00    -0.003 C 
ATOM     12  C   UNL     1      -4.735 -26.805  14.189  1.00  0.00     0.012 C 
ATOM     13  C   UNL     1      -5.259 -26.174  15.477  1.00  0.00     0.001 C 
ATOM     14  C   UNL     1      -4.637 -26.824  16.714  1.00  0.00     0.007 C 
ATOM     15  C   UNL     1      -4.868 -28.355  16.790  1.00  0.00    -0.031 C 
ATOM     16  C   UNL     1      -6.355 -28.660  17.157  1.00  0.00     0.011 C 
ATOM     17  C   UNL     1      -4.033 -28.881  17.993  1.00  0.00     0.011 C 
ATOM     18  C   UNL     1      -6.482 -28.657  13.905  1.00  0.00     0.017 C 
ENDROOT
BRANCH   1  19
ATOM     19  C   UNL     1      -2.387 -30.320   9.138  1.00  0.00     0.017 C 
ATOM     20  C   UNL     1      -0.881 -30.531   9.332  1.00  0.00     0.012 C 
ATOM     21  C   UNL     1      -3.077 -31.596   8.643  1.00  0.00     0.012 C 
ENDBRANCH   1  19
BRANCH   2  22
ATOM     22  O   UNL     1      -4.571 -28.354   9.125  1.00  0.00    -0.508 OA
ATOM     23  H   UNL     1      -3.959 -27.899   8.458  1.00  0.00     0.293 HD
ENDBRANCH   2  22
TORSDOF 2
ENDMDL
