MODEL 1
REMARK VINA RESULT:    -5.508      0.000      0.000
REMARK INTER + INTRA:          -8.904
REMARK INTER:                  -8.406
REMARK INTRA:                  -0.498
REMARK UNBOUND:                -0.498
REMARK SMILES O=C([O-])CCCCCCCCC(=O)[O-]
REMARK SMILES IDX 7 1 6 2 5 3 4 4 2 5 1 6 3 7 8 8 9 9 10 10 11 11 12 12 13 13
REMARK SMILES IDX 14 14
REMARK H PARENT
REMARK Flexibility Score: inf
ROOT
ATOM      1  C   UNL     1      63.537 151.483   3.232  1.00  0.00     0.000 C 
ENDROOT
BRANCH   1   2
ATOM      2  C   UNL     1      62.055 151.869   3.358  1.00  0.00     0.000 C 
BRANCH   2   3
ATOM      3  C   UNL     1      61.370 152.044   1.992  1.00  0.00     0.006 C 
BRANCH   3   4
ATOM      4  C   UNL     1      60.151 152.974   2.069  1.00  0.00     0.053 C 
BRANCH   4   5
ATOM      5  C   UNL     1      60.047 153.856   0.863  1.00  0.00     0.041 C 
ATOM      6  O   UNL     1      61.027 153.977   0.081  1.00  0.00    -0.550 OA
ATOM      7  O   UNL     1      58.881 154.571   0.622  1.00  0.00    -0.550 OA
ENDBRANCH   4   5
ENDBRANCH   3   4
ENDBRANCH   2   3
ENDBRANCH   1   2
BRANCH   1   8
ATOM      8  C   UNL     1      64.405 152.111   4.335  1.00  0.00     0.000 C 
BRANCH   8   9
ATOM      9  C   UNL     1      65.025 151.063   5.275  1.00  0.00     0.000 C 
BRANCH   9  10
ATOM     10  C   UNL     1      64.684 149.607   4.892  1.00  0.00     0.006 C 
BRANCH  10  11
ATOM     11  C   UNL     1      63.927 148.876   6.007  1.00  0.00     0.053 C 
BRANCH  11  12
ATOM     12  C   UNL     1      62.591 148.415   5.520  1.00  0.00     0.041 C 
ATOM     13  O   UNL     1      61.635 149.230   5.426  1.00  0.00    -0.550 OA
ATOM     14  O   UNL     1      62.413 147.097   5.121  1.00  0.00    -0.550 OA
ENDBRANCH  11  12
ENDBRANCH  10  11
ENDBRANCH   9  10
ENDBRANCH   8   9
ENDBRANCH   1   8
TORSDOF 9
ENDMDL
MODEL 2
REMARK VINA RESULT:    -5.407      0.829      6.261
REMARK INTER + INTRA:          -8.750
REMARK INTER:                  -8.116
REMARK INTRA:                  -0.634
REMARK UNBOUND:                -0.498
REMARK SMILES O=C([O-])CCCCCCCCC(=O)[O-]
REMARK SMILES IDX 7 1 6 2 5 3 4 4 2 5 1 6 3 7 8 8 9 9 10 10 11 11 12 12 13 13
REMARK SMILES IDX 14 14
REMARK H PARENT
REMARK Flexibility Score: inf
ROOT
ATOM      1  C   UNL     1      64.215 152.216   4.543  1.00  0.00     0.000 C 
ENDROOT
BRANCH   1   2
ATOM      2  C   UNL     1      65.236 151.249   5.162  1.00  0.00     0.000 C 
BRANCH   2   3
ATOM      3  C   UNL     1      65.057 149.802   4.670  1.00  0.00     0.006 C 
BRANCH   3   4
ATOM      4  C   UNL     1      64.563 148.869   5.784  1.00  0.00     0.053 C 
BRANCH   4   5
ATOM      5  C   UNL     1      63.083 148.653   5.712  1.00  0.00     0.041 C 
ATOM      6  O   UNL     1      62.293 149.533   6.145  1.00  0.00    -0.550 OA
ATOM      7  O   UNL     1      62.576 147.465   5.200  1.00  0.00    -0.550 OA
ENDBRANCH   4   5
ENDBRANCH   3   4
ENDBRANCH   2   3
ENDBRANCH   1   2
BRANCH   1   8
ATOM      8  C   UNL     1      63.495 151.612   3.325  1.00  0.00     0.000 C 
BRANCH   8   9
ATOM      9  C   UNL     1      61.964 151.728   3.420  1.00  0.00     0.000 C 
BRANCH   9  10
ATOM     10  C   UNL     1      61.256 151.737   2.049  1.00  0.00     0.006 C 
BRANCH  10  11
ATOM     11  C   UNL     1      61.186 153.143   1.442  1.00  0.00     0.053 C 
BRANCH  11  12
ATOM     12  C   UNL     1      59.769 153.617   1.375  1.00  0.00     0.041 C 
ATOM     13  O   UNL     1      59.327 154.147   0.321  1.00  0.00    -0.550 OA
ATOM     14  O   UNL     1      58.922 153.429   2.458  1.00  0.00    -0.550 OA
ENDBRANCH  11  12
ENDBRANCH  10  11
ENDBRANCH   9  10
ENDBRANCH   8   9
ENDBRANCH   1   8
TORSDOF 9
ENDMDL
MODEL 3
REMARK VINA RESULT:    -4.786      2.647      6.264
REMARK INTER + INTRA:          -7.803
REMARK INTER:                  -7.287
REMARK INTRA:                  -0.516
REMARK UNBOUND:                -0.498
REMARK SMILES O=C([O-])CCCCCCCCC(=O)[O-]
REMARK SMILES IDX 7 1 6 2 5 3 4 4 2 5 1 6 3 7 8 8 9 9 10 10 11 11 12 12 13 13
REMARK SMILES IDX 14 14
REMARK H PARENT
REMARK Flexibility Score: inf
ROOT
ATOM      1  C   UNL     1      61.596 151.805   2.740  1.00  0.00     0.000 C 
ENDROOT
BRANCH   1   2
ATOM      2  C   UNL     1      63.076 151.790   3.155  1.00  0.00     0.000 C 
BRANCH   2   3
ATOM      3  C   UNL     1      63.265 151.581   4.667  1.00  0.00     0.006 C 
BRANCH   3   4
ATOM      4  C   UNL     1      64.708 151.195   5.022  1.00  0.00     0.053 C 
BRANCH   4   5
ATOM      5  C   UNL     1      64.934 149.719   4.898  1.00  0.00     0.041 C 
ATOM      6  O   UNL     1      64.760 148.966   5.891  1.00  0.00    -0.550 OA
ATOM      7  O   UNL     1      65.373 149.181   3.694  1.00  0.00    -0.550 OA
ENDBRANCH   4   5
ENDBRANCH   3   4
ENDBRANCH   2   3
ENDBRANCH   1   2
BRANCH   1   8
ATOM      8  C   UNL     1      61.324 152.755   1.562  1.00  0.00     0.000 C 
BRANCH   8   9
ATOM      9  C   UNL     1      59.918 153.379   1.611  1.00  0.00     0.000 C 
BRANCH   9  10
ATOM     10  C   UNL     1      59.114 152.997   2.872  1.00  0.00     0.006 C 
BRANCH  10  11
ATOM     11  C   UNL     1      58.840 154.207   3.774  1.00  0.00     0.053 C 
BRANCH  11  12
ATOM     12  C   UNL     1      59.057 153.852   5.210  1.00  0.00     0.041 C 
ATOM     13  O   UNL     1      58.097 153.892   6.025  1.00  0.00    -0.550 OA
ATOM     14  O   UNL     1      60.308 153.428   5.640  1.00  0.00    -0.550 OA
ENDBRANCH  11  12
ENDBRANCH  10  11
ENDBRANCH   9  10
ENDBRANCH   8   9
ENDBRANCH   1   8
TORSDOF 9
ENDMDL
MODEL 4
REMARK VINA RESULT:    -4.777      2.218      5.745
REMARK INTER + INTRA:          -7.789
REMARK INTER:                  -7.022
REMARK INTRA:                  -0.767
REMARK UNBOUND:                -0.498
REMARK SMILES O=C([O-])CCCCCCCCC(=O)[O-]
REMARK SMILES IDX 7 1 6 2 5 3 4 4 2 5 1 6 3 7 8 8 9 9 10 10 11 11 12 12 13 13
REMARK SMILES IDX 14 14
REMARK H PARENT
REMARK Flexibility Score: inf
ROOT
ATOM      1  C   UNL     1      64.524 148.757   5.395  1.00  0.00     0.000 C 
ENDROOT
BRANCH   1   2
ATOM      2  C   UNL     1      63.210 149.163   6.080  1.00  0.00     0.000 C 
BRANCH   2   3
ATOM      3  C   UNL     1      62.049 148.209   5.749  1.00  0.00     0.006 C 
BRANCH   3   4
ATOM      4  C   UNL     1      60.710 148.713   6.304  1.00  0.00     0.053 C 
BRANCH   4   5
ATOM      5  C   UNL     1      60.104 147.737   7.265  1.00  0.00     0.041 C 
ATOM      6  O   UNL     1      60.334 146.505   7.146  1.00  0.00    -0.550 OA
ATOM      7  O   UNL     1      59.256 148.184   8.270  1.00  0.00    -0.550 OA
ENDBRANCH   4   5
ENDBRANCH   3   4
ENDBRANCH   2   3
ENDBRANCH   1   2
BRANCH   1   8
ATOM      8  C   UNL     1      65.062 149.850   4.457  1.00  0.00     0.000 C 
BRANCH   8   9
ATOM      9  C   UNL     1      64.915 151.264   5.043  1.00  0.00     0.000 C 
BRANCH   9  10
ATOM     10  C   UNL     1      64.127 152.233   4.137  1.00  0.00     0.006 C 
BRANCH  10  11
ATOM     11  C   UNL     1      63.239 151.492   3.130  1.00  0.00     0.053 C 
BRANCH  11  12
ATOM     12  C   UNL     1      61.794 151.691   3.459  1.00  0.00     0.041 C 
ATOM     13  O   UNL     1      60.927 151.669   2.545  1.00  0.00    -0.550 OA
ATOM     14  O   UNL     1      61.397 151.852   4.780  1.00  0.00    -0.550 OA
ENDBRANCH  11  12
ENDBRANCH  10  11
ENDBRANCH   9  10
ENDBRANCH   8   9
ENDBRANCH   1   8
TORSDOF 9
ENDMDL
MODEL 5
REMARK VINA RESULT:    -4.743      2.470      3.782
REMARK INTER + INTRA:          -7.736
REMARK INTER:                  -6.762
REMARK INTRA:                  -0.975
REMARK UNBOUND:                -0.498
REMARK SMILES O=C([O-])CCCCCCCCC(=O)[O-]
REMARK SMILES IDX 7 1 6 2 5 3 4 4 2 5 1 6 3 7 8 8 9 9 10 10 11 11 12 12 13 13
REMARK SMILES IDX 14 14
REMARK H PARENT
REMARK Flexibility Score: inf
ROOT
ATOM      1  C   UNL     1      65.008 149.857   4.709  1.00  0.00     0.000 C 
ENDROOT
BRANCH   1   2
ATOM      2  C   UNL     1      65.036 151.310   5.210  1.00  0.00     0.000 C 
BRANCH   2   3
ATOM      3  C   UNL     1      64.279 152.272   4.279  1.00  0.00     0.006 C 
BRANCH   3   4
ATOM      4  C   UNL     1      63.409 151.526   3.258  1.00  0.00     0.053 C 
BRANCH   4   5
ATOM      5  C   UNL     1      61.948 151.718   3.526  1.00  0.00     0.041 C 
ATOM      6  O   UNL     1      61.543 151.942   4.697  1.00  0.00    -0.550 OA
ATOM      7  O   UNL     1      61.030 151.614   2.489  1.00  0.00    -0.550 OA
ENDBRANCH   4   5
ENDBRANCH   3   4
ENDBRANCH   2   3
ENDBRANCH   1   2
BRANCH   1   8
ATOM      8  C   UNL     1      64.445 148.884   5.757  1.00  0.00     0.000 C 
BRANCH   8   9
ATOM      9  C   UNL     1      63.076 148.306   5.359  1.00  0.00     0.000 C 
BRANCH   9  10
ATOM     10  C   UNL     1      61.903 148.852   6.199  1.00  0.00     0.006 C 
BRANCH  10  11
ATOM     11  C   UNL     1      62.383 149.707   7.378  1.00  0.00     0.053 C 
BRANCH  11  12
ATOM     12  C   UNL     1      61.236 150.440   7.998  1.00  0.00     0.041 C 
ATOM     13  O   UNL     1      60.272 149.801   8.498  1.00  0.00    -0.550 OA
ATOM     14  O   UNL     1      61.253 151.826   8.068  1.00  0.00    -0.550 OA
ENDBRANCH  11  12
ENDBRANCH  10  11
ENDBRANCH   9  10
ENDBRANCH   8   9
ENDBRANCH   1   8
TORSDOF 9
ENDMDL
MODEL 6
REMARK VINA RESULT:    -4.713      1.677      5.524
REMARK INTER + INTRA:          -7.691
REMARK INTER:                  -6.857
REMARK INTRA:                  -0.834
REMARK UNBOUND:                -0.498
REMARK SMILES O=C([O-])CCCCCCCCC(=O)[O-]
REMARK SMILES IDX 7 1 6 2 5 3 4 4 2 5 1 6 3 7 8 8 9 9 10 10 11 11 12 12 13 13
REMARK SMILES IDX 14 14
REMARK H PARENT
REMARK Flexibility Score: inf
ROOT
ATOM      1  C   UNL     1      64.998 149.370   4.657  1.00  0.00     0.000 C 
ENDROOT
BRANCH   1   2
ATOM      2  C   UNL     1      63.940 149.242   5.764  1.00  0.00     0.000 C 
BRANCH   2   3
ATOM      3  C   UNL     1      62.950 148.093   5.507  1.00  0.00     0.006 C 
BRANCH   3   4
ATOM      4  C   UNL     1      61.494 148.578   5.480  1.00  0.00     0.053 C 
BRANCH   4   5
ATOM      5  C   UNL     1      61.194 149.501   6.621  1.00  0.00     0.041 C 
ATOM      6  O   UNL     1      60.895 150.704   6.401  1.00  0.00    -0.550 OA
ATOM      7  O   UNL     1      61.282 149.042   7.929  1.00  0.00    -0.550 OA
ENDBRANCH   4   5
ENDBRANCH   3   4
ENDBRANCH   2   3
ENDBRANCH   1   2
BRANCH   1   8
ATOM      8  C   UNL     1      64.839 150.661   3.836  1.00  0.00     0.000 C 
BRANCH   8   9
ATOM      9  C   UNL     1      63.567 151.446   4.200  1.00  0.00     0.000 C 
BRANCH   9  10
ATOM     10  C   UNL     1      62.786 151.964   2.974  1.00  0.00     0.006 C 
BRANCH  10  11
ATOM     11  C   UNL     1      61.347 151.435   2.937  1.00  0.00     0.053 C 
BRANCH  11  12
ATOM     12  C   UNL     1      60.375 152.566   2.829  1.00  0.00     0.041 C 
ATOM     13  O   UNL     1      59.809 153.016   3.861  1.00  0.00    -0.550 OA
ATOM     14  O   UNL     1      60.129 153.156   1.596  1.00  0.00    -0.550 OA
ENDBRANCH  11  12
ENDBRANCH  10  11
ENDBRANCH   9  10
ENDBRANCH   8   9
ENDBRANCH   1   8
TORSDOF 9
ENDMDL
MODEL 7
REMARK VINA RESULT:    -4.539      2.449      3.417
REMARK INTER + INTRA:          -7.425
REMARK INTER:                  -6.732
REMARK INTRA:                  -0.693
REMARK UNBOUND:                -0.498
REMARK SMILES O=C([O-])CCCCCCCCC(=O)[O-]
REMARK SMILES IDX 7 1 6 2 5 3 4 4 2 5 1 6 3 7 8 8 9 9 10 10 11 11 12 12 13 13
REMARK SMILES IDX 14 14
REMARK H PARENT
REMARK Flexibility Score: inf
ROOT
ATOM      1  C   UNL     1      59.802 152.689   5.367  1.00  0.00     0.000 C 
ENDROOT
BRANCH   1   2
ATOM      2  C   UNL     1      59.153 154.027   4.980  1.00  0.00     0.000 C 
BRANCH   2   3
ATOM      3  C   UNL     1      58.851 154.126   3.475  1.00  0.00     0.006 C 
BRANCH   3   4
ATOM      4  C   UNL     1      59.421 152.936   2.690  1.00  0.00     0.053 C 
BRANCH   4   5
ATOM      5  C   UNL     1      60.105 153.376   1.432  1.00  0.00     0.041 C 
ATOM      6  O   UNL     1      61.330 153.143   1.262  1.00  0.00    -0.550 OA
ATOM      7  O   UNL     1      59.397 154.077   0.464  1.00  0.00    -0.550 OA
ENDBRANCH   4   5
ENDBRANCH   3   4
ENDBRANCH   2   3
ENDBRANCH   1   2
BRANCH   1   8
ATOM      8  C   UNL     1      61.251 152.855   5.853  1.00  0.00     0.000 C 
BRANCH   8   9
ATOM      9  C   UNL     1      62.095 151.584   5.655  1.00  0.00     0.000 C 
BRANCH   9  10
ATOM     10  C   UNL     1      62.457 151.302   4.182  1.00  0.00     0.006 C 
BRANCH  10  11
ATOM     11  C   UNL     1      63.824 151.881   3.799  1.00  0.00     0.053 C 
BRANCH  11  12
ATOM     12  C   UNL     1      64.873 151.437   4.769  1.00  0.00     0.041 C 
ATOM     13  O   UNL     1      65.210 150.224   4.825  1.00  0.00    -0.550 OA
ATOM     14  O   UNL     1      65.514 152.368   5.575  1.00  0.00    -0.550 OA
ENDBRANCH  11  12
ENDBRANCH  10  11
ENDBRANCH   9  10
ENDBRANCH   8   9
ENDBRANCH   1   8
TORSDOF 9
ENDMDL
MODEL 8
REMARK VINA RESULT:    -4.449      3.125      5.033
REMARK INTER + INTRA:          -7.288
REMARK INTER:                  -6.196
REMARK INTRA:                  -1.092
REMARK UNBOUND:                -0.498
REMARK SMILES O=C([O-])CCCCCCCCC(=O)[O-]
REMARK SMILES IDX 7 1 6 2 5 3 4 4 2 5 1 6 3 7 8 8 9 9 10 10 11 11 12 12 13 13
REMARK SMILES IDX 14 14
REMARK H PARENT
REMARK Flexibility Score: inf
ROOT
ATOM      1  C   UNL     1      63.066 148.165   5.389  1.00  0.00     0.000 C 
ENDROOT
BRANCH   1   2
ATOM      2  C   UNL     1      64.387 148.929   5.575  1.00  0.00     0.000 C 
BRANCH   2   3
ATOM      3  C   UNL     1      64.963 149.450   4.247  1.00  0.00     0.006 C 
BRANCH   3   4
ATOM      4  C   UNL     1      65.249 150.957   4.292  1.00  0.00     0.053 C 
BRANCH   4   5
ATOM      5  C   UNL     1      63.991 151.757   4.437  1.00  0.00     0.041 C 
ATOM      6  O   UNL     1      63.882 152.605   5.361  1.00  0.00    -0.550 OA
ATOM      7  O   UNL     1      62.924 151.540   3.574  1.00  0.00    -0.550 OA
ENDBRANCH   4   5
ENDBRANCH   3   4
ENDBRANCH   2   3
ENDBRANCH   1   2
BRANCH   1   8
ATOM      8  C   UNL     1      61.892 148.830   6.125  1.00  0.00     0.000 C 
BRANCH   8   9
ATOM      9  C   UNL     1      62.351 149.774   7.250  1.00  0.00     0.000 C 
BRANCH   9  10
ATOM     10  C   UNL     1      61.501 151.057   7.368  1.00  0.00     0.006 C 
BRANCH  10  11
ATOM     11  C   UNL     1      60.565 151.246   6.169  1.00  0.00     0.053 C 
BRANCH  11  12
ATOM     12  C   UNL     1      60.431 152.696   5.829  1.00  0.00     0.041 C 
ATOM     13  O   UNL     1      60.996 153.568   6.542  1.00  0.00    -0.550 OA
ATOM     14  O   UNL     1      59.725 153.083   4.699  1.00  0.00    -0.550 OA
ENDBRANCH  11  12
ENDBRANCH  10  11
ENDBRANCH   9  10
ENDBRANCH   8   9
ENDBRANCH   1   8
TORSDOF 9
ENDMDL
MODEL 9
REMARK VINA RESULT:    -3.875      1.314      1.767
REMARK INTER + INTRA:          -6.412
REMARK INTER:                  -6.199
REMARK INTRA:                  -0.213
REMARK UNBOUND:                -0.498
REMARK SMILES O=C([O-])CCCCCCCCC(=O)[O-]
REMARK SMILES IDX 7 1 6 2 5 3 4 4 2 5 1 6 3 7 8 8 9 9 10 10 11 11 12 12 13 13
REMARK SMILES IDX 14 14
REMARK H PARENT
REMARK Flexibility Score: inf
ROOT
ATOM      1  C   UNL     1      62.224 151.487   3.614  1.00  0.00     0.000 C 
ENDROOT
BRANCH   1   2
ATOM      2  C   UNL     1      61.453 151.931   2.361  1.00  0.00     0.000 C 
BRANCH   2   3
ATOM      3  C   UNL     1      60.041 152.448   2.686  1.00  0.00     0.006 C 
BRANCH   3   4
ATOM      4  C   UNL     1      59.543 153.464   1.649  1.00  0.00     0.053 C 
BRANCH   4   5
ATOM      5  C   UNL     1      58.627 154.479   2.262  1.00  0.00     0.041 C 
ATOM      6  O   UNL     1      58.511 154.554   3.513  1.00  0.00    -0.550 OA
ATOM      7  O   UNL     1      57.875 155.318   1.449  1.00  0.00    -0.550 OA
ENDBRANCH   4   5
ENDBRANCH   3   4
ENDBRANCH   2   3
ENDBRANCH   1   2
BRANCH   1   8
ATOM      8  C   UNL     1      63.748 151.521   3.410  1.00  0.00     0.000 C 
BRANCH   8   9
ATOM      9  C   UNL     1      64.510 151.932   4.681  1.00  0.00     0.000 C 
BRANCH   9  10
ATOM     10  C   UNL     1      65.062 150.738   5.488  1.00  0.00     0.006 C 
BRANCH  10  11
ATOM     11  C   UNL     1      64.608 149.391   4.914  1.00  0.00     0.053 C 
BRANCH  11  12
ATOM     12  C   UNL     1      63.488 148.823   5.727  1.00  0.00     0.041 C 
ATOM     13  O   UNL     1      63.091 149.422   6.762  1.00  0.00    -0.550 OA
ATOM     14  O   UNL     1      62.850 147.661   5.315  1.00  0.00    -0.550 OA
ENDBRANCH  11  12
ENDBRANCH  10  11
ENDBRANCH   9  10
ENDBRANCH   8   9
ENDBRANCH   1   8
TORSDOF 9
ENDMDL
