MODEL 1
REMARK VINA RESULT:    -6.970      0.000      0.000
REMARK INTER + INTRA:          -8.458
REMARK INTER:                  -8.192
REMARK INTRA:                  -0.266
REMARK UNBOUND:                -0.266
REMARK SMILES O=c1cc(-c2ccc(O)c(O)c2)oc2cc(O)cc(O)c12
REMARK SMILES IDX 4 1 3 2 2 3 1 4 21 5 19 6 18 7 16 8 15 9 14 10 13 11 5 12
REMARK SMILES IDX 6 13 7 14 8 15 12 16 10 17 9 18 11 20 20 22 17 24
REMARK H PARENT 9 19 11 21 20 23 17 25
REMARK Flexibility Score: inf
ROOT
ATOM      1  C   UNL     1       8.266  16.112 -19.021  1.00  0.00     0.138 A 
ATOM      2  C   UNL     1       8.302  15.760 -20.377  1.00  0.00     0.100 A 
ATOM      3  C   UNL     1       8.653  14.460 -20.744  1.00  0.00     0.197 A 
ATOM      4  O   UNL     1       8.616  14.157 -21.964  1.00  0.00    -0.289 OA
ATOM      5  C   UNL     1       9.000  13.517 -19.746  1.00  0.00     0.107 A 
ATOM      6  C   UNL     1       9.414  12.176 -20.005  1.00  0.00     0.134 A 
ATOM      7  C   UNL     1       9.620  11.299 -18.933  1.00  0.00     0.093 A 
ATOM      8  C   UNL     1       9.487  11.729 -17.614  1.00  0.00     0.123 A 
ATOM      9  C   UNL     1       9.135  13.054 -17.348  1.00  0.00     0.094 A 
ATOM     10  C   UNL     1       8.889  13.943 -18.397  1.00  0.00     0.146 A 
ATOM     11  O   UNL     1       8.543  15.192 -18.102  1.00  0.00    -0.456 OA
ENDROOT
BRANCH   1  12
ATOM     12  C   UNL     1       7.900  17.480 -18.576  1.00  0.00     0.021 A 
ATOM     13  C   UNL     1       6.692  17.682 -17.883  1.00  0.00     0.016 A 
ATOM     14  C   UNL     1       6.328  18.958 -17.447  1.00  0.00     0.051 A 
ATOM     15  C   UNL     1       7.169  20.052 -17.687  1.00  0.00     0.157 A 
ATOM     16  C   UNL     1       8.746  18.583 -18.802  1.00  0.00     0.062 A 
ATOM     17  C   UNL     1       8.380  19.865 -18.362  1.00  0.00     0.158 A 
BRANCH  15  18
ATOM     18  O   UNL     1       6.809  21.328 -17.254  1.00  0.00    -0.504 OA
ATOM     19  H   UNL     1       7.477  22.089 -17.234  1.00  0.00     0.293 HD
ENDBRANCH  15  18
BRANCH  17  20
ATOM     20  O   UNL     1       9.219  20.954 -18.590  1.00  0.00    -0.504 OA
ATOM     21  H   UNL     1      10.160  20.987 -18.214  1.00  0.00     0.293 HD
ENDBRANCH  17  20
ENDBRANCH   1  12
BRANCH   6  22
ATOM     22  O   UNL     1       9.659  11.666 -21.284  1.00  0.00    -0.507 OA
ATOM     23  H   UNL     1      10.513  11.799 -21.804  1.00  0.00     0.293 HD
ENDBRANCH   6  22
BRANCH   8  24
ATOM     24  O   UNL     1       9.715  10.833 -16.572  1.00  0.00    -0.508 OA
ATOM     25  H   UNL     1      10.451  10.137 -16.622  1.00  0.00     0.293 HD
ENDBRANCH   8  24
TORSDOF 5
ENDMDL
MODEL 2
REMARK VINA RESULT:    -6.756      5.482     10.662
REMARK INTER + INTRA:          -8.206
REMARK INTER:                  -7.939
REMARK INTRA:                  -0.268
REMARK UNBOUND:                -0.266
REMARK SMILES O=c1cc(-c2ccc(O)c(O)c2)oc2cc(O)cc(O)c12
REMARK SMILES IDX 4 1 3 2 2 3 1 4 21 5 19 6 18 7 16 8 15 9 14 10 13 11 5 12
REMARK SMILES IDX 6 13 7 14 8 15 12 16 10 17 9 18 11 20 20 22 17 24
REMARK H PARENT 9 19 11 21 20 23 17 25
REMARK Flexibility Score: inf
ROOT
ATOM      1  C   UNL     1       7.365   8.313 -14.888  1.00  0.00     0.138 A 
ATOM      2  C   UNL     1       7.032   8.673 -13.575  1.00  0.00     0.100 A 
ATOM      3  C   UNL     1       7.368   9.942 -13.101  1.00  0.00     0.197 A 
ATOM      4  O   UNL     1       7.002  10.258 -11.940  1.00  0.00    -0.289 OA
ATOM      5  C   UNL     1       8.069  10.843 -13.938  1.00  0.00     0.107 A 
ATOM      6  C   UNL     1       8.498  12.147 -13.548  1.00  0.00     0.134 A 
ATOM      7  C   UNL     1       9.081  12.993 -14.499  1.00  0.00     0.093 A 
ATOM      8  C   UNL     1       9.304  12.565 -15.807  1.00  0.00     0.123 A 
ATOM      9  C   UNL     1       8.936  11.272 -16.185  1.00  0.00     0.094 A 
ATOM     10  C   UNL     1       8.321  10.415 -15.268  1.00  0.00     0.146 A 
ATOM     11  O   UNL     1       7.973   9.197 -15.671  1.00  0.00    -0.456 OA
ENDROOT
BRANCH   1  12
ATOM     12  C   UNL     1       7.032   6.977 -15.442  1.00  0.00     0.021 A 
ATOM     13  C   UNL     1       6.197   6.884 -16.570  1.00  0.00     0.016 A 
ATOM     14  C   UNL     1       5.875   5.639 -17.116  1.00  0.00     0.051 A 
ATOM     15  C   UNL     1       6.390   4.466 -16.550  1.00  0.00     0.157 A 
ATOM     16  C   UNL     1       7.557   5.793 -14.887  1.00  0.00     0.062 A 
ATOM     17  C   UNL     1       7.234   4.543 -15.437  1.00  0.00     0.158 A 
BRANCH  15  18
ATOM     18  O   UNL     1       6.070   3.221 -17.091  1.00  0.00    -0.504 OA
ATOM     19  H   UNL     1       6.112   3.051 -18.088  1.00  0.00     0.293 HD
ENDBRANCH  15  18
BRANCH  17  20
ATOM     20  O   UNL     1       7.753   3.374 -14.882  1.00  0.00    -0.504 OA
ATOM     21  H   UNL     1       8.542   2.894 -15.299  1.00  0.00     0.293 HD
ENDBRANCH  17  20
ENDBRANCH   1  12
BRANCH   6  22
ATOM     22  O   UNL     1       8.401  12.646 -12.245  1.00  0.00    -0.507 OA
ATOM     23  H   UNL     1       7.996  13.536 -11.998  1.00  0.00     0.293 HD
ENDBRANCH   6  22
BRANCH   8  24
ATOM     24  O   UNL     1       9.899  13.429 -16.722  1.00  0.00    -0.508 OA
ATOM     25  H   UNL     1      10.239  14.343 -16.445  1.00  0.00     0.293 HD
ENDBRANCH   8  24
TORSDOF 5
ENDMDL
MODEL 3
REMARK VINA RESULT:    -6.631      3.611      6.430
REMARK INTER + INTRA:          -8.060
REMARK INTER:                  -7.797
REMARK INTRA:                  -0.263
REMARK UNBOUND:                -0.266
REMARK SMILES O=c1cc(-c2ccc(O)c(O)c2)oc2cc(O)cc(O)c12
REMARK SMILES IDX 4 1 3 2 2 3 1 4 21 5 19 6 18 7 16 8 15 9 14 10 13 11 5 12
REMARK SMILES IDX 6 13 7 14 8 15 12 16 10 17 9 18 11 20 20 22 17 24
REMARK H PARENT 9 19 11 21 20 23 17 25
REMARK Flexibility Score: inf
ROOT
ATOM      1  C   UNL     1       9.621  11.522 -16.100  1.00  0.00     0.138 A 
ATOM      2  C   UNL     1      10.167  10.303 -16.526  1.00  0.00     0.100 A 
ATOM      3  C   UNL     1       9.848   9.128 -15.844  1.00  0.00     0.197 A 
ATOM      4  O   UNL     1      10.303   8.043 -16.287  1.00  0.00    -0.289 OA
ATOM      5  C   UNL     1       9.001   9.180 -14.710  1.00  0.00     0.107 A 
ATOM      6  C   UNL     1       8.640   8.052 -13.914  1.00  0.00     0.134 A 
ATOM      7  C   UNL     1       7.703   8.207 -12.886  1.00  0.00     0.093 A 
ATOM      8  C   UNL     1       7.159   9.455 -12.586  1.00  0.00     0.123 A 
ATOM      9  C   UNL     1       7.545  10.575 -13.325  1.00  0.00     0.094 A 
ATOM     10  C   UNL     1       8.453  10.447 -14.379  1.00  0.00     0.146 A 
ATOM     11  O   UNL     1       8.785  11.535 -15.067  1.00  0.00    -0.456 OA
ENDROOT
BRANCH   1  12
ATOM     12  C   UNL     1       9.928  12.801 -16.788  1.00  0.00     0.021 A 
ATOM     13  C   UNL     1      10.839  13.700 -16.203  1.00  0.00     0.016 A 
ATOM     14  C   UNL     1      11.151  14.906 -16.834  1.00  0.00     0.051 A 
ATOM     15  C   UNL     1      10.566  15.232 -18.063  1.00  0.00     0.157 A 
ATOM     16  C   UNL     1       9.353  13.130 -18.032  1.00  0.00     0.062 A 
ATOM     17  C   UNL     1       9.669  14.342 -18.665  1.00  0.00     0.158 A 
BRANCH  15  18
ATOM     18  O   UNL     1      10.873  16.436 -18.696  1.00  0.00    -0.504 OA
ATOM     19  H   UNL     1      11.630  17.026 -18.371  1.00  0.00     0.293 HD
ENDBRANCH  15  18
BRANCH  17  20
ATOM     20  O   UNL     1       9.096  14.664 -19.895  1.00  0.00    -0.504 OA
ATOM     21  H   UNL     1       9.625  14.608 -20.757  1.00  0.00     0.293 HD
ENDBRANCH  17  20
ENDBRANCH   1  12
BRANCH   6  22
ATOM     22  O   UNL     1       9.188   6.775 -14.073  1.00  0.00    -0.507 OA
ATOM     23  H   UNL     1       8.956   5.974 -13.506  1.00  0.00     0.293 HD
ENDBRANCH   6  22
BRANCH   8  24
ATOM     24  O   UNL     1       6.240   9.573 -11.547  1.00  0.00    -0.508 OA
ATOM     25  H   UNL     1       5.461   8.931 -11.451  1.00  0.00     0.293 HD
ENDBRANCH   8  24
TORSDOF 5
ENDMDL
MODEL 4
REMARK VINA RESULT:    -6.605      2.590      4.397
REMARK INTER + INTRA:          -8.030
REMARK INTER:                  -7.713
REMARK INTRA:                  -0.317
REMARK UNBOUND:                -0.266
REMARK SMILES O=c1cc(-c2ccc(O)c(O)c2)oc2cc(O)cc(O)c12
REMARK SMILES IDX 4 1 3 2 2 3 1 4 21 5 19 6 18 7 16 8 15 9 14 10 13 11 5 12
REMARK SMILES IDX 6 13 7 14 8 15 12 16 10 17 9 18 11 20 20 22 17 24
REMARK H PARENT 9 19 11 21 20 23 17 25
REMARK Flexibility Score: inf
ROOT
ATOM      1  C   UNL     1       9.033  13.331 -18.892  1.00  0.00     0.138 A 
ATOM      2  C   UNL     1       9.441  12.038 -19.249  1.00  0.00     0.100 A 
ATOM      3  C   UNL     1       9.617  11.072 -18.257  1.00  0.00     0.197 A 
ATOM      4  O   UNL     1       9.923   9.904 -18.614  1.00  0.00    -0.289 OA
ATOM      5  C   UNL     1       9.414  11.413 -16.899  1.00  0.00     0.107 A 
ATOM      6  C   UNL     1       9.604  10.521 -15.800  1.00  0.00     0.134 A 
ATOM      7  C   UNL     1       9.261  10.936 -14.509  1.00  0.00     0.093 A 
ATOM      8  C   UNL     1       8.792  12.227 -14.266  1.00  0.00     0.123 A 
ATOM      9  C   UNL     1       8.653  13.125 -15.326  1.00  0.00     0.094 A 
ATOM     10  C   UNL     1       8.955  12.729 -16.631  1.00  0.00     0.146 A 
ATOM     11  O   UNL     1       8.796  13.609 -17.615  1.00  0.00    -0.456 OA
ENDROOT
BRANCH   1  12
ATOM     12  C   UNL     1       8.832  14.396 -19.906  1.00  0.00     0.021 A 
ATOM     13  C   UNL     1       8.870  14.067 -21.273  1.00  0.00     0.016 A 
ATOM     14  C   UNL     1       8.676  15.049 -22.246  1.00  0.00     0.051 A 
ATOM     15  C   UNL     1       8.430  16.376 -21.871  1.00  0.00     0.157 A 
ATOM     16  C   UNL     1       8.571  15.731 -19.536  1.00  0.00     0.062 A 
ATOM     17  C   UNL     1       8.374  16.716 -20.515  1.00  0.00     0.158 A 
BRANCH  15  18
ATOM     18  O   UNL     1       8.237  17.360 -22.840  1.00  0.00    -0.504 OA
ATOM     19  H   UNL     1       8.485  18.327 -22.669  1.00  0.00     0.293 HD
ENDBRANCH  15  18
BRANCH  17  20
ATOM     20  O   UNL     1       8.119  18.036 -20.145  1.00  0.00    -0.504 OA
ATOM     21  H   UNL     1       8.647  18.493 -19.410  1.00  0.00     0.293 HD
ENDBRANCH  17  20
ENDBRANCH   1  12
BRANCH   6  22
ATOM     22  O   UNL     1      10.146   9.237 -15.920  1.00  0.00    -0.507 OA
ATOM     23  H   UNL     1       9.912   8.455 -15.328  1.00  0.00     0.293 HD
ENDBRANCH   6  22
BRANCH   8  24
ATOM     24  O   UNL     1       8.474  12.610 -12.965  1.00  0.00    -0.508 OA
ATOM     25  H   UNL     1       9.164  13.032 -12.353  1.00  0.00     0.293 HD
ENDBRANCH   8  24
TORSDOF 5
ENDMDL
MODEL 5
REMARK VINA RESULT:    -6.467      2.536      7.280
REMARK INTER + INTRA:          -7.867
REMARK INTER:                  -7.598
REMARK INTRA:                  -0.269
REMARK UNBOUND:                -0.266
REMARK SMILES O=c1cc(-c2ccc(O)c(O)c2)oc2cc(O)cc(O)c12
REMARK SMILES IDX 4 1 3 2 2 3 1 4 21 5 19 6 18 7 16 8 15 9 14 10 13 11 5 12
REMARK SMILES IDX 6 13 7 14 8 15 12 16 10 17 9 18 11 20 20 22 17 24
REMARK H PARENT 9 19 11 21 20 23 17 25
REMARK Flexibility Score: inf
ROOT
ATOM      1  C   UNL     1       9.447  11.884 -18.052  1.00  0.00     0.138 A 
ATOM      2  C   UNL     1       9.006  11.541 -19.338  1.00  0.00     0.100 A 
ATOM      3  C   UNL     1       8.819  12.542 -20.293  1.00  0.00     0.197 A 
ATOM      4  O   UNL     1       8.484  12.197 -21.456  1.00  0.00    -0.289 OA
ATOM      5  C   UNL     1       9.044  13.896 -19.947  1.00  0.00     0.107 A 
ATOM      6  C   UNL     1       8.847  15.002 -20.827  1.00  0.00     0.134 A 
ATOM      7  C   UNL     1       9.213  16.287 -20.410  1.00  0.00     0.093 A 
ATOM      8  C   UNL     1       9.714  16.516 -19.129  1.00  0.00     0.123 A 
ATOM      9  C   UNL     1       9.861  15.447 -18.241  1.00  0.00     0.094 A 
ATOM     10  C   UNL     1       9.536  14.148 -18.639  1.00  0.00     0.146 A 
ATOM     11  O   UNL     1       9.704  13.157 -17.770  1.00  0.00    -0.456 OA
ENDROOT
BRANCH   1  12
ATOM     12  C   UNL     1       9.661  10.861 -16.999  1.00  0.00     0.021 A 
ATOM     13  C   UNL     1      10.748   9.974 -17.107  1.00  0.00     0.016 A 
ATOM     14  C   UNL     1      10.976   9.007 -16.126  1.00  0.00     0.051 A 
ATOM     15  C   UNL     1      10.129   8.915 -15.015  1.00  0.00     0.157 A 
ATOM     16  C   UNL     1       8.821  10.771 -15.871  1.00  0.00     0.062 A 
ATOM     17  C   UNL     1       9.053   9.800 -14.885  1.00  0.00     0.158 A 
BRANCH  15  18
ATOM     18  O   UNL     1      10.353   7.950 -14.033  1.00  0.00    -0.504 OA
ATOM     19  H   UNL     1      10.205   6.965 -14.215  1.00  0.00     0.293 HD
ENDBRANCH  15  18
BRANCH  17  20
ATOM     20  O   UNL     1       8.218   9.713 -13.772  1.00  0.00    -0.504 OA
ATOM     21  H   UNL     1       7.920   8.818 -13.401  1.00  0.00     0.293 HD
ENDBRANCH  17  20
ENDBRANCH   1  12
BRANCH   6  22
ATOM     22  O   UNL     1       8.275  14.898 -22.098  1.00  0.00    -0.507 OA
ATOM     23  H   UNL     1       8.794  14.824 -22.960  1.00  0.00     0.293 HD
ENDBRANCH   6  22
BRANCH   8  24
ATOM     24  O   UNL     1      10.054  17.810 -18.744  1.00  0.00    -0.508 OA
ATOM     25  H   UNL     1      10.203  18.052 -17.770  1.00  0.00     0.293 HD
ENDBRANCH   8  24
TORSDOF 5
ENDMDL
MODEL 6
REMARK VINA RESULT:    -6.441      3.270      7.860
REMARK INTER + INTRA:          -7.837
REMARK INTER:                  -7.574
REMARK INTRA:                  -0.263
REMARK UNBOUND:                -0.266
REMARK SMILES O=c1cc(-c2ccc(O)c(O)c2)oc2cc(O)cc(O)c12
REMARK SMILES IDX 4 1 3 2 2 3 1 4 21 5 19 6 18 7 16 8 15 9 14 10 13 11 5 12
REMARK SMILES IDX 6 13 7 14 8 15 12 16 10 17 9 18 11 20 20 22 17 24
REMARK H PARENT 9 19 11 21 20 23 17 25
REMARK Flexibility Score: inf
ROOT
ATOM      1  C   UNL     1       9.753  11.865 -16.725  1.00  0.00     0.138 A 
ATOM      2  C   UNL     1      10.549  12.897 -16.211  1.00  0.00     0.100 A 
ATOM      3  C   UNL     1      10.672  14.093 -16.921  1.00  0.00     0.197 A 
ATOM      4  O   UNL     1      11.343  15.023 -16.404  1.00  0.00    -0.289 OA
ATOM      5  C   UNL     1      10.018  14.242 -18.167  1.00  0.00     0.107 A 
ATOM      6  C   UNL     1      10.105  15.400 -18.997  1.00  0.00     0.134 A 
ATOM      7  C   UNL     1       9.321  15.479 -20.154  1.00  0.00     0.093 A 
ATOM      8  C   UNL     1       8.500  14.422 -20.543  1.00  0.00     0.123 A 
ATOM      9  C   UNL     1       8.448  13.262 -19.767  1.00  0.00     0.094 A 
ATOM     10  C   UNL     1       9.193  13.166 -18.589  1.00  0.00     0.146 A 
ATOM     11  O   UNL     1       9.105  12.051 -17.871  1.00  0.00    -0.456 OA
ENDROOT
BRANCH   1  12
ATOM     12  C   UNL     1       9.588  10.573 -16.013  1.00  0.00     0.021 A 
ATOM     13  C   UNL     1      10.331   9.453 -16.430  1.00  0.00     0.016 A 
ATOM     14  C   UNL     1      10.200   8.228 -15.772  1.00  0.00     0.051 A 
ATOM     15  C   UNL     1       9.333   8.103 -14.680  1.00  0.00     0.157 A 
ATOM     16  C   UNL     1       8.728  10.443 -14.905  1.00  0.00     0.062 A 
ATOM     17  C   UNL     1       8.599   9.212 -14.243  1.00  0.00     0.158 A 
BRANCH  15  18
ATOM     18  O   UNL     1       9.199   6.882 -14.021  1.00  0.00    -0.504 OA
ATOM     19  H   UNL     1       8.516   6.750 -13.284  1.00  0.00     0.293 HD
ENDBRANCH  15  18
BRANCH  17  20
ATOM     20  O   UNL     1       7.745   9.086 -13.148  1.00  0.00    -0.504 OA
ATOM     21  H   UNL     1       8.102   8.984 -12.206  1.00  0.00     0.293 HD
ENDBRANCH  17  20
ENDBRANCH   1  12
BRANCH   6  22
ATOM     22  O   UNL     1      10.957  16.480 -18.745  1.00  0.00    -0.507 OA
ATOM     23  H   UNL     1      11.882  16.404 -18.349  1.00  0.00     0.293 HD
ENDBRANCH   6  22
BRANCH   8  24
ATOM     24  O   UNL     1       7.746  14.530 -21.708  1.00  0.00    -0.508 OA
ATOM     25  H   UNL     1       8.177  14.731 -22.604  1.00  0.00     0.293 HD
ENDBRANCH   8  24
TORSDOF 5
ENDMDL
MODEL 7
REMARK VINA RESULT:    -6.386      3.832      6.657
REMARK INTER + INTRA:          -7.772
REMARK INTER:                  -7.505
REMARK INTRA:                  -0.267
REMARK UNBOUND:                -0.266
REMARK SMILES O=c1cc(-c2ccc(O)c(O)c2)oc2cc(O)cc(O)c12
REMARK SMILES IDX 4 1 3 2 2 3 1 4 21 5 19 6 18 7 16 8 15 9 14 10 13 11 5 12
REMARK SMILES IDX 6 13 7 14 8 15 12 16 10 17 9 18 11 20 20 22 17 24
REMARK H PARENT 9 19 11 21 20 23 17 25
REMARK Flexibility Score: inf
ROOT
ATOM      1  C   UNL     1       9.122  12.339 -15.250  1.00  0.00     0.138 A 
ATOM      2  C   UNL     1       8.345  12.747 -14.157  1.00  0.00     0.100 A 
ATOM      3  C   UNL     1       7.790  11.788 -13.308  1.00  0.00     0.197 A 
ATOM      4  O   UNL     1       7.150  12.186 -12.301  1.00  0.00    -0.289 OA
ATOM      5  C   UNL     1       7.989  10.412 -13.576  1.00  0.00     0.107 A 
ATOM      6  C   UNL     1       7.438   9.346 -12.803  1.00  0.00     0.134 A 
ATOM      7  C   UNL     1       7.798   8.026 -13.095  1.00  0.00     0.093 A 
ATOM      8  C   UNL     1       8.641   7.727 -14.164  1.00  0.00     0.123 A 
ATOM      9  C   UNL     1       9.144   8.758 -14.960  1.00  0.00     0.094 A 
ATOM     10  C   UNL     1       8.829  10.089 -14.674  1.00  0.00     0.146 A 
ATOM     11  O   UNL     1       9.339  11.042 -15.447  1.00  0.00    -0.456 OA
ENDROOT
BRANCH   1  12
ATOM     12  C   UNL     1       9.735  13.316 -16.184  1.00  0.00     0.021 A 
ATOM     13  C   UNL     1      10.916  13.983 -15.811  1.00  0.00     0.016 A 
ATOM     14  C   UNL     1      11.516  14.902 -16.674  1.00  0.00     0.051 A 
ATOM     15  C   UNL     1      10.953  15.163 -17.930  1.00  0.00     0.157 A 
ATOM     16  C   UNL     1       9.182  13.574 -17.454  1.00  0.00     0.062 A 
ATOM     17  C   UNL     1       9.787  14.496 -18.322  1.00  0.00     0.158 A 
BRANCH  15  18
ATOM     18  O   UNL     1      11.549  16.080 -18.795  1.00  0.00    -0.504 OA
ATOM     19  H   UNL     1      11.931  16.955 -18.457  1.00  0.00     0.293 HD
ENDBRANCH  15  18
BRANCH  17  20
ATOM     20  O   UNL     1       9.235  14.750 -19.577  1.00  0.00    -0.504 OA
ATOM     21  H   UNL     1       8.553  14.127 -19.992  1.00  0.00     0.293 HD
ENDBRANCH  17  20
ENDBRANCH   1  12
BRANCH   6  22
ATOM     22  O   UNL     1       6.519   9.528 -11.764  1.00  0.00    -0.507 OA
ATOM     23  H   UNL     1       5.595   9.918 -11.874  1.00  0.00     0.293 HD
ENDBRANCH   6  22
BRANCH   8  24
ATOM     24  O   UNL     1       8.966   6.400 -14.434  1.00  0.00    -0.508 OA
ATOM     25  H   UNL     1       9.271   6.104 -15.355  1.00  0.00     0.293 HD
ENDBRANCH   8  24
TORSDOF 5
ENDMDL
MODEL 8
REMARK VINA RESULT:    -6.231      2.356      6.434
REMARK INTER + INTRA:          -7.589
REMARK INTER:                  -7.282
REMARK INTRA:                  -0.307
REMARK UNBOUND:                -0.266
REMARK SMILES O=c1cc(-c2ccc(O)c(O)c2)oc2cc(O)cc(O)c12
REMARK SMILES IDX 4 1 3 2 2 3 1 4 21 5 19 6 18 7 16 8 15 9 14 10 13 11 5 12
REMARK SMILES IDX 6 13 7 14 8 15 12 16 10 17 9 18 11 20 20 22 17 24
REMARK H PARENT 9 19 11 21 20 23 17 25
REMARK Flexibility Score: inf
ROOT
ATOM      1  C   UNL     1       8.357  13.062 -17.497  1.00  0.00     0.138 A 
ATOM      2  C   UNL     1       8.728  12.440 -18.698  1.00  0.00     0.100 A 
ATOM      3  C   UNL     1       8.865  13.204 -19.858  1.00  0.00     0.197 A 
ATOM      4  O   UNL     1       9.259  12.629 -20.904  1.00  0.00    -0.289 OA
ATOM      5  C   UNL     1       8.597  14.594 -19.820  1.00  0.00     0.107 A 
ATOM      6  C   UNL     1       8.664  15.465 -20.949  1.00  0.00     0.134 A 
ATOM      7  C   UNL     1       8.492  16.842 -20.768  1.00  0.00     0.093 A 
ATOM      8  C   UNL     1       8.197  17.374 -19.514  1.00  0.00     0.123 A 
ATOM      9  C   UNL     1       8.076  16.525 -18.411  1.00  0.00     0.094 A 
ATOM     10  C   UNL     1       8.276  15.149 -18.554  1.00  0.00     0.146 A 
ATOM     11  O   UNL     1       8.166  14.377 -17.478  1.00  0.00    -0.456 OA
ENDROOT
BRANCH   1  12
ATOM     12  C   UNL     1       8.197  12.297 -16.236  1.00  0.00     0.021 A 
ATOM     13  C   UNL     1       7.838  10.938 -16.292  1.00  0.00     0.016 A 
ATOM     14  C   UNL     1       7.688  10.194 -15.119  1.00  0.00     0.051 A 
ATOM     15  C   UNL     1       7.903  10.791 -13.872  1.00  0.00     0.157 A 
ATOM     16  C   UNL     1       8.425  12.888 -14.977  1.00  0.00     0.062 A 
ATOM     17  C   UNL     1       8.276  12.139 -13.800  1.00  0.00     0.158 A 
BRANCH  15  18
ATOM     18  O   UNL     1       7.754  10.052 -12.699  1.00  0.00    -0.504 OA
ATOM     19  H   UNL     1       8.555   9.754 -12.155  1.00  0.00     0.293 HD
ENDBRANCH  15  18
BRANCH  17  20
ATOM     20  O   UNL     1       8.500  12.728 -12.557  1.00  0.00    -0.504 OA
ATOM     21  H   UNL     1       7.769  12.785 -11.857  1.00  0.00     0.293 HD
ENDBRANCH  17  20
ENDBRANCH   1  12
BRANCH   6  22
ATOM     22  O   UNL     1       8.870  15.028 -22.262  1.00  0.00    -0.507 OA
ATOM     23  H   UNL     1       9.043  14.072 -22.531  1.00  0.00     0.293 HD
ENDBRANCH   6  22
BRANCH   8  24
ATOM     24  O   UNL     1       8.017  18.747 -19.374  1.00  0.00    -0.508 OA
ATOM     25  H   UNL     1       7.092  19.157 -19.306  1.00  0.00     0.293 HD
ENDBRANCH   8  24
TORSDOF 5
ENDMDL
MODEL 9
REMARK VINA RESULT:    -6.206      8.071     11.698
REMARK INTER + INTRA:          -7.561
REMARK INTER:                  -7.272
REMARK INTRA:                  -0.289
REMARK UNBOUND:                -0.266
REMARK SMILES O=c1cc(-c2ccc(O)c(O)c2)oc2cc(O)cc(O)c12
REMARK SMILES IDX 4 1 3 2 2 3 1 4 21 5 19 6 18 7 16 8 15 9 14 10 13 11 5 12
REMARK SMILES IDX 6 13 7 14 8 15 12 16 10 17 9 18 11 20 20 22 17 24
REMARK H PARENT 9 19 11 21 20 23 17 25
REMARK Flexibility Score: inf
ROOT
ATOM      1  C   UNL     1       7.307   6.668 -15.421  1.00  0.00     0.138 A 
ATOM      2  C   UNL     1       7.756   7.880 -15.963  1.00  0.00     0.100 A 
ATOM      3  C   UNL     1       7.819   9.016 -15.154  1.00  0.00     0.197 A 
ATOM      4  O   UNL     1       8.285  10.074 -15.651  1.00  0.00    -0.289 OA
ATOM      5  C   UNL     1       7.401   8.942 -13.803  1.00  0.00     0.107 A 
ATOM      6  C   UNL     1       7.384  10.045 -12.897  1.00  0.00     0.134 A 
ATOM      7  C   UNL     1       7.060   9.826 -11.553  1.00  0.00     0.093 A 
ATOM      8  C   UNL     1       6.696   8.561 -11.094  1.00  0.00     0.123 A 
ATOM      9  C   UNL     1       6.658   7.485 -11.984  1.00  0.00     0.094 A 
ATOM     10  C   UNL     1       7.009   7.665 -13.324  1.00  0.00     0.146 A 
ATOM     11  O   UNL     1       6.973   6.613 -14.136  1.00  0.00    -0.456 OA
ENDROOT
BRANCH   1  12
ATOM     12  C   UNL     1       7.219   5.430 -16.237  1.00  0.00     0.021 A 
ATOM     13  C   UNL     1       7.354   4.178 -15.610  1.00  0.00     0.016 A 
ATOM     14  C   UNL     1       7.268   2.999 -16.354  1.00  0.00     0.051 A 
ATOM     15  C   UNL     1       7.035   3.050 -17.733  1.00  0.00     0.157 A 
ATOM     16  C   UNL     1       6.972   5.473 -17.623  1.00  0.00     0.062 A 
ATOM     17  C   UNL     1       6.884   4.288 -18.369  1.00  0.00     0.158 A 
BRANCH  15  18
ATOM     18  O   UNL     1       6.950   1.875 -18.480  1.00  0.00    -0.504 OA
ATOM     19  H   UNL     1       6.547   1.030 -18.092  1.00  0.00     0.293 HD
ENDBRANCH  15  18
BRANCH  17  20
ATOM     20  O   UNL     1       6.642   4.335 -19.741  1.00  0.00    -0.504 OA
ATOM     21  H   UNL     1       6.611   3.492 -20.303  1.00  0.00     0.293 HD
ENDBRANCH  17  20
ENDBRANCH   1  12
BRANCH   6  22
ATOM     22  O   UNL     1       7.649  11.366 -13.269  1.00  0.00    -0.507 OA
ATOM     23  H   UNL     1       7.120  11.891 -13.948  1.00  0.00     0.293 HD
ENDBRANCH   6  22
BRANCH   8  24
ATOM     24  O   UNL     1       6.365   8.384  -9.753  1.00  0.00    -0.508 OA
ATOM     25  H   UNL     1       6.681   7.574  -9.231  1.00  0.00     0.293 HD
ENDBRANCH   8  24
TORSDOF 5
ENDMDL
