MODEL 1
REMARK VINA RESULT:    -7.381      0.000      0.000
REMARK INTER + INTRA:         -10.984
REMARK INTER:                 -10.402
REMARK INTRA:                  -0.582
REMARK UNBOUND:                -0.582
REMARK SMILES COc1ccc(-c2cc(=O)c3c(OC)c(OC)c(OC)c(OC)c3o2)cc1OC
REMARK SMILES IDX 7 1 8 2 9 3 10 4 11 5 24 6 25 7 21 8 18 9 15 10 12 11 6 12
REMARK SMILES IDX 3 13 27 14 4 15 26 16 5 17 2 18 1 19 28 20 29 21 22 22 23 23
REMARK SMILES IDX 13 24 14 25 19 26 20 27 16 28 17 29
REMARK H PARENT
REMARK Flexibility Score: inf
ROOT
ATOM      1  C   UNL     1     -35.433  36.650  43.697  1.00  0.00     0.138 A 
ATOM      2  C   UNL     1     -36.715  36.915  43.210  1.00  0.00     0.100 A 
ATOM      3  C   UNL     1     -36.950  38.107  42.532  1.00  0.00     0.197 A 
ATOM      4  O   UNL     1     -38.108  38.321  42.086  1.00  0.00    -0.289 OA
ATOM      5  C   UNL     1     -35.896  39.039  42.354  1.00  0.00     0.115 A 
ATOM      6  C   UNL     1     -34.628  38.702  42.884  1.00  0.00     0.188 A 
ATOM      7  O   UNL     1     -34.464  37.537  43.508  1.00  0.00    -0.452 OA
ATOM      8  C   UNL     1     -33.536  39.587  42.750  1.00  0.00     0.209 A 
ATOM      9  C   UNL     1     -33.701  40.800  42.033  1.00  0.00     0.211 A 
ATOM     10  C   UNL     1     -34.974  41.145  41.504  1.00  0.00     0.208 A 
ATOM     11  C   UNL     1     -36.075  40.267  41.675  1.00  0.00     0.179 A 
ENDROOT
BRANCH   1  12
ATOM     12  C   UNL     1     -35.130  35.391  44.415  1.00  0.00     0.021 A 
ATOM     13  C   UNL     1     -34.590  32.969  45.757  1.00  0.00     0.160 A 
ATOM     14  C   UNL     1     -33.542  33.686  45.160  1.00  0.00     0.161 A 
ATOM     15  C   UNL     1     -35.904  33.465  45.675  1.00  0.00     0.051 A 
ATOM     16  C   UNL     1     -33.817  34.895  44.489  1.00  0.00     0.062 A 
ATOM     17  C   UNL     1     -36.168  34.662  45.007  1.00  0.00     0.016 A 
BRANCH  13  18
ATOM     18  O   UNL     1     -34.285  31.770  46.421  1.00  0.00    -0.493 OA
ATOM     19  C   UNL     1     -35.255  30.877  46.958  1.00  0.00     0.278 C 
ENDBRANCH  13  18
BRANCH  14  20
ATOM     20  O   UNL     1     -32.238  33.164  45.254  1.00  0.00    -0.493 OA
ATOM     21  C   UNL     1     -31.197  33.415  44.315  1.00  0.00     0.278 C 
ENDBRANCH  14  20
ENDBRANCH   1  12
BRANCH   8  22
ATOM     22  O   UNL     1     -32.274  39.303  43.306  1.00  0.00    -0.490 OA
ATOM     23  C   UNL     1     -31.120  38.821  42.631  1.00  0.00     0.278 C 
ENDBRANCH   8  22
BRANCH  11  24
ATOM     24  O   UNL     1     -37.368  40.563  41.188  1.00  0.00    -0.492 OA
ATOM     25  C   UNL     1     -37.850  40.442  39.855  1.00  0.00     0.278 C 
ENDBRANCH  11  24
BRANCH   9  26
ATOM     26  O   UNL     1     -32.631  41.690  41.810  1.00  0.00    -0.490 OA
ATOM     27  C   UNL     1     -31.771  41.769  40.679  1.00  0.00     0.279 C 
ENDBRANCH   9  26
BRANCH  10  28
ATOM     28  O   UNL     1     -35.196  42.345  40.798  1.00  0.00    -0.490 OA
ATOM     29  C   UNL     1     -35.380  43.656  41.325  1.00  0.00     0.278 C 
ENDBRANCH  10  28
TORSDOF 7
ENDMDL
MODEL 2
REMARK VINA RESULT:    -7.266      3.186      7.044
REMARK INTER + INTRA:         -10.821
REMARK INTER:                 -10.369
REMARK INTRA:                  -0.452
REMARK UNBOUND:                -0.582
REMARK SMILES COc1ccc(-c2cc(=O)c3c(OC)c(OC)c(OC)c(OC)c3o2)cc1OC
REMARK SMILES IDX 7 1 8 2 9 3 10 4 11 5 24 6 25 7 21 8 18 9 15 10 12 11 6 12
REMARK SMILES IDX 3 13 27 14 4 15 26 16 5 17 2 18 1 19 28 20 29 21 22 22 23 23
REMARK SMILES IDX 13 24 14 25 19 26 20 27 16 28 17 29
REMARK H PARENT
REMARK Flexibility Score: inf
ROOT
ATOM      1  C   UNL     1     -32.507  40.144  43.380  1.00  0.00     0.138 A 
ATOM      2  C   UNL     1     -32.898  41.374  43.911  1.00  0.00     0.100 A 
ATOM      3  C   UNL     1     -34.086  41.456  44.630  1.00  0.00     0.197 A 
ATOM      4  O   UNL     1     -34.413  42.572  45.116  1.00  0.00    -0.289 OA
ATOM      5  C   UNL     1     -34.888  40.301  44.805  1.00  0.00     0.115 A 
ATOM      6  C   UNL     1     -34.430  39.092  44.228  1.00  0.00     0.188 A 
ATOM      7  O   UNL     1     -33.275  39.076  43.566  1.00  0.00    -0.452 OA
ATOM      8  C   UNL     1     -35.183  37.905  44.356  1.00  0.00     0.209 A 
ATOM      9  C   UNL     1     -36.382  37.914  45.114  1.00  0.00     0.211 A 
ATOM     10  C   UNL     1     -36.850  39.126  45.689  1.00  0.00     0.208 A 
ATOM     11  C   UNL     1     -36.106  40.323  45.524  1.00  0.00     0.179 A 
ENDROOT
BRANCH   1  12
ATOM     12  C   UNL     1     -31.247  40.002  42.616  1.00  0.00     0.021 A 
ATOM     13  C   UNL     1     -28.825  39.774  41.187  1.00  0.00     0.160 A 
ATOM     14  C   UNL     1     -29.374  38.647  41.817  1.00  0.00     0.161 A 
ATOM     15  C   UNL     1     -29.489  41.011  41.280  1.00  0.00     0.051 A 
ATOM     16  C   UNL     1     -30.583  38.767  42.531  1.00  0.00     0.062 A 
ATOM     17  C   UNL     1     -30.685  41.121  41.990  1.00  0.00     0.016 A 
BRANCH  13  18
ATOM     18  O   UNL     1     -27.621  39.624  40.480  1.00  0.00    -0.493 OA
ATOM     19  C   UNL     1     -26.875  40.699  39.920  1.00  0.00     0.278 C 
ENDBRANCH  13  18
BRANCH  14  20
ATOM     20  O   UNL     1     -28.687  37.423  41.712  1.00  0.00    -0.493 OA
ATOM     21  C   UNL     1     -27.944  36.820  42.766  1.00  0.00     0.278 C 
ENDBRANCH  14  20
ENDBRANCH   1  12
BRANCH   8  22
ATOM     22  O   UNL     1     -34.778  36.697  43.756  1.00  0.00    -0.490 OA
ATOM     23  C   UNL     1     -34.139  35.592  44.381  1.00  0.00     0.278 C 
ENDBRANCH   8  22
BRANCH  11  24
ATOM     24  O   UNL     1     -36.528  41.562  46.057  1.00  0.00    -0.492 OA
ATOM     25  C   UNL     1     -36.301  42.076  47.364  1.00  0.00     0.278 C 
ENDBRANCH  11  24
BRANCH   9  26
ATOM     26  O   UNL     1     -37.140  36.745  45.331  1.00  0.00    -0.490 OA
ATOM     27  C   UNL     1     -37.157  35.908  46.481  1.00  0.00     0.279 C 
ENDBRANCH   9  26
BRANCH  10  28
ATOM     28  O   UNL     1     -38.043  39.194  46.436  1.00  0.00    -0.490 OA
ATOM     29  C   UNL     1     -39.385  39.130  45.961  1.00  0.00     0.278 C 
ENDBRANCH  10  28
TORSDOF 7
ENDMDL
MODEL 3
REMARK VINA RESULT:    -7.068      1.772      2.922
REMARK INTER + INTRA:         -10.543
REMARK INTER:                  -9.835
REMARK INTRA:                  -0.708
REMARK UNBOUND:                -0.582
REMARK SMILES COc1ccc(-c2cc(=O)c3c(OC)c(OC)c(OC)c(OC)c3o2)cc1OC
REMARK SMILES IDX 7 1 8 2 9 3 10 4 11 5 24 6 25 7 21 8 18 9 15 10 12 11 6 12
REMARK SMILES IDX 3 13 27 14 4 15 26 16 5 17 2 18 1 19 28 20 29 21 22 22 23 23
REMARK SMILES IDX 13 24 14 25 19 26 20 27 16 28 17 29
REMARK H PARENT
REMARK Flexibility Score: inf
ROOT
ATOM      1  C   UNL     1     -35.185  38.272  43.637  1.00  0.00     0.138 A 
ATOM      2  C   UNL     1     -36.241  39.184  43.667  1.00  0.00     0.100 A 
ATOM      3  C   UNL     1     -36.090  40.417  43.040  1.00  0.00     0.197 A 
ATOM      4  O   UNL     1     -37.060  41.220  43.064  1.00  0.00    -0.289 OA
ATOM      5  C   UNL     1     -34.870  40.736  42.391  1.00  0.00     0.115 A 
ATOM      6  C   UNL     1     -33.844  39.762  42.412  1.00  0.00     0.188 A 
ATOM      7  O   UNL     1     -34.057  38.595  43.015  1.00  0.00    -0.452 OA
ATOM      8  C   UNL     1     -32.601  40.017  41.793  1.00  0.00     0.209 A 
ATOM      9  C   UNL     1     -32.400  41.239  41.100  1.00  0.00     0.211 A 
ATOM     10  C   UNL     1     -33.426  42.222  41.083  1.00  0.00     0.208 A 
ATOM     11  C   UNL     1     -34.659  41.973  41.739  1.00  0.00     0.179 A 
ENDROOT
BRANCH   1  12
ATOM     12  C   UNL     1     -35.299  36.943  44.280  1.00  0.00     0.021 A 
ATOM     13  C   UNL     1     -35.467  34.415  45.521  1.00  0.00     0.160 A 
ATOM     14  C   UNL     1     -36.469  35.372  45.746  1.00  0.00     0.161 A 
ATOM     15  C   UNL     1     -34.384  34.730  44.681  1.00  0.00     0.051 A 
ATOM     16  C   UNL     1     -36.379  36.634  45.125  1.00  0.00     0.062 A 
ATOM     17  C   UNL     1     -34.303  35.982  44.071  1.00  0.00     0.016 A 
BRANCH  13  18
ATOM     18  O   UNL     1     -35.585  33.166  46.152  1.00  0.00    -0.493 OA
ATOM     19  C   UNL     1     -34.639  32.109  46.029  1.00  0.00     0.278 C 
ENDBRANCH  13  18
BRANCH  14  20
ATOM     20  O   UNL     1     -37.538  35.032  46.595  1.00  0.00    -0.493 OA
ATOM     21  C   UNL     1     -38.500  35.956  47.093  1.00  0.00     0.278 C 
ENDBRANCH  14  20
ENDBRANCH   1  12
BRANCH   8  22
ATOM     22  O   UNL     1     -31.543  39.089  41.835  1.00  0.00    -0.490 OA
ATOM     23  C   UNL     1     -30.484  39.025  42.781  1.00  0.00     0.278 C 
ENDBRANCH   8  22
BRANCH  11  24
ATOM     24  O   UNL     1     -35.709  42.918  41.770  1.00  0.00    -0.492 OA
ATOM     25  C   UNL     1     -35.776  44.128  42.516  1.00  0.00     0.278 C 
ENDBRANCH  11  24
BRANCH   9  26
ATOM     26  O   UNL     1     -31.205  41.520  40.408  1.00  0.00    -0.490 OA
ATOM     27  C   UNL     1     -30.036  42.168  40.896  1.00  0.00     0.279 C 
ENDBRANCH   9  26
BRANCH  10  28
ATOM     28  O   UNL     1     -33.272  43.458  40.423  1.00  0.00    -0.490 OA
ATOM     29  C   UNL     1     -33.813  43.859  39.167  1.00  0.00     0.278 C 
ENDBRANCH  10  28
TORSDOF 7
ENDMDL
MODEL 4
REMARK VINA RESULT:    -7.049      2.708      7.393
REMARK INTER + INTRA:         -10.516
REMARK INTER:                  -9.806
REMARK INTRA:                  -0.710
REMARK UNBOUND:                -0.582
REMARK SMILES COc1ccc(-c2cc(=O)c3c(OC)c(OC)c(OC)c(OC)c3o2)cc1OC
REMARK SMILES IDX 7 1 8 2 9 3 10 4 11 5 24 6 25 7 21 8 18 9 15 10 12 11 6 12
REMARK SMILES IDX 3 13 27 14 4 15 26 16 5 17 2 18 1 19 28 20 29 21 22 22 23 23
REMARK SMILES IDX 13 24 14 25 19 26 20 27 16 28 17 29
REMARK H PARENT
REMARK Flexibility Score: inf
ROOT
ATOM      1  C   UNL     1     -34.353  39.803  43.568  1.00  0.00     0.138 A 
ATOM      2  C   UNL     1     -35.411  40.714  43.600  1.00  0.00     0.100 A 
ATOM      3  C   UNL     1     -36.591  40.361  44.245  1.00  0.00     0.197 A 
ATOM      4  O   UNL     1     -37.528  41.202  44.277  1.00  0.00    -0.289 OA
ATOM      5  C   UNL     1     -36.712  39.085  44.850  1.00  0.00     0.115 A 
ATOM      6  C   UNL     1     -35.600  38.214  44.768  1.00  0.00     0.188 A 
ATOM      7  O   UNL     1     -34.492  38.618  44.151  1.00  0.00    -0.452 OA
ATOM      8  C   UNL     1     -35.655  36.925  45.342  1.00  0.00     0.209 A 
ATOM      9  C   UNL     1     -36.815  36.521  46.051  1.00  0.00     0.211 A 
ATOM     10  C   UNL     1     -37.937  37.391  46.130  1.00  0.00     0.208 A 
ATOM     11  C   UNL     1     -37.888  38.670  45.519  1.00  0.00     0.179 A 
ENDROOT
BRANCH   1  12
ATOM     12  C   UNL     1     -33.073  40.135  42.903  1.00  0.00     0.021 A 
ATOM     13  C   UNL     1     -30.626  40.716  41.625  1.00  0.00     0.160 A 
ATOM     14  C   UNL     1     -31.768  41.476  41.327  1.00  0.00     0.161 A 
ATOM     15  C   UNL     1     -30.716  39.666  42.557  1.00  0.00     0.051 A 
ATOM     16  C   UNL     1     -32.988  41.180  41.968  1.00  0.00     0.062 A 
ATOM     17  C   UNL     1     -31.928  39.379  43.185  1.00  0.00     0.016 A 
BRANCH  13  18
ATOM     18  O   UNL     1     -29.424  41.036  40.973  1.00  0.00    -0.493 OA
ATOM     19  C   UNL     1     -28.273  40.199  40.949  1.00  0.00     0.278 C 
ENDBRANCH  13  18
BRANCH  14  20
ATOM     20  O   UNL     1     -31.651  42.517  40.388  1.00  0.00    -0.493 OA
ATOM     21  C   UNL     1     -32.740  43.295  39.903  1.00  0.00     0.278 C 
ENDBRANCH  14  20
ENDBRANCH   1  12
BRANCH   8  22
ATOM     22  O   UNL     1     -34.583  36.017  45.239  1.00  0.00    -0.490 OA
ATOM     23  C   UNL     1     -34.397  35.006  44.257  1.00  0.00     0.278 C 
ENDBRANCH   8  22
BRANCH  11  24
ATOM     24  O   UNL     1     -38.976  39.571  45.549  1.00  0.00    -0.492 OA
ATOM     25  C   UNL     1     -40.174  39.522  44.782  1.00  0.00     0.278 C 
ENDBRANCH  11  24
BRANCH   9  26
ATOM     26  O   UNL     1     -36.900  35.273  46.700  1.00  0.00    -0.490 OA
ATOM     27  C   UNL     1     -37.394  34.043  46.183  1.00  0.00     0.279 C 
ENDBRANCH   9  26
BRANCH  10  28
ATOM     28  O   UNL     1     -39.120  37.033  46.808  1.00  0.00    -0.490 OA
ATOM     29  C   UNL     1     -39.517  37.383  48.132  1.00  0.00     0.278 C 
ENDBRANCH  10  28
TORSDOF 7
ENDMDL
MODEL 5
REMARK VINA RESULT:    -6.922      3.432      4.598
REMARK INTER + INTRA:         -10.337
REMARK INTER:                  -9.662
REMARK INTRA:                  -0.675
REMARK UNBOUND:                -0.582
REMARK SMILES COc1ccc(-c2cc(=O)c3c(OC)c(OC)c(OC)c(OC)c3o2)cc1OC
REMARK SMILES IDX 7 1 8 2 9 3 10 4 11 5 24 6 25 7 21 8 18 9 15 10 12 11 6 12
REMARK SMILES IDX 3 13 27 14 4 15 26 16 5 17 2 18 1 19 28 20 29 21 22 22 23 23
REMARK SMILES IDX 13 24 14 25 19 26 20 27 16 28 17 29
REMARK H PARENT
REMARK Flexibility Score: inf
ROOT
ATOM      1  C   UNL     1     -37.783  39.103  45.292  1.00  0.00     0.138 A 
ATOM      2  C   UNL     1     -38.326  40.303  44.828  1.00  0.00     0.100 A 
ATOM      3  C   UNL     1     -37.591  41.084  43.942  1.00  0.00     0.197 A 
ATOM      4  O   UNL     1     -38.105  42.154  43.523  1.00  0.00    -0.289 OA
ATOM      5  C   UNL     1     -36.301  40.662  43.530  1.00  0.00     0.115 A 
ATOM      6  C   UNL     1     -35.816  39.439  44.051  1.00  0.00     0.188 A 
ATOM      7  O   UNL     1     -36.576  38.729  44.882  1.00  0.00    -0.452 OA
ATOM      8  C   UNL     1     -34.537  38.963  43.689  1.00  0.00     0.209 A 
ATOM      9  C   UNL     1     -33.755  39.692  42.756  1.00  0.00     0.211 A 
ATOM     10  C   UNL     1     -34.236  40.924  42.237  1.00  0.00     0.208 A 
ATOM     11  C   UNL     1     -35.507  41.414  42.633  1.00  0.00     0.179 A 
ENDROOT
BRANCH   1  12
ATOM     12  C   UNL     1     -38.529  38.232  46.227  1.00  0.00     0.021 A 
ATOM     13  C   UNL     1     -39.997  36.588  47.988  1.00  0.00     0.160 A 
ATOM     14  C   UNL     1     -38.908  36.057  47.280  1.00  0.00     0.161 A 
ATOM     15  C   UNL     1     -40.350  37.937  47.806  1.00  0.00     0.051 A 
ATOM     16  C   UNL     1     -38.179  36.882  46.401  1.00  0.00     0.062 A 
ATOM     17  C   UNL     1     -39.623  38.747  46.932  1.00  0.00     0.016 A 
BRANCH  13  18
ATOM     18  O   UNL     1     -40.703  35.742  48.859  1.00  0.00    -0.493 OA
ATOM     19  C   UNL     1     -41.282  36.157  50.092  1.00  0.00     0.278 C 
ENDBRANCH  13  18
BRANCH  14  20
ATOM     20  O   UNL     1     -38.580  34.703  47.478  1.00  0.00    -0.493 OA
ATOM     21  C   UNL     1     -37.742  33.940  46.617  1.00  0.00     0.278 C 
ENDBRANCH  14  20
ENDBRANCH   1  12
BRANCH   8  22
ATOM     22  O   UNL     1     -34.005  37.774  44.225  1.00  0.00    -0.490 OA
ATOM     23  C   UNL     1     -34.460  36.446  44.002  1.00  0.00     0.278 C 
ENDBRANCH   8  22
BRANCH  11  24
ATOM     24  O   UNL     1     -36.032  42.639  42.164  1.00  0.00    -0.492 OA
ATOM     25  C   UNL     1     -35.605  43.956  42.492  1.00  0.00     0.278 C 
ENDBRANCH  11  24
BRANCH   9  26
ATOM     26  O   UNL     1     -32.500  39.232  42.309  1.00  0.00    -0.490 OA
ATOM     27  C   UNL     1     -31.216  39.500  42.860  1.00  0.00     0.279 C 
ENDBRANCH   9  26
BRANCH  10  28
ATOM     28  O   UNL     1     -33.493  41.695  41.320  1.00  0.00    -0.490 OA
ATOM     29  C   UNL     1     -33.515  41.633  39.896  1.00  0.00     0.278 C 
ENDBRANCH  10  28
TORSDOF 7
ENDMDL
MODEL 6
REMARK VINA RESULT:    -6.912      2.942      7.947
REMARK INTER + INTRA:         -10.322
REMARK INTER:                  -9.865
REMARK INTRA:                  -0.456
REMARK UNBOUND:                -0.582
REMARK SMILES COc1ccc(-c2cc(=O)c3c(OC)c(OC)c(OC)c(OC)c3o2)cc1OC
REMARK SMILES IDX 7 1 8 2 9 3 10 4 11 5 24 6 25 7 21 8 18 9 15 10 12 11 6 12
REMARK SMILES IDX 3 13 27 14 4 15 26 16 5 17 2 18 1 19 28 20 29 21 22 22 23 23
REMARK SMILES IDX 13 24 14 25 19 26 20 27 16 28 17 29
REMARK H PARENT
REMARK Flexibility Score: inf
ROOT
ATOM      1  C   UNL     1     -34.512  38.595  43.881  1.00  0.00     0.138 A 
ATOM      2  C   UNL     1     -34.137  37.288  44.198  1.00  0.00     0.100 A 
ATOM      3  C   UNL     1     -34.984  36.509  44.979  1.00  0.00     0.197 A 
ATOM      4  O   UNL     1     -34.636  35.327  45.241  1.00  0.00    -0.289 OA
ATOM      5  C   UNL     1     -36.207  37.050  45.452  1.00  0.00     0.115 A 
ATOM      6  C   UNL     1     -36.513  38.385  45.096  1.00  0.00     0.188 A 
ATOM      7  O   UNL     1     -35.667  39.072  44.331  1.00  0.00    -0.452 OA
ATOM      8  C   UNL     1     -37.710  38.988  45.538  1.00  0.00     0.209 A 
ATOM      9  C   UNL     1     -38.636  38.233  46.303  1.00  0.00     0.211 A 
ATOM     10  C   UNL     1     -38.329  36.894  46.668  1.00  0.00     0.208 A 
ATOM     11  C   UNL     1     -37.108  36.306  46.250  1.00  0.00     0.179 A 
ENDROOT
BRANCH   1  12
ATOM     12  C   UNL     1     -33.651  39.461  43.045  1.00  0.00     0.021 A 
ATOM     13  C   UNL     1     -31.991  41.067  41.426  1.00  0.00     0.160 A 
ATOM     14  C   UNL     1     -33.345  41.398  41.583  1.00  0.00     0.161 A 
ATOM     15  C   UNL     1     -31.475  39.931  42.075  1.00  0.00     0.051 A 
ATOM     16  C   UNL     1     -34.170  40.591  42.392  1.00  0.00     0.062 A 
ATOM     17  C   UNL     1     -32.300  39.136  42.873  1.00  0.00     0.016 A 
BRANCH  13  18
ATOM     18  O   UNL     1     -31.192  41.892  40.616  1.00  0.00    -0.493 OA
ATOM     19  C   UNL     1     -29.812  42.153  40.846  1.00  0.00     0.278 C 
ENDBRANCH  13  18
BRANCH  14  20
ATOM     20  O   UNL     1     -33.835  42.538  40.919  1.00  0.00    -0.493 OA
ATOM     21  C   UNL     1     -35.144  42.653  40.369  1.00  0.00     0.278 C 
ENDBRANCH  14  20
ENDBRANCH   1  12
BRANCH   8  22
ATOM     22  O   UNL     1     -38.023  40.329  45.241  1.00  0.00    -0.490 OA
ATOM     23  C   UNL     1     -38.513  40.851  44.013  1.00  0.00     0.278 C 
ENDBRANCH   8  22
BRANCH  11  24
ATOM     24  O   UNL     1     -36.739  34.987  46.596  1.00  0.00    -0.492 OA
ATOM     25  C   UNL     1     -37.366  33.771  46.202  1.00  0.00     0.278 C 
ENDBRANCH  11  24
BRANCH   9  26
ATOM     26  O   UNL     1     -39.875  38.762  46.715  1.00  0.00    -0.490 OA
ATOM     27  C   UNL     1     -41.122  38.721  46.032  1.00  0.00     0.279 C 
ENDBRANCH   9  26
BRANCH  10  28
ATOM     28  O   UNL     1     -39.206  36.104  47.439  1.00  0.00    -0.490 OA
ATOM     29  C   UNL     1     -39.825  36.432  48.681  1.00  0.00     0.278 C 
ENDBRANCH  10  28
TORSDOF 7
ENDMDL
MODEL 7
REMARK VINA RESULT:    -6.844      3.353      8.750
REMARK INTER + INTRA:         -10.227
REMARK INTER:                  -9.883
REMARK INTRA:                  -0.344
REMARK UNBOUND:                -0.582
REMARK SMILES COc1ccc(-c2cc(=O)c3c(OC)c(OC)c(OC)c(OC)c3o2)cc1OC
REMARK SMILES IDX 7 1 8 2 9 3 10 4 11 5 24 6 25 7 21 8 18 9 15 10 12 11 6 12
REMARK SMILES IDX 3 13 27 14 4 15 26 16 5 17 2 18 1 19 28 20 29 21 22 22 23 23
REMARK SMILES IDX 13 24 14 25 19 26 20 27 16 28 17 29
REMARK H PARENT
REMARK Flexibility Score: inf
ROOT
ATOM      1  C   UNL     1     -34.707  41.377  41.223  1.00  0.00     0.138 A 
ATOM      2  C   UNL     1     -35.359  40.358  40.526  1.00  0.00     0.100 A 
ATOM      3  C   UNL     1     -35.955  39.322  41.239  1.00  0.00     0.197 A 
ATOM      4  O   UNL     1     -36.552  38.420  40.593  1.00  0.00    -0.289 OA
ATOM      5  C   UNL     1     -35.885  39.306  42.654  1.00  0.00     0.115 A 
ATOM      6  C   UNL     1     -35.199  40.370  43.288  1.00  0.00     0.188 A 
ATOM      7  O   UNL     1     -34.665  41.340  42.550  1.00  0.00    -0.452 OA
ATOM      8  C   UNL     1     -35.085  40.412  44.694  1.00  0.00     0.209 A 
ATOM      9  C   UNL     1     -35.707  39.408  45.479  1.00  0.00     0.211 A 
ATOM     10  C   UNL     1     -36.391  38.335  44.847  1.00  0.00     0.208 A 
ATOM     11  C   UNL     1     -36.470  38.279  43.432  1.00  0.00     0.179 A 
ENDROOT
BRANCH   1  12
ATOM     12  C   UNL     1     -34.067  42.507  40.511  1.00  0.00     0.021 A 
ATOM     13  C   UNL     1     -32.819  44.625  39.127  1.00  0.00     0.160 A 
ATOM     14  C   UNL     1     -34.215  44.608  39.269  1.00  0.00     0.161 A 
ATOM     15  C   UNL     1     -32.055  43.578  39.674  1.00  0.00     0.051 A 
ATOM     16  C   UNL     1     -34.833  43.547  39.960  1.00  0.00     0.062 A 
ATOM     17  C   UNL     1     -32.676  42.530  40.356  1.00  0.00     0.016 A 
BRANCH  13  18
ATOM     18  O   UNL     1     -32.231  45.696  38.436  1.00  0.00    -0.493 OA
ATOM     19  C   UNL     1     -31.464  45.563  37.244  1.00  0.00     0.278 C 
ENDBRANCH  13  18
BRANCH  14  20
ATOM     20  O   UNL     1     -34.955  45.666  38.707  1.00  0.00    -0.493 OA
ATOM     21  C   UNL     1     -35.177  45.846  37.312  1.00  0.00     0.278 C 
ENDBRANCH  14  20
ENDBRANCH   1  12
BRANCH   8  22
ATOM     22  O   UNL     1     -34.370  41.432  45.353  1.00  0.00    -0.490 OA
ATOM     23  C   UNL     1     -34.761  42.786  45.531  1.00  0.00     0.278 C 
ENDBRANCH   8  22
BRANCH  11  24
ATOM     24  O   UNL     1     -37.121  37.230  42.746  1.00  0.00    -0.492 OA
ATOM     25  C   UNL     1     -36.928  35.829  42.903  1.00  0.00     0.278 C 
ENDBRANCH  11  24
BRANCH   9  26
ATOM     26  O   UNL     1     -35.682  39.436  46.888  1.00  0.00    -0.490 OA
ATOM     27  C   UNL     1     -34.731  38.842  47.764  1.00  0.00     0.279 C 
ENDBRANCH   9  26
BRANCH  10  28
ATOM     28  O   UNL     1     -37.013  37.303  45.579  1.00  0.00    -0.490 OA
ATOM     29  C   UNL     1     -38.169  37.386  46.409  1.00  0.00     0.278 C 
ENDBRANCH  10  28
TORSDOF 7
ENDMDL
MODEL 8
REMARK VINA RESULT:    -6.822      3.504      5.126
REMARK INTER + INTRA:         -10.196
REMARK INTER:                  -9.529
REMARK INTRA:                  -0.667
REMARK UNBOUND:                -0.582
REMARK SMILES COc1ccc(-c2cc(=O)c3c(OC)c(OC)c(OC)c(OC)c3o2)cc1OC
REMARK SMILES IDX 7 1 8 2 9 3 10 4 11 5 24 6 25 7 21 8 18 9 15 10 12 11 6 12
REMARK SMILES IDX 3 13 27 14 4 15 26 16 5 17 2 18 1 19 28 20 29 21 22 22 23 23
REMARK SMILES IDX 13 24 14 25 19 26 20 27 16 28 17 29
REMARK H PARENT
REMARK Flexibility Score: inf
ROOT
ATOM      1  C   UNL     1     -36.817  38.937  45.699  1.00  0.00     0.138 A 
ATOM      2  C   UNL     1     -35.895  39.729  46.387  1.00  0.00     0.100 A 
ATOM      3  C   UNL     1     -34.962  40.467  45.665  1.00  0.00     0.197 A 
ATOM      4  O   UNL     1     -34.150  41.188  46.303  1.00  0.00    -0.289 OA
ATOM      5  C   UNL     1     -34.950  40.399  44.249  1.00  0.00     0.115 A 
ATOM      6  C   UNL     1     -35.910  39.567  43.625  1.00  0.00     0.188 A 
ATOM      7  O   UNL     1     -36.787  38.900  44.372  1.00  0.00    -0.452 OA
ATOM      8  C   UNL     1     -35.949  39.447  42.219  1.00  0.00     0.209 A 
ATOM      9  C   UNL     1     -35.052  40.207  41.425  1.00  0.00     0.211 A 
ATOM     10  C   UNL     1     -34.082  41.038  42.048  1.00  0.00     0.208 A 
ATOM     11  C   UNL     1     -34.025  41.126  43.462  1.00  0.00     0.179 A 
ENDROOT
BRANCH   1  12
ATOM     12  C   UNL     1     -37.836  38.142  46.421  1.00  0.00     0.021 A 
ATOM     13  C   UNL     1     -39.815  36.651  47.769  1.00  0.00     0.160 A 
ATOM     14  C   UNL     1     -38.710  35.995  47.204  1.00  0.00     0.161 A 
ATOM     15  C   UNL     1     -39.927  38.048  47.651  1.00  0.00     0.051 A 
ATOM     16  C   UNL     1     -37.725  36.745  46.530  1.00  0.00     0.062 A 
ATOM     17  C   UNL     1     -38.947  38.782  46.981  1.00  0.00     0.016 A 
BRANCH  13  18
ATOM     18  O   UNL     1     -40.779  35.878  48.437  1.00  0.00    -0.493 OA
ATOM     19  C   UNL     1     -41.166  36.069  49.793  1.00  0.00     0.278 C 
ENDBRANCH  13  18
BRANCH  14  20
ATOM     20  O   UNL     1     -38.626  34.597  47.333  1.00  0.00    -0.493 OA
ATOM     21  C   UNL     1     -37.741  33.768  46.587  1.00  0.00     0.278 C 
ENDBRANCH  14  20
ENDBRANCH   1  12
BRANCH   8  22
ATOM     22  O   UNL     1     -36.861  38.593  41.570  1.00  0.00    -0.490 OA
ATOM     23  C   UNL     1     -38.220  38.860  41.250  1.00  0.00     0.278 C 
ENDBRANCH   8  22
BRANCH  11  24
ATOM     24  O   UNL     1     -33.074  41.921  44.139  1.00  0.00    -0.492 OA
ATOM     25  C   UNL     1     -31.665  41.732  44.209  1.00  0.00     0.278 C 
ENDBRANCH  11  24
BRANCH   9  26
ATOM     26  O   UNL     1     -35.089  40.177  40.016  1.00  0.00    -0.490 OA
ATOM     27  C   UNL     1     -34.539  39.199  39.141  1.00  0.00     0.279 C 
ENDBRANCH   9  26
BRANCH  10  28
ATOM     28  O   UNL     1     -33.157  41.801  41.306  1.00  0.00    -0.490 OA
ATOM     29  C   UNL     1     -31.949  41.365  40.690  1.00  0.00     0.278 C 
ENDBRANCH  10  28
TORSDOF 7
ENDMDL
MODEL 9
REMARK VINA RESULT:    -6.715      2.460      4.716
REMARK INTER + INTRA:         -10.045
REMARK INTER:                  -9.800
REMARK INTRA:                  -0.245
REMARK UNBOUND:                -0.582
REMARK SMILES COc1ccc(-c2cc(=O)c3c(OC)c(OC)c(OC)c(OC)c3o2)cc1OC
REMARK SMILES IDX 7 1 8 2 9 3 10 4 11 5 24 6 25 7 21 8 18 9 15 10 12 11 6 12
REMARK SMILES IDX 3 13 27 14 4 15 26 16 5 17 2 18 1 19 28 20 29 21 22 22 23 23
REMARK SMILES IDX 13 24 14 25 19 26 20 27 16 28 17 29
REMARK H PARENT
REMARK Flexibility Score: inf
ROOT
ATOM      1  C   UNL     1     -34.362  38.721  43.310  1.00  0.00     0.138 A 
ATOM      2  C   UNL     1     -33.026  38.494  42.976  1.00  0.00     0.100 A 
ATOM      3  C   UNL     1     -32.348  39.437  42.209  1.00  0.00     0.197 A 
ATOM      4  O   UNL     1     -31.139  39.222  41.932  1.00  0.00    -0.289 OA
ATOM      5  C   UNL     1     -33.020  40.606  41.770  1.00  0.00     0.115 A 
ATOM      6  C   UNL     1     -34.376  40.760  42.142  1.00  0.00     0.188 A 
ATOM      7  O   UNL     1     -34.963  39.829  42.891  1.00  0.00    -0.452 OA
ATOM      8  C   UNL     1     -35.108  41.896  41.732  1.00  0.00     0.209 A 
ATOM      9  C   UNL     1     -34.462  42.914  40.985  1.00  0.00     0.211 A 
ATOM     10  C   UNL     1     -33.102  42.759  40.603  1.00  0.00     0.208 A 
ATOM     11  C   UNL     1     -32.384  41.598  40.988  1.00  0.00     0.179 A 
ENDROOT
BRANCH   1  12
ATOM     12  C   UNL     1     -35.124  37.754  44.132  1.00  0.00     0.021 A 
ATOM     13  C   UNL     1     -36.530  35.894  45.720  1.00  0.00     0.160 A 
ATOM     14  C   UNL     1     -36.953  37.231  45.670  1.00  0.00     0.161 A 
ATOM     15  C   UNL     1     -35.402  35.496  44.980  1.00  0.00     0.051 A 
ATOM     16  C   UNL     1     -36.246  38.156  44.876  1.00  0.00     0.062 A 
ATOM     17  C   UNL     1     -34.707  36.419  44.197  1.00  0.00     0.016 A 
BRANCH  13  18
ATOM     18  O   UNL     1     -37.256  34.994  46.517  1.00  0.00    -0.493 OA
ATOM     19  C   UNL     1     -37.380  33.600  46.251  1.00  0.00     0.278 C 
ENDBRANCH  13  18
BRANCH  14  20
ATOM     20  O   UNL     1     -38.081  37.602  46.424  1.00  0.00    -0.493 OA
ATOM     21  C   UNL     1     -38.521  38.943  46.614  1.00  0.00     0.278 C 
ENDBRANCH  14  20
ENDBRANCH   1  12
BRANCH   8  22
ATOM     22  O   UNL     1     -36.471  42.058  42.046  1.00  0.00    -0.490 OA
ATOM     23  C   UNL     1     -37.051  42.197  43.336  1.00  0.00     0.278 C 
ENDBRANCH   8  22
BRANCH  11  24
ATOM     24  O   UNL     1     -31.036  41.380  40.624  1.00  0.00    -0.492 OA
ATOM     25  C   UNL     1     -29.891  42.125  41.021  1.00  0.00     0.278 C 
ENDBRANCH  11  24
BRANCH   9  26
ATOM     26  O   UNL     1     -35.123  44.099  40.605  1.00  0.00    -0.490 OA
ATOM     27  C   UNL     1     -35.125  45.358  41.268  1.00  0.00     0.279 C 
ENDBRANCH   9  26
BRANCH  10  28
ATOM     28  O   UNL     1     -32.417  43.733  39.847  1.00  0.00    -0.490 OA
ATOM     29  C   UNL     1     -32.848  44.387  38.656  1.00  0.00     0.278 C 
ENDBRANCH  10  28
TORSDOF 7
ENDMDL
