MODEL 1
REMARK VINA RESULT:   120.689      0.000      0.000
REMARK INTER + INTRA:         130.861
REMARK INTER:                 131.272
REMARK INTRA:                  -0.411
REMARK UNBOUND:                -0.411
REMARK SMILES C=C(C)[C@H]1CC[C@@]2(C)CC[C@@]3(C)[C@@H](CC[C@H]4[C@@]5(C)CC[C@H](O)C(C)(C)[C@@H]5CC[C@]43C)[C@H]12
REMARK SMILES IDX 4 1 5 2 6 3 7 4 31 5 13 6 14 7 15 8 16 9 17 10 19 11 20 12
REMARK SMILES IDX 21 13 23 14 26 15 27 16 28 17 29 18 11 19 10 20 9 21 12 22
REMARK SMILES IDX 30 23 24 24 25 25 18 26 8 27 2 28 3 29 1 30 22 31
REMARK H PARENT 22 32
REMARK Flexibility Score: inf
ROOT
ATOM      1  C   UNL     1      -5.953   4.794   1.387  1.00  0.00     0.018 C 
ATOM      2  C   UNL     1      -7.250   5.507   1.846  1.00  0.00     0.009 C 
ATOM      3  C   UNL     1      -8.047   4.487   2.672  1.00  0.00     0.008 C 
ATOM      4  C   UNL     1      -7.006   3.459   3.123  1.00  0.00    -0.029 C 
ATOM      5  C   UNL     1      -6.140   3.338   1.863  1.00  0.00     0.006 C 
ATOM      6  C   UNL     1      -4.916   2.415   2.119  1.00  0.00    -0.000 C 
ATOM      7  C   UNL     1      -3.950   2.392   0.945  1.00  0.00     0.005 C 
ATOM      8  C   UNL     1      -2.685   1.629   1.311  1.00  0.00     0.005 C 
ATOM      9  C   UNL     1      -2.888   0.170   1.835  1.00  0.00     0.002 C 
ATOM     10  C   UNL     1      -1.483  -0.502   2.261  1.00  0.00    -0.026 C 
ATOM     11  C   UNL     1      -0.351  -0.161   1.227  1.00  0.00     0.010 C 
ATOM     12  C   UNL     1       1.053  -0.624   1.654  1.00  0.00     0.033 C 
ATOM     13  C   UNL     1       1.455  -0.020   3.007  1.00  0.00     0.120 C 
ATOM     14  C   UNL     1       0.427  -0.340   4.141  1.00  0.00    -0.006 C 
ATOM     15  C   UNL     1      -1.031   0.067   3.660  1.00  0.00     0.003 C 
ATOM     16  C   UNL     1      -2.132  -0.104   4.731  1.00  0.00     0.005 C 
ATOM     17  C   UNL     1      -3.464   0.545   4.318  1.00  0.00     0.008 C 
ATOM     18  C   UNL     1      -4.049   0.073   2.943  1.00  0.00    -0.024 C 
ATOM     19  C   UNL     1      -5.359   0.944   2.511  1.00  0.00    -0.024 C 
ATOM     20  C   UNL     1      -6.453   1.022   3.659  1.00  0.00     0.008 C 
ATOM     21  C   UNL     1      -7.580   2.066   3.439  1.00  0.00     0.007 C 
ATOM     22  C   UNL     1      -6.069   0.235   1.299  1.00  0.00     0.012 C 
ATOM     23  C   UNL     1      -4.505  -1.415   3.126  1.00  0.00     0.012 C 
ATOM     24  C   UNL     1       0.830   0.524   5.373  1.00  0.00     0.014 C 
ATOM     25  C   UNL     1       0.546  -1.827   4.579  1.00  0.00     0.014 C 
ATOM     26  C   UNL     1      -1.649  -2.060   2.250  1.00  0.00     0.012 C 
ATOM     27  C   UNL     1      -6.267   4.041   4.375  1.00  0.00     0.011 C 
ENDROOT
BRANCH   1  28
ATOM     28  C   UNL     1      -5.750   4.938  -0.122  1.00  0.00    -0.077 C 
ATOM     29  C   UNL     1      -4.902   6.043  -0.707  1.00  0.00     0.039 C 
ATOM     30  C   UNL     1      -6.274   4.029  -0.959  1.00  0.00     0.008 C 
ENDBRANCH   1  28
BRANCH  13  31
ATOM     31  O   UNL     1       2.731  -0.492   3.359  1.00  0.00    -0.393 OA
ATOM     32  H   UNL     1       2.604  -1.121   4.122  1.00  0.00     0.210 HD
ENDBRANCH  13  31
TORSDOF 2
ENDMDL
