MODEL 1
REMARK VINA RESULT:    -4.306      0.000      0.000
REMARK INTER + INTRA:          -6.068
REMARK INTER:                  -5.817
REMARK INTRA:                  -0.251
REMARK UNBOUND:                -0.251
REMARK SMILES CCCCCCC=CC(=O)[O-]
REMARK SMILES IDX 5 1 6 2 7 3 8 4 9 5 10 6 11 7 4 8 3 9 2 10 1 11
REMARK H PARENT
REMARK Flexibility Score: inf
ROOT
ATOM      1  C   UNL     1      -1.641  20.297  29.700  1.00  0.00     0.004 C 
ENDROOT
BRANCH   1   2
ATOM      2  C   UNL     1      -0.481  20.201  30.705  1.00  0.00     0.027 C 
BRANCH   2   3
ATOM      3  C   UNL     1      -0.542  21.314  31.714  1.00  0.00    -0.025 C 
ATOM      4  C   UNL     1       0.219  21.423  32.816  1.00  0.00     0.020 C 
BRANCH   4   5
ATOM      5  C   UNL     1       1.284  20.493  33.247  1.00  0.00     0.064 C 
ATOM      6  O   UNL     1       1.117  19.825  34.301  1.00  0.00    -0.545 OA
ATOM      7  O   UNL     1       2.471  20.344  32.541  1.00  0.00    -0.545 OA
ENDBRANCH   4   5
ENDBRANCH   2   3
ENDBRANCH   1   2
BRANCH   1   8
ATOM      8  C   UNL     1      -1.712  19.083  28.760  1.00  0.00     0.000 C 
BRANCH   8   9
ATOM      9  C   UNL     1      -2.748  19.264  27.637  1.00  0.00    -0.000 C 
BRANCH   9  10
ATOM     10  C   UNL     1      -2.648  20.642  26.962  1.00  0.00    -0.003 C 
ATOM     11  C   UNL     1      -1.377  20.802  26.127  1.00  0.00     0.004 C 
ENDBRANCH   9  10
ENDBRANCH   8   9
ENDBRANCH   1   8
TORSDOF 6
ENDMDL
MODEL 2
REMARK VINA RESULT:    -4.216     17.936     18.460
REMARK INTER + INTRA:          -5.947
REMARK INTER:                  -5.744
REMARK INTRA:                  -0.203
REMARK UNBOUND:                -0.251
REMARK SMILES CCCCCCC=CC(=O)[O-]
REMARK SMILES IDX 5 1 6 2 7 3 8 4 9 5 10 6 11 7 4 8 3 9 2 10 1 11
REMARK H PARENT
REMARK Flexibility Score: inf
ROOT
ATOM      1  C   UNL     1       5.266   9.724  15.351  1.00  0.00     0.004 C 
ENDROOT
BRANCH   1   2
ATOM      2  C   UNL     1       5.969  10.486  16.486  1.00  0.00     0.027 C 
BRANCH   2   3
ATOM      3  C   UNL     1       6.799  11.619  15.948  1.00  0.00    -0.025 C 
ATOM      4  C   UNL     1       8.003  12.002  16.404  1.00  0.00     0.020 C 
BRANCH   4   5
ATOM      5  C   UNL     1       8.768  11.376  17.503  1.00  0.00     0.064 C 
ATOM      6  O   UNL     1       8.981  12.041  18.550  1.00  0.00    -0.545 OA
ATOM      7  O   UNL     1       9.278  10.088  17.413  1.00  0.00    -0.545 OA
ENDBRANCH   4   5
ENDBRANCH   2   3
ENDBRANCH   1   2
BRANCH   1   8
ATOM      8  C   UNL     1       3.784  10.109  15.208  1.00  0.00     0.000 C 
BRANCH   8   9
ATOM      9  C   UNL     1       2.888   9.406  16.241  1.00  0.00    -0.000 C 
BRANCH   9  10
ATOM     10  C   UNL     1       1.751   8.604  15.586  1.00  0.00    -0.003 C 
ATOM     11  C   UNL     1       0.436   8.704  16.358  1.00  0.00     0.004 C 
ENDBRANCH   9  10
ENDBRANCH   8   9
ENDBRANCH   1   8
TORSDOF 6
ENDMDL
MODEL 3
REMARK VINA RESULT:    -4.198      4.356      5.865
REMARK INTER + INTRA:          -5.921
REMARK INTER:                  -5.677
REMARK INTRA:                  -0.244
REMARK UNBOUND:                -0.251
REMARK SMILES CCCCCCC=CC(=O)[O-]
REMARK SMILES IDX 5 1 6 2 7 3 8 4 9 5 10 6 11 7 4 8 3 9 2 10 1 11
REMARK H PARENT
REMARK Flexibility Score: inf
ROOT
ATOM      1  C   UNL     1       2.155  19.755  32.298  1.00  0.00     0.004 C 
ENDROOT
BRANCH   1   2
ATOM      2  C   UNL     1       3.580  19.598  32.854  1.00  0.00     0.027 C 
BRANCH   2   3
ATOM      3  C   UNL     1       3.636  18.537  33.918  1.00  0.00    -0.025 C 
ATOM      4  C   UNL     1       4.611  17.627  34.076  1.00  0.00     0.020 C 
BRANCH   4   5
ATOM      5  C   UNL     1       5.836  17.498  33.260  1.00  0.00     0.064 C 
ATOM      6  O   UNL     1       5.907  16.570  32.413  1.00  0.00    -0.545 OA
ATOM      7  O   UNL     1       6.921  18.353  33.408  1.00  0.00    -0.545 OA
ENDBRANCH   4   5
ENDBRANCH   2   3
ENDBRANCH   1   2
BRANCH   1   8
ATOM      8  C   UNL     1       1.315  20.765  33.098  1.00  0.00     0.000 C 
BRANCH   8   9
ATOM      9  C   UNL     1       0.021  21.165  32.371  1.00  0.00    -0.000 C 
BRANCH   9  10
ATOM     10  C   UNL     1      -0.496  22.546  32.806  1.00  0.00    -0.003 C 
ATOM     11  C   UNL     1      -0.119  22.892  34.247  1.00  0.00     0.004 C 
ENDBRANCH   9  10
ENDBRANCH   8   9
ENDBRANCH   1   8
TORSDOF 6
ENDMDL
MODEL 4
REMARK VINA RESULT:    -4.171      3.508      6.365
REMARK INTER + INTRA:          -5.885
REMARK INTER:                  -5.655
REMARK INTRA:                  -0.231
REMARK UNBOUND:                -0.251
REMARK SMILES CCCCCCC=CC(=O)[O-]
REMARK SMILES IDX 5 1 6 2 7 3 8 4 9 5 10 6 11 7 4 8 3 9 2 10 1 11
REMARK H PARENT
REMARK Flexibility Score: inf
ROOT
ATOM      1  C   UNL     1      -0.557  20.483  31.260  1.00  0.00     0.004 C 
ENDROOT
BRANCH   1   2
ATOM      2  C   UNL     1      -1.266  20.696  29.912  1.00  0.00     0.027 C 
BRANCH   2   3
ATOM      3  C   UNL     1      -1.498  19.389  29.206  1.00  0.00    -0.025 C 
ATOM      4  C   UNL     1      -1.888  19.239  27.930  1.00  0.00     0.020 C 
BRANCH   4   5
ATOM      5  C   UNL     1      -2.139  20.320  26.953  1.00  0.00     0.064 C 
ATOM      6  O   UNL     1      -1.226  20.633  26.146  1.00  0.00    -0.545 OA
ATOM      7  O   UNL     1      -3.341  21.015  26.907  1.00  0.00    -0.545 OA
ENDBRANCH   4   5
ENDBRANCH   2   3
ENDBRANCH   1   2
BRANCH   1   8
ATOM      8  C   UNL     1      -0.523  21.758  32.119  1.00  0.00     0.000 C 
BRANCH   8   9
ATOM      9  C   UNL     1       0.461  21.651  33.296  1.00  0.00    -0.000 C 
BRANCH   9  10
ATOM     10  C   UNL     1       0.121  22.623  34.438  1.00  0.00    -0.003 C 
ATOM     11  C   UNL     1      -1.017  23.579  34.082  1.00  0.00     0.004 C 
ENDBRANCH   9  10
ENDBRANCH   8   9
ENDBRANCH   1   8
TORSDOF 6
ENDMDL
MODEL 5
REMARK VINA RESULT:    -4.118     15.093     16.972
REMARK INTER + INTRA:          -5.814
REMARK INTER:                  -5.532
REMARK INTRA:                  -0.282
REMARK UNBOUND:                -0.251
REMARK SMILES CCCCCCC=CC(=O)[O-]
REMARK SMILES IDX 5 1 6 2 7 3 8 4 9 5 10 6 11 7 4 8 3 9 2 10 1 11
REMARK H PARENT
REMARK Flexibility Score: inf
ROOT
ATOM      1  C   UNL     1       0.544   9.350  17.119  1.00  0.00     0.004 C 
ENDROOT
BRANCH   1   2
ATOM      2  C   UNL     1      -0.875   9.484  17.696  1.00  0.00     0.027 C 
BRANCH   2   3
ATOM      3  C   UNL     1      -1.000  10.712  18.554  1.00  0.00    -0.025 C 
ATOM      4  C   UNL     1      -1.604  10.781  19.752  1.00  0.00     0.020 C 
BRANCH   4   5
ATOM      5  C   UNL     1      -2.243   9.665  20.482  1.00  0.00     0.064 C 
ATOM      6  O   UNL     1      -3.423   9.344  20.187  1.00  0.00    -0.545 OA
ATOM      7  O   UNL     1      -1.593   8.972  21.494  1.00  0.00    -0.545 OA
ENDBRANCH   4   5
ENDBRANCH   2   3
ENDBRANCH   1   2
BRANCH   1   8
ATOM      8  C   UNL     1       0.613   8.362  15.942  1.00  0.00     0.000 C 
BRANCH   8   9
ATOM      9  C   UNL     1       1.890   8.533  15.102  1.00  0.00    -0.000 C 
BRANCH   9  10
ATOM     10  C   UNL     1       2.952   9.389  15.812  1.00  0.00    -0.003 C 
ATOM     11  C   UNL     1       4.095   9.804  14.886  1.00  0.00     0.004 C 
ENDBRANCH   9  10
ENDBRANCH   8   9
ENDBRANCH   1   8
TORSDOF 6
ENDMDL
MODEL 6
REMARK VINA RESULT:    -3.950      3.854      5.646
REMARK INTER + INTRA:          -5.587
REMARK INTER:                  -5.114
REMARK INTRA:                  -0.473
REMARK UNBOUND:                -0.251
REMARK SMILES CCCCCCC=CC(=O)[O-]
REMARK SMILES IDX 5 1 6 2 7 3 8 4 9 5 10 6 11 7 4 8 3 9 2 10 1 11
REMARK H PARENT
REMARK Flexibility Score: inf
ROOT
ATOM      1  C   UNL     1       1.849  19.934  34.787  1.00  0.00     0.004 C 
ENDROOT
BRANCH   1   2
ATOM      2  C   UNL     1       2.160  18.902  33.690  1.00  0.00     0.027 C 
BRANCH   2   3
ATOM      3  C   UNL     1       3.347  19.322  32.867  1.00  0.00    -0.025 C 
ATOM      4  C   UNL     1       4.586  18.809  32.949  1.00  0.00     0.020 C 
BRANCH   4   5
ATOM      5  C   UNL     1       5.029  17.715  33.838  1.00  0.00     0.064 C 
ATOM      6  O   UNL     1       5.065  17.918  35.079  1.00  0.00    -0.545 OA
ATOM      7  O   UNL     1       5.427  16.477  33.350  1.00  0.00    -0.545 OA
ENDBRANCH   4   5
ENDBRANCH   2   3
ENDBRANCH   1   2
BRANCH   1   8
ATOM      8  C   UNL     1       0.470  20.589  34.609  1.00  0.00     0.000 C 
BRANCH   8   9
ATOM      9  C   UNL     1       0.566  22.063  34.180  1.00  0.00    -0.000 C 
BRANCH   9  10
ATOM     10  C   UNL     1      -0.245  22.360  32.908  1.00  0.00    -0.003 C 
ATOM     11  C   UNL     1      -0.326  21.162  31.963  1.00  0.00     0.004 C 
ENDBRANCH   9  10
ENDBRANCH   8   9
ENDBRANCH   1   8
TORSDOF 6
ENDMDL
MODEL 7
REMARK VINA RESULT:    -3.925     12.828     13.533
REMARK INTER + INTRA:          -5.552
REMARK INTER:                  -5.392
REMARK INTRA:                  -0.160
REMARK UNBOUND:                -0.251
REMARK SMILES CCCCCCC=CC(=O)[O-]
REMARK SMILES IDX 5 1 6 2 7 3 8 4 9 5 10 6 11 7 4 8 3 9 2 10 1 11
REMARK H PARENT
REMARK Flexibility Score: inf
ROOT
ATOM      1  C   UNL     1      10.381  14.262  23.275  1.00  0.00     0.004 C 
ENDROOT
BRANCH   1   2
ATOM      2  C   UNL     1      11.530  14.929  24.051  1.00  0.00     0.027 C 
BRANCH   2   3
ATOM      3  C   UNL     1      12.471  13.903  24.620  1.00  0.00    -0.025 C 
ATOM      4  C   UNL     1      12.433  13.402  25.865  1.00  0.00     0.020 C 
BRANCH   4   5
ATOM      5  C   UNL     1      11.450  13.732  26.919  1.00  0.00     0.064 C 
ATOM      6  O   UNL     1      11.863  14.209  28.007  1.00  0.00    -0.545 OA
ATOM      7  O   UNL     1      10.088  13.515  26.757  1.00  0.00    -0.545 OA
ENDBRANCH   4   5
ENDBRANCH   2   3
ENDBRANCH   1   2
BRANCH   1   8
ATOM      8  C   UNL     1       9.072  15.065  23.350  1.00  0.00     0.000 C 
BRANCH   8   9
ATOM      9  C   UNL     1       8.186  14.640  24.533  1.00  0.00    -0.000 C 
BRANCH   9  10
ATOM     10  C   UNL     1       6.696  14.570  24.156  1.00  0.00    -0.003 C 
ATOM     11  C   UNL     1       5.823  15.477  25.022  1.00  0.00     0.004 C 
ENDBRANCH   9  10
ENDBRANCH   8   9
ENDBRANCH   1   8
TORSDOF 6
ENDMDL
MODEL 8
REMARK VINA RESULT:    -3.880      4.185      7.055
REMARK INTER + INTRA:          -5.493
REMARK INTER:                  -5.134
REMARK INTRA:                  -0.359
REMARK UNBOUND:                -0.251
REMARK SMILES CCCCCCC=CC(=O)[O-]
REMARK SMILES IDX 5 1 6 2 7 3 8 4 9 5 10 6 11 7 4 8 3 9 2 10 1 11
REMARK H PARENT
REMARK Flexibility Score: inf
ROOT
ATOM      1  C   UNL     1       3.083  17.672  34.749  1.00  0.00     0.004 C 
ENDROOT
BRANCH   1   2
ATOM      2  C   UNL     1       1.974  18.487  34.064  1.00  0.00     0.027 C 
BRANCH   2   3
ATOM      3  C   UNL     1       2.481  19.153  32.814  1.00  0.00    -0.025 C 
ATOM      4  C   UNL     1       1.935  20.222  32.212  1.00  0.00     0.020 C 
BRANCH   4   5
ATOM      5  C   UNL     1       0.747  20.977  32.664  1.00  0.00     0.064 C 
ATOM      6  O   UNL     1      -0.329  20.856  32.023  1.00  0.00    -0.545 OA
ATOM      7  O   UNL     1       0.782  21.829  33.760  1.00  0.00    -0.545 OA
ENDBRANCH   4   5
ENDBRANCH   2   3
ENDBRANCH   1   2
BRANCH   1   8
ATOM      8  C   UNL     1       4.491  18.080  34.285  1.00  0.00     0.000 C 
BRANCH   8   9
ATOM      9  C   UNL     1       5.356  16.872  33.889  1.00  0.00    -0.000 C 
BRANCH   9  10
ATOM     10  C   UNL     1       6.408  17.224  32.824  1.00  0.00    -0.003 C 
ATOM     11  C   UNL     1       6.962  15.993  32.109  1.00  0.00     0.004 C 
ENDBRANCH   9  10
ENDBRANCH   8   9
ENDBRANCH   1   8
TORSDOF 6
ENDMDL
MODEL 9
REMARK VINA RESULT:    -3.790      4.361      6.642
REMARK INTER + INTRA:          -5.370
REMARK INTER:                  -4.999
REMARK INTRA:                  -0.371
REMARK UNBOUND:                -0.251
REMARK SMILES CCCCCCC=CC(=O)[O-]
REMARK SMILES IDX 5 1 6 2 7 3 8 4 9 5 10 6 11 7 4 8 3 9 2 10 1 11
REMARK H PARENT
REMARK Flexibility Score: inf
ROOT
ATOM      1  C   UNL     1       3.052  18.837  32.982  1.00  0.00     0.004 C 
ENDROOT
BRANCH   1   2
ATOM      2  C   UNL     1       2.497  20.256  33.193  1.00  0.00     0.027 C 
BRANCH   2   3
ATOM      3  C   UNL     1       1.356  20.254  34.172  1.00  0.00    -0.025 C 
ATOM      4  C   UNL     1       0.215  20.954  34.056  1.00  0.00     0.020 C 
BRANCH   4   5
ATOM      5  C   UNL     1      -0.164  21.842  32.936  1.00  0.00     0.064 C 
ATOM      6  O   UNL     1      -0.234  23.081  33.142  1.00  0.00    -0.545 OA
ATOM      7  O   UNL     1      -0.464  21.355  31.671  1.00  0.00    -0.545 OA
ENDBRANCH   4   5
ENDBRANCH   2   3
ENDBRANCH   1   2
BRANCH   1   8
ATOM      8  C   UNL     1       3.375  18.125  34.305  1.00  0.00     0.000 C 
BRANCH   8   9
ATOM      9  C   UNL     1       4.831  17.635  34.372  1.00  0.00    -0.000 C 
BRANCH   9  10
ATOM     10  C   UNL     1       5.564  17.781  33.028  1.00  0.00    -0.003 C 
ATOM     11  C   UNL     1       6.288  16.502  32.606  1.00  0.00     0.004 C 
ENDBRANCH   9  10
ENDBRANCH   8   9
ENDBRANCH   1   8
TORSDOF 6
ENDMDL
