MODEL 1
REMARK VINA RESULT:    -4.975      0.000      0.000
REMARK INTER + INTRA:          -7.345
REMARK INTER:                  -7.010
REMARK INTRA:                  -0.335
REMARK UNBOUND:                -0.335
REMARK SMILES C=CCCCCCCC(=O)[O-]
REMARK SMILES IDX 6 1 7 2 8 3 9 4 10 5 11 6 5 7 4 8 3 9 2 10 1 11
REMARK H PARENT
REMARK Flexibility Score: inf
ROOT
ATOM      1  C   UNL     1      11.623 -46.199  38.163  1.00  0.00     0.000 C 
ENDROOT
BRANCH   1   2
ATOM      2  C   UNL     1      10.326 -46.744  37.547  1.00  0.00     0.006 C 
BRANCH   2   3
ATOM      3  C   UNL     1      10.205 -46.408  36.055  1.00  0.00     0.053 C 
BRANCH   3   4
ATOM      4  C   UNL     1       8.830 -45.931  35.702  1.00  0.00     0.041 C 
ATOM      5  O   UNL     1       7.821 -46.425  36.272  1.00  0.00    -0.550 OA
ATOM      6  O   UNL     1       8.661 -44.963  34.721  1.00  0.00    -0.550 OA
ENDBRANCH   3   4
ENDBRANCH   2   3
ENDBRANCH   1   2
BRANCH   1   7
ATOM      7  C   UNL     1      12.044 -47.029  39.380  1.00  0.00     0.000 C 
BRANCH   7   8
ATOM      8  C   UNL     1      13.502 -47.497  39.251  1.00  0.00     0.004 C 
BRANCH   8   9
ATOM      9  C   UNL     1      14.233 -46.800  38.093  1.00  0.00     0.027 C 
BRANCH   9  10
ATOM     10  C   UNL     1      15.195 -47.719  37.386  1.00  0.00    -0.035 C 
ATOM     11  C   UNL     1      15.667 -47.439  36.167  1.00  0.00     0.004 C 
ENDBRANCH   9  10
ENDBRANCH   8   9
ENDBRANCH   7   8
ENDBRANCH   1   7
TORSDOF 7
ENDMDL
MODEL 2
REMARK VINA RESULT:    -4.964      3.593      5.689
REMARK INTER + INTRA:          -7.330
REMARK INTER:                  -6.935
REMARK INTRA:                  -0.395
REMARK UNBOUND:                -0.335
REMARK SMILES C=CCCCCCCC(=O)[O-]
REMARK SMILES IDX 6 1 7 2 8 3 9 4 10 5 11 6 5 7 4 8 3 9 2 10 1 11
REMARK H PARENT
REMARK Flexibility Score: inf
ROOT
ATOM      1  C   UNL     1      11.719 -46.052  37.752  1.00  0.00     0.000 C 
ENDROOT
BRANCH   1   2
ATOM      2  C   UNL     1      12.823 -46.001  36.685  1.00  0.00     0.006 C 
BRANCH   2   3
ATOM      3  C   UNL     1      14.201 -45.707  37.289  1.00  0.00     0.053 C 
BRANCH   3   4
ATOM      4  C   UNL     1      14.906 -46.961  37.704  1.00  0.00     0.041 C 
ATOM      5  O   UNL     1      15.344 -47.085  38.879  1.00  0.00    -0.550 OA
ATOM      6  O   UNL     1      15.109 -47.982  36.783  1.00  0.00    -0.550 OA
ENDBRANCH   3   4
ENDBRANCH   2   3
ENDBRANCH   1   2
BRANCH   1   7
ATOM      7  C   UNL     1      10.329 -46.035  37.106  1.00  0.00     0.000 C 
BRANCH   7   8
ATOM      8  C   UNL     1      10.435 -45.962  35.575  1.00  0.00     0.004 C 
BRANCH   8   9
ATOM      9  C   UNL     1       9.263 -46.670  34.879  1.00  0.00     0.027 C 
BRANCH   9  10
ATOM     10  C   UNL     1       8.864 -47.943  35.578  1.00  0.00    -0.035 C 
ATOM     11  C   UNL     1       8.410 -49.004  34.903  1.00  0.00     0.004 C 
ENDBRANCH   9  10
ENDBRANCH   8   9
ENDBRANCH   7   8
ENDBRANCH   1   7
TORSDOF 7
ENDMDL
MODEL 3
REMARK VINA RESULT:    -4.958      1.335      1.709
REMARK INTER + INTRA:          -7.322
REMARK INTER:                  -6.995
REMARK INTRA:                  -0.327
REMARK UNBOUND:                -0.335
REMARK SMILES C=CCCCCCCC(=O)[O-]
REMARK SMILES IDX 6 1 7 2 8 3 9 4 10 5 11 6 5 7 4 8 3 9 2 10 1 11
REMARK H PARENT
REMARK Flexibility Score: inf
ROOT
ATOM      1  C   UNL     1      11.731 -46.375  38.440  1.00  0.00     0.000 C 
ENDROOT
BRANCH   1   2
ATOM      2  C   UNL     1      10.232 -46.057  38.549  1.00  0.00     0.006 C 
BRANCH   2   3
ATOM      3  C   UNL     1       9.365 -47.091  37.819  1.00  0.00     0.053 C 
BRANCH   3   4
ATOM      4  C   UNL     1       8.321 -46.438  36.967  1.00  0.00     0.041 C 
ATOM      5  O   UNL     1       8.010 -45.232  37.157  1.00  0.00    -0.550 OA
ATOM      6  O   UNL     1       7.669 -47.170  35.983  1.00  0.00    -0.550 OA
ENDBRANCH   3   4
ENDBRANCH   2   3
ENDBRANCH   1   2
BRANCH   1   7
ATOM      7  C   UNL     1      12.279 -45.978  37.065  1.00  0.00     0.000 C 
BRANCH   7   8
ATOM      8  C   UNL     1      13.804 -45.798  37.111  1.00  0.00     0.004 C 
BRANCH   8   9
ATOM      9  C   UNL     1      14.494 -46.897  37.931  1.00  0.00     0.027 C 
BRANCH   9  10
ATOM     10  C   UNL     1      15.298 -47.837  37.072  1.00  0.00    -0.035 C 
ATOM     11  C   UNL     1      16.017 -47.398  36.034  1.00  0.00     0.004 C 
ENDBRANCH   9  10
ENDBRANCH   8   9
ENDBRANCH   7   8
ENDBRANCH   1   7
TORSDOF 7
ENDMDL
MODEL 4
REMARK VINA RESULT:    -4.949      3.637      5.677
REMARK INTER + INTRA:          -7.309
REMARK INTER:                  -6.997
REMARK INTRA:                  -0.312
REMARK UNBOUND:                -0.335
REMARK SMILES C=CCCCCCCC(=O)[O-]
REMARK SMILES IDX 6 1 7 2 8 3 9 4 10 5 11 6 5 7 4 8 3 9 2 10 1 11
REMARK H PARENT
REMARK Flexibility Score: inf
ROOT
ATOM      1  C   UNL     1      11.068 -46.117  37.911  1.00  0.00     0.000 C 
ENDROOT
BRANCH   1   2
ATOM      2  C   UNL     1      12.417 -46.592  38.473  1.00  0.00     0.006 C 
BRANCH   2   3
ATOM      3  C   UNL     1      13.573 -46.342  37.496  1.00  0.00     0.053 C 
BRANCH   3   4
ATOM      4  C   UNL     1      14.750 -47.220  37.791  1.00  0.00     0.041 C 
ATOM      5  O   UNL     1      15.375 -47.100  38.878  1.00  0.00    -0.550 OA
ATOM      6  O   UNL     1      15.176 -48.150  36.851  1.00  0.00    -0.550 OA
ENDBRANCH   3   4
ENDBRANCH   2   3
ENDBRANCH   1   2
BRANCH   1   7
ATOM      7  C   UNL     1      11.089 -46.096  36.379  1.00  0.00     0.000 C 
BRANCH   7   8
ATOM      8  C   UNL     1       9.733 -46.533  35.804  1.00  0.00     0.004 C 
BRANCH   8   9
ATOM      9  C   UNL     1       9.580 -46.151  34.324  1.00  0.00     0.027 C 
BRANCH   9  10
ATOM     10  C   UNL     1      10.330 -44.892  33.975  1.00  0.00    -0.035 C 
ATOM     11  C   UNL     1       9.794 -43.948  33.195  1.00  0.00     0.004 C 
ENDBRANCH   9  10
ENDBRANCH   8   9
ENDBRANCH   7   8
ENDBRANCH   1   7
TORSDOF 7
ENDMDL
MODEL 5
REMARK VINA RESULT:    -4.899      3.601      5.532
REMARK INTER + INTRA:          -7.239
REMARK INTER:                  -6.875
REMARK INTRA:                  -0.364
REMARK UNBOUND:                -0.335
REMARK SMILES C=CCCCCCCC(=O)[O-]
REMARK SMILES IDX 6 1 7 2 8 3 9 4 10 5 11 6 5 7 4 8 3 9 2 10 1 11
REMARK H PARENT
REMARK Flexibility Score: inf
ROOT
ATOM      1  C   UNL     1      11.800 -46.183  38.227  1.00  0.00     0.000 C 
ENDROOT
BRANCH   1   2
ATOM      2  C   UNL     1      12.625 -46.026  36.941  1.00  0.00     0.006 C 
BRANCH   2   3
ATOM      3  C   UNL     1      14.096 -45.703  37.230  1.00  0.00     0.053 C 
BRANCH   3   4
ATOM      4  C   UNL     1      14.859 -46.919  37.656  1.00  0.00     0.041 C 
ATOM      5  O   UNL     1      15.340 -46.992  38.818  1.00  0.00    -0.550 OA
ATOM      6  O   UNL     1      15.067 -47.959  36.759  1.00  0.00    -0.550 OA
ENDBRANCH   3   4
ENDBRANCH   2   3
ENDBRANCH   1   2
BRANCH   1   7
ATOM      7  C   UNL     1      10.302 -46.265  37.912  1.00  0.00     0.000 C 
BRANCH   7   8
ATOM      8  C   UNL     1       9.627 -47.374  38.734  1.00  0.00     0.004 C 
BRANCH   8   9
ATOM      9  C   UNL     1       8.532 -48.100  37.939  1.00  0.00     0.027 C 
BRANCH   9  10
ATOM     10  C   UNL     1       8.590 -47.789  36.467  1.00  0.00    -0.035 C 
ATOM     11  C   UNL     1       8.395 -48.733  35.540  1.00  0.00     0.004 C 
ENDBRANCH   9  10
ENDBRANCH   8   9
ENDBRANCH   7   8
ENDBRANCH   1   7
TORSDOF 7
ENDMDL
MODEL 6
REMARK VINA RESULT:    -4.888      3.460      5.343
REMARK INTER + INTRA:          -7.224
REMARK INTER:                  -6.790
REMARK INTRA:                  -0.434
REMARK UNBOUND:                -0.335
REMARK SMILES C=CCCCCCCC(=O)[O-]
REMARK SMILES IDX 6 1 7 2 8 3 9 4 10 5 11 6 5 7 4 8 3 9 2 10 1 11
REMARK H PARENT
REMARK Flexibility Score: inf
ROOT
ATOM      1  C   UNL     1      12.155 -46.535  38.594  1.00  0.00     0.000 C 
ENDROOT
BRANCH   1   2
ATOM      2  C   UNL     1      12.598 -46.022  37.215  1.00  0.00     0.006 C 
BRANCH   2   3
ATOM      3  C   UNL     1      14.112 -45.785  37.143  1.00  0.00     0.053 C 
BRANCH   3   4
ATOM      4  C   UNL     1      14.884 -46.990  37.585  1.00  0.00     0.041 C 
ATOM      5  O   UNL     1      15.023 -47.974  36.810  1.00  0.00    -0.550 OA
ATOM      6  O   UNL     1      15.422 -47.040  38.865  1.00  0.00    -0.550 OA
ENDBRANCH   3   4
ENDBRANCH   2   3
ENDBRANCH   1   2
BRANCH   1   7
ATOM      7  C   UNL     1      10.679 -46.210  38.853  1.00  0.00     0.000 C 
BRANCH   7   8
ATOM      8  C   UNL     1       9.920 -46.010  37.532  1.00  0.00     0.004 C 
BRANCH   8   9
ATOM      9  C   UNL     1       9.195 -47.286  37.082  1.00  0.00     0.027 C 
BRANCH   9  10
ATOM     10  C   UNL     1       9.071 -47.378  35.584  1.00  0.00    -0.035 C 
ATOM     11  C   UNL     1       9.619 -46.466  34.775  1.00  0.00     0.004 C 
ENDBRANCH   9  10
ENDBRANCH   8   9
ENDBRANCH   7   8
ENDBRANCH   1   7
TORSDOF 7
ENDMDL
MODEL 7
REMARK VINA RESULT:    -4.871      1.639      2.116
REMARK INTER + INTRA:          -7.199
REMARK INTER:                  -6.831
REMARK INTRA:                  -0.368
REMARK UNBOUND:                -0.335
REMARK SMILES C=CCCCCCCC(=O)[O-]
REMARK SMILES IDX 6 1 7 2 8 3 9 4 10 5 11 6 5 7 4 8 3 9 2 10 1 11
REMARK H PARENT
REMARK Flexibility Score: inf
ROOT
ATOM      1  C   UNL     1      11.144 -45.969  37.433  1.00  0.00     0.000 C 
ENDROOT
BRANCH   1   2
ATOM      2  C   UNL     1      10.653 -46.376  38.830  1.00  0.00     0.006 C 
BRANCH   2   3
ATOM      3  C   UNL     1       9.530 -47.419  38.770  1.00  0.00     0.053 C 
BRANCH   3   4
ATOM      4  C   UNL     1       8.197 -46.788  38.509  1.00  0.00     0.041 C 
ATOM      5  O   UNL     1       7.511 -46.337  39.465  1.00  0.00    -0.550 OA
ATOM      6  O   UNL     1       7.698 -46.727  37.215  1.00  0.00    -0.550 OA
ENDBRANCH   3   4
ENDBRANCH   2   3
ENDBRANCH   1   2
BRANCH   1   7
ATOM      7  C   UNL     1      12.672 -46.057  37.341  1.00  0.00     0.000 C 
BRANCH   7   8
ATOM      8  C   UNL     1      13.246 -46.883  38.502  1.00  0.00     0.004 C 
BRANCH   8   9
ATOM      9  C   UNL     1      14.728 -47.227  38.291  1.00  0.00     0.027 C 
BRANCH   9  10
ATOM     10  C   UNL     1      15.244 -46.752  36.958  1.00  0.00    -0.035 C 
ATOM     11  C   UNL     1      15.773 -47.597  36.067  1.00  0.00     0.004 C 
ENDBRANCH   9  10
ENDBRANCH   8   9
ENDBRANCH   7   8
ENDBRANCH   1   7
TORSDOF 7
ENDMDL
MODEL 8
REMARK VINA RESULT:    -4.803      1.375      1.985
REMARK INTER + INTRA:          -7.103
REMARK INTER:                  -6.565
REMARK INTRA:                  -0.539
REMARK UNBOUND:                -0.335
REMARK SMILES C=CCCCCCCC(=O)[O-]
REMARK SMILES IDX 6 1 7 2 8 3 9 4 10 5 11 6 5 7 4 8 3 9 2 10 1 11
REMARK H PARENT
REMARK Flexibility Score: inf
ROOT
ATOM      1  C   UNL     1       9.369 -47.297  38.588  1.00  0.00     0.000 C 
ENDROOT
BRANCH   1   2
ATOM      2  C   UNL     1       8.625 -46.806  37.337  1.00  0.00     0.006 C 
BRANCH   2   3
ATOM      3  C   UNL     1       9.333 -47.221  36.040  1.00  0.00     0.053 C 
BRANCH   3   4
ATOM      4  C   UNL     1       9.732 -46.032  35.220  1.00  0.00     0.041 C 
ATOM      5  O   UNL     1      10.947 -45.806  34.980  1.00  0.00    -0.550 OA
ATOM      6  O   UNL     1       8.762 -45.156  34.749  1.00  0.00    -0.550 OA
ENDBRANCH   3   4
ENDBRANCH   2   3
ENDBRANCH   1   2
BRANCH   1   7
ATOM      7  C   UNL     1      10.615 -46.446  38.856  1.00  0.00     0.000 C 
BRANCH   7   8
ATOM      8  C   UNL     1      11.676 -47.249  39.624  1.00  0.00     0.004 C 
BRANCH   8   9
ATOM      9  C   UNL     1      13.062 -47.153  38.969  1.00  0.00     0.027 C 
BRANCH   9  10
ATOM     10  C   UNL     1      13.060 -46.274  37.746  1.00  0.00    -0.035 C 
ATOM     11  C   UNL     1      14.070 -46.285  36.871  1.00  0.00     0.004 C 
ENDBRANCH   9  10
ENDBRANCH   8   9
ENDBRANCH   7   8
ENDBRANCH   1   7
TORSDOF 7
ENDMDL
MODEL 9
REMARK VINA RESULT:    -4.788      2.544      4.069
REMARK INTER + INTRA:          -7.082
REMARK INTER:                  -6.689
REMARK INTRA:                  -0.394
REMARK UNBOUND:                -0.335
REMARK SMILES C=CCCCCCCC(=O)[O-]
REMARK SMILES IDX 6 1 7 2 8 3 9 4 10 5 11 6 5 7 4 8 3 9 2 10 1 11
REMARK H PARENT
REMARK Flexibility Score: inf
ROOT
ATOM      1  C   UNL     1       9.180 -45.932  34.758  1.00  0.00     0.000 C 
ENDROOT
BRANCH   1   2
ATOM      2  C   UNL     1      10.149 -45.194  33.823  1.00  0.00     0.006 C 
BRANCH   2   3
ATOM      3  C   UNL     1       9.567 -43.872  33.308  1.00  0.00     0.053 C 
BRANCH   3   4
ATOM      4  C   UNL     1       8.327 -44.090  32.497  1.00  0.00     0.041 C 
ATOM      5  O   UNL     1       7.207 -43.715  32.935  1.00  0.00    -0.550 OA
ATOM      6  O   UNL     1       8.404 -44.737  31.270  1.00  0.00    -0.550 OA
ENDBRANCH   3   4
ENDBRANCH   2   3
ENDBRANCH   1   2
BRANCH   1   7
ATOM      7  C   UNL     1       9.890 -46.388  36.037  1.00  0.00     0.000 C 
BRANCH   7   8
ATOM      8  C   UNL     1      11.348 -45.903  36.060  1.00  0.00     0.004 C 
BRANCH   8   9
ATOM      9  C   UNL     1      11.953 -45.950  37.471  1.00  0.00     0.027 C 
BRANCH   9  10
ATOM     10  C   UNL     1      11.042 -46.622  38.464  1.00  0.00    -0.035 C 
ATOM     11  C   UNL     1      11.496 -47.087  39.632  1.00  0.00     0.004 C 
ENDBRANCH   9  10
ENDBRANCH   8   9
ENDBRANCH   7   8
ENDBRANCH   1   7
TORSDOF 7
ENDMDL
