MODEL 1
REMARK VINA RESULT:    -2.847      0.000      0.000
REMARK INTER + INTRA:          -3.097
REMARK INTER:                  -3.097
REMARK INTRA:                   0.000
REMARK UNBOUND:                 0.000
REMARK SMILES [NH3+]CC(=O)[O-]
REMARK SMILES IDX 2 1 1 2 3 6 4 7 5 8
REMARK H PARENT 1 3 1 4 1 5
REMARK Flexibility Score: inf
ROOT
ATOM      1  C   UNL     1     -13.578   3.159  27.998  1.00  0.00     0.312 C 
ENDROOT
BRANCH   1   2
ATOM      2  N   UNL     1     -14.492   2.810  29.083  1.00  0.00    -0.353 N 
ATOM      3  H   UNL     1     -14.106   3.171  29.985  1.00  0.00     0.344 HD
ATOM      4  H   UNL     1     -15.429   3.246  28.918  1.00  0.00     0.344 HD
ATOM      5  H   UNL     1     -14.593   1.771  29.148  1.00  0.00     0.344 HD
ENDBRANCH   1   2
BRANCH   1   6
ATOM      6  C   UNL     1     -12.877   4.450  28.292  1.00  0.00     0.096 C 
ATOM      7  O   UNL     1     -13.507   5.539  28.236  1.00  0.00    -0.544 OA
ATOM      8  O   UNL     1     -11.544   4.445  28.677  1.00  0.00    -0.544 OA
ENDBRANCH   1   6
TORSDOF 2
ENDMDL
MODEL 2
REMARK VINA RESULT:    -2.835      0.094      1.449
REMARK INTER + INTRA:          -3.084
REMARK INTER:                  -3.084
REMARK INTRA:                   0.000
REMARK UNBOUND:                 0.000
REMARK SMILES [NH3+]CC(=O)[O-]
REMARK SMILES IDX 2 1 1 2 3 6 4 7 5 8
REMARK H PARENT 1 3 1 4 1 5
REMARK Flexibility Score: inf
ROOT
ATOM      1  C   UNL     1     -13.535   3.206  27.978  1.00  0.00     0.312 C 
ENDROOT
BRANCH   1   2
ATOM      2  N   UNL     1     -14.463   2.846  29.048  1.00  0.00    -0.353 N 
ATOM      3  H   UNL     1     -14.346   3.516  29.842  1.00  0.00     0.344 HD
ATOM      4  H   UNL     1     -15.449   2.900  28.701  1.00  0.00     0.344 HD
ATOM      5  H   UNL     1     -14.261   1.877  29.387  1.00  0.00     0.344 HD
ENDBRANCH   1   2
BRANCH   1   6
ATOM      6  C   UNL     1     -12.807   4.471  28.315  1.00  0.00     0.096 C 
ATOM      7  O   UNL     1     -11.588   4.436  28.630  1.00  0.00    -0.544 OA
ATOM      8  O   UNL     1     -13.461   5.693  28.231  1.00  0.00    -0.544 OA
ENDBRANCH   1   6
TORSDOF 2
ENDMDL
MODEL 3
REMARK VINA RESULT:    -2.695     10.134     10.422
REMARK INTER + INTRA:          -2.932
REMARK INTER:                  -2.932
REMARK INTRA:                   0.000
REMARK UNBOUND:                 0.000
REMARK SMILES [NH3+]CC(=O)[O-]
REMARK SMILES IDX 2 1 1 2 3 6 4 7 5 8
REMARK H PARENT 1 3 1 4 1 5
REMARK Flexibility Score: inf
ROOT
ATOM      1  C   UNL     1     -17.994   8.871  21.931  1.00  0.00     0.312 C 
ENDROOT
BRANCH   1   2
ATOM      2  N   UNL     1     -18.311   8.073  23.114  1.00  0.00    -0.353 N 
ATOM      3  H   UNL     1     -18.024   8.600  23.970  1.00  0.00     0.344 HD
ATOM      4  H   UNL     1     -19.341   7.890  23.158  1.00  0.00     0.344 HD
ATOM      5  H   UNL     1     -17.792   7.165  23.084  1.00  0.00     0.344 HD
ENDBRANCH   1   2
BRANCH   1   6
ATOM      6  C   UNL     1     -19.199   9.630  21.467  1.00  0.00     0.096 C 
ATOM      7  O   UNL     1     -19.099  10.843  21.147  1.00  0.00    -0.544 OA
ATOM      8  O   UNL     1     -20.421   8.983  21.340  1.00  0.00    -0.544 OA
ENDBRANCH   1   6
TORSDOF 2
ENDMDL
MODEL 4
REMARK VINA RESULT:    -2.632      8.308      8.759
REMARK INTER + INTRA:          -2.863
REMARK INTER:                  -2.863
REMARK INTRA:                   0.000
REMARK UNBOUND:                 0.000
REMARK SMILES [NH3+]CC(=O)[O-]
REMARK SMILES IDX 2 1 1 2 3 6 4 7 5 8
REMARK H PARENT 1 3 1 4 1 5
REMARK Flexibility Score: inf
ROOT
ATOM      1  C   UNL     1     -11.271  -4.934  27.305  1.00  0.00     0.312 C 
ENDROOT
BRANCH   1   2
ATOM      2  N   UNL     1     -10.087  -4.323  27.905  1.00  0.00    -0.353 N 
ATOM      3  H   UNL     1      -9.479  -5.074  28.304  1.00  0.00     0.344 HD
ATOM      4  H   UNL     1      -9.545  -3.800  27.178  1.00  0.00     0.344 HD
ATOM      5  H   UNL     1     -10.369  -3.670  28.672  1.00  0.00     0.344 HD
ENDBRANCH   1   2
BRANCH   1   6
ATOM      6  C   UNL     1     -11.981  -3.954  26.422  1.00  0.00     0.096 C 
ATOM      7  O   UNL     1     -11.494  -2.809  26.227  1.00  0.00    -0.544 OA
ATOM      8  O   UNL     1     -13.152  -4.323  25.775  1.00  0.00    -0.544 OA
ENDBRANCH   1   6
TORSDOF 2
ENDMDL
MODEL 5
REMARK VINA RESULT:    -2.606      2.508      2.765
REMARK INTER + INTRA:          -2.834
REMARK INTER:                  -2.834
REMARK INTRA:                   0.000
REMARK UNBOUND:                 0.000
REMARK SMILES [NH3+]CC(=O)[O-]
REMARK SMILES IDX 2 1 1 2 3 6 4 7 5 8
REMARK H PARENT 1 3 1 4 1 5
REMARK Flexibility Score: inf
ROOT
ATOM      1  C   UNL     1     -12.884   4.156  28.292  1.00  0.00     0.312 C 
ENDROOT
BRANCH   1   2
ATOM      2  N   UNL     1     -13.665   5.371  28.066  1.00  0.00    -0.353 N 
ATOM      3  H   UNL     1     -14.188   5.278  27.165  1.00  0.00     0.344 HD
ATOM      4  H   UNL     1     -14.351   5.506  28.844  1.00  0.00     0.344 HD
ATOM      5  H   UNL     1     -13.030   6.200  28.007  1.00  0.00     0.344 HD
ENDBRANCH   1   2
BRANCH   1   6
ATOM      6  C   UNL     1     -13.712   2.938  28.020  1.00  0.00     0.096 C 
ATOM      7  O   UNL     1     -13.595   2.324  26.926  1.00  0.00    -0.544 OA
ATOM      8  O   UNL     1     -14.574   2.451  28.994  1.00  0.00    -0.544 OA
ENDBRANCH   1   6
TORSDOF 2
ENDMDL
MODEL 6
REMARK VINA RESULT:    -2.603      2.137      2.513
REMARK INTER + INTRA:          -2.831
REMARK INTER:                  -2.831
REMARK INTRA:                   0.000
REMARK UNBOUND:                 0.000
REMARK SMILES [NH3+]CC(=O)[O-]
REMARK SMILES IDX 2 1 1 2 3 6 4 7 5 8
REMARK H PARENT 1 3 1 4 1 5
REMARK Flexibility Score: inf
ROOT
ATOM      1  C   UNL     1     -13.549   3.746  28.257  1.00  0.00     0.312 C 
ENDROOT
BRANCH   1   2
ATOM      2  N   UNL     1     -14.457   2.886  29.012  1.00  0.00    -0.353 N 
ATOM      3  H   UNL     1     -14.797   3.403  29.855  1.00  0.00     0.344 HD
ATOM      4  H   UNL     1     -15.280   2.625  28.420  1.00  0.00     0.344 HD
ATOM      5  H   UNL     1     -13.958   2.021  29.323  1.00  0.00     0.344 HD
ENDBRANCH   1   2
BRANCH   1   6
ATOM      6  C   UNL     1     -13.729   3.539  26.784  1.00  0.00     0.096 C 
ATOM      7  O   UNL     1     -12.824   3.889  25.980  1.00  0.00    -0.544 OA
ATOM      8  O   UNL     1     -14.871   2.915  26.304  1.00  0.00    -0.544 OA
ENDBRANCH   1   6
TORSDOF 2
ENDMDL
MODEL 7
REMARK VINA RESULT:    -2.552     10.222     10.680
REMARK INTER + INTRA:          -2.776
REMARK INTER:                  -2.776
REMARK INTRA:                   0.000
REMARK UNBOUND:                 0.000
REMARK SMILES [NH3+]CC(=O)[O-]
REMARK SMILES IDX 2 1 1 2 3 6 4 7 5 8
REMARK H PARENT 1 3 1 4 1 5
REMARK Flexibility Score: inf
ROOT
ATOM      1  C   UNL     1     -23.319   2.744  24.223  1.00  0.00     0.312 C 
ENDROOT
BRANCH   1   2
ATOM      2  N   UNL     1     -22.569   2.224  25.364  1.00  0.00    -0.353 N 
ATOM      3  H   UNL     1     -22.291   3.021  25.982  1.00  0.00     0.344 HD
ATOM      4  H   UNL     1     -23.164   1.561  25.914  1.00  0.00     0.344 HD
ATOM      5  H   UNL     1     -21.706   1.733  25.034  1.00  0.00     0.344 HD
ENDBRANCH   1   2
BRANCH   1   6
ATOM      6  C   UNL     1     -22.848   4.121  23.865  1.00  0.00     0.096 C 
ATOM      7  O   UNL     1     -21.662   4.305  23.484  1.00  0.00    -0.544 OA
ATOM      8  O   UNL     1     -23.732   5.190  23.902  1.00  0.00    -0.544 OA
ENDBRANCH   1   6
TORSDOF 2
ENDMDL
MODEL 8
REMARK VINA RESULT:    -2.533      9.715      9.997
REMARK INTER + INTRA:          -2.755
REMARK INTER:                  -2.755
REMARK INTRA:                   0.000
REMARK UNBOUND:                 0.000
REMARK SMILES [NH3+]CC(=O)[O-]
REMARK SMILES IDX 2 1 1 2 3 6 4 7 5 8
REMARK H PARENT 1 3 1 4 1 5
REMARK Flexibility Score: inf
ROOT
ATOM      1  C   UNL     1     -11.094  -4.275  26.861  1.00  0.00     0.312 C 
ENDROOT
BRANCH   1   2
ATOM      2  N   UNL     1     -10.069  -4.301  27.902  1.00  0.00    -0.353 N 
ATOM      3  H   UNL     1      -9.222  -3.792  27.561  1.00  0.00     0.344 HD
ATOM      4  H   UNL     1     -10.423  -3.828  28.766  1.00  0.00     0.344 HD
ATOM      5  H   UNL     1      -9.806  -5.289  28.123  1.00  0.00     0.344 HD
ENDBRANCH   1   2
BRANCH   1   6
ATOM      6  C   UNL     1     -11.758  -5.613  26.739  1.00  0.00     0.096 C 
ATOM      7  O   UNL     1     -12.370  -5.923  25.683  1.00  0.00    -0.544 OA
ATOM      8  O   UNL     1     -11.656  -6.535  27.772  1.00  0.00    -0.544 OA
ENDBRANCH   1   6
TORSDOF 2
ENDMDL
MODEL 9
REMARK VINA RESULT:    -2.518      2.764      3.039
REMARK INTER + INTRA:          -2.739
REMARK INTER:                  -2.739
REMARK INTRA:                   0.000
REMARK UNBOUND:                 0.000
REMARK SMILES [NH3+]CC(=O)[O-]
REMARK SMILES IDX 2 1 1 2 3 6 4 7 5 8
REMARK H PARENT 1 3 1 4 1 5
REMARK Flexibility Score: inf
ROOT
ATOM      1  C   UNL     1     -14.421   3.174  25.368  1.00  0.00     0.312 C 
ENDROOT
BRANCH   1   2
ATOM      2  N   UNL     1     -15.764   3.724  25.192  1.00  0.00    -0.353 N 
ATOM      3  H   UNL     1     -15.910   3.949  24.181  1.00  0.00     0.344 HD
ATOM      4  H   UNL     1     -16.481   3.023  25.490  1.00  0.00     0.344 HD
ATOM      5  H   UNL     1     -15.870   4.599  25.754  1.00  0.00     0.344 HD
ENDBRANCH   1   2
BRANCH   1   6
ATOM      6  C   UNL     1     -13.904   3.473  26.742  1.00  0.00     0.096 C 
ATOM      7  O   UNL     1     -13.645   2.534  27.540  1.00  0.00    -0.544 OA
ATOM      8  O   UNL     1     -13.662   4.786  27.123  1.00  0.00    -0.544 OA
ENDBRANCH   1   6
TORSDOF 2
ENDMDL
