MODEL 1
REMARK VINA RESULT:    -3.343      0.000      0.000
REMARK INTER + INTRA:          -3.559
REMARK INTER:                  -3.539
REMARK INTRA:                  -0.020
REMARK UNBOUND:                -0.020
REMARK SMILES O=C([O-])c1cccnc1
REMARK SMILES IDX 4 1 5 2 9 3 6 4 8 5 7 6 2 7 1 8 3 9
REMARK H PARENT
REMARK Flexibility Score: inf
ROOT
ATOM      1  C   UNL     1      54.916  26.645  49.487  1.00  0.00     0.016 A 
ATOM      2  C   UNL     1      54.499  27.951  49.793  1.00  0.00     0.013 A 
ATOM      3  C   UNL     1      56.273  26.319  49.656  1.00  0.00     0.120 A 
ATOM      4  C   UNL     1      55.423  28.892  50.252  1.00  0.00     0.021 A 
ATOM      5  N   UNL     1      57.153  27.254  50.105  1.00  0.00    -0.264 NA
ATOM      6  C   UNL     1      56.760  28.521  50.403  1.00  0.00     0.111 A 
ENDROOT
BRANCH   1   7
ATOM      7  C   UNL     1      53.947  25.640  49.000  1.00  0.00     0.073 C 
ATOM      8  O   UNL     1      54.027  24.439  49.374  1.00  0.00    -0.545 OA
ATOM      9  O   UNL     1      52.931  26.007  48.125  1.00  0.00    -0.545 OA
ENDBRANCH   1   7
TORSDOF 1
ENDMDL
MODEL 2
REMARK VINA RESULT:    -3.332      2.645      3.632
REMARK INTER + INTRA:          -3.547
REMARK INTER:                  -3.526
REMARK INTRA:                  -0.022
REMARK UNBOUND:                -0.020
REMARK SMILES O=C([O-])c1cccnc1
REMARK SMILES IDX 4 1 5 2 9 3 6 4 8 5 7 6 2 7 1 8 3 9
REMARK H PARENT
REMARK Flexibility Score: inf
ROOT
ATOM      1  C   UNL     1      55.613  26.895  49.685  1.00  0.00     0.016 A 
ATOM      2  C   UNL     1      55.010  25.770  49.098  1.00  0.00     0.013 A 
ATOM      3  C   UNL     1      54.834  28.051  49.870  1.00  0.00     0.120 A 
ATOM      4  C   UNL     1      53.668  25.815  48.713  1.00  0.00     0.021 A 
ATOM      5  N   UNL     1      53.529  28.068  49.487  1.00  0.00    -0.264 NA
ATOM      6  C   UNL     1      52.936  26.985  48.918  1.00  0.00     0.111 A 
ENDROOT
BRANCH   1   7
ATOM      7  C   UNL     1      57.033  26.860  50.096  1.00  0.00     0.073 C 
ATOM      8  O   UNL     1      57.556  25.787  50.499  1.00  0.00    -0.545 OA
ATOM      9  O   UNL     1      57.810  28.011  50.042  1.00  0.00    -0.545 OA
ENDBRANCH   1   7
TORSDOF 1
ENDMDL
MODEL 3
REMARK VINA RESULT:    -3.301      3.075      4.116
REMARK INTER + INTRA:          -3.514
REMARK INTER:                  -3.491
REMARK INTRA:                  -0.023
REMARK UNBOUND:                -0.020
REMARK SMILES O=C([O-])c1cccnc1
REMARK SMILES IDX 4 1 5 2 9 3 6 4 8 5 7 6 2 7 1 8 3 9
REMARK H PARENT
REMARK Flexibility Score: inf
ROOT
ATOM      1  C   UNL     1      54.683  28.082  49.878  1.00  0.00     0.016 A 
ATOM      2  C   UNL     1      55.538  26.984  49.690  1.00  0.00     0.013 A 
ATOM      3  C   UNL     1      53.345  27.968  49.460  1.00  0.00     0.120 A 
ATOM      4  C   UNL     1      55.056  25.813  49.102  1.00  0.00     0.021 A 
ATOM      5  N   UNL     1      52.901  26.815  48.890  1.00  0.00    -0.264 NA
ATOM      6  C   UNL     1      53.720  25.747  48.704  1.00  0.00     0.111 A 
ENDROOT
BRANCH   1   7
ATOM      7  C   UNL     1      55.182  29.328  50.499  1.00  0.00     0.073 C 
ATOM      8  O   UNL     1      54.464  30.363  50.526  1.00  0.00    -0.545 OA
ATOM      9  O   UNL     1      56.451  29.373  51.065  1.00  0.00    -0.545 OA
ENDBRANCH   1   7
TORSDOF 1
ENDMDL
MODEL 4
REMARK VINA RESULT:    -3.287      1.055      1.964
REMARK INTER + INTRA:          -3.500
REMARK INTER:                  -3.479
REMARK INTRA:                  -0.021
REMARK UNBOUND:                -0.020
REMARK SMILES O=C([O-])c1cccnc1
REMARK SMILES IDX 4 1 5 2 9 3 6 4 8 5 7 6 2 7 1 8 3 9
REMARK H PARENT
REMARK Flexibility Score: inf
ROOT
ATOM      1  C   UNL     1      54.729  26.866  49.494  1.00  0.00     0.016 A 
ATOM      2  C   UNL     1      56.089  26.658  49.781  1.00  0.00     0.013 A 
ATOM      3  C   UNL     1      54.184  28.141  49.724  1.00  0.00     0.120 A 
ATOM      4  C   UNL     1      56.867  27.704  50.282  1.00  0.00     0.021 A 
ATOM      5  N   UNL     1      54.965  29.143  50.213  1.00  0.00    -0.264 NA
ATOM      6  C   UNL     1      56.281  28.952  50.494  1.00  0.00     0.111 A 
ENDROOT
BRANCH   1   7
ATOM      7  C   UNL     1      53.895  25.766  48.963  1.00  0.00     0.073 C 
ATOM      8  O   UNL     1      53.013  25.994  48.093  1.00  0.00    -0.545 OA
ATOM      9  O   UNL     1      54.074  24.464  49.416  1.00  0.00    -0.545 OA
ENDBRANCH   1   7
TORSDOF 1
ENDMDL
MODEL 5
REMARK VINA RESULT:    -3.272     15.147     16.312
REMARK INTER + INTRA:          -3.484
REMARK INTER:                  -3.463
REMARK INTRA:                  -0.021
REMARK UNBOUND:                -0.020
REMARK SMILES O=C([O-])c1cccnc1
REMARK SMILES IDX 4 1 5 2 9 3 6 4 8 5 7 6 2 7 1 8 3 9
REMARK H PARENT
REMARK Flexibility Score: inf
ROOT
ATOM      1  C   UNL     1      63.764  34.406  60.667  1.00  0.00     0.016 A 
ATOM      2  C   UNL     1      64.933  34.916  61.257  1.00  0.00     0.013 A 
ATOM      3  C   UNL     1      62.673  35.274  60.485  1.00  0.00     0.120 A 
ATOM      4  C   UNL     1      64.994  36.255  61.647  1.00  0.00     0.021 A 
ATOM      5  N   UNL     1      62.759  36.575  60.874  1.00  0.00    -0.264 NA
ATOM      6  C   UNL     1      63.885  37.078  61.446  1.00  0.00     0.111 A 
ENDROOT
BRANCH   1   7
ATOM      7  C   UNL     1      63.688  32.990  60.251  1.00  0.00     0.073 C 
ATOM      8  O   UNL     1      62.613  32.342  60.375  1.00  0.00    -0.545 OA
ATOM      9  O   UNL     1      64.800  32.352  59.714  1.00  0.00    -0.545 OA
ENDBRANCH   1   7
TORSDOF 1
ENDMDL
MODEL 6
REMARK VINA RESULT:    -3.254      2.852      3.660
REMARK INTER + INTRA:          -3.465
REMARK INTER:                  -3.440
REMARK INTRA:                  -0.024
REMARK UNBOUND:                -0.020
REMARK SMILES O=C([O-])c1cccnc1
REMARK SMILES IDX 4 1 5 2 9 3 6 4 8 5 7 6 2 7 1 8 3 9
REMARK H PARENT
REMARK Flexibility Score: inf
ROOT
ATOM      1  C   UNL     1      55.627  27.282  49.731  1.00  0.00     0.016 A 
ATOM      2  C   UNL     1      54.468  28.074  49.722  1.00  0.00     0.013 A 
ATOM      3  C   UNL     1      55.532  25.953  49.281  1.00  0.00     0.120 A 
ATOM      4  C   UNL     1      53.258  27.542  49.272  1.00  0.00     0.021 A 
ATOM      5  N   UNL     1      54.341  25.458  48.848  1.00  0.00    -0.264 NA
ATOM      6  C   UNL     1      53.214  26.218  48.835  1.00  0.00     0.111 A 
ENDROOT
BRANCH   1   7
ATOM      7  C   UNL     1      56.914  27.835  50.205  1.00  0.00     0.073 C 
ATOM      8  O   UNL     1      56.995  29.034  50.583  1.00  0.00    -0.545 OA
ATOM      9  O   UNL     1      58.052  27.038  50.242  1.00  0.00    -0.545 OA
ENDBRANCH   1   7
TORSDOF 1
ENDMDL
MODEL 7
REMARK VINA RESULT:    -3.253      1.847      2.471
REMARK INTER + INTRA:          -3.464
REMARK INTER:                  -3.440
REMARK INTRA:                  -0.024
REMARK UNBOUND:                -0.020
REMARK SMILES O=C([O-])c1cccnc1
REMARK SMILES IDX 4 1 5 2 9 3 6 4 8 5 7 6 2 7 1 8 3 9
REMARK H PARENT
REMARK Flexibility Score: inf
ROOT
ATOM      1  C   UNL     1      55.028  27.599  49.810  1.00  0.00     0.016 A 
ATOM      2  C   UNL     1      53.705  27.971  49.519  1.00  0.00     0.013 A 
ATOM      3  C   UNL     1      55.850  28.520  50.482  1.00  0.00     0.120 A 
ATOM      4  C   UNL     1      53.233  29.230  49.895  1.00  0.00     0.021 A 
ATOM      5  N   UNL     1      55.365  29.741  50.838  1.00  0.00    -0.264 NA
ATOM      6  C   UNL     1      54.087  30.111  50.560  1.00  0.00     0.111 A 
ENDROOT
BRANCH   1   7
ATOM      7  C   UNL     1      55.539  26.268  49.416  1.00  0.00     0.073 C 
ATOM      8  O   UNL     1      54.793  25.446  48.820  1.00  0.00    -0.545 OA
ATOM      9  O   UNL     1      56.852  25.907  49.697  1.00  0.00    -0.545 OA
ENDBRANCH   1   7
TORSDOF 1
ENDMDL
MODEL 8
REMARK VINA RESULT:    -3.194     14.727     15.878
REMARK INTER + INTRA:          -3.401
REMARK INTER:                  -3.380
REMARK INTRA:                  -0.021
REMARK UNBOUND:                -0.020
REMARK SMILES O=C([O-])c1cccnc1
REMARK SMILES IDX 4 1 5 2 9 3 6 4 8 5 7 6 2 7 1 8 3 9
REMARK H PARENT
REMARK Flexibility Score: inf
ROOT
ATOM      1  C   UNL     1      63.083  34.659  60.484  1.00  0.00     0.016 A 
ATOM      2  C   UNL     1      62.708  35.995  60.701  1.00  0.00     0.013 A 
ATOM      3  C   UNL     1      64.392  34.270  60.818  1.00  0.00     0.120 A 
ATOM      4  C   UNL     1      63.624  36.903  61.236  1.00  0.00     0.021 A 
ATOM      5  N   UNL     1      65.266  35.174  61.339  1.00  0.00    -0.264 NA
ATOM      6  C   UNL     1      64.912  36.469  61.552  1.00  0.00     0.111 A 
ENDROOT
BRANCH   1   7
ATOM      7  C   UNL     1      62.121  33.689  59.918  1.00  0.00     0.073 C 
ATOM      8  O   UNL     1      62.126  32.487  60.297  1.00  0.00    -0.545 OA
ATOM      9  O   UNL     1      61.197  34.090  58.960  1.00  0.00    -0.545 OA
ENDBRANCH   1   7
TORSDOF 1
ENDMDL
MODEL 9
REMARK VINA RESULT:    -3.118      9.025      9.882
REMARK INTER + INTRA:          -3.321
REMARK INTER:                  -3.297
REMARK INTRA:                  -0.023
REMARK UNBOUND:                -0.020
REMARK SMILES O=C([O-])c1cccnc1
REMARK SMILES IDX 4 1 5 2 9 3 6 4 8 5 7 6 2 7 1 8 3 9
REMARK H PARENT
REMARK Flexibility Score: inf
ROOT
ATOM      1  C   UNL     1      58.482  17.924  50.558  1.00  0.00     0.016 A 
ATOM      2  C   UNL     1      58.830  17.987  51.917  1.00  0.00     0.013 A 
ATOM      3  C   UNL     1      57.270  18.508  50.150  1.00  0.00     0.120 A 
ATOM      4  C   UNL     1      57.981  18.617  52.830  1.00  0.00     0.021 A 
ATOM      5  N   UNL     1      56.461  19.116  51.059  1.00  0.00    -0.264 NA
ATOM      6  C   UNL     1      56.788  19.182  52.377  1.00  0.00     0.111 A 
ENDROOT
BRANCH   1   7
ATOM      7  C   UNL     1      59.373  17.260  49.583  1.00  0.00     0.073 C 
ATOM      8  O   UNL     1      58.979  17.032  48.407  1.00  0.00    -0.545 OA
ATOM      9  O   UNL     1      60.658  16.877  49.949  1.00  0.00    -0.545 OA
ENDBRANCH   1   7
TORSDOF 1
ENDMDL
