MODEL 1
REMARK VINA RESULT:    15.657      0.000      0.000
REMARK INTER + INTRA:          17.906
REMARK INTER:                  17.945
REMARK INTRA:                  -0.039
REMARK UNBOUND:                -0.039
REMARK SMILES O=C1C[C@@H](c2ccc(O)cc2)Oc2cc(O)cc(O)c21
REMARK SMILES IDX 3 1 4 2 12 3 13 4 14 5 15 6 17 7 18 8 20 9 2 10 1 11 5 12
REMARK SMILES IDX 6 13 11 14 7 15 10 16 8 17 9 18 19 20 16 22
REMARK H PARENT 9 19 19 21 16 23
REMARK Flexibility Score: inf
ROOT
ATOM      1  C   UNL     1       9.782  16.061  -0.991  1.00  0.00     0.131 C 
ATOM      2  C   UNL     1       9.918  14.527  -1.013  1.00  0.00     0.211 C 
ATOM      3  O   UNL     1       8.701  13.886  -0.605  1.00  0.00    -0.484 OA
ATOM      4  C   UNL     1       7.783  14.445   0.298  1.00  0.00     0.138 A 
ATOM      5  C   UNL     1       6.714  13.665   0.742  1.00  0.00     0.093 A 
ATOM      6  C   UNL     1       5.797  14.181   1.663  1.00  0.00     0.123 A 
ATOM      7  C   UNL     1       5.938  15.493   2.120  1.00  0.00     0.093 A 
ATOM      8  C   UNL     1       6.983  16.304   1.663  1.00  0.00     0.133 A 
ATOM      9  C   UNL     1       7.940  15.767   0.763  1.00  0.00     0.102 A 
ATOM     10  C   UNL     1       9.127  16.507   0.281  1.00  0.00     0.174 C 
ATOM     11  O   UNL     1       9.629  17.457   0.938  1.00  0.00    -0.294 OA
ENDROOT
BRANCH   2  12
ATOM     12  C   UNL     1      11.093  14.063  -0.172  1.00  0.00    -0.007 A 
ATOM     13  C   UNL     1      11.047  14.078   1.236  1.00  0.00     0.011 A 
ATOM     14  C   UNL     1      12.283  13.669  -0.809  1.00  0.00     0.011 A 
ATOM     15  C   UNL     1      12.158  13.680   1.984  1.00  0.00     0.046 A 
ATOM     16  C   UNL     1      13.392  13.272  -0.057  1.00  0.00     0.046 A 
ATOM     17  C   UNL     1      13.334  13.274   1.340  1.00  0.00     0.115 A 
BRANCH  17  18
ATOM     18  O   UNL     1      14.447  12.876   2.077  1.00  0.00    -0.508 OA
ATOM     19  H   UNL     1      15.307  12.586   1.624  1.00  0.00     0.293 HD
ENDBRANCH  17  18
ENDBRANCH   2  12
BRANCH   8  20
ATOM     20  O   UNL     1       7.008  17.630   2.097  1.00  0.00    -0.507 OA
ATOM     21  H   UNL     1       7.782  18.260   1.939  1.00  0.00     0.293 HD
ENDBRANCH   8  20
BRANCH   6  22
ATOM     22  O   UNL     1       4.738  13.402   2.125  1.00  0.00    -0.508 OA
ATOM     23  H   UNL     1       4.850  12.765   2.905  1.00  0.00     0.293 HD
ENDBRANCH   6  22
TORSDOF 4
ENDMDL
MODEL 2
REMARK VINA RESULT:    16.075      1.961      5.776
REMARK INTER + INTRA:          18.385
REMARK INTER:                  18.129
REMARK INTRA:                   0.255
REMARK UNBOUND:                -0.039
REMARK SMILES O=C1C[C@@H](c2ccc(O)cc2)Oc2cc(O)cc(O)c21
REMARK SMILES IDX 3 1 4 2 12 3 13 4 14 5 15 6 17 7 18 8 20 9 2 10 1 11 5 12
REMARK SMILES IDX 6 13 11 14 7 15 10 16 8 17 9 18 19 20 16 22
REMARK H PARENT 9 19 19 21 16 23
REMARK Flexibility Score: inf
ROOT
ATOM      1  C   UNL     1      10.295  13.483   2.124  1.00  0.00     0.131 C 
ATOM      2  C   UNL     1       8.958  13.876   1.470  1.00  0.00     0.211 C 
ATOM      3  O   UNL     1       8.934  13.533   0.077  1.00  0.00    -0.484 OA
ATOM      4  C   UNL     1      10.072  13.496  -0.742  1.00  0.00     0.138 A 
ATOM      5  C   UNL     1       9.909  13.304  -2.116  1.00  0.00     0.093 A 
ATOM      6  C   UNL     1      11.020  13.289  -2.964  1.00  0.00     0.123 A 
ATOM      7  C   UNL     1      12.301  13.442  -2.431  1.00  0.00     0.093 A 
ATOM      8  C   UNL     1      12.491  13.603  -1.053  1.00  0.00     0.133 A 
ATOM      9  C   UNL     1      11.362  13.662  -0.197  1.00  0.00     0.102 A 
ATOM     10  C   UNL     1      11.442  13.911   1.260  1.00  0.00     0.174 C 
ATOM     11  O   UNL     1      12.417  14.518   1.776  1.00  0.00    -0.294 OA
ENDROOT
BRANCH   2  12
ATOM     12  C   UNL     1       8.649  15.346   1.680  1.00  0.00    -0.007 A 
ATOM     13  C   UNL     1       7.342  15.797   1.950  1.00  0.00     0.011 A 
ATOM     14  C   UNL     1       9.678  16.295   1.539  1.00  0.00     0.011 A 
ATOM     15  C   UNL     1       7.081  17.161   2.102  1.00  0.00     0.046 A 
ATOM     16  C   UNL     1       9.413  17.658   1.692  1.00  0.00     0.046 A 
ATOM     17  C   UNL     1       8.116  18.096   1.975  1.00  0.00     0.115 A 
BRANCH  17  18
ATOM     18  O   UNL     1       7.866  19.458   2.125  1.00  0.00    -0.508 OA
ATOM     19  H   UNL     1       7.627  19.858   3.025  1.00  0.00     0.293 HD
ENDBRANCH  17  18
ENDBRANCH   2  12
BRANCH   8  20
ATOM     20  O   UNL     1      13.805  13.661  -0.585  1.00  0.00    -0.507 OA
ATOM     21  H   UNL     1      14.615  13.471  -1.158  1.00  0.00     0.293 HD
ENDBRANCH   8  20
BRANCH   6  22
ATOM     22  O   UNL     1      10.863  13.116  -4.338  1.00  0.00    -0.508 OA
ATOM     23  H   UNL     1      10.067  12.620  -4.722  1.00  0.00     0.293 HD
ENDBRANCH   6  22
TORSDOF 4
ENDMDL
