MODEL 1
REMARK VINA RESULT:    -4.626      0.000      0.000
REMARK INTER + INTRA:          -7.331
REMARK INTER:                  -6.519
REMARK INTRA:                  -0.812
REMARK UNBOUND:                -0.812
REMARK SMILES C=CC(=C)CCC=C(C)CCC=C(C)C
REMARK SMILES IDX 8 1 7 2 9 3 10 4 11 5 12 6 14 7 13 8 15 9 6 10 5 11 3 12
REMARK SMILES IDX 4 13 2 14 1 15
REMARK H PARENT
REMARK Flexibility Score: inf
ROOT
ATOM      1  C   UNL     1      52.394  30.620  26.428  1.00  0.00    -0.077 C 
ATOM      2  C   UNL     1      52.630  29.288  26.387  1.00  0.00    -0.028 C 
ATOM      3  C   UNL     1      53.504  31.631  26.265  1.00  0.00     0.039 C 
ENDROOT
BRANCH   1   4
ATOM      4  C   UNL     1      50.981  31.108  26.665  1.00  0.00     0.034 C 
BRANCH   4   5
ATOM      5  C   UNL     1      50.642  31.089  28.160  1.00  0.00     0.032 C 
BRANCH   5   6
ATOM      6  C   UNL     1      50.851  32.447  28.786  1.00  0.00    -0.028 C 
ATOM      7  C   UNL     1      50.176  31.609  31.040  1.00  0.00     0.039 C 
ATOM      8  C   UNL     1      50.642  32.693  30.097  1.00  0.00    -0.080 C 
ATOM      9  C   UNL     1      50.881  34.087  30.618  1.00  0.00     0.039 C 
ENDBRANCH   5   6
ENDBRANCH   4   5
ENDBRANCH   1   4
BRANCH   2  10
ATOM     10  C   UNL     1      53.978  28.663  26.131  1.00  0.00     0.032 C 
BRANCH  10  11
ATOM     11  C   UNL     1      54.728  28.421  27.446  1.00  0.00     0.039 C 
BRANCH  11  12
ATOM     12  C   UNL     1      56.212  28.664  27.272  1.00  0.00    -0.055 C 
ATOM     13  C   UNL     1      56.718  29.859  27.594  1.00  0.00     0.012 C 
BRANCH  12  14
ATOM     14  C   UNL     1      57.124  27.632  26.712  1.00  0.00    -0.005 C 
ATOM     15  C   UNL     1      57.445  27.542  25.422  1.00  0.00     0.009 C 
ENDBRANCH  12  14
ENDBRANCH  11  12
ENDBRANCH  10  11
ENDBRANCH   2  10
TORSDOF 7
ENDMDL
MODEL 2
REMARK VINA RESULT:    -4.504     19.029     20.501
REMARK INTER + INTRA:          -7.160
REMARK INTER:                  -5.911
REMARK INTRA:                  -1.248
REMARK UNBOUND:                -0.812
REMARK SMILES C=CC(=C)CCC=C(C)CCC=C(C)C
REMARK SMILES IDX 8 1 7 2 9 3 10 4 11 5 12 6 14 7 13 8 15 9 6 10 5 11 3 12
REMARK SMILES IDX 4 13 2 14 1 15
REMARK H PARENT
REMARK Flexibility Score: inf
ROOT
ATOM      1  C   UNL     1      59.687  43.490  41.561  1.00  0.00    -0.077 C 
ATOM      2  C   UNL     1      60.401  43.594  42.705  1.00  0.00    -0.028 C 
ATOM      3  C   UNL     1      59.546  42.179  40.825  1.00  0.00     0.039 C 
ENDROOT
BRANCH   1   4
ATOM      4  C   UNL     1      59.030  44.729  40.991  1.00  0.00     0.034 C 
BRANCH   4   5
ATOM      5  C   UNL     1      57.931  45.243  41.928  1.00  0.00     0.032 C 
BRANCH   5   6
ATOM      6  C   UNL     1      56.652  44.460  41.753  1.00  0.00    -0.028 C 
ATOM      7  C   UNL     1      56.839  43.476  44.041  1.00  0.00     0.039 C 
ATOM      8  C   UNL     1      56.147  43.653  42.710  1.00  0.00    -0.080 C 
ATOM      9  C   UNL     1      54.862  42.916  42.431  1.00  0.00     0.039 C 
ENDBRANCH   5   6
ENDBRANCH   4   5
ENDBRANCH   1   4
BRANCH   2  10
ATOM     10  C   UNL     1      61.083  42.441  43.399  1.00  0.00     0.032 C 
BRANCH  10  11
ATOM     11  C   UNL     1      62.607  42.603  43.362  1.00  0.00     0.039 C 
BRANCH  11  12
ATOM     12  C   UNL     1      63.274  41.319  42.921  1.00  0.00    -0.055 C 
ATOM     13  C   UNL     1      64.610  41.260  42.878  1.00  0.00     0.012 C 
BRANCH  12  14
ATOM     14  C   UNL     1      62.496  40.129  42.488  1.00  0.00    -0.005 C 
ATOM     15  C   UNL     1      62.920  38.872  42.615  1.00  0.00     0.009 C 
ENDBRANCH  12  14
ENDBRANCH  11  12
ENDBRANCH  10  11
ENDBRANCH   2  10
TORSDOF 7
ENDMDL
MODEL 3
REMARK VINA RESULT:    -4.382      0.909      6.663
REMARK INTER + INTRA:          -6.988
REMARK INTER:                  -6.141
REMARK INTRA:                  -0.846
REMARK UNBOUND:                -0.812
REMARK SMILES C=CC(=C)CCC=C(C)CCC=C(C)C
REMARK SMILES IDX 8 1 7 2 9 3 10 4 11 5 12 6 14 7 13 8 15 9 6 10 5 11 3 12
REMARK SMILES IDX 4 13 2 14 1 15
REMARK H PARENT
REMARK Flexibility Score: inf
ROOT
ATOM      1  C   UNL     1      52.821  30.280  26.447  1.00  0.00    -0.077 C 
ATOM      2  C   UNL     1      51.567  30.627  26.815  1.00  0.00    -0.028 C 
ATOM      3  C   UNL     1      53.887  31.315  26.172  1.00  0.00     0.039 C 
ENDROOT
BRANCH   1   4
ATOM      4  C   UNL     1      53.159  28.814  26.285  1.00  0.00     0.034 C 
BRANCH   4   5
ATOM      5  C   UNL     1      54.043  28.328  27.439  1.00  0.00     0.032 C 
BRANCH   5   6
ATOM      6  C   UNL     1      55.226  27.540  26.929  1.00  0.00    -0.028 C 
ATOM      7  C   UNL     1      56.793  29.431  27.383  1.00  0.00     0.039 C 
ATOM      8  C   UNL     1      56.482  28.034  26.900  1.00  0.00    -0.080 C 
ATOM      9  C   UNL     1      57.590  27.161  26.369  1.00  0.00     0.039 C 
ENDBRANCH   5   6
ENDBRANCH   4   5
ENDBRANCH   1   4
BRANCH   2  10
ATOM     10  C   UNL     1      51.099  32.044  27.041  1.00  0.00     0.032 C 
BRANCH  10  11
ATOM     11  C   UNL     1      50.258  32.146  28.318  1.00  0.00     0.039 C 
BRANCH  11  12
ATOM     12  C   UNL     1      50.765  33.260  29.209  1.00  0.00    -0.055 C 
ATOM     13  C   UNL     1      51.224  34.384  28.647  1.00  0.00     0.012 C 
BRANCH  12  14
ATOM     14  C   UNL     1      50.813  33.133  30.688  1.00  0.00    -0.005 C 
ATOM     15  C   UNL     1      50.750  31.972  31.340  1.00  0.00     0.009 C 
ENDBRANCH  12  14
ENDBRANCH  11  12
ENDBRANCH  10  11
ENDBRANCH   2  10
TORSDOF 7
ENDMDL
MODEL 4
REMARK VINA RESULT:    -4.379     18.594     22.271
REMARK INTER + INTRA:          -6.982
REMARK INTER:                  -6.244
REMARK INTRA:                  -0.739
REMARK UNBOUND:                -0.812
REMARK SMILES C=CC(=C)CCC=C(C)CCC=C(C)C
REMARK SMILES IDX 8 1 7 2 9 3 10 4 11 5 12 6 14 7 13 8 15 9 6 10 5 11 3 12
REMARK SMILES IDX 4 13 2 14 1 15
REMARK H PARENT
REMARK Flexibility Score: inf
ROOT
ATOM      1  C   UNL     1      57.765  44.837  43.447  1.00  0.00    -0.077 C 
ATOM      2  C   UNL     1      57.295  46.074  43.167  1.00  0.00    -0.028 C 
ATOM      3  C   UNL     1      56.973  43.591  43.126  1.00  0.00     0.039 C 
ENDROOT
BRANCH   1   4
ATOM      4  C   UNL     1      59.113  44.700  44.122  1.00  0.00     0.034 C 
BRANCH   4   5
ATOM      5  C   UNL     1      60.228  44.538  43.083  1.00  0.00     0.032 C 
BRANCH   5   6
ATOM      6  C   UNL     1      60.078  43.247  42.314  1.00  0.00    -0.028 C 
ATOM      7  C   UNL     1      59.348  44.455  40.254  1.00  0.00     0.039 C 
ATOM      8  C   UNL     1      59.678  43.199  41.026  1.00  0.00    -0.080 C 
ATOM      9  C   UNL     1      59.561  41.855  40.354  1.00  0.00     0.039 C 
ENDBRANCH   5   6
ENDBRANCH   4   5
ENDBRANCH   1   4
BRANCH   2  10
ATOM     10  C   UNL     1      55.985  46.358  42.474  1.00  0.00     0.032 C 
BRANCH  10  11
ATOM     11  C   UNL     1      54.900  46.738  43.488  1.00  0.00     0.039 C 
BRANCH  11  12
ATOM     12  C   UNL     1      53.550  46.208  43.055  1.00  0.00    -0.055 C 
ATOM     13  C   UNL     1      53.497  45.132  42.261  1.00  0.00     0.012 C 
BRANCH  12  14
ATOM     14  C   UNL     1      52.277  46.869  43.444  1.00  0.00    -0.005 C 
ATOM     15  C   UNL     1      51.134  46.744  42.770  1.00  0.00     0.009 C 
ENDBRANCH  12  14
ENDBRANCH  11  12
ENDBRANCH  10  11
ENDBRANCH   2  10
TORSDOF 7
ENDMDL
MODEL 5
REMARK VINA RESULT:    -4.359      1.366      6.266
REMARK INTER + INTRA:          -6.955
REMARK INTER:                  -5.750
REMARK INTRA:                  -1.205
REMARK UNBOUND:                -0.812
REMARK SMILES C=CC(=C)CCC=C(C)CCC=C(C)C
REMARK SMILES IDX 8 1 7 2 9 3 10 4 11 5 12 6 14 7 13 8 15 9 6 10 5 11 3 12
REMARK SMILES IDX 4 13 2 14 1 15
REMARK H PARENT
REMARK Flexibility Score: inf
ROOT
ATOM      1  C   UNL     1      51.822  32.120  26.933  1.00  0.00    -0.077 C 
ATOM      2  C   UNL     1      51.342  30.909  27.298  1.00  0.00    -0.028 C 
ATOM      3  C   UNL     1      51.067  33.397  27.221  1.00  0.00     0.039 C 
ENDROOT
BRANCH   1   4
ATOM      4  C   UNL     1      53.142  32.194  26.196  1.00  0.00     0.034 C 
BRANCH   4   5
ATOM      5  C   UNL     1      53.663  30.790  25.869  1.00  0.00     0.032 C 
BRANCH   5   6
ATOM      6  C   UNL     1      55.055  30.581  26.414  1.00  0.00    -0.028 C 
ATOM      7  C   UNL     1      54.446  28.352  27.360  1.00  0.00     0.039 C 
ATOM      8  C   UNL     1      55.421  29.474  27.094  1.00  0.00    -0.080 C 
ATOM      9  C   UNL     1      56.839  29.369  27.595  1.00  0.00     0.039 C 
ENDBRANCH   5   6
ENDBRANCH   4   5
ENDBRANCH   1   4
BRANCH   2  10
ATOM     10  C   UNL     1      50.058  30.689  28.060  1.00  0.00     0.032 C 
BRANCH  10  11
ATOM     11  C   UNL     1      50.344  30.230  29.494  1.00  0.00     0.039 C 
BRANCH  11  12
ATOM     12  C   UNL     1      49.893  31.274  30.493  1.00  0.00    -0.055 C 
ATOM     13  C   UNL     1      48.595  31.359  30.804  1.00  0.00     0.012 C 
BRANCH  12  14
ATOM     14  C   UNL     1      50.838  32.242  31.109  1.00  0.00    -0.005 C 
ATOM     15  C   UNL     1      50.929  33.523  30.756  1.00  0.00     0.009 C 
ENDBRANCH  12  14
ENDBRANCH  11  12
ENDBRANCH  10  11
ENDBRANCH   2  10
TORSDOF 7
ENDMDL
MODEL 6
REMARK VINA RESULT:    -4.246     19.240     21.745
REMARK INTER + INTRA:          -6.795
REMARK INTER:                  -5.908
REMARK INTRA:                  -0.888
REMARK UNBOUND:                -0.812
REMARK SMILES C=CC(=C)CCC=C(C)CCC=C(C)C
REMARK SMILES IDX 8 1 7 2 9 3 10 4 11 5 12 6 14 7 13 8 15 9 6 10 5 11 3 12
REMARK SMILES IDX 4 13 2 14 1 15
REMARK H PARENT
REMARK Flexibility Score: inf
ROOT
ATOM      1  C   UNL     1      59.579  44.222  42.155  1.00  0.00    -0.077 C 
ATOM      2  C   UNL     1      58.869  45.373  42.113  1.00  0.00    -0.028 C 
ATOM      3  C   UNL     1      59.064  42.944  41.536  1.00  0.00     0.039 C 
ENDROOT
BRANCH   1   4
ATOM      4  C   UNL     1      60.918  44.212  42.861  1.00  0.00     0.034 C 
BRANCH   4   5
ATOM      5  C   UNL     1      61.170  42.856  43.529  1.00  0.00     0.032 C 
BRANCH   5   6
ATOM      6  C   UNL     1      62.639  42.505  43.520  1.00  0.00    -0.028 C 
ATOM      7  C   UNL     1      62.208  40.354  42.327  1.00  0.00     0.039 C 
ATOM      8  C   UNL     1      63.121  41.368  42.975  1.00  0.00    -0.080 C 
ATOM      9  C   UNL     1      64.606  41.117  43.021  1.00  0.00     0.039 C 
ENDBRANCH   5   6
ENDBRANCH   4   5
ENDBRANCH   1   4
BRANCH   2  10
ATOM     10  C   UNL     1      57.538  45.536  41.422  1.00  0.00     0.032 C 
BRANCH  10  11
ATOM     11  C   UNL     1      56.455  45.974  42.415  1.00  0.00     0.039 C 
BRANCH  11  12
ATOM     12  C   UNL     1      55.305  44.990  42.425  1.00  0.00    -0.055 C 
ATOM     13  C   UNL     1      54.052  45.455  42.480  1.00  0.00     0.012 C 
BRANCH  12  14
ATOM     14  C   UNL     1      55.520  43.520  42.423  1.00  0.00    -0.005 C 
ATOM     15  C   UNL     1      54.539  42.622  42.339  1.00  0.00     0.009 C 
ENDBRANCH  12  14
ENDBRANCH  11  12
ENDBRANCH  10  11
ENDBRANCH   2  10
TORSDOF 7
ENDMDL
MODEL 7
REMARK VINA RESULT:    -4.202      1.520      6.954
REMARK INTER + INTRA:          -6.734
REMARK INTER:                  -5.854
REMARK INTRA:                  -0.880
REMARK UNBOUND:                -0.812
REMARK SMILES C=CC(=C)CCC=C(C)CCC=C(C)C
REMARK SMILES IDX 8 1 7 2 9 3 10 4 11 5 12 6 14 7 13 8 15 9 6 10 5 11 3 12
REMARK SMILES IDX 4 13 2 14 1 15
REMARK H PARENT
REMARK Flexibility Score: inf
ROOT
ATOM      1  C   UNL     1      53.816  30.263  25.049  1.00  0.00    -0.077 C 
ATOM      2  C   UNL     1      53.428  31.331  25.782  1.00  0.00    -0.028 C 
ATOM      3  C   UNL     1      53.169  28.907  25.210  1.00  0.00     0.039 C 
ENDROOT
BRANCH   1   4
ATOM      4  C   UNL     1      54.946  30.426  24.056  1.00  0.00     0.034 C 
BRANCH   4   5
ATOM      5  C   UNL     1      56.304  30.400  24.766  1.00  0.00     0.032 C 
BRANCH   5   6
ATOM      6  C   UNL     1      56.820  28.989  24.910  1.00  0.00    -0.028 C 
ATOM      7  C   UNL     1      56.710  29.110  27.402  1.00  0.00     0.039 C 
ATOM      8  C   UNL     1      57.008  28.392  26.106  1.00  0.00    -0.080 C 
ATOM      9  C   UNL     1      57.529  26.979  26.136  1.00  0.00     0.039 C 
ENDBRANCH   5   6
ENDBRANCH   4   5
ENDBRANCH   1   4
BRANCH   2  10
ATOM     10  C   UNL     1      52.301  31.320  26.786  1.00  0.00     0.032 C 
BRANCH  10  11
ATOM     11  C   UNL     1      51.901  32.748  27.175  1.00  0.00     0.039 C 
BRANCH  11  12
ATOM     12  C   UNL     1      50.954  32.738  28.355  1.00  0.00    -0.055 C 
ATOM     13  C   UNL     1      50.286  31.615  28.645  1.00  0.00     0.012 C 
BRANCH  12  14
ATOM     14  C   UNL     1      50.702  33.949  29.180  1.00  0.00    -0.005 C 
ATOM     15  C   UNL     1      50.879  34.002  30.500  1.00  0.00     0.009 C 
ENDBRANCH  12  14
ENDBRANCH  11  12
ENDBRANCH  10  11
ENDBRANCH   2  10
TORSDOF 7
ENDMDL
MODEL 8
REMARK VINA RESULT:    -4.192      0.983      1.112
REMARK INTER + INTRA:          -6.719
REMARK INTER:                  -5.993
REMARK INTRA:                  -0.726
REMARK UNBOUND:                -0.812
REMARK SMILES C=CC(=C)CCC=C(C)CCC=C(C)C
REMARK SMILES IDX 8 1 7 2 9 3 10 4 11 5 12 6 14 7 13 8 15 9 6 10 5 11 3 12
REMARK SMILES IDX 4 13 2 14 1 15
REMARK H PARENT
REMARK Flexibility Score: inf
ROOT
ATOM      1  C   UNL     1      51.646  29.651  27.141  1.00  0.00    -0.077 C 
ATOM      2  C   UNL     1      52.411  28.539  27.220  1.00  0.00    -0.028 C 
ATOM      3  C   UNL     1      52.141  30.914  26.476  1.00  0.00     0.039 C 
ENDROOT
BRANCH   1   4
ATOM      4  C   UNL     1      50.263  29.636  27.755  1.00  0.00     0.034 C 
BRANCH   4   5
ATOM      5  C   UNL     1      50.295  30.192  29.183  1.00  0.00     0.032 C 
BRANCH   5   6
ATOM      6  C   UNL     1      49.708  31.581  29.244  1.00  0.00    -0.028 C 
ATOM      7  C   UNL     1      50.918  32.096  31.367  1.00  0.00     0.039 C 
ATOM      8  C   UNL     1      49.986  32.456  30.234  1.00  0.00    -0.080 C 
ATOM      9  C   UNL     1      49.344  33.819  30.197  1.00  0.00     0.039 C 
ENDBRANCH   5   6
ENDBRANCH   4   5
ENDBRANCH   1   4
BRANCH   2  10
ATOM     10  C   UNL     1      53.793  28.403  26.630  1.00  0.00     0.032 C 
BRANCH  10  11
ATOM     11  C   UNL     1      54.842  28.206  27.731  1.00  0.00     0.039 C 
BRANCH  11  12
ATOM     12  C   UNL     1      56.205  28.669  27.264  1.00  0.00    -0.055 C 
ATOM     13  C   UNL     1      56.483  29.978  27.266  1.00  0.00     0.012 C 
BRANCH  12  14
ATOM     14  C   UNL     1      57.234  27.723  26.759  1.00  0.00    -0.005 C 
ATOM     15  C   UNL     1      57.419  27.440  25.471  1.00  0.00     0.009 C 
ENDBRANCH  12  14
ENDBRANCH  11  12
ENDBRANCH  10  11
ENDBRANCH   2  10
TORSDOF 7
ENDMDL
MODEL 9
REMARK VINA RESULT:    -4.092      1.464      6.880
REMARK INTER + INTRA:          -6.578
REMARK INTER:                  -5.476
REMARK INTRA:                  -1.102
REMARK UNBOUND:                -0.812
REMARK SMILES C=CC(=C)CCC=C(C)CCC=C(C)C
REMARK SMILES IDX 8 1 7 2 9 3 10 4 11 5 12 6 14 7 13 8 15 9 6 10 5 11 3 12
REMARK SMILES IDX 4 13 2 14 1 15
REMARK H PARENT
REMARK Flexibility Score: inf
ROOT
ATOM      1  C   UNL     1      51.564  31.505  26.897  1.00  0.00    -0.077 C 
ATOM      2  C   UNL     1      51.856  32.780  27.239  1.00  0.00    -0.028 C 
ATOM      3  C   UNL     1      50.145  30.986  26.888  1.00  0.00     0.039 C 
ENDROOT
BRANCH   1   4
ATOM      4  C   UNL     1      52.694  30.566  26.533  1.00  0.00     0.034 C 
BRANCH   4   5
ATOM      5  C   UNL     1      54.000  31.340  26.322  1.00  0.00     0.032 C 
BRANCH   5   6
ATOM      6  C   UNL     1      54.939  30.592  25.407  1.00  0.00    -0.028 C 
ATOM      7  C   UNL     1      56.360  29.855  27.323  1.00  0.00     0.039 C 
ATOM      8  C   UNL     1      56.016  29.912  25.853  1.00  0.00    -0.080 C 
ATOM      9  C   UNL     1      56.889  29.200  24.852  1.00  0.00     0.039 C 
ENDBRANCH   5   6
ENDBRANCH   4   5
ENDBRANCH   1   4
BRANCH   2  10
ATOM     10  C   UNL     1      50.832  33.829  27.595  1.00  0.00     0.032 C 
BRANCH  10  11
ATOM     11  C   UNL     1      50.841  34.114  29.102  1.00  0.00     0.039 C 
BRANCH  11  12
ATOM     12  C   UNL     1      49.715  33.378  29.795  1.00  0.00    -0.055 C 
ATOM     13  C   UNL     1      48.490  33.916  29.798  1.00  0.00     0.012 C 
BRANCH  12  14
ATOM     14  C   UNL     1      49.931  32.095  30.515  1.00  0.00    -0.005 C 
ATOM     15  C   UNL     1      50.970  31.854  31.314  1.00  0.00     0.009 C 
ENDBRANCH  12  14
ENDBRANCH  11  12
ENDBRANCH  10  11
ENDBRANCH   2  10
TORSDOF 7
ENDMDL
