MODEL 1
REMARK VINA RESULT:    -4.960      0.000      0.000
REMARK INTER + INTRA:          -7.160
REMARK INTER:                  -6.700
REMARK INTRA:                  -0.460
REMARK UNBOUND:                -0.460
REMARK SMILES CC(=O)CCC=C(C)CCC=C(C)C
REMARK SMILES IDX 7 1 6 2 8 3 9 4 10 5 11 6 13 7 12 8 14 9 5 10 4 11 2 12 3 13
REMARK SMILES IDX 1 14
REMARK H PARENT
REMARK Flexibility Score: inf
ROOT
ATOM      1  C   UNL     1      20.441  24.943  27.841  1.00  0.00    -0.077 C 
ATOM      2  C   UNL     1      21.183  24.221  26.971  1.00  0.00    -0.028 C 
ATOM      3  C   UNL     1      19.029  25.374  27.519  1.00  0.00     0.039 C 
ENDROOT
BRANCH   1   4
ATOM      4  C   UNL     1      21.047  25.336  29.171  1.00  0.00     0.034 C 
BRANCH   4   5
ATOM      5  C   UNL     1      21.438  26.818  29.176  1.00  0.00     0.032 C 
BRANCH   5   6
ATOM      6  C   UNL     1      22.656  27.053  28.318  1.00  0.00    -0.028 C 
ATOM      7  C   UNL     1      24.707  28.177  27.564  1.00  0.00     0.039 C 
ATOM      8  C   UNL     1      23.556  28.038  28.527  1.00  0.00    -0.080 C 
ATOM      9  C   UNL     1      23.451  28.985  29.701  1.00  0.00     0.039 C 
ENDBRANCH   5   6
ENDBRANCH   4   5
ENDBRANCH   1   4
BRANCH   2  10
ATOM     10  C   UNL     1      20.693  23.726  25.632  1.00  0.00     0.035 C 
BRANCH  10  11
ATOM     11  C   UNL     1      21.559  24.290  24.496  1.00  0.00     0.079 C 
BRANCH  11  12
ATOM     12  C   UNL     1      21.834  23.312  23.376  1.00  0.00     0.130 C 
ATOM     13  O   UNL     1      22.996  23.083  23.078  1.00  0.00    -0.300 OA
ATOM     14  C   UNL     1      20.742  22.606  22.617  1.00  0.00     0.087 C 
ENDBRANCH  11  12
ENDBRANCH  10  11
ENDBRANCH   2  10
TORSDOF 6
ENDMDL
MODEL 2
REMARK VINA RESULT:    -4.936      3.248      5.495
REMARK INTER + INTRA:          -7.128
REMARK INTER:                  -6.120
REMARK INTRA:                  -1.008
REMARK UNBOUND:                -0.460
REMARK SMILES CC(=O)CCC=C(C)CCC=C(C)C
REMARK SMILES IDX 7 1 6 2 8 3 9 4 10 5 11 6 13 7 12 8 14 9 5 10 4 11 2 12 3 13
REMARK SMILES IDX 1 14
REMARK H PARENT
REMARK Flexibility Score: inf
ROOT
ATOM      1  C   UNL     1      18.554  26.347  27.866  1.00  0.00    -0.077 C 
ATOM      2  C   UNL     1      17.622  25.379  28.018  1.00  0.00    -0.028 C 
ATOM      3  C   UNL     1      18.255  27.637  27.137  1.00  0.00     0.039 C 
ENDROOT
BRANCH   1   4
ATOM      4  C   UNL     1      19.939  26.127  28.436  1.00  0.00     0.034 C 
BRANCH   4   5
ATOM      5  C   UNL     1      20.426  24.701  28.152  1.00  0.00     0.032 C 
BRANCH   5   6
ATOM      6  C   UNL     1      21.058  24.614  26.785  1.00  0.00    -0.028 C 
ATOM      7  C   UNL     1      21.388  23.786  24.495  1.00  0.00     0.039 C 
ATOM      8  C   UNL     1      20.632  23.794  25.800  1.00  0.00    -0.080 C 
ATOM      9  C   UNL     1      19.420  22.906  25.963  1.00  0.00     0.039 C 
ENDBRANCH   5   6
ENDBRANCH   4   5
ENDBRANCH   1   4
BRANCH   2  10
ATOM     10  C   UNL     1      16.195  25.483  27.539  1.00  0.00     0.035 C 
BRANCH  10  11
ATOM     11  C   UNL     1      15.424  24.192  27.852  1.00  0.00     0.079 C 
BRANCH  11  12
ATOM     12  C   UNL     1      15.554  23.115  26.798  1.00  0.00     0.130 C 
ATOM     13  O   UNL     1      15.700  23.457  25.635  1.00  0.00    -0.300 OA
ATOM     14  C   UNL     1      15.516  21.645  27.119  1.00  0.00     0.087 C 
ENDBRANCH  11  12
ENDBRANCH  10  11
ENDBRANCH   2  10
TORSDOF 6
ENDMDL
MODEL 3
REMARK VINA RESULT:    -4.848      3.055      4.574
REMARK INTER + INTRA:          -7.008
REMARK INTER:                  -6.219
REMARK INTRA:                  -0.789
REMARK UNBOUND:                -0.460
REMARK SMILES CC(=O)CCC=C(C)CCC=C(C)C
REMARK SMILES IDX 7 1 6 2 8 3 9 4 10 5 11 6 13 7 12 8 14 9 5 10 4 11 2 12 3 13
REMARK SMILES IDX 1 14
REMARK H PARENT
REMARK Flexibility Score: inf
ROOT
ATOM      1  C   UNL     1      20.586  23.907  26.083  1.00  0.00    -0.077 C 
ATOM      2  C   UNL     1      19.436  23.259  26.379  1.00  0.00    -0.028 C 
ATOM      3  C   UNL     1      21.251  23.778  24.732  1.00  0.00     0.039 C 
ENDROOT
BRANCH   1   4
ATOM      4  C   UNL     1      21.229  24.779  27.141  1.00  0.00     0.034 C 
BRANCH   4   5
ATOM      5  C   UNL     1      20.238  25.087  28.269  1.00  0.00     0.032 C 
BRANCH   5   6
ATOM      6  C   UNL     1      20.316  26.540  28.667  1.00  0.00    -0.028 C 
ATOM      7  C   UNL     1      19.637  28.900  28.756  1.00  0.00     0.039 C 
ATOM      8  C   UNL     1      19.408  27.476  28.315  1.00  0.00    -0.080 C 
ATOM      9  C   UNL     1      18.172  27.134  27.516  1.00  0.00     0.039 C 
ENDBRANCH   5   6
ENDBRANCH   4   5
ENDBRANCH   1   4
BRANCH   2  10
ATOM     10  C   UNL     1      18.668  22.394  25.410  1.00  0.00     0.035 C 
BRANCH  10  11
ATOM     11  C   UNL     1      17.311  21.990  26.004  1.00  0.00     0.079 C 
BRANCH  11  12
ATOM     12  C   UNL     1      16.258  23.075  25.953  1.00  0.00     0.130 C 
ATOM     13  O   UNL     1      15.580  23.177  24.942  1.00  0.00    -0.300 OA
ATOM     14  C   UNL     1      16.006  24.027  27.091  1.00  0.00     0.087 C 
ENDBRANCH  11  12
ENDBRANCH  10  11
ENDBRANCH   2  10
TORSDOF 6
ENDMDL
MODEL 4
REMARK VINA RESULT:    -4.820      2.958      5.359
REMARK INTER + INTRA:          -6.970
REMARK INTER:                  -6.235
REMARK INTRA:                  -0.736
REMARK UNBOUND:                -0.460
REMARK SMILES CC(=O)CCC=C(C)CCC=C(C)C
REMARK SMILES IDX 7 1 6 2 8 3 9 4 10 5 11 6 13 7 12 8 14 9 5 10 4 11 2 12 3 13
REMARK SMILES IDX 1 14
REMARK H PARENT
REMARK Flexibility Score: inf
ROOT
ATOM      1  C   UNL     1      19.707  25.504  27.863  1.00  0.00    -0.077 C 
ATOM      2  C   UNL     1      20.529  26.324  28.556  1.00  0.00    -0.028 C 
ATOM      3  C   UNL     1      20.239  24.382  27.002  1.00  0.00     0.039 C 
ENDROOT
BRANCH   1   4
ATOM      4  C   UNL     1      18.212  25.723  27.949  1.00  0.00     0.034 C 
BRANCH   4   5
ATOM      5  C   UNL     1      17.845  27.151  27.532  1.00  0.00     0.032 C 
BRANCH   5   6
ATOM      6  C   UNL     1      17.313  27.932  28.707  1.00  0.00    -0.028 C 
ATOM      7  C   UNL     1      17.229  29.741  30.368  1.00  0.00     0.039 C 
ATOM      8  C   UNL     1      17.844  29.090  29.156  1.00  0.00    -0.080 C 
ATOM      9  C   UNL     1      19.017  29.752  28.471  1.00  0.00     0.039 C 
ENDBRANCH   5   6
ENDBRANCH   4   5
ENDBRANCH   1   4
BRANCH   2  10
ATOM     10  C   UNL     1      22.032  26.195  28.596  1.00  0.00     0.035 C 
BRANCH  10  11
ATOM     11  C   UNL     1      22.692  27.579  28.685  1.00  0.00     0.079 C 
BRANCH  11  12
ATOM     12  C   UNL     1      24.061  27.661  28.047  1.00  0.00     0.130 C 
ATOM     13  O   UNL     1      24.129  27.839  26.841  1.00  0.00    -0.300 OA
ATOM     14  C   UNL     1      25.339  27.539  28.832  1.00  0.00     0.087 C 
ENDBRANCH  11  12
ENDBRANCH  10  11
ENDBRANCH   2  10
TORSDOF 6
ENDMDL
MODEL 5
REMARK VINA RESULT:    -4.781     10.423     13.031
REMARK INTER + INTRA:          -6.918
REMARK INTER:                  -5.430
REMARK INTRA:                  -1.489
REMARK UNBOUND:                -0.460
REMARK SMILES CC(=O)CCC=C(C)CCC=C(C)C
REMARK SMILES IDX 7 1 6 2 8 3 9 4 10 5 11 6 13 7 12 8 14 9 5 10 4 11 2 12 3 13
REMARK SMILES IDX 1 14
REMARK H PARENT
REMARK Flexibility Score: inf
ROOT
ATOM      1  C   UNL     1      32.312  33.960  28.728  1.00  0.00    -0.077 C 
ATOM      2  C   UNL     1      31.273  33.996  27.863  1.00  0.00    -0.028 C 
ATOM      3  C   UNL     1      32.109  33.756  30.211  1.00  0.00     0.039 C 
ENDROOT
BRANCH   1   4
ATOM      4  C   UNL     1      33.717  34.138  28.193  1.00  0.00     0.034 C 
BRANCH   4   5
ATOM      5  C   UNL     1      34.060  33.037  27.184  1.00  0.00     0.032 C 
BRANCH   5   6
ATOM      6  C   UNL     1      34.149  31.695  27.867  1.00  0.00    -0.028 C 
ATOM      7  C   UNL     1      33.611  29.335  28.294  1.00  0.00     0.039 C 
ATOM      8  C   UNL     1      33.448  30.602  27.493  1.00  0.00    -0.080 C 
ATOM      9  C   UNL     1      32.529  30.610  26.293  1.00  0.00     0.039 C 
ENDBRANCH   5   6
ENDBRANCH   4   5
ENDBRANCH   1   4
BRANCH   2  10
ATOM     10  C   UNL     1      29.829  33.792  28.251  1.00  0.00     0.035 C 
BRANCH  10  11
ATOM     11  C   UNL     1      29.375  32.364  27.915  1.00  0.00     0.079 C 
BRANCH  11  12
ATOM     12  C   UNL     1      29.255  31.448  29.113  1.00  0.00     0.130 C 
ATOM     13  O   UNL     1      28.189  31.410  29.709  1.00  0.00    -0.300 OA
ATOM     14  C   UNL     1      30.385  30.581  29.598  1.00  0.00     0.087 C 
ENDBRANCH  11  12
ENDBRANCH  10  11
ENDBRANCH   2  10
TORSDOF 6
ENDMDL
MODEL 6
REMARK VINA RESULT:    -4.774      5.470      7.874
REMARK INTER + INTRA:          -6.908
REMARK INTER:                  -6.038
REMARK INTRA:                  -0.870
REMARK UNBOUND:                -0.460
REMARK SMILES CC(=O)CCC=C(C)CCC=C(C)C
REMARK SMILES IDX 7 1 6 2 8 3 9 4 10 5 11 6 13 7 12 8 14 9 5 10 4 11 2 12 3 13
REMARK SMILES IDX 1 14
REMARK H PARENT
REMARK Flexibility Score: inf
ROOT
ATOM      1  C   UNL     1      18.412  28.845  28.863  1.00  0.00    -0.077 C 
ATOM      2  C   UNL     1      19.022  30.022  28.596  1.00  0.00    -0.028 C 
ATOM      3  C   UNL     1      17.892  28.509  30.242  1.00  0.00     0.039 C 
ENDROOT
BRANCH   1   4
ATOM      4  C   UNL     1      18.254  27.832  27.749  1.00  0.00     0.034 C 
BRANCH   4   5
ATOM      5  C   UNL     1      18.102  26.416  28.316  1.00  0.00     0.032 C 
BRANCH   5   6
ATOM      6  C   UNL     1      18.926  25.431  27.525  1.00  0.00    -0.028 C 
ATOM      7  C   UNL     1      20.913  24.119  26.918  1.00  0.00     0.039 C 
ATOM      8  C   UNL     1      20.199  25.091  27.822  1.00  0.00    -0.080 C 
ATOM      9  C   UNL     1      20.913  25.639  29.036  1.00  0.00     0.039 C 
ENDBRANCH   5   6
ENDBRANCH   4   5
ENDBRANCH   1   4
BRANCH   2  10
ATOM     10  C   UNL     1      19.208  31.135  29.597  1.00  0.00     0.035 C 
BRANCH  10  11
ATOM     11  C   UNL     1      18.245  32.294  29.303  1.00  0.00     0.079 C 
BRANCH  11  12
ATOM     12  C   UNL     1      16.969  32.268  30.116  1.00  0.00     0.130 C 
ATOM     13  O   UNL     1      16.955  32.848  31.191  1.00  0.00    -0.300 OA
ATOM     14  C   UNL     1      15.719  31.567  29.658  1.00  0.00     0.087 C 
ENDBRANCH  11  12
ENDBRANCH  10  11
ENDBRANCH   2  10
TORSDOF 6
ENDMDL
MODEL 7
REMARK VINA RESULT:    -4.717      6.552      8.898
REMARK INTER + INTRA:          -6.831
REMARK INTER:                  -5.668
REMARK INTRA:                  -1.163
REMARK UNBOUND:                -0.460
REMARK SMILES CC(=O)CCC=C(C)CCC=C(C)C
REMARK SMILES IDX 7 1 6 2 8 3 9 4 10 5 11 6 13 7 12 8 14 9 5 10 4 11 2 12 3 13
REMARK SMILES IDX 1 14
REMARK H PARENT
REMARK Flexibility Score: inf
ROOT
ATOM      1  C   UNL     1      15.989  30.430  30.436  1.00  0.00    -0.077 C 
ATOM      2  C   UNL     1      16.653  31.601  30.563  1.00  0.00    -0.028 C 
ATOM      3  C   UNL     1      14.875  30.248  29.431  1.00  0.00     0.039 C 
ENDROOT
BRANCH   1   4
ATOM      4  C   UNL     1      16.369  29.271  31.333  1.00  0.00     0.034 C 
BRANCH   4   5
ATOM      5  C   UNL     1      17.793  28.792  31.032  1.00  0.00     0.032 C 
BRANCH   5   6
ATOM      6  C   UNL     1      17.829  27.992  29.753  1.00  0.00    -0.028 C 
ATOM      7  C   UNL     1      18.355  27.511  27.402  1.00  0.00     0.039 C 
ATOM      8  C   UNL     1      18.433  28.401  28.616  1.00  0.00    -0.080 C 
ATOM      9  C   UNL     1      19.191  29.706  28.535  1.00  0.00     0.039 C 
ENDBRANCH   5   6
ENDBRANCH   4   5
ENDBRANCH   1   4
BRANCH   2  10
ATOM     10  C   UNL     1      16.407  32.821  29.709  1.00  0.00     0.035 C 
BRANCH  10  11
ATOM     11  C   UNL     1      17.584  33.054  28.749  1.00  0.00     0.079 C 
BRANCH  11  12
ATOM     12  C   UNL     1      18.805  33.669  29.396  1.00  0.00     0.130 C 
ATOM     13  O   UNL     1      19.800  32.973  29.535  1.00  0.00    -0.300 OA
ATOM     14  C   UNL     1      18.852  35.096  29.869  1.00  0.00     0.087 C 
ENDBRANCH  11  12
ENDBRANCH  10  11
ENDBRANCH   2  10
TORSDOF 6
ENDMDL
MODEL 8
REMARK VINA RESULT:    -4.707      7.115      8.877
REMARK INTER + INTRA:          -6.818
REMARK INTER:                  -5.282
REMARK INTRA:                  -1.536
REMARK UNBOUND:                -0.460
REMARK SMILES CC(=O)CCC=C(C)CCC=C(C)C
REMARK SMILES IDX 7 1 6 2 8 3 9 4 10 5 11 6 13 7 12 8 14 9 5 10 4 11 2 12 3 13
REMARK SMILES IDX 1 14
REMARK H PARENT
REMARK Flexibility Score: inf
ROOT
ATOM      1  C   UNL     1      15.691  31.951  30.200  1.00  0.00    -0.077 C 
ATOM      2  C   UNL     1      15.467  30.810  29.509  1.00  0.00    -0.028 C 
ATOM      3  C   UNL     1      15.426  32.051  31.684  1.00  0.00     0.039 C 
ENDROOT
BRANCH   1   4
ATOM      4  C   UNL     1      16.213  33.164  29.460  1.00  0.00     0.034 C 
BRANCH   4   5
ATOM      5  C   UNL     1      17.521  32.837  28.732  1.00  0.00     0.032 C 
BRANCH   5   6
ATOM      6  C   UNL     1      18.635  32.585  29.718  1.00  0.00    -0.028 C 
ATOM      7  C   UNL     1      20.392  31.307  30.865  1.00  0.00     0.039 C 
ATOM      8  C   UNL     1      19.330  31.429  29.803  1.00  0.00    -0.080 C 
ATOM      9  C   UNL     1      19.084  30.275  28.859  1.00  0.00     0.039 C 
ENDBRANCH   5   6
ENDBRANCH   4   5
ENDBRANCH   1   4
BRANCH   2  10
ATOM     10  C   UNL     1      14.989  29.517  30.124  1.00  0.00     0.035 C 
BRANCH  10  11
ATOM     11  C   UNL     1      16.158  28.537  30.301  1.00  0.00     0.079 C 
BRANCH  11  12
ATOM     12  C   UNL     1      16.618  28.364  31.731  1.00  0.00     0.130 C 
ATOM     13  O   UNL     1      16.058  27.527  32.423  1.00  0.00    -0.300 OA
ATOM     14  C   UNL     1      17.735  29.170  32.336  1.00  0.00     0.087 C 
ENDBRANCH  11  12
ENDBRANCH  10  11
ENDBRANCH   2  10
TORSDOF 6
ENDMDL
MODEL 9
REMARK VINA RESULT:    -4.672      4.555      5.963
REMARK INTER + INTRA:          -6.770
REMARK INTER:                  -5.912
REMARK INTRA:                  -0.859
REMARK UNBOUND:                -0.460
REMARK SMILES CC(=O)CCC=C(C)CCC=C(C)C
REMARK SMILES IDX 7 1 6 2 8 3 9 4 10 5 11 6 13 7 12 8 14 9 5 10 4 11 2 12 3 13
REMARK SMILES IDX 1 14
REMARK H PARENT
REMARK Flexibility Score: inf
ROOT
ATOM      1  C   UNL     1      18.130  28.031  28.773  1.00  0.00    -0.077 C 
ATOM      2  C   UNL     1      19.206  28.128  29.588  1.00  0.00    -0.028 C 
ATOM      3  C   UNL     1      18.255  27.580  27.336  1.00  0.00     0.039 C 
ENDROOT
BRANCH   1   4
ATOM      4  C   UNL     1      16.765  28.392  29.317  1.00  0.00     0.034 C 
BRANCH   4   5
ATOM      5  C   UNL     1      16.878  29.457  30.413  1.00  0.00     0.032 C 
BRANCH   5   6
ATOM      6  C   UNL     1      16.320  30.775  29.939  1.00  0.00    -0.028 C 
ATOM      7  C   UNL     1      16.379  33.088  29.111  1.00  0.00     0.039 C 
ATOM      8  C   UNL     1      17.074  31.816  29.522  1.00  0.00    -0.080 C 
ATOM      9  C   UNL     1      18.581  31.731  29.439  1.00  0.00     0.039 C 
ENDBRANCH   5   6
ENDBRANCH   4   5
ENDBRANCH   1   4
BRANCH   2  10
ATOM     10  C   UNL     1      20.615  27.760  29.192  1.00  0.00     0.035 C 
BRANCH  10  11
ATOM     11  C   UNL     1      20.885  26.274  29.472  1.00  0.00     0.079 C 
BRANCH  11  12
ATOM     12  C   UNL     1      21.739  25.588  28.428  1.00  0.00     0.130 C 
ATOM     13  O   UNL     1      22.888  25.972  28.275  1.00  0.00    -0.300 OA
ATOM     14  C   UNL     1      21.238  24.452  27.578  1.00  0.00     0.087 C 
ENDBRANCH  11  12
ENDBRANCH  10  11
ENDBRANCH   2  10
TORSDOF 6
ENDMDL
