MODEL 1
REMARK VINA RESULT:    -5.094      0.000      0.000
REMARK INTER + INTRA:          -7.742
REMARK INTER:                  -7.774
REMARK INTRA:                   0.032
REMARK UNBOUND:                 0.032
REMARK SMILES CC1=CCC[C@@H](C)C(=O)C[C@@H](C(C)C)C(=O)C1
REMARK SMILES IDX 8 1 9 2 6 3 7 4 5 5 4 6 3 7 2 8 1 9 10 11 11 12 15 13 16 14
REMARK SMILES IDX 17 15 12 17 13 18 14 19
REMARK H PARENT
REMARK Flexibility Score: 70.00
ROOT
ATOM      1  C   UNL     1     -13.452 -15.626  30.650  1.00  0.00     0.136 C 
ATOM      2  O   UNL     1     -14.152 -14.649  30.414  1.00  0.00    -0.299 OA
ENDROOT
BRANCH   1   3
ATOM      3  C   UNL     1     -13.428 -16.167  32.070  1.00  0.00     0.053 C 
ATOM      4  C   UNL     1     -14.574 -15.556  32.888  1.00  0.00     0.016 C 
BRANCH   3   5
ATOM      5  C   UNL     1     -12.070 -15.874  32.742  1.00  0.00     0.015 C 
BRANCH   5   6
ATOM      6  C   UNL     1     -10.984 -16.902  32.380  1.00  0.00     0.028 C 
BRANCH   6   7
ATOM      7  C   UNL     1     -11.508 -18.317  32.449  1.00  0.00    -0.028 C 
ATOM      8  C   UNL     1     -11.607 -19.189  31.417  1.00  0.00    -0.070 CG0
ATOM      9  C   UNL     1     -12.174 -20.556  31.711  1.00  0.00     0.039 C 
ATOM     10  G   UNL     1     -11.228 -18.861  29.982  1.00  0.00     0.000 G0
ENDBRANCH   6   7
ENDBRANCH   5   6
ENDBRANCH   3   5
ENDBRANCH   1   3
BRANCH   1  11
ATOM     11  C   UNL     1     -12.577 -16.148  29.525  1.00  0.00     0.087 C 
BRANCH  11  12
ATOM     12  C   UNL     1     -13.116 -17.383  28.749  1.00  0.00     0.066 C 
BRANCH  12  13
ATOM     13  C   UNL     1     -12.463 -18.713  29.120  1.00  0.00     0.140 C 
ATOM     14  O   UNL     1     -12.934 -19.732  28.633  1.00  0.00    -0.299 OA
BRANCH  13  15
ATOM     15  C   UNL     1     -11.233 -18.845  29.989  1.00  0.00     0.106 CG0
ATOM     16  G   UNL     1     -11.609 -19.200  31.418  1.00  0.00     0.000 G0
ENDBRANCH  13  15
ENDBRANCH  12  13
BRANCH  12  17
ATOM     17  C   UNL     1     -13.096 -17.141  27.207  1.00  0.00    -0.006 C 
ATOM     18  C   UNL     1     -11.666 -17.154  26.643  1.00  0.00     0.008 C 
ATOM     19  C   UNL     1     -13.821 -15.854  26.780  1.00  0.00     0.008 C 
ENDBRANCH  12  17
ENDBRANCH  11  12
ENDBRANCH   1  11
TORSDOF 1
ENDMDL
MODEL 2
REMARK VINA RESULT:    -4.946      1.809      4.102
REMARK INTER + INTRA:          -7.516
REMARK INTER:                  -7.612
REMARK INTRA:                   0.095
REMARK UNBOUND:                 0.032
REMARK SMILES CC1=CCC[C@@H](C)C(=O)C[C@@H](C(C)C)C(=O)C1
REMARK SMILES IDX 8 1 9 2 6 3 7 4 5 5 4 6 3 7 2 8 1 9 10 11 11 12 15 13 16 14
REMARK SMILES IDX 17 15 12 17 13 18 14 19
REMARK H PARENT
REMARK Flexibility Score: 70.00
ROOT
ATOM      1  C   UNL     1     -11.986 -15.915  28.903  1.00  0.00     0.136 C 
ATOM      2  O   UNL     1     -10.884 -15.582  29.319  1.00  0.00    -0.299 OA
ENDROOT
BRANCH   1   3
ATOM      3  C   UNL     1     -12.070 -16.561  27.529  1.00  0.00     0.053 C 
ATOM      4  C   UNL     1     -13.386 -16.171  26.841  1.00  0.00     0.016 C 
BRANCH   3   5
ATOM      5  C   UNL     1     -11.954 -18.095  27.639  1.00  0.00     0.015 C 
BRANCH   5   6
ATOM      6  C   UNL     1     -13.096 -18.731  28.450  1.00  0.00     0.028 C 
BRANCH   6   7
ATOM      7  C   UNL     1     -12.572 -19.651  29.527  1.00  0.00    -0.028 C 
ATOM      8  C   UNL     1     -12.761 -19.516  30.861  1.00  0.00    -0.070 CG0
ATOM      9  C   UNL     1     -12.134 -20.551  31.763  1.00  0.00     0.039 C 
ATOM     10  G   UNL     1     -13.521 -18.368  31.504  1.00  0.00     0.000 G0
ENDBRANCH   6   7
ENDBRANCH   5   6
ENDBRANCH   3   5
ENDBRANCH   1   3
BRANCH   1  11
ATOM     11  C   UNL     1     -13.193 -15.550  29.748  1.00  0.00     0.087 C 
BRANCH  11  12
ATOM     12  C   UNL     1     -13.040 -15.737  31.283  1.00  0.00     0.066 C 
BRANCH  12  13
ATOM     13  C   UNL     1     -12.671 -17.150  31.728  1.00  0.00     0.140 C 
ATOM     14  O   UNL     1     -11.622 -17.298  32.342  1.00  0.00    -0.299 OA
BRANCH  13  15
ATOM     15  C   UNL     1     -13.548 -18.365  31.523  1.00  0.00     0.106 CG0
ATOM     16  G   UNL     1     -12.772 -19.495  30.868  1.00  0.00     0.000 G0
ENDBRANCH  13  15
ENDBRANCH  12  13
BRANCH  12  17
ATOM     17  C   UNL     1     -14.289 -15.199  32.051  1.00  0.00    -0.006 C 
ATOM     18  C   UNL     1     -15.131 -14.251  31.183  1.00  0.00     0.008 C 
ATOM     19  C   UNL     1     -13.941 -14.523  33.387  1.00  0.00     0.008 C 
ENDBRANCH  12  17
ENDBRANCH  11  12
ENDBRANCH   1  11
TORSDOF 1
ENDMDL
MODEL 3
REMARK VINA RESULT:    -4.778      1.667      2.223
REMARK INTER + INTRA:          -7.260
REMARK INTER:                  -7.620
REMARK INTRA:                   0.360
REMARK UNBOUND:                 0.032
REMARK SMILES CC1=CCC[C@@H](C)C(=O)C[C@@H](C(C)C)C(=O)C1
REMARK SMILES IDX 8 1 9 2 6 3 7 4 5 5 4 6 3 7 2 8 1 9 10 11 11 12 15 13 16 14
REMARK SMILES IDX 17 15 12 17 13 18 14 19
REMARK H PARENT
REMARK Flexibility Score: 70.00
ROOT
ATOM      1  C   UNL     1     -12.213 -15.999  31.266  1.00  0.00     0.136 C 
ATOM      2  O   UNL     1     -11.314 -16.018  32.097  1.00  0.00    -0.299 OA
ENDROOT
BRANCH   1   3
ATOM      3  C   UNL     1     -13.614 -16.379  31.716  1.00  0.00     0.053 C 
ATOM      4  C   UNL     1     -14.195 -15.284  32.619  1.00  0.00     0.016 C 
BRANCH   3   5
ATOM      5  C   UNL     1     -13.602 -17.735  32.452  1.00  0.00     0.015 C 
BRANCH   5   6
ATOM      6  C   UNL     1     -12.628 -18.751  31.830  1.00  0.00     0.028 C 
BRANCH   6   7
ATOM      7  C   UNL     1     -13.272 -19.526  30.705  1.00  0.00    -0.028 C 
ATOM      8  C   UNL     1     -12.817 -19.625  29.433  1.00  0.00    -0.070 CG0
ATOM      9  C   UNL     1     -13.629 -20.447  28.462  1.00  0.00     0.039 C 
ATOM     10  G   UNL     1     -11.570 -18.926  28.916  1.00  0.00     0.000 G0
ENDBRANCH   6   7
ENDBRANCH   5   6
ENDBRANCH   3   5
ENDBRANCH   1   3
BRANCH   1  11
ATOM     11  C   UNL     1     -11.830 -15.706  29.827  1.00  0.00     0.087 C 
BRANCH  11  12
ATOM     12  C   UNL     1     -12.622 -16.477  28.734  1.00  0.00     0.066 C 
BRANCH  12  13
ATOM     13  C   UNL     1     -11.893 -17.678  28.136  1.00  0.00     0.140 C 
ATOM     14  O   UNL     1     -11.507 -17.591  26.978  1.00  0.00    -0.299 OA
BRANCH  13  15
ATOM     15  C   UNL     1     -11.556 -18.938  28.902  1.00  0.00     0.106 CG0
ATOM     16  G   UNL     1     -12.812 -19.605  29.438  1.00  0.00     0.000 G0
ENDBRANCH  13  15
ENDBRANCH  12  13
BRANCH  12  17
ATOM     17  C   UNL     1     -13.150 -15.513  27.625  1.00  0.00    -0.006 C 
ATOM     18  C   UNL     1     -13.937 -14.333  28.218  1.00  0.00     0.008 C 
ATOM     19  C   UNL     1     -13.989 -16.220  26.548  1.00  0.00     0.008 C 
ENDBRANCH  12  17
ENDBRANCH  11  12
ENDBRANCH   1  11
TORSDOF 1
ENDMDL
MODEL 4
REMARK VINA RESULT:    -4.332      2.111      4.225
REMARK INTER + INTRA:          -6.579
REMARK INTER:                  -6.495
REMARK INTRA:                  -0.084
REMARK UNBOUND:                 0.032
REMARK SMILES CC1=CCC[C@@H](C)C(=O)C[C@@H](C(C)C)C(=O)C1
REMARK SMILES IDX 8 1 9 2 6 3 7 4 5 5 4 6 3 7 2 8 1 9 10 11 11 12 15 13 16 14
REMARK SMILES IDX 17 15 12 17 13 18 14 19
REMARK H PARENT
REMARK Flexibility Score: 70.00
ROOT
ATOM      1  C   UNL     1     -13.458 -16.811  32.324  1.00  0.00     0.136 C 
ATOM      2  O   UNL     1     -14.377 -17.328  32.946  1.00  0.00    -0.299 OA
ENDROOT
BRANCH   1   3
ATOM      3  C   UNL     1     -13.630 -15.379  31.846  1.00  0.00     0.053 C 
ATOM      4  C   UNL     1     -14.704 -14.668  32.681  1.00  0.00     0.016 C 
BRANCH   3   5
ATOM      5  C   UNL     1     -14.001 -15.343  30.348  1.00  0.00     0.015 C 
BRANCH   5   6
ATOM      6  C   UNL     1     -12.817 -14.959  29.443  1.00  0.00     0.028 C 
BRANCH   6   7
ATOM      7  C   UNL     1     -12.623 -15.955  28.325  1.00  0.00    -0.028 C 
ATOM      8  C   UNL     1     -11.513 -16.696  28.092  1.00  0.00    -0.070 CG0
ATOM      9  C   UNL     1     -11.531 -17.627  26.904  1.00  0.00     0.039 C 
ATOM     10  G   UNL     1     -10.242 -16.615  28.922  1.00  0.00     0.000 G0
ENDBRANCH   6   7
ENDBRANCH   5   6
ENDBRANCH   3   5
ENDBRANCH   1   3
BRANCH   1  11
ATOM     11  C   UNL     1     -12.265 -17.686  31.982  1.00  0.00     0.087 C 
BRANCH  11  12
ATOM     12  C   UNL     1     -10.987 -16.946  31.497  1.00  0.00     0.066 C 
BRANCH  12  13
ATOM     13  C   UNL     1     -10.397 -17.467  30.188  1.00  0.00     0.140 C 
ATOM     14  O   UNL     1     -10.086 -18.649  30.135  1.00  0.00    -0.299 OA
BRANCH  13  15
ATOM     15  C   UNL     1     -10.241 -16.636  28.934  1.00  0.00     0.106 CG0
ATOM     16  G   UNL     1     -11.503 -16.679  28.089  1.00  0.00     0.000 G0
ENDBRANCH  13  15
ENDBRANCH  12  13
BRANCH  12  17
ATOM     17  C   UNL     1      -9.909 -16.871  32.624  1.00  0.00    -0.006 C 
ATOM     18  C   UNL     1      -9.877 -18.152  33.473  1.00  0.00     0.008 C 
ATOM     19  C   UNL     1     -10.059 -15.639  33.532  1.00  0.00     0.008 C 
ENDBRANCH  12  17
ENDBRANCH  11  12
ENDBRANCH   1  11
TORSDOF 1
ENDMDL
MODEL 5
REMARK VINA RESULT:    -4.126      1.026      1.465
REMARK INTER + INTRA:          -6.264
REMARK INTER:                  -6.443
REMARK INTRA:                   0.179
REMARK UNBOUND:                 0.032
REMARK SMILES CC1=CCC[C@@H](C)C(=O)C[C@@H](C(C)C)C(=O)C1
REMARK SMILES IDX 8 1 9 2 6 3 7 4 5 5 4 6 3 7 2 8 1 9 10 11 11 12 15 13 16 14
REMARK SMILES IDX 17 15 12 17 13 18 14 19
REMARK H PARENT
REMARK Flexibility Score: 70.00
ROOT
ATOM      1  C   UNL     1     -12.601 -15.705  30.384  1.00  0.00     0.136 C 
ATOM      2  O   UNL     1     -13.652 -15.082  30.310  1.00  0.00    -0.299 OA
ENDROOT
BRANCH   1   3
ATOM      3  C   UNL     1     -11.880 -15.741  31.721  1.00  0.00     0.053 C 
ATOM      4  C   UNL     1     -10.384 -16.011  31.508  1.00  0.00     0.016 C 
BRANCH   3   5
ATOM      5  C   UNL     1     -12.495 -16.812  32.646  1.00  0.00     0.015 C 
BRANCH   5   6
ATOM      6  C   UNL     1     -13.558 -17.675  31.945  1.00  0.00     0.028 C 
BRANCH   6   7
ATOM      7  C   UNL     1     -13.214 -19.144  32.005  1.00  0.00    -0.028 C 
ATOM      8  C   UNL     1     -12.380 -19.809  31.170  1.00  0.00    -0.070 CG0
ATOM      9  C   UNL     1     -12.187 -21.287  31.407  1.00  0.00     0.039 C 
ATOM     10  G   UNL     1     -11.667 -19.172  29.989  1.00  0.00     0.000 G0
ENDBRANCH   6   7
ENDBRANCH   5   6
ENDBRANCH   3   5
ENDBRANCH   1   3
BRANCH   1  11
ATOM     11  C   UNL     1     -12.047 -16.298  29.101  1.00  0.00     0.087 C 
BRANCH  11  12
ATOM     12  C   UNL     1     -12.918 -17.388  28.414  1.00  0.00     0.066 C 
BRANCH  12  13
ATOM     13  C   UNL     1     -12.641 -18.818  28.873  1.00  0.00     0.140 C 
ATOM     14  O   UNL     1     -13.195 -19.727  28.269  1.00  0.00    -0.299 OA
BRANCH  13  15
ATOM     15  C   UNL     1     -11.675 -19.187  29.977  1.00  0.00     0.106 CG0
ATOM     16  G   UNL     1     -12.405 -19.801  31.160  1.00  0.00     0.000 G0
ENDBRANCH  13  15
ENDBRANCH  12  13
BRANCH  12  17
ATOM     17  C   UNL     1     -12.867 -17.262  26.859  1.00  0.00    -0.006 C 
ATOM     18  C   UNL     1     -11.423 -17.237  26.332  1.00  0.00     0.008 C 
ATOM     19  C   UNL     1     -13.648 -16.054  26.317  1.00  0.00     0.008 C 
ENDBRANCH  12  17
ENDBRANCH  11  12
ENDBRANCH   1  11
TORSDOF 1
ENDMDL
MODEL 6
REMARK VINA RESULT:    -3.965      1.791      4.864
REMARK INTER + INTRA:          -6.019
REMARK INTER:                  -6.251
REMARK INTRA:                   0.231
REMARK UNBOUND:                 0.032
REMARK SMILES CC1=CCC[C@@H](C)C(=O)C[C@@H](C(C)C)C(=O)C1
REMARK SMILES IDX 8 1 9 2 6 3 7 4 5 5 4 6 3 7 2 8 1 9 10 11 11 12 15 13 16 14
REMARK SMILES IDX 17 15 12 17 13 18 14 19
REMARK H PARENT
REMARK Flexibility Score: 70.00
ROOT
ATOM      1  C   UNL     1     -12.281 -18.420  31.606  1.00  0.00     0.136 C 
ATOM      2  O   UNL     1     -13.120 -19.045  32.243  1.00  0.00    -0.299 OA
ENDROOT
BRANCH   1   3
ATOM      3  C   UNL     1     -11.298 -19.204  30.752  1.00  0.00     0.053 C 
ATOM      4  C   UNL     1      -9.926 -18.517  30.761  1.00  0.00     0.016 C 
BRANCH   3   5
ATOM      5  C   UNL     1     -11.821 -19.344  29.307  1.00  0.00     0.015 C 
BRANCH   5   6
ATOM      6  C   UNL     1     -13.291 -18.917  29.153  1.00  0.00     0.028 C 
BRANCH   6   7
ATOM      7  C   UNL     1     -13.494 -18.038  27.942  1.00  0.00    -0.028 C 
ATOM      8  C   UNL     1     -13.110 -16.745  27.812  1.00  0.00    -0.070 CG0
ATOM      9  C   UNL     1     -13.425 -16.050  26.510  1.00  0.00     0.039 C 
ATOM     10  G   UNL     1     -12.427 -15.944  28.908  1.00  0.00     0.000 G0
ENDBRANCH   6   7
ENDBRANCH   5   6
ENDBRANCH   3   5
ENDBRANCH   1   3
BRANCH   1  11
ATOM     11  C   UNL     1     -12.221 -16.918  31.814  1.00  0.00     0.087 C 
BRANCH  11  12
ATOM     12  C   UNL     1     -13.480 -16.113  31.387  1.00  0.00     0.066 C 
BRANCH  12  13
ATOM     13  C   UNL     1     -13.423 -15.523  29.980  1.00  0.00     0.140 C 
ATOM     14  O   UNL     1     -14.195 -14.612  29.713  1.00  0.00    -0.299 OA
BRANCH  13  15
ATOM     15  C   UNL     1     -12.428 -15.942  28.920  1.00  0.00     0.106 CG0
ATOM     16  G   UNL     1     -13.106 -16.741  27.819  1.00  0.00     0.000 G0
ENDBRANCH  13  15
ENDBRANCH  12  13
BRANCH  12  17
ATOM     17  C   UNL     1     -13.853 -15.032  32.450  1.00  0.00    -0.006 C 
ATOM     18  C   UNL     1     -12.825 -14.971  33.591  1.00  0.00     0.008 C 
ATOM     19  C   UNL     1     -15.270 -15.201  33.024  1.00  0.00     0.008 C 
ENDBRANCH  12  17
ENDBRANCH  11  12
ENDBRANCH   1  11
TORSDOF 1
ENDMDL
MODEL 7
REMARK VINA RESULT:    -3.884      1.880      4.554
REMARK INTER + INTRA:          -5.895
REMARK INTER:                  -6.185
REMARK INTRA:                   0.290
REMARK UNBOUND:                 0.032
REMARK SMILES CC1=CCC[C@@H](C)C(=O)C[C@@H](C(C)C)C(=O)C1
REMARK SMILES IDX 8 1 9 2 6 3 7 4 5 5 4 6 3 7 2 8 1 9 10 11 11 12 15 13 16 14
REMARK SMILES IDX 17 15 12 17 13 18 14 19
REMARK H PARENT
REMARK Flexibility Score: 70.00
ROOT
ATOM      1  C   UNL     1     -12.346 -17.975  28.404  1.00  0.00     0.136 C 
ATOM      2  O   UNL     1     -13.457 -18.275  27.987  1.00  0.00    -0.299 OA
ENDROOT
BRANCH   1   3
ATOM      3  C   UNL     1     -11.510 -17.003  27.587  1.00  0.00     0.053 C 
ATOM      4  C   UNL     1     -11.211 -17.596  26.203  1.00  0.00     0.016 C 
BRANCH   3   5
ATOM      5  C   UNL     1     -10.198 -16.659  28.322  1.00  0.00     0.015 C 
BRANCH   5   6
ATOM      6  C   UNL     1     -10.286 -15.356  29.135  1.00  0.00     0.028 C 
BRANCH   6   7
ATOM      7  C   UNL     1     -10.171 -15.615  30.619  1.00  0.00    -0.028 C 
ATOM      8  C   UNL     1     -11.180 -15.957  31.456  1.00  0.00    -0.070 CG0
ATOM      9  C   UNL     1     -10.841 -16.158  32.913  1.00  0.00     0.039 C 
ATOM     10  G   UNL     1     -12.631 -16.105  31.028  1.00  0.00     0.000 G0
ENDBRANCH   6   7
ENDBRANCH   5   6
ENDBRANCH   3   5
ENDBRANCH   1   3
BRANCH   1  11
ATOM     11  C   UNL     1     -11.848 -18.689  29.647  1.00  0.00     0.087 C 
BRANCH  11  12
ATOM     12  C   UNL     1     -12.845 -18.777  30.836  1.00  0.00     0.066 C 
BRANCH  12  13
ATOM     13  C   UNL     1     -13.215 -17.438  31.469  1.00  0.00     0.140 C 
ATOM     14  O   UNL     1     -13.977 -17.452  32.427  1.00  0.00    -0.299 OA
BRANCH  13  15
ATOM     15  C   UNL     1     -12.647 -16.105  31.034  1.00  0.00     0.106 CG0
ATOM     16  G   UNL     1     -11.193 -15.969  31.452  1.00  0.00     0.000 G0
ENDBRANCH  13  15
ENDBRANCH  12  13
BRANCH  12  17
ATOM     17  C   UNL     1     -12.367 -19.808  31.907  1.00  0.00    -0.006 C 
ATOM     18  C   UNL     1     -10.942 -19.504  32.399  1.00  0.00     0.008 C 
ATOM     19  C   UNL     1     -12.463 -21.268  31.437  1.00  0.00     0.008 C 
ENDBRANCH  12  17
ENDBRANCH  11  12
ENDBRANCH   1  11
TORSDOF 1
ENDMDL
MODEL 8
REMARK VINA RESULT:    -3.756      1.775      3.775
REMARK INTER + INTRA:          -5.701
REMARK INTER:                  -6.586
REMARK INTRA:                   0.886
REMARK UNBOUND:                 0.032
REMARK SMILES CC1=CCC[C@@H](C)C(=O)C[C@@H](C(C)C)C(=O)C1
REMARK SMILES IDX 8 1 9 2 6 3 7 4 5 5 4 6 3 7 2 8 1 9 10 11 11 12 15 13 16 14
REMARK SMILES IDX 17 15 12 17 13 18 14 19
REMARK H PARENT
REMARK Flexibility Score: 70.00
ROOT
ATOM      1  C   UNL     1     -13.158 -16.521  32.315  1.00  0.00     0.136 C 
ATOM      2  O   UNL     1     -13.996 -17.299  32.750  1.00  0.00    -0.299 OA
ENDROOT
BRANCH   1   3
ATOM      3  C   UNL     1     -13.641 -15.264  31.610  1.00  0.00     0.053 C 
ATOM      4  C   UNL     1     -14.802 -14.634  32.391  1.00  0.00     0.016 C 
BRANCH   3   5
ATOM      5  C   UNL     1     -14.073 -15.580  30.163  1.00  0.00     0.015 C 
BRANCH   5   6
ATOM      6  C   UNL     1     -13.192 -14.893  29.106  1.00  0.00     0.028 C 
BRANCH   6   7
ATOM      7  C   UNL     1     -12.606 -15.888  28.134  1.00  0.00    -0.028 C 
ATOM      8  C   UNL     1     -11.496 -16.641  28.324  1.00  0.00    -0.070 CG0
ATOM      9  C   UNL     1     -11.081 -17.568  27.208  1.00  0.00     0.039 C 
ATOM     10  G   UNL     1     -10.624 -16.576  29.566  1.00  0.00     0.000 G0
ENDBRANCH   6   7
ENDBRANCH   5   6
ENDBRANCH   3   5
ENDBRANCH   1   3
BRANCH   1  11
ATOM     11  C   UNL     1     -11.700 -16.934  32.415  1.00  0.00     0.087 C 
BRANCH  11  12
ATOM     12  C   UNL     1     -11.287 -18.198  31.611  1.00  0.00     0.066 C 
BRANCH  12  13
ATOM     13  C   UNL     1     -10.592 -17.918  30.280  1.00  0.00     0.140 C 
ATOM     14  O   UNL     1     -10.027 -18.851  29.726  1.00  0.00    -0.299 OA
BRANCH  13  15
ATOM     15  C   UNL     1     -10.618 -16.583  29.570  1.00  0.00     0.106 CG0
ATOM     16  G   UNL     1     -11.480 -16.646  28.320  1.00  0.00     0.000 G0
ENDBRANCH  13  15
ENDBRANCH  12  13
BRANCH  12  17
ATOM     17  C   UNL     1     -12.486 -19.183  31.438  1.00  0.00    -0.006 C 
ATOM     18  C   UNL     1     -12.129 -20.607  31.892  1.00  0.00     0.008 C 
ATOM     19  C   UNL     1     -13.054 -19.210  30.009  1.00  0.00     0.008 C 
ENDBRANCH  12  17
ENDBRANCH  11  12
ENDBRANCH   1  11
TORSDOF 1
ENDMDL
MODEL 9
REMARK VINA RESULT:    -3.756      1.384      3.516
REMARK INTER + INTRA:          -5.700
REMARK INTER:                  -7.179
REMARK INTRA:                   1.479
REMARK UNBOUND:                 0.032
REMARK SMILES CC1=CCC[C@@H](C)C(=O)C[C@@H](C(C)C)C(=O)C1
REMARK SMILES IDX 8 1 9 2 6 3 7 4 5 5 4 6 3 7 2 8 1 9 10 11 11 12 15 13 16 14
REMARK SMILES IDX 17 15 12 17 13 18 14 19
REMARK H PARENT
REMARK Flexibility Score: 70.00
ROOT
ATOM      1  C   UNL     1     -12.962 -19.519  28.984  1.00  0.00     0.136 C 
ATOM      2  O   UNL     1     -13.422 -20.409  28.281  1.00  0.00    -0.299 OA
ENDROOT
BRANCH   1   3
ATOM      3  C   UNL     1     -12.061 -19.913  30.143  1.00  0.00     0.053 C 
ATOM      4  C   UNL     1     -12.877 -20.000  31.440  1.00  0.00     0.016 C 
BRANCH   3   5
ATOM      5  C   UNL     1     -10.902 -18.907  30.301  1.00  0.00     0.015 C 
BRANCH   5   6
ATOM      6  C   UNL     1     -10.634 -18.520  31.766  1.00  0.00     0.028 C 
BRANCH   6   7
ATOM      7  C   UNL     1     -11.730 -17.642  32.321  1.00  0.00    -0.028 C 
ATOM      8  C   UNL     1     -12.114 -16.434  31.841  1.00  0.00    -0.070 CG0
ATOM      9  C   UNL     1     -13.231 -15.719  32.561  1.00  0.00     0.039 C 
ATOM     10  G   UNL     1     -11.461 -15.740  30.657  1.00  0.00     0.000 G0
ENDBRANCH   6   7
ENDBRANCH   5   6
ENDBRANCH   3   5
ENDBRANCH   1   3
BRANCH   1  11
ATOM     11  C   UNL     1     -13.421 -18.099  28.707  1.00  0.00     0.087 C 
BRANCH  11  12
ATOM     12  C   UNL     1     -12.301 -17.049  28.461  1.00  0.00     0.066 C 
BRANCH  12  13
ATOM     13  C   UNL     1     -12.322 -15.850  29.406  1.00  0.00     0.140 C 
ATOM     14  O   UNL     1     -13.129 -14.959  29.177  1.00  0.00    -0.299 OA
BRANCH  13  15
ATOM     15  C   UNL     1     -11.462 -15.726  30.644  1.00  0.00     0.106 CG0
ATOM     16  G   UNL     1     -12.103 -16.433  31.827  1.00  0.00     0.000 G0
ENDBRANCH  13  15
ENDBRANCH  12  13
BRANCH  12  17
ATOM     17  C   UNL     1     -12.257 -16.603  26.965  1.00  0.00    -0.006 C 
ATOM     18  C   UNL     1     -13.648 -16.640  26.313  1.00  0.00     0.008 C 
ATOM     19  C   UNL     1     -11.255 -17.404  26.117  1.00  0.00     0.008 C 
ENDBRANCH  12  17
ENDBRANCH  11  12
ENDBRANCH   1  11
TORSDOF 1
ENDMDL
