MODEL 1
REMARK VINA RESULT:    -3.119      0.000      0.000
REMARK INTER + INTRA:          -3.542
REMARK INTER:                  -3.484
REMARK INTRA:                  -0.059
REMARK UNBOUND:                -0.059
REMARK SMILES CCCC(=O)[O-]
REMARK SMILES IDX 3 1 4 2 5 3 6 4 2 5 1 6
REMARK H PARENT
REMARK Flexibility Score: inf
ROOT
ATOM      1  C   UNL     1      -4.764 -11.231  -6.842  1.00  0.00     0.052 C 
ENDROOT
BRANCH   1   2
ATOM      2  C   UNL     1      -5.483 -11.665  -5.603  1.00  0.00     0.041 C 
ATOM      3  O   UNL     1      -5.000 -12.573  -4.875  1.00  0.00    -0.550 OA
ATOM      4  O   UNL     1      -6.704 -11.093  -5.269  1.00  0.00    -0.550 OA
ENDBRANCH   1   2
BRANCH   1   5
ATOM      5  C   UNL     1      -4.364  -9.752  -6.780  1.00  0.00     0.003 C 
ATOM      6  C   UNL     1      -3.619  -9.405  -5.490  1.00  0.00     0.004 C 
ENDBRANCH   1   5
TORSDOF 2
ENDMDL
MODEL 2
REMARK VINA RESULT:    -3.013     20.179     20.712
REMARK INTER + INTRA:          -3.424
REMARK INTER:                  -3.414
REMARK INTRA:                  -0.010
REMARK UNBOUND:                -0.059
REMARK SMILES CCCC(=O)[O-]
REMARK SMILES IDX 3 1 4 2 5 3 6 4 2 5 1 6
REMARK H PARENT
REMARK Flexibility Score: inf
ROOT
ATOM      1  C   UNL     1       8.154  -7.785 -21.476  1.00  0.00     0.052 C 
ENDROOT
BRANCH   1   2
ATOM      2  C   UNL     1       7.514  -6.803 -22.408  1.00  0.00     0.041 C 
ATOM      3  O   UNL     1       6.416  -7.078 -22.962  1.00  0.00    -0.550 OA
ATOM      4  O   UNL     1       8.145  -5.599 -22.692  1.00  0.00    -0.550 OA
ENDBRANCH   1   2
BRANCH   1   5
ATOM      5  C   UNL     1       7.110  -8.638 -20.743  1.00  0.00     0.003 C 
ATOM      6  C   UNL     1       7.750  -9.720 -19.873  1.00  0.00     0.004 C 
ENDBRANCH   1   5
TORSDOF 2
ENDMDL
MODEL 3
REMARK VINA RESULT:    -2.916     19.764     20.136
REMARK INTER + INTRA:          -3.316
REMARK INTER:                  -3.280
REMARK INTRA:                  -0.036
REMARK UNBOUND:                -0.059
REMARK SMILES CCCC(=O)[O-]
REMARK SMILES IDX 3 1 4 2 5 3 6 4 2 5 1 6
REMARK H PARENT
REMARK Flexibility Score: inf
ROOT
ATOM      1  C   UNL     1       7.214  -8.839 -20.431  1.00  0.00     0.052 C 
ENDROOT
BRANCH   1   2
ATOM      2  C   UNL     1       7.629  -7.828 -21.454  1.00  0.00     0.041 C 
ATOM      3  O   UNL     1       8.795  -7.349 -21.436  1.00  0.00    -0.550 OA
ATOM      4  O   UNL     1       6.720  -7.388 -22.408  1.00  0.00    -0.550 OA
ENDBRANCH   1   2
BRANCH   1   5
ATOM      5  C   UNL     1       8.266  -9.943 -20.263  1.00  0.00     0.003 C 
ATOM      6  C   UNL     1       9.004  -9.845 -18.928  1.00  0.00     0.004 C 
ENDBRANCH   1   5
TORSDOF 2
ENDMDL
MODEL 4
REMARK VINA RESULT:    -2.851     19.491     20.062
REMARK INTER + INTRA:          -3.243
REMARK INTER:                  -3.235
REMARK INTRA:                  -0.008
REMARK UNBOUND:                -0.059
REMARK SMILES CCCC(=O)[O-]
REMARK SMILES IDX 3 1 4 2 5 3 6 4 2 5 1 6
REMARK H PARENT
REMARK Flexibility Score: inf
ROOT
ATOM      1  C   UNL     1       7.271  -8.633 -20.781  1.00  0.00     0.052 C 
ENDROOT
BRANCH   1   2
ATOM      2  C   UNL     1       8.151  -9.734 -20.275  1.00  0.00     0.041 C 
ATOM      3  O   UNL     1       8.480 -10.683 -21.036  1.00  0.00    -0.550 OA
ATOM      4  O   UNL     1       8.580  -9.732 -18.954  1.00  0.00    -0.550 OA
ENDBRANCH   1   2
BRANCH   1   5
ATOM      5  C   UNL     1       8.060  -7.608 -21.607  1.00  0.00     0.003 C 
ATOM      6  C   UNL     1       7.177  -6.867 -22.611  1.00  0.00     0.004 C 
ENDBRANCH   1   5
TORSDOF 2
ENDMDL
MODEL 5
REMARK VINA RESULT:    -2.574      1.790      2.318
REMARK INTER + INTRA:          -2.934
REMARK INTER:                  -2.912
REMARK INTRA:                  -0.022
REMARK UNBOUND:                -0.059
REMARK SMILES CCCC(=O)[O-]
REMARK SMILES IDX 3 1 4 2 5 3 6 4 2 5 1 6
REMARK H PARENT
REMARK Flexibility Score: inf
ROOT
ATOM      1  C   UNL     1      -3.701 -10.032  -5.193  1.00  0.00     0.052 C 
ENDROOT
BRANCH   1   2
ATOM      2  C   UNL     1      -4.632 -10.451  -6.290  1.00  0.00     0.041 C 
ATOM      3  O   UNL     1      -4.439 -10.054  -7.470  1.00  0.00    -0.550 OA
ATOM      4  O   UNL     1      -5.732 -11.250  -6.004  1.00  0.00    -0.550 OA
ENDBRANCH   1   2
BRANCH   1   5
ATOM      5  C   UNL     1      -3.556  -8.507  -5.121  1.00  0.00     0.003 C 
ATOM      6  C   UNL     1      -2.110  -8.071  -4.886  1.00  0.00     0.004 C 
ENDBRANCH   1   5
TORSDOF 2
ENDMDL
MODEL 6
REMARK VINA RESULT:    -2.335     20.904     21.440
REMARK INTER + INTRA:          -2.667
REMARK INTER:                  -2.645
REMARK INTRA:                  -0.022
REMARK UNBOUND:                -0.059
REMARK SMILES CCCC(=O)[O-]
REMARK SMILES IDX 3 1 4 2 5 3 6 4 2 5 1 6
REMARK H PARENT
REMARK Flexibility Score: inf
ROOT
ATOM      1  C   UNL     1       7.132  -6.399 -23.711  1.00  0.00     0.052 C 
ENDROOT
BRANCH   1   2
ATOM      2  C   UNL     1       7.635  -6.947 -22.411  1.00  0.00     0.041 C 
ATOM      3  O   UNL     1       8.724  -6.536 -21.929  1.00  0.00    -0.550 OA
ATOM      4  O   UNL     1       6.919  -7.936 -21.748  1.00  0.00    -0.550 OA
ENDBRANCH   1   2
BRANCH   1   5
ATOM      5  C   UNL     1       5.713  -5.831 -23.579  1.00  0.00     0.003 C 
ATOM      6  C   UNL     1       4.795  -6.291 -24.711  1.00  0.00     0.004 C 
ENDBRANCH   1   5
TORSDOF 2
ENDMDL
MODEL 7
REMARK VINA RESULT:    -2.278     20.920     21.372
REMARK INTER + INTRA:          -2.603
REMARK INTER:                  -2.592
REMARK INTRA:                  -0.011
REMARK UNBOUND:                -0.059
REMARK SMILES CCCC(=O)[O-]
REMARK SMILES IDX 3 1 4 2 5 3 6 4 2 5 1 6
REMARK H PARENT
REMARK Flexibility Score: inf
ROOT
ATOM      1  C   UNL     1       1.329 -16.896 -24.838  1.00  0.00     0.052 C 
ENDROOT
BRANCH   1   2
ATOM      2  C   UNL     1       2.069 -18.193 -24.951  1.00  0.00     0.041 C 
ATOM      3  O   UNL     1       1.436 -19.273 -25.092  1.00  0.00    -0.550 OA
ATOM      4  O   UNL     1       3.456 -18.215 -24.867  1.00  0.00    -0.550 OA
ENDBRANCH   1   2
BRANCH   1   5
ATOM      5  C   UNL     1      -0.168 -17.069 -25.122  1.00  0.00     0.003 C 
ATOM      6  C   UNL     1      -0.918 -15.736 -25.122  1.00  0.00     0.004 C 
ENDBRANCH   1   5
TORSDOF 2
ENDMDL
MODEL 8
REMARK VINA RESULT:    -2.196     20.028     20.657
REMARK INTER + INTRA:          -2.512
REMARK INTER:                  -2.456
REMARK INTRA:                  -0.055
REMARK UNBOUND:                -0.059
REMARK SMILES CCCC(=O)[O-]
REMARK SMILES IDX 3 1 4 2 5 3 6 4 2 5 1 6
REMARK H PARENT
REMARK Flexibility Score: inf
ROOT
ATOM      1  C   UNL     1      -8.057 -19.065 -25.066  1.00  0.00     0.052 C 
ENDROOT
BRANCH   1   2
ATOM      2  C   UNL     1      -6.730 -19.757 -25.058  1.00  0.00     0.041 C 
ATOM      3  O   UNL     1      -6.671 -21.015 -25.095  1.00  0.00    -0.550 OA
ATOM      4  O   UNL     1      -5.557 -19.016 -24.975  1.00  0.00    -0.550 OA
ENDBRANCH   1   2
BRANCH   1   5
ATOM      5  C   UNL     1      -8.070 -17.848 -24.131  1.00  0.00     0.003 C 
ATOM      6  C   UNL     1      -8.254 -18.243 -22.666  1.00  0.00     0.004 C 
ENDBRANCH   1   5
TORSDOF 2
ENDMDL
