MODEL 1
REMARK VINA RESULT:    -5.877      0.000      0.000
REMARK INTER + INTRA:         -11.038
REMARK INTER:                  -8.968
REMARK INTRA:                  -2.070
REMARK UNBOUND:                -2.070
REMARK SMILES CC(=O)CCC=C(C)CCC=C(C)CCC=C(C)C
REMARK SMILES IDX 10 1 11 2 12 3 13 4 14 5 15 6 16 7 18 8 17 9 19 10 9 11 7 12
REMARK SMILES IDX 6 13 8 14 5 15 4 16 2 17 3 18 1 19
REMARK H PARENT
REMARK Flexibility Score: inf
ROOT
ATOM      1  C   UNL     1     -10.316 -32.502  29.927  1.00  0.00     0.032 C 
ENDROOT
BRANCH   1   2
ATOM      2  C   UNL     1     -10.741 -33.563  28.942  1.00  0.00    -0.028 C 
ATOM      3  C   UNL     1     -11.963 -33.586  28.365  1.00  0.00    -0.077 C 
ATOM      4  C   UNL     1     -12.997 -32.528  28.671  1.00  0.00     0.039 C 
BRANCH   3   5
ATOM      5  C   UNL     1     -12.301 -34.692  27.389  1.00  0.00     0.034 C 
BRANCH   5   6
ATOM      6  C   UNL     1     -13.490 -35.519  27.890  1.00  0.00     0.032 C 
BRANCH   6   7
ATOM      7  C   UNL     1     -13.183 -36.141  29.229  1.00  0.00    -0.028 C 
ATOM      8  C   UNL     1     -13.095 -37.907  30.936  1.00  0.00     0.039 C 
ATOM      9  C   UNL     1     -13.505 -37.406  29.574  1.00  0.00    -0.080 C 
ATOM     10  C   UNL     1     -14.271 -38.320  28.646  1.00  0.00     0.039 C 
ENDBRANCH   6   7
ENDBRANCH   5   6
ENDBRANCH   3   5
ENDBRANCH   1   2
BRANCH   1  11
ATOM     11  C   UNL     1      -9.875 -33.123  31.258  1.00  0.00     0.034 C 
BRANCH  11  12
ATOM     12  C   UNL     1     -10.889 -34.138  31.739  1.00  0.00    -0.077 C 
ATOM     13  C   UNL     1     -12.164 -33.741  31.955  1.00  0.00    -0.028 C 
ATOM     14  C   UNL     1     -10.455 -35.572  31.940  1.00  0.00     0.039 C 
BRANCH  13  15
ATOM     15  C   UNL     1     -13.260 -34.634  32.479  1.00  0.00     0.035 C 
BRANCH  15  16
ATOM     16  C   UNL     1     -14.638 -34.093  32.073  1.00  0.00     0.079 C 
BRANCH  16  17
ATOM     17  C   UNL     1     -14.833 -32.616  32.336  1.00  0.00     0.130 C 
ATOM     18  O   UNL     1     -15.089 -31.887  31.389  1.00  0.00    -0.300 OA
ATOM     19  C   UNL     1     -14.730 -32.007  33.708  1.00  0.00     0.087 C 
ENDBRANCH  16  17
ENDBRANCH  15  16
ENDBRANCH  13  15
ENDBRANCH  11  12
ENDBRANCH   1  11
TORSDOF 9
ENDMDL
MODEL 2
REMARK VINA RESULT:    -5.850      2.062      5.095
REMARK INTER + INTRA:         -10.998
REMARK INTER:                  -9.076
REMARK INTRA:                  -1.922
REMARK UNBOUND:                -2.070
REMARK SMILES CC(=O)CCC=C(C)CCC=C(C)CCC=C(C)C
REMARK SMILES IDX 10 1 11 2 12 3 13 4 14 5 15 6 16 7 18 8 17 9 19 10 9 11 7 12
REMARK SMILES IDX 6 13 8 14 5 15 4 16 2 17 3 18 1 19
REMARK H PARENT
REMARK Flexibility Score: inf
ROOT
ATOM      1  C   UNL     1     -11.278 -33.669  32.749  1.00  0.00     0.032 C 
ENDROOT
BRANCH   1   2
ATOM      2  C   UNL     1     -12.686 -33.132  32.846  1.00  0.00    -0.028 C 
ATOM      3  C   UNL     1     -13.778 -33.871  32.548  1.00  0.00    -0.077 C 
ATOM      4  C   UNL     1     -13.656 -35.308  32.098  1.00  0.00     0.039 C 
BRANCH   3   5
ATOM      5  C   UNL     1     -15.151 -33.248  32.674  1.00  0.00     0.034 C 
BRANCH   5   6
ATOM      6  C   UNL     1     -15.260 -31.988  31.808  1.00  0.00     0.032 C 
BRANCH   6   7
ATOM      7  C   UNL     1     -14.697 -32.235  30.431  1.00  0.00    -0.028 C 
ATOM      8  C   UNL     1     -14.398 -31.895  28.015  1.00  0.00     0.039 C 
ATOM      9  C   UNL     1     -15.080 -31.570  29.319  1.00  0.00    -0.080 C 
ATOM     10  C   UNL     1     -16.176 -30.529  29.346  1.00  0.00     0.039 C 
ENDBRANCH   6   7
ENDBRANCH   5   6
ENDBRANCH   3   5
ENDBRANCH   1   2
BRANCH   1  11
ATOM     11  C   UNL     1     -10.597 -33.212  31.453  1.00  0.00     0.034 C 
BRANCH  11  12
ATOM     12  C   UNL     1     -10.771 -34.246  30.362  1.00  0.00    -0.077 C 
ATOM     13  C   UNL     1     -11.637 -33.997  29.353  1.00  0.00    -0.028 C 
ATOM     14  C   UNL     1      -9.953 -35.516  30.415  1.00  0.00     0.039 C 
BRANCH  13  15
ATOM     15  C   UNL     1     -11.940 -34.958  28.231  1.00  0.00     0.035 C 
BRANCH  15  16
ATOM     16  C   UNL     1     -13.352 -35.543  28.389  1.00  0.00     0.079 C 
BRANCH  16  17
ATOM     17  C   UNL     1     -13.384 -36.989  28.831  1.00  0.00     0.130 C 
ATOM     18  O   UNL     1     -12.543 -37.370  29.631  1.00  0.00    -0.300 OA
ATOM     19  C   UNL     1     -14.407 -37.976  28.335  1.00  0.00     0.087 C 
ENDBRANCH  16  17
ENDBRANCH  15  16
ENDBRANCH  13  15
ENDBRANCH  11  12
ENDBRANCH   1  11
TORSDOF 9
ENDMDL
MODEL 3
REMARK VINA RESULT:    -5.839      2.080      5.117
REMARK INTER + INTRA:         -10.981
REMARK INTER:                  -9.242
REMARK INTRA:                  -1.739
REMARK UNBOUND:                -2.070
REMARK SMILES CC(=O)CCC=C(C)CCC=C(C)CCC=C(C)C
REMARK SMILES IDX 10 1 11 2 12 3 13 4 14 5 15 6 16 7 18 8 17 9 19 10 9 11 7 12
REMARK SMILES IDX 6 13 8 14 5 15 4 16 2 17 3 18 1 19
REMARK H PARENT
REMARK Flexibility Score: inf
ROOT
ATOM      1  C   UNL     1     -13.638 -32.502  28.321  1.00  0.00     0.032 C 
ENDROOT
BRANCH   1   2
ATOM      2  C   UNL     1     -13.572 -33.036  29.731  1.00  0.00    -0.028 C 
ATOM      3  C   UNL     1     -14.406 -32.625  30.714  1.00  0.00    -0.077 C 
ATOM      4  C   UNL     1     -15.479 -31.595  30.455  1.00  0.00     0.039 C 
BRANCH   3   5
ATOM      5  C   UNL     1     -14.265 -33.216  32.100  1.00  0.00     0.034 C 
BRANCH   5   6
ATOM      6  C   UNL     1     -13.036 -34.128  32.182  1.00  0.00     0.032 C 
BRANCH   6   7
ATOM      7  C   UNL     1     -12.002 -33.550  33.116  1.00  0.00    -0.028 C 
ATOM      8  C   UNL     1      -9.875 -32.507  33.768  1.00  0.00     0.039 C 
ATOM      9  C   UNL     1     -10.791 -33.098  32.727  1.00  0.00    -0.080 C 
ATOM     10  C   UNL     1     -10.327 -33.183  31.290  1.00  0.00     0.039 C 
ENDBRANCH   6   7
ENDBRANCH   5   6
ENDBRANCH   3   5
ENDBRANCH   1   2
BRANCH   1  11
ATOM     11  C   UNL     1     -13.651 -33.642  27.295  1.00  0.00     0.034 C 
BRANCH  11  12
ATOM     12  C   UNL     1     -12.978 -34.877  27.855  1.00  0.00    -0.077 C 
ATOM     13  C   UNL     1     -13.743 -35.920  28.249  1.00  0.00    -0.028 C 
ATOM     14  C   UNL     1     -11.468 -34.920  27.935  1.00  0.00     0.039 C 
BRANCH  13  15
ATOM     15  C   UNL     1     -13.207 -37.187  28.867  1.00  0.00     0.035 C 
BRANCH  15  16
ATOM     16  C   UNL     1     -13.552 -37.245  30.363  1.00  0.00     0.079 C 
BRANCH  16  17
ATOM     17  C   UNL     1     -12.384 -37.589  31.261  1.00  0.00     0.130 C 
ATOM     18  O   UNL     1     -12.506 -38.524  32.037  1.00  0.00    -0.300 OA
ATOM     19  C   UNL     1     -11.081 -36.835  31.237  1.00  0.00     0.087 C 
ENDBRANCH  16  17
ENDBRANCH  15  16
ENDBRANCH  13  15
ENDBRANCH  11  12
ENDBRANCH   1  11
TORSDOF 9
ENDMDL
MODEL 4
REMARK VINA RESULT:    -5.722      3.049      4.508
REMARK INTER + INTRA:         -10.803
REMARK INTER:                  -9.121
REMARK INTRA:                  -1.682
REMARK UNBOUND:                -2.070
REMARK SMILES CC(=O)CCC=C(C)CCC=C(C)CCC=C(C)C
REMARK SMILES IDX 10 1 11 2 12 3 13 4 14 5 15 6 16 7 18 8 17 9 19 10 9 11 7 12
REMARK SMILES IDX 6 13 8 14 5 15 4 16 2 17 3 18 1 19
REMARK H PARENT
REMARK Flexibility Score: inf
ROOT
ATOM      1  C   UNL     1     -10.800 -35.929  32.226  1.00  0.00     0.032 C 
ENDROOT
BRANCH   1   2
ATOM      2  C   UNL     1     -11.306 -36.253  30.841  1.00  0.00    -0.028 C 
ATOM      3  C   UNL     1     -12.587 -36.601  30.588  1.00  0.00    -0.077 C 
ATOM      4  C   UNL     1     -13.614 -36.680  31.693  1.00  0.00     0.039 C 
BRANCH   3   5
ATOM      5  C   UNL     1     -13.004 -36.910  29.166  1.00  0.00     0.034 C 
BRANCH   5   6
ATOM      6  C   UNL     1     -12.500 -35.830  28.202  1.00  0.00     0.032 C 
BRANCH   6   7
ATOM      7  C   UNL     1     -13.367 -34.598  28.279  1.00  0.00    -0.028 C 
ATOM      8  C   UNL     1     -13.897 -32.223  28.619  1.00  0.00     0.039 C 
ATOM      9  C   UNL     1     -12.921 -33.372  28.627  1.00  0.00    -0.080 C 
ATOM     10  C   UNL     1     -11.487 -33.127  29.037  1.00  0.00     0.039 C 
ENDBRANCH   6   7
ENDBRANCH   5   6
ENDBRANCH   3   5
ENDBRANCH   1   2
BRANCH   1  11
ATOM     11  C   UNL     1     -10.146 -34.543  32.268  1.00  0.00     0.034 C 
BRANCH  11  12
ATOM     12  C   UNL     1     -10.973 -33.584  33.097  1.00  0.00    -0.077 C 
ATOM     13  C   UNL     1     -10.373 -32.886  34.087  1.00  0.00    -0.028 C 
ATOM     14  C   UNL     1     -12.441 -33.414  32.778  1.00  0.00     0.039 C 
BRANCH  13  15
ATOM     15  C   UNL     1     -11.086 -31.936  35.017  1.00  0.00     0.035 C 
BRANCH  15  16
ATOM     16  C   UNL     1     -10.246 -30.670  35.243  1.00  0.00     0.079 C 
BRANCH  16  17
ATOM     17  C   UNL     1     -10.715 -29.806  36.393  1.00  0.00     0.130 C 
ATOM     18  O   UNL     1      -9.899 -29.477  37.241  1.00  0.00    -0.300 OA
ATOM     19  C   UNL     1     -12.136 -29.331  36.536  1.00  0.00     0.087 C 
ENDBRANCH  16  17
ENDBRANCH  15  16
ENDBRANCH  13  15
ENDBRANCH  11  12
ENDBRANCH   1  11
TORSDOF 9
ENDMDL
MODEL 5
REMARK VINA RESULT:    -5.698      1.328      3.427
REMARK INTER + INTRA:         -10.766
REMARK INTER:                  -9.473
REMARK INTRA:                  -1.293
REMARK UNBOUND:                -2.070
REMARK SMILES CC(=O)CCC=C(C)CCC=C(C)CCC=C(C)C
REMARK SMILES IDX 10 1 11 2 12 3 13 4 14 5 15 6 16 7 18 8 17 9 19 10 9 11 7 12
REMARK SMILES IDX 6 13 8 14 5 15 4 16 2 17 3 18 1 19
REMARK H PARENT
REMARK Flexibility Score: inf
ROOT
ATOM      1  C   UNL     1     -10.787 -36.056  32.168  1.00  0.00     0.032 C 
ENDROOT
BRANCH   1   2
ATOM      2  C   UNL     1     -11.483 -36.373  30.867  1.00  0.00    -0.028 C 
ATOM      3  C   UNL     1     -12.415 -37.346  30.748  1.00  0.00    -0.077 C 
ATOM      4  C   UNL     1     -12.830 -38.186  31.932  1.00  0.00     0.039 C 
BRANCH   3   5
ATOM      5  C   UNL     1     -13.059 -37.593  29.401  1.00  0.00     0.034 C 
BRANCH   5   6
ATOM      6  C   UNL     1     -13.499 -36.275  28.756  1.00  0.00     0.032 C 
BRANCH   6   7
ATOM      7  C   UNL     1     -12.474 -35.800  27.756  1.00  0.00    -0.028 C 
ATOM      8  C   UNL     1     -11.502 -34.345  26.031  1.00  0.00     0.039 C 
ATOM      9  C   UNL     1     -12.632 -34.727  26.952  1.00  0.00    -0.080 C 
ATOM     10  C   UNL     1     -13.907 -33.915  26.941  1.00  0.00     0.039 C 
ENDBRANCH   6   7
ENDBRANCH   5   6
ENDBRANCH   3   5
ENDBRANCH   1   2
BRANCH   1  11
ATOM     11  C   UNL     1     -10.849 -34.556  32.481  1.00  0.00     0.034 C 
BRANCH  11  12
ATOM     12  C   UNL     1     -11.710 -33.832  31.470  1.00  0.00    -0.077 C 
ATOM     13  C   UNL     1     -13.049 -33.784  31.661  1.00  0.00    -0.028 C 
ATOM     14  C   UNL     1     -11.049 -33.159  30.288  1.00  0.00     0.039 C 
BRANCH  13  15
ATOM     15  C   UNL     1     -14.025 -33.139  30.709  1.00  0.00     0.035 C 
BRANCH  15  16
ATOM     16  C   UNL     1     -14.862 -32.075  31.435  1.00  0.00     0.079 C 
BRANCH  16  17
ATOM     17  C   UNL     1     -15.240 -32.436  32.854  1.00  0.00     0.130 C 
ATOM     18  O   UNL     1     -14.697 -31.836  33.769  1.00  0.00    -0.300 OA
ATOM     19  C   UNL     1     -16.257 -33.495  33.187  1.00  0.00     0.087 C 
ENDBRANCH  16  17
ENDBRANCH  15  16
ENDBRANCH  13  15
ENDBRANCH  11  12
ENDBRANCH   1  11
TORSDOF 9
ENDMDL
MODEL 6
REMARK VINA RESULT:    -5.672      1.763      3.687
REMARK INTER + INTRA:         -10.726
REMARK INTER:                  -9.447
REMARK INTRA:                  -1.280
REMARK UNBOUND:                -2.070
REMARK SMILES CC(=O)CCC=C(C)CCC=C(C)CCC=C(C)C
REMARK SMILES IDX 10 1 11 2 12 3 13 4 14 5 15 6 16 7 18 8 17 9 19 10 9 11 7 12
REMARK SMILES IDX 6 13 8 14 5 15 4 16 2 17 3 18 1 19
REMARK H PARENT
REMARK Flexibility Score: inf
ROOT
ATOM      1  C   UNL     1     -14.121 -32.619  27.936  1.00  0.00     0.032 C 
ENDROOT
BRANCH   1   2
ATOM      2  C   UNL     1     -12.924 -32.912  28.808  1.00  0.00    -0.028 C 
ATOM      3  C   UNL     1     -11.897 -33.695  28.409  1.00  0.00    -0.077 C 
ATOM      4  C   UNL     1     -11.878 -34.330  27.039  1.00  0.00     0.039 C 
BRANCH   3   5
ATOM      5  C   UNL     1     -10.739 -33.935  29.353  1.00  0.00     0.034 C 
BRANCH   5   6
ATOM      6  C   UNL     1     -10.325 -35.410  29.346  1.00  0.00     0.032 C 
BRANCH   6   7
ATOM      7  C   UNL     1     -10.856 -36.121  30.566  1.00  0.00    -0.028 C 
ATOM      8  C   UNL     1     -12.359 -37.568  31.865  1.00  0.00     0.039 C 
ATOM      9  C   UNL     1     -11.972 -36.883  30.580  1.00  0.00    -0.080 C 
ATOM     10  C   UNL     1     -12.842 -37.051  29.356  1.00  0.00     0.039 C 
ENDBRANCH   6   7
ENDBRANCH   5   6
ENDBRANCH   3   5
ENDBRANCH   1   2
BRANCH   1  11
ATOM     11  C   UNL     1     -14.729 -31.251  28.268  1.00  0.00     0.034 C 
BRANCH  11  12
ATOM     12  C   UNL     1     -15.539 -31.319  29.544  1.00  0.00    -0.077 C 
ATOM     13  C   UNL     1     -14.994 -31.898  30.638  1.00  0.00    -0.028 C 
ATOM     14  C   UNL     1     -16.925 -30.714  29.569  1.00  0.00     0.039 C 
BRANCH  13  15
ATOM     15  C   UNL     1     -15.707 -32.075  31.956  1.00  0.00     0.035 C 
BRANCH  15  16
ATOM     16  C   UNL     1     -14.714 -32.480  33.056  1.00  0.00     0.079 C 
BRANCH  16  17
ATOM     17  C   UNL     1     -13.814 -33.640  32.690  1.00  0.00     0.130 C 
ATOM     18  O   UNL     1     -14.334 -34.702  32.381  1.00  0.00    -0.300 OA
ATOM     19  C   UNL     1     -12.312 -33.543  32.686  1.00  0.00     0.087 C 
ENDBRANCH  16  17
ENDBRANCH  15  16
ENDBRANCH  13  15
ENDBRANCH  11  12
ENDBRANCH   1  11
TORSDOF 9
ENDMDL
MODEL 7
REMARK VINA RESULT:    -5.658      1.975      4.929
REMARK INTER + INTRA:         -10.705
REMARK INTER:                  -9.611
REMARK INTRA:                  -1.095
REMARK UNBOUND:                -2.070
REMARK SMILES CC(=O)CCC=C(C)CCC=C(C)CCC=C(C)C
REMARK SMILES IDX 10 1 11 2 12 3 13 4 14 5 15 6 16 7 18 8 17 9 19 10 9 11 7 12
REMARK SMILES IDX 6 13 8 14 5 15 4 16 2 17 3 18 1 19
REMARK H PARENT
REMARK Flexibility Score: inf
ROOT
ATOM      1  C   UNL     1     -13.937 -32.622  33.129  1.00  0.00     0.032 C 
ENDROOT
BRANCH   1   2
ATOM      2  C   UNL     1     -12.832 -33.570  32.730  1.00  0.00    -0.028 C 
ATOM      3  C   UNL     1     -11.589 -33.517  33.258  1.00  0.00    -0.077 C 
ATOM      4  C   UNL     1     -11.222 -32.491  34.305  1.00  0.00     0.039 C 
BRANCH   3   5
ATOM      5  C   UNL     1     -10.544 -34.509  32.796  1.00  0.00     0.034 C 
BRANCH   5   6
ATOM      6  C   UNL     1     -11.016 -35.254  31.542  1.00  0.00     0.032 C 
BRANCH   6   7
ATOM      7  C   UNL     1     -11.253 -36.712  31.843  1.00  0.00    -0.028 C 
ATOM      8  C   UNL     1     -12.502 -38.826  31.951  1.00  0.00     0.039 C 
ATOM      9  C   UNL     1     -12.425 -37.352  31.643  1.00  0.00    -0.080 C 
ATOM     10  C   UNL     1     -13.655 -36.633  31.138  1.00  0.00     0.039 C 
ENDBRANCH   6   7
ENDBRANCH   5   6
ENDBRANCH   3   5
ENDBRANCH   1   2
BRANCH   1  11
ATOM     11  C   UNL     1     -15.148 -32.756  32.198  1.00  0.00     0.034 C 
BRANCH  11  12
ATOM     12  C   UNL     1     -14.779 -32.385  30.779  1.00  0.00    -0.077 C 
ATOM     13  C   UNL     1     -13.794 -33.072  30.156  1.00  0.00    -0.028 C 
ATOM     14  C   UNL     1     -15.537 -31.274  30.088  1.00  0.00     0.039 C 
BRANCH  13  15
ATOM     15  C   UNL     1     -13.295 -32.775  28.764  1.00  0.00     0.035 C 
BRANCH  15  16
ATOM     16  C   UNL     1     -11.952 -33.477  28.511  1.00  0.00     0.079 C 
BRANCH  16  17
ATOM     17  C   UNL     1     -12.038 -34.681  27.599  1.00  0.00     0.130 C 
ATOM     18  O   UNL     1     -12.392 -35.748  28.078  1.00  0.00    -0.300 OA
ATOM     19  C   UNL     1     -11.712 -34.622  26.131  1.00  0.00     0.087 C 
ENDBRANCH  16  17
ENDBRANCH  15  16
ENDBRANCH  13  15
ENDBRANCH  11  12
ENDBRANCH   1  11
TORSDOF 9
ENDMDL
MODEL 8
REMARK VINA RESULT:    -5.631      1.577      4.044
REMARK INTER + INTRA:         -10.663
REMARK INTER:                  -8.988
REMARK INTRA:                  -1.675
REMARK UNBOUND:                -2.070
REMARK SMILES CC(=O)CCC=C(C)CCC=C(C)CCC=C(C)C
REMARK SMILES IDX 10 1 11 2 12 3 13 4 14 5 15 6 16 7 18 8 17 9 19 10 9 11 7 12
REMARK SMILES IDX 6 13 8 14 5 15 4 16 2 17 3 18 1 19
REMARK H PARENT
REMARK Flexibility Score: inf
ROOT
ATOM      1  C   UNL     1      -9.875 -33.076  29.836  1.00  0.00     0.032 C 
ENDROOT
BRANCH   1   2
ATOM      2  C   UNL     1     -11.271 -32.932  29.281  1.00  0.00    -0.028 C 
ATOM      3  C   UNL     1     -11.807 -33.806  28.399  1.00  0.00    -0.077 C 
ATOM      4  C   UNL     1     -11.031 -35.007  27.912  1.00  0.00     0.039 C 
BRANCH   3   5
ATOM      5  C   UNL     1     -13.216 -33.579  27.895  1.00  0.00     0.034 C 
BRANCH   5   6
ATOM      6  C   UNL     1     -13.822 -32.316  28.517  1.00  0.00     0.032 C 
BRANCH   6   7
ATOM      7  C   UNL     1     -14.155 -32.542  29.971  1.00  0.00    -0.028 C 
ATOM      8  C   UNL     1     -15.380 -32.255  32.081  1.00  0.00     0.039 C 
ATOM      9  C   UNL     1     -15.133 -31.895  30.639  1.00  0.00    -0.080 C 
ATOM     10  C   UNL     1     -15.970 -30.817  29.988  1.00  0.00     0.039 C 
ENDBRANCH   6   7
ENDBRANCH   5   6
ENDBRANCH   3   5
ENDBRANCH   1   2
BRANCH   1  11
ATOM     11  C   UNL     1      -9.884 -33.079  31.369  1.00  0.00     0.034 C 
BRANCH  11  12
ATOM     12  C   UNL     1     -10.863 -34.104  31.899  1.00  0.00    -0.077 C 
ATOM     13  C   UNL     1     -10.668 -35.410  31.607  1.00  0.00    -0.028 C 
ATOM     14  C   UNL     1     -12.016 -33.643  32.762  1.00  0.00     0.039 C 
BRANCH  13  15
ATOM     15  C   UNL     1     -11.590 -36.527  32.028  1.00  0.00     0.035 C 
BRANCH  15  16
ATOM     16  C   UNL     1     -11.995 -37.379  30.816  1.00  0.00     0.079 C 
BRANCH  16  17
ATOM     17  C   UNL     1     -13.255 -36.917  30.119  1.00  0.00     0.130 C 
ATOM     18  O   UNL     1     -13.796 -35.896  30.516  1.00  0.00    -0.300 OA
ATOM     19  C   UNL     1     -13.867 -37.655  28.959  1.00  0.00     0.087 C 
ENDBRANCH  16  17
ENDBRANCH  15  16
ENDBRANCH  13  15
ENDBRANCH  11  12
ENDBRANCH   1  11
TORSDOF 9
ENDMDL
MODEL 9
REMARK VINA RESULT:    -5.586      1.990      5.460
REMARK INTER + INTRA:         -10.596
REMARK INTER:                  -9.274
REMARK INTRA:                  -1.322
REMARK UNBOUND:                -2.070
REMARK SMILES CC(=O)CCC=C(C)CCC=C(C)CCC=C(C)C
REMARK SMILES IDX 10 1 11 2 12 3 13 4 14 5 15 6 16 7 18 8 17 9 19 10 9 11 7 12
REMARK SMILES IDX 6 13 8 14 5 15 4 16 2 17 3 18 1 19
REMARK H PARENT
REMARK Flexibility Score: inf
ROOT
ATOM      1  C   UNL     1     -12.828 -36.096  31.885  1.00  0.00     0.032 C 
ENDROOT
BRANCH   1   2
ATOM      2  C   UNL     1     -13.693 -34.921  32.271  1.00  0.00    -0.028 C 
ATOM      3  C   UNL     1     -13.186 -33.728  32.654  1.00  0.00    -0.077 C 
ATOM      4  C   UNL     1     -11.696 -33.489  32.713  1.00  0.00     0.039 C 
BRANCH   3   5
ATOM      5  C   UNL     1     -14.132 -32.606  33.025  1.00  0.00     0.034 C 
BRANCH   5   6
ATOM      6  C   UNL     1     -15.204 -32.417  31.946  1.00  0.00     0.032 C 
BRANCH   6   7
ATOM      7  C   UNL     1     -14.580 -32.373  30.573  1.00  0.00    -0.028 C 
ATOM      8  C   UNL     1     -14.308 -31.672  28.234  1.00  0.00     0.039 C 
ATOM      9  C   UNL     1     -15.063 -31.653  29.538  1.00  0.00    -0.080 C 
ATOM     10  C   UNL     1     -16.338 -30.847  29.648  1.00  0.00     0.039 C 
ENDBRANCH   6   7
ENDBRANCH   5   6
ENDBRANCH   3   5
ENDBRANCH   1   2
BRANCH   1  11
ATOM     11  C   UNL     1     -13.625 -37.136  31.088  1.00  0.00     0.034 C 
BRANCH  11  12
ATOM     12  C   UNL     1     -13.570 -36.836  29.606  1.00  0.00    -0.077 C 
ATOM     13  C   UNL     1     -13.219 -35.594  29.200  1.00  0.00    -0.028 C 
ATOM     14  C   UNL     1     -13.882 -37.939  28.620  1.00  0.00     0.039 C 
BRANCH  13  15
ATOM     15  C   UNL     1     -13.171 -35.148  27.760  1.00  0.00     0.035 C 
BRANCH  15  16
ATOM     16  C   UNL     1     -11.751 -34.699  27.382  1.00  0.00     0.079 C 
BRANCH  16  17
ATOM     17  C   UNL     1     -10.886 -34.303  28.558  1.00  0.00     0.130 C 
ATOM     18  O   UNL     1     -10.073 -35.113  28.978  1.00  0.00    -0.300 OA
ATOM     19  C   UNL     1     -10.978 -32.958  29.227  1.00  0.00     0.087 C 
ENDBRANCH  16  17
ENDBRANCH  15  16
ENDBRANCH  13  15
ENDBRANCH  11  12
ENDBRANCH   1  11
TORSDOF 9
ENDMDL
