MODEL 1
REMARK VINA RESULT:    -0.348      0.000      0.000
REMARK INTER + INTRA:          -0.523
REMARK INTER:                  -0.409
REMARK INTRA:                  -0.115
REMARK UNBOUND:                -0.115
REMARK SMILES O=c1c(O)c(-c2ccc(O)cc2)oc2cc(O)cc(O)c12
REMARK SMILES IDX 5 1 3 2 2 3 1 4 21 5 19 6 18 7 16 8 15 9 14 10 13 11 6 12
REMARK SMILES IDX 7 13 8 14 9 15 12 16 11 17 10 18 4 20 20 22 17 24
REMARK H PARENT 10 19 4 21 20 23 17 25
REMARK Flexibility Score: inf
ROOT
ATOM      1  C   UNL     1      12.810 -12.925  28.939  1.00  0.00     0.180 A 
ATOM      2  C   UNL     1      12.846 -13.444  27.634  1.00  0.00     0.208 A 
ATOM      3  C   UNL     1      13.564 -14.626  27.391  1.00  0.00     0.238 A 
ATOM      4  O   UNL     1      13.548 -15.115  26.231  1.00  0.00    -0.285 OA
ATOM      5  C   UNL     1      14.248 -15.266  28.452  1.00  0.00     0.111 A 
ATOM      6  C   UNL     1      15.038 -16.446  28.312  1.00  0.00     0.134 A 
ATOM      7  C   UNL     1      15.562 -17.066  29.454  1.00  0.00     0.093 A 
ATOM      8  C   UNL     1      15.379 -16.510  30.723  1.00  0.00     0.123 A 
ATOM      9  C   UNL     1      14.660 -15.327  30.863  1.00  0.00     0.094 A 
ATOM     10  C   UNL     1      14.093 -14.705  29.747  1.00  0.00     0.146 A 
ATOM     11  O   UNL     1      13.406 -13.584  29.926  1.00  0.00    -0.452 OA
ENDROOT
BRANCH   1  12
ATOM     12  C   UNL     1      12.095 -11.670  29.269  1.00  0.00     0.021 A 
ATOM     13  C   UNL     1      10.700 -11.560  29.117  1.00  0.00     0.016 A 
ATOM     14  C   UNL     1      10.051 -10.357  29.410  1.00  0.00     0.047 A 
ATOM     15  C   UNL     1      10.786  -9.248  29.845  1.00  0.00     0.115 A 
ATOM     16  C   UNL     1      12.827 -10.545  29.685  1.00  0.00     0.016 A 
ATOM     17  C   UNL     1      12.174  -9.344  29.979  1.00  0.00     0.047 A 
BRANCH  15  18
ATOM     18  O   UNL     1      10.149  -8.044  30.141  1.00  0.00    -0.508 OA
ATOM     19  H   UNL     1      10.676  -7.198  30.326  1.00  0.00     0.293 HD
ENDBRANCH  15  18
ENDBRANCH   1  12
BRANCH   2  20
ATOM     20  O   UNL     1      12.146 -12.809  26.605  1.00  0.00    -0.502 OA
ATOM     21  H   UNL     1      12.565 -12.097  26.019  1.00  0.00     0.293 HD
ENDBRANCH   2  20
BRANCH   6  22
ATOM     22  O   UNL     1      15.358 -17.030  27.083  1.00  0.00    -0.507 OA
ATOM     23  H   UNL     1      15.582 -18.005  26.951  1.00  0.00     0.293 HD
ENDBRANCH   6  22
BRANCH   8  24
ATOM     24  O   UNL     1      15.918 -17.125  31.851  1.00  0.00    -0.508 OA
ATOM     25  H   UNL     1      16.751 -16.766  32.304  1.00  0.00     0.293 HD
ENDBRANCH   8  24
TORSDOF 5
ENDMDL
MODEL 2
REMARK VINA RESULT:     2.361      1.956      6.945
REMARK INTER + INTRA:           2.661
REMARK INTER:                   2.819
REMARK INTRA:                  -0.158
REMARK UNBOUND:                -0.115
REMARK SMILES O=c1c(O)c(-c2ccc(O)cc2)oc2cc(O)cc(O)c12
REMARK SMILES IDX 5 1 3 2 2 3 1 4 21 5 19 6 18 7 16 8 15 9 14 10 13 11 6 12
REMARK SMILES IDX 7 13 8 14 9 15 12 16 11 17 10 18 4 20 20 22 17 24
REMARK H PARENT 10 19 4 21 20 23 17 25
REMARK Flexibility Score: inf
ROOT
ATOM      1  C   UNL     1      13.786 -13.092  28.522  1.00  0.00     0.180 A 
ATOM      2  C   UNL     1      14.441 -12.542  29.638  1.00  0.00     0.208 A 
ATOM      3  C   UNL     1      13.811 -11.513  30.357  1.00  0.00     0.238 A 
ATOM      4  O   UNL     1      14.379 -11.062  31.386  1.00  0.00    -0.285 OA
ATOM      5  C   UNL     1      12.545 -11.037  29.943  1.00  0.00     0.111 A 
ATOM      6  C   UNL     1      11.834  -9.972  30.574  1.00  0.00     0.134 A 
ATOM      7  C   UNL     1      10.529  -9.671  30.161  1.00  0.00     0.093 A 
ATOM      8  C   UNL     1       9.937 -10.355  29.096  1.00  0.00     0.123 A 
ATOM      9  C   UNL     1      10.645 -11.355  28.436  1.00  0.00     0.094 A 
ATOM     10  C   UNL     1      11.934 -11.703  28.849  1.00  0.00     0.146 A 
ATOM     11  O   UNL     1      12.569 -12.670  28.199  1.00  0.00    -0.452 OA
ENDROOT
BRANCH   1  12
ATOM     12  C   UNL     1      14.395 -14.163  27.699  1.00  0.00     0.021 A 
ATOM     13  C   UNL     1      14.603 -15.455  28.216  1.00  0.00     0.016 A 
ATOM     14  C   UNL     1      15.203 -16.442  27.429  1.00  0.00     0.047 A 
ATOM     15  C   UNL     1      15.615 -16.148  26.123  1.00  0.00     0.115 A 
ATOM     16  C   UNL     1      14.831 -13.871  26.396  1.00  0.00     0.016 A 
ATOM     17  C   UNL     1      15.429 -14.861  25.611  1.00  0.00     0.047 A 
BRANCH  15  18
ATOM     18  O   UNL     1      16.213 -17.124  25.329  1.00  0.00    -0.508 OA
ATOM     19  H   UNL     1      15.963 -17.239  24.353  1.00  0.00     0.293 HD
ENDBRANCH  15  18
ENDBRANCH   1  12
BRANCH   2  20
ATOM     20  O   UNL     1      15.681 -13.042  30.042  1.00  0.00    -0.502 OA
ATOM     21  H   UNL     1      16.012 -13.961  29.772  1.00  0.00     0.293 HD
ENDBRANCH   2  20
BRANCH   6  22
ATOM     22  O   UNL     1      12.369  -9.167  31.584  1.00  0.00    -0.507 OA
ATOM     23  H   UNL     1      13.271  -8.717  31.543  1.00  0.00     0.293 HD
ENDBRANCH   6  22
BRANCH   8  24
ATOM     24  O   UNL     1       8.645 -10.038  28.681  1.00  0.00    -0.508 OA
ATOM     25  H   UNL     1       8.471  -9.317  27.991  1.00  0.00     0.293 HD
ENDBRANCH   8  24
TORSDOF 5
ENDMDL
