MODEL 1
REMARK VINA RESULT:    -7.538      0.000      0.000
REMARK INTER + INTRA:         -11.089
REMARK INTER:                 -10.183
REMARK INTRA:                  -0.906
REMARK UNBOUND:                -0.906
REMARK SMILES O=c1c(-c2ccc(O)cc2)coc2c([C@H]3O[C@@H](CO)[C@H](O)[C@@H](O)[C@H]3O)c(O)ccc12
REMARK SMILES IDX 3 1 11 2 12 3 13 4 30 5 2 6 1 7 29 8 28 9 26 10 14 11 4 12
REMARK SMILES IDX 5 13 6 14 7 15 10 16 9 17 8 18 15 20 24 21 16 22 22 23 17 24
REMARK SMILES IDX 20 25 25 26 23 28 18 30 19 31 21 33 27 35
REMARK H PARENT 8 19 25 27 23 29 19 32 21 34 27 36
REMARK Flexibility Score: inf
ROOT
ATOM      1  C   UNL     1       4.332   4.179 -23.557  1.00  0.00     0.065 A 
ATOM      2  C   UNL     1       4.915   5.356 -23.068  1.00  0.00     0.208 A 
ATOM      3  O   UNL     1       4.724   6.517 -23.682  1.00  0.00    -0.463 OA
ATOM      4  C   UNL     1       3.983   6.648 -24.779  1.00  0.00     0.147 A 
ATOM      5  C   UNL     1       3.348   5.512 -25.335  1.00  0.00     0.066 A 
ATOM      6  C   UNL     1       3.527   4.266 -24.708  1.00  0.00     0.200 A 
ATOM      7  O   UNL     1       2.953   3.237 -25.161  1.00  0.00    -0.288 OA
ATOM      8  C   UNL     1       2.550   5.656 -26.479  1.00  0.00     0.020 A 
ATOM      9  C   UNL     1       2.374   6.909 -27.060  1.00  0.00     0.047 A 
ATOM     10  C   UNL     1       2.995   8.042 -26.518  1.00  0.00     0.125 A 
ATOM     11  C   UNL     1       3.831   7.920 -25.382  1.00  0.00     0.069 A 
ENDROOT
BRANCH   1  12
ATOM     12  C   UNL     1       4.566   2.889 -22.859  1.00  0.00    -0.011 A 
ATOM     13  C   UNL     1       4.123   2.708 -21.537  1.00  0.00     0.013 A 
ATOM     14  C   UNL     1       4.350   1.499 -20.873  1.00  0.00     0.047 A 
ATOM     15  C   UNL     1       5.027   0.459 -21.517  1.00  0.00     0.115 A 
ATOM     16  C   UNL     1       5.252   1.842 -23.498  1.00  0.00     0.013 A 
ATOM     17  C   UNL     1       5.478   0.634 -22.832  1.00  0.00     0.047 A 
BRANCH  15  18
ATOM     18  O   UNL     1       5.245  -0.740 -20.844  1.00  0.00    -0.508 OA
ATOM     19  H   UNL     1       6.176  -1.125 -20.737  1.00  0.00     0.293 HD
ENDBRANCH  15  18
ENDBRANCH   1  12
BRANCH  11  20
ATOM     20  C   UNL     1       4.500   9.137 -24.754  1.00  0.00     0.188 C 
ATOM     21  C   UNL     1       3.501   9.904 -23.865  1.00  0.00     0.179 C 
ATOM     22  O   UNL     1       5.028   9.987 -25.761  1.00  0.00    -0.362 OA
ATOM     23  C   UNL     1       4.223  11.109 -23.232  1.00  0.00     0.177 C 
ATOM     24  C   UNL     1       5.816  11.023 -25.195  1.00  0.00     0.176 C 
ATOM     25  C   UNL     1       4.944  11.949 -24.309  1.00  0.00     0.177 C 
BRANCH  21  26
ATOM     26  O   UNL     1       2.409  10.338 -24.639  1.00  0.00    -0.387 OA
ATOM     27  H   UNL     1       2.472   9.877 -25.516  1.00  0.00     0.211 HD
ENDBRANCH  21  26
BRANCH  23  28
ATOM     28  O   UNL     1       3.335  11.890 -22.470  1.00  0.00    -0.387 OA
ATOM     29  H   UNL     1       3.453  11.648 -21.515  1.00  0.00     0.211 HD
ENDBRANCH  23  28
BRANCH  24  30
ATOM     30  C   UNL     1       6.464  11.799 -26.351  1.00  0.00     0.191 C 
BRANCH  30  31
ATOM     31  O   UNL     1       7.612  12.481 -25.916  1.00  0.00    -0.394 OA
ATOM     32  H   UNL     1       7.479  12.694 -24.955  1.00  0.00     0.210 HD
ENDBRANCH  30  31
ENDBRANCH  24  30
BRANCH  25  33
ATOM     33  O   UNL     1       5.752  12.912 -23.683  1.00  0.00    -0.388 OA
ATOM     34  H   UNL     1       6.259  13.373 -24.401  1.00  0.00     0.211 HD
ENDBRANCH  25  33
ENDBRANCH  11  20
BRANCH  10  35
ATOM     35  O   UNL     1       2.773   9.287 -27.108  1.00  0.00    -0.507 OA
ATOM     36  H   UNL     1       1.987   9.453 -27.725  1.00  0.00     0.293 HD
ENDBRANCH  10  35
TORSDOF 9
ENDMDL
MODEL 2
REMARK VINA RESULT:    -7.280      1.523      1.828
REMARK INTER + INTRA:         -10.739
REMARK INTER:                 -10.140
REMARK INTRA:                  -0.599
REMARK UNBOUND:                -0.906
REMARK SMILES O=c1c(-c2ccc(O)cc2)coc2c([C@H]3O[C@@H](CO)[C@H](O)[C@@H](O)[C@H]3O)c(O)ccc12
REMARK SMILES IDX 3 1 11 2 12 3 13 4 30 5 2 6 1 7 29 8 28 9 26 10 14 11 4 12
REMARK SMILES IDX 5 13 6 14 7 15 10 16 9 17 8 18 15 20 24 21 16 22 22 23 17 24
REMARK SMILES IDX 20 25 25 26 23 28 18 30 19 31 21 33 27 35
REMARK H PARENT 8 19 25 27 23 29 19 32 21 34 27 36
REMARK Flexibility Score: inf
ROOT
ATOM      1  C   UNL     1       4.196   2.440 -23.858  1.00  0.00     0.065 A 
ATOM      2  C   UNL     1       4.949   3.541 -23.428  1.00  0.00     0.208 A 
ATOM      3  O   UNL     1       4.690   4.762 -23.879  1.00  0.00    -0.463 OA
ATOM      4  C   UNL     1       3.722   5.026 -24.751  1.00  0.00     0.147 A 
ATOM      5  C   UNL     1       2.905   3.975 -25.231  1.00  0.00     0.066 A 
ATOM      6  C   UNL     1       3.149   2.669 -24.770  1.00  0.00     0.200 A 
ATOM      7  O   UNL     1       2.422   1.711 -25.156  1.00  0.00    -0.288 OA
ATOM      8  C   UNL     1       1.870   4.259 -26.134  1.00  0.00     0.020 A 
ATOM      9  C   UNL     1       1.640   5.568 -26.550  1.00  0.00     0.047 A 
ATOM     10  C   UNL     1       2.440   6.618 -26.080  1.00  0.00     0.125 A 
ATOM     11  C   UNL     1       3.511   6.354 -25.192  1.00  0.00     0.069 A 
ENDROOT
BRANCH   1  12
ATOM     12  C   UNL     1       4.508   1.082 -23.346  1.00  0.00    -0.011 A 
ATOM     13  C   UNL     1       4.893   0.900 -22.005  1.00  0.00     0.013 A 
ATOM     14  C   UNL     1       5.196  -0.376 -21.522  1.00  0.00     0.047 A 
ATOM     15  C   UNL     1       5.125  -1.484 -22.370  1.00  0.00     0.115 A 
ATOM     16  C   UNL     1       4.445  -0.037 -24.195  1.00  0.00     0.013 A 
ATOM     17  C   UNL     1       4.750  -1.312 -23.709  1.00  0.00     0.047 A 
BRANCH  15  18
ATOM     18  O   UNL     1       5.430  -2.750 -21.875  1.00  0.00    -0.508 OA
ATOM     19  H   UNL     1       5.565  -3.542 -22.493  1.00  0.00     0.293 HD
ENDBRANCH  15  18
ENDBRANCH   1  12
BRANCH  11  20
ATOM     20  C   UNL     1       4.383   7.479 -24.646  1.00  0.00     0.188 C 
ATOM     21  C   UNL     1       3.689   8.169 -23.453  1.00  0.00     0.179 C 
ATOM     22  O   UNL     1       4.677   8.420 -25.666  1.00  0.00    -0.362 OA
ATOM     23  C   UNL     1       4.613   9.279 -22.916  1.00  0.00     0.177 C 
ATOM     24  C   UNL     1       5.638   9.368 -25.227  1.00  0.00     0.176 C 
ATOM     25  C   UNL     1       5.074  10.213 -24.057  1.00  0.00     0.177 C 
BRANCH  21  26
ATOM     26  O   UNL     1       2.459   8.713 -23.867  1.00  0.00    -0.387 OA
ATOM     27  H   UNL     1       1.901   7.958 -24.192  1.00  0.00     0.211 HD
ENDBRANCH  21  26
BRANCH  23  28
ATOM     28  O   UNL     1       3.994   9.995 -21.875  1.00  0.00    -0.387 OA
ATOM     29  H   UNL     1       3.834  10.922 -22.191  1.00  0.00     0.211 HD
ENDBRANCH  23  28
BRANCH  24  30
ATOM     30  C   UNL     1       6.006  10.249 -26.430  1.00  0.00     0.191 C 
BRANCH  30  31
ATOM     31  O   UNL     1       7.355  10.635 -26.375  1.00  0.00    -0.394 OA
ATOM     32  H   UNL     1       7.748  10.209 -25.569  1.00  0.00     0.210 HD
ENDBRANCH  30  31
ENDBRANCH  24  30
BRANCH  25  33
ATOM     33  O   UNL     1       6.067  11.081 -23.573  1.00  0.00    -0.388 OA
ATOM     34  H   UNL     1       6.828  11.031 -24.208  1.00  0.00     0.211 HD
ENDBRANCH  25  33
ENDBRANCH  11  20
BRANCH  10  35
ATOM     35  O   UNL     1       2.162   7.921 -26.495  1.00  0.00    -0.507 OA
ATOM     36  H   UNL     1       2.895   8.612 -26.613  1.00  0.00     0.293 HD
ENDBRANCH  10  35
TORSDOF 9
ENDMDL
MODEL 3
REMARK VINA RESULT:    -7.213      2.545      3.792
REMARK INTER + INTRA:         -10.650
REMARK INTER:                  -9.594
REMARK INTRA:                  -1.056
REMARK UNBOUND:                -0.906
REMARK SMILES O=c1c(-c2ccc(O)cc2)coc2c([C@H]3O[C@@H](CO)[C@H](O)[C@@H](O)[C@H]3O)c(O)ccc12
REMARK SMILES IDX 3 1 11 2 12 3 13 4 30 5 2 6 1 7 29 8 28 9 26 10 14 11 4 12
REMARK SMILES IDX 5 13 6 14 7 15 10 16 9 17 8 18 15 20 24 21 16 22 22 23 17 24
REMARK SMILES IDX 20 25 25 26 23 28 18 30 19 31 21 33 27 35
REMARK H PARENT 8 19 25 27 23 29 19 32 21 34 27 36
REMARK Flexibility Score: inf
ROOT
ATOM      1  C   UNL     1       4.096   0.785 -24.701  1.00  0.00     0.065 A 
ATOM      2  C   UNL     1       4.918   1.837 -24.273  1.00  0.00     0.208 A 
ATOM      3  O   UNL     1       4.538   3.100 -24.414  1.00  0.00    -0.463 OA
ATOM      4  C   UNL     1       3.377   3.456 -24.957  1.00  0.00     0.147 A 
ATOM      5  C   UNL     1       2.479   2.458 -25.407  1.00  0.00     0.066 A 
ATOM      6  C   UNL     1       2.849   1.108 -25.270  1.00  0.00     0.200 A 
ATOM      7  O   UNL     1       2.062   0.192 -25.635  1.00  0.00    -0.288 OA
ATOM      8  C   UNL     1       1.247   2.834 -25.960  1.00  0.00     0.020 A 
ATOM      9  C   UNL     1       0.901   4.180 -26.057  1.00  0.00     0.047 A 
ATOM     10  C   UNL     1       1.780   5.176 -25.613  1.00  0.00     0.125 A 
ATOM     11  C   UNL     1       3.043   4.826 -25.080  1.00  0.00     0.069 A 
ENDROOT
BRANCH   1  12
ATOM     12  C   UNL     1       4.545  -0.620 -24.541  1.00  0.00    -0.011 A 
ATOM     13  C   UNL     1       5.018  -1.345 -25.650  1.00  0.00     0.013 A 
ATOM     14  C   UNL     1       5.433  -2.672 -25.505  1.00  0.00     0.047 A 
ATOM     15  C   UNL     1       5.377  -3.293 -24.254  1.00  0.00     0.115 A 
ATOM     16  C   UNL     1       4.485  -1.254 -23.288  1.00  0.00     0.013 A 
ATOM     17  C   UNL     1       4.900  -2.581 -23.145  1.00  0.00     0.047 A 
BRANCH  15  18
ATOM     18  O   UNL     1       5.795  -4.615 -24.124  1.00  0.00    -0.508 OA
ATOM     19  H   UNL     1       6.774  -4.853 -24.019  1.00  0.00     0.293 HD
ENDBRANCH  15  18
ENDBRANCH   1  12
BRANCH  11  20
ATOM     20  C   UNL     1       4.010   5.887 -24.566  1.00  0.00     0.188 C 
ATOM     21  C   UNL     1       3.667   6.271 -23.112  1.00  0.00     0.179 C 
ATOM     22  O   UNL     1       3.982   7.031 -25.405  1.00  0.00    -0.362 OA
ATOM     23  C   UNL     1       4.680   7.324 -22.625  1.00  0.00     0.177 C 
ATOM     24  C   UNL     1       5.008   7.948 -25.054  1.00  0.00     0.176 C 
ATOM     25  C   UNL     1       4.780   8.498 -23.623  1.00  0.00     0.177 C 
BRANCH  21  26
ATOM     26  O   UNL     1       2.358   6.785 -23.051  1.00  0.00    -0.387 OA
ATOM     27  H   UNL     1       1.738   6.013 -23.132  1.00  0.00     0.211 HD
ENDBRANCH  21  26
BRANCH  23  28
ATOM     28  O   UNL     1       4.366   7.768 -21.327  1.00  0.00    -0.387 OA
ATOM     29  H   UNL     1       5.214   8.005 -20.869  1.00  0.00     0.211 HD
ENDBRANCH  23  28
BRANCH  24  30
ATOM     30  C   UNL     1       5.001   9.075 -26.097  1.00  0.00     0.191 C 
BRANCH  30  31
ATOM     31  O   UNL     1       6.300   9.560 -26.319  1.00  0.00    -0.394 OA
ATOM     32  H   UNL     1       6.687   9.029 -27.063  1.00  0.00     0.210 HD
ENDBRANCH  30  31
ENDBRANCH  24  30
BRANCH  25  33
ATOM     33  O   UNL     1       5.850   9.330 -23.255  1.00  0.00    -0.388 OA
ATOM     34  H   UNL     1       6.075   9.110 -22.314  1.00  0.00     0.211 HD
ENDBRANCH  25  33
ENDBRANCH  11  20
BRANCH  10  35
ATOM     35  O   UNL     1       1.389   6.514 -25.699  1.00  0.00    -0.507 OA
ATOM     36  H   UNL     1       0.538   6.851 -25.262  1.00  0.00     0.293 HD
ENDBRANCH  10  35
TORSDOF 9
ENDMDL
MODEL 4
REMARK VINA RESULT:    -7.155      3.795     10.705
REMARK INTER + INTRA:         -10.570
REMARK INTER:                  -9.932
REMARK INTRA:                  -0.639
REMARK UNBOUND:                -0.906
REMARK SMILES O=c1c(-c2ccc(O)cc2)coc2c([C@H]3O[C@@H](CO)[C@H](O)[C@@H](O)[C@H]3O)c(O)ccc12
REMARK SMILES IDX 3 1 11 2 12 3 13 4 30 5 2 6 1 7 29 8 28 9 26 10 14 11 4 12
REMARK SMILES IDX 5 13 6 14 7 15 10 16 9 17 8 18 15 20 24 21 16 22 22 23 17 24
REMARK SMILES IDX 20 25 25 26 23 28 18 30 19 31 21 33 27 35
REMARK H PARENT 8 19 25 27 23 29 19 32 21 34 27 36
REMARK Flexibility Score: inf
ROOT
ATOM      1  C   UNL     1       4.198   2.996 -23.385  1.00  0.00     0.065 A 
ATOM      2  C   UNL     1       4.439   1.866 -22.590  1.00  0.00     0.208 A 
ATOM      3  O   UNL     1       4.108   0.653 -23.013  1.00  0.00    -0.463 OA
ATOM      4  C   UNL     1       3.538   0.422 -24.193  1.00  0.00     0.147 A 
ATOM      5  C   UNL     1       3.270   1.504 -25.064  1.00  0.00     0.066 A 
ATOM      6  C   UNL     1       3.611   2.804 -24.649  1.00  0.00     0.200 A 
ATOM      7  O   UNL     1       3.410   3.789 -25.412  1.00  0.00    -0.288 OA
ATOM      8  C   UNL     1       2.689   1.257 -26.316  1.00  0.00     0.020 A 
ATOM      9  C   UNL     1       2.387  -0.046 -26.706  1.00  0.00     0.047 A 
ATOM     10  C   UNL     1       2.651  -1.126 -25.853  1.00  0.00     0.125 A 
ATOM     11  C   UNL     1       3.208  -0.901 -24.571  1.00  0.00     0.069 A 
ENDROOT
BRANCH   1  12
ATOM     12  C   UNL     1       4.569   4.345 -22.888  1.00  0.00    -0.011 A 
ATOM     13  C   UNL     1       5.866   4.589 -22.400  1.00  0.00     0.013 A 
ATOM     14  C   UNL     1       6.216   5.855 -21.923  1.00  0.00     0.047 A 
ATOM     15  C   UNL     1       5.277   6.891 -21.921  1.00  0.00     0.115 A 
ATOM     16  C   UNL     1       3.628   5.389 -22.877  1.00  0.00     0.013 A 
ATOM     17  C   UNL     1       3.981   6.654 -22.399  1.00  0.00     0.047 A 
BRANCH  15  18
ATOM     18  O   UNL     1       5.639   8.148 -21.443  1.00  0.00    -0.508 OA
ATOM     19  H   UNL     1       6.198   8.254 -20.605  1.00  0.00     0.293 HD
ENDBRANCH  15  18
ENDBRANCH   1  12
BRANCH  11  20
ATOM     20  C   UNL     1       3.528  -2.058 -23.632  1.00  0.00     0.188 C 
ATOM     21  C   UNL     1       4.837  -2.754 -24.059  1.00  0.00     0.179 C 
ATOM     22  O   UNL     1       2.455  -2.986 -23.603  1.00  0.00    -0.362 OA
ATOM     23  C   UNL     1       5.137  -3.897 -23.071  1.00  0.00     0.177 C 
ATOM     24  C   UNL     1       2.653  -3.966 -22.596  1.00  0.00     0.176 C 
ATOM     25  C   UNL     1       3.909  -4.820 -22.906  1.00  0.00     0.177 C 
BRANCH  21  26
ATOM     26  O   UNL     1       4.704  -3.257 -25.366  1.00  0.00    -0.387 OA
ATOM     27  H   UNL     1       4.229  -2.566 -25.898  1.00  0.00     0.211 HD
ENDBRANCH  21  26
BRANCH  23  28
ATOM     28  O   UNL     1       6.281  -4.617 -23.460  1.00  0.00    -0.387 OA
ATOM     29  H   UNL     1       6.566  -5.180 -22.694  1.00  0.00     0.211 HD
ENDBRANCH  23  28
BRANCH  24  30
ATOM     30  C   UNL     1       1.386  -4.832 -22.534  1.00  0.00     0.191 C 
BRANCH  30  31
ATOM     31  O   UNL     1       1.435  -5.715 -21.443  1.00  0.00    -0.394 OA
ATOM     32  H   UNL     1       1.153  -5.204 -20.641  1.00  0.00     0.210 HD
ENDBRANCH  30  31
ENDBRANCH  24  30
BRANCH  25  33
ATOM     33  O   UNL     1       4.145  -5.722 -21.855  1.00  0.00    -0.388 OA
ATOM     34  H   UNL     1       4.923  -5.374 -21.346  1.00  0.00     0.211 HD
ENDBRANCH  25  33
ENDBRANCH  11  20
BRANCH  10  35
ATOM     35  O   UNL     1       2.363  -2.420 -26.288  1.00  0.00    -0.507 OA
ATOM     36  H   UNL     1       1.569  -2.940 -25.931  1.00  0.00     0.293 HD
ENDBRANCH  10  35
TORSDOF 9
ENDMDL
MODEL 5
REMARK VINA RESULT:    -7.137      2.785      9.855
REMARK INTER + INTRA:         -10.546
REMARK INTER:                  -9.474
REMARK INTRA:                  -1.072
REMARK UNBOUND:                -0.906
REMARK SMILES O=c1c(-c2ccc(O)cc2)coc2c([C@H]3O[C@@H](CO)[C@H](O)[C@@H](O)[C@H]3O)c(O)ccc12
REMARK SMILES IDX 3 1 11 2 12 3 13 4 30 5 2 6 1 7 29 8 28 9 26 10 14 11 4 12
REMARK SMILES IDX 5 13 6 14 7 15 10 16 9 17 8 18 15 20 24 21 16 22 22 23 17 24
REMARK SMILES IDX 20 25 25 26 23 28 18 30 19 31 21 33 27 35
REMARK H PARENT 8 19 25 27 23 29 19 32 21 34 27 36
REMARK Flexibility Score: inf
ROOT
ATOM      1  C   UNL     1       3.347   4.550 -25.162  1.00  0.00     0.065 A 
ATOM      2  C   UNL     1       2.851   3.706 -24.158  1.00  0.00     0.208 A 
ATOM      3  O   UNL     1       3.214   2.431 -24.099  1.00  0.00    -0.463 OA
ATOM      4  C   UNL     1       4.055   1.872 -24.964  1.00  0.00     0.147 A 
ATOM      5  C   UNL     1       4.613   2.653 -26.004  1.00  0.00     0.066 A 
ATOM      6  C   UNL     1       4.252   4.010 -26.094  1.00  0.00     0.200 A 
ATOM      7  O   UNL     1       4.751   4.743 -26.992  1.00  0.00    -0.288 OA
ATOM      8  C   UNL     1       5.516   2.067 -26.902  1.00  0.00     0.020 A 
ATOM      9  C   UNL     1       5.871   0.727 -26.768  1.00  0.00     0.047 A 
ATOM     10  C   UNL     1       5.327  -0.057 -25.741  1.00  0.00     0.125 A 
ATOM     11  C   UNL     1       4.390   0.502 -24.840  1.00  0.00     0.069 A 
ENDROOT
BRANCH   1  12
ATOM     12  C   UNL     1       2.920   5.971 -25.214  1.00  0.00    -0.011 A 
ATOM     13  C   UNL     1       3.645   6.955 -24.518  1.00  0.00     0.013 A 
ATOM     14  C   UNL     1       3.240   8.292 -24.557  1.00  0.00     0.047 A 
ATOM     15  C   UNL     1       2.107   8.664 -25.286  1.00  0.00     0.115 A 
ATOM     16  C   UNL     1       1.777   6.351 -25.939  1.00  0.00     0.013 A 
ATOM     17  C   UNL     1       1.375   7.689 -25.977  1.00  0.00     0.047 A 
BRANCH  15  18
ATOM     18  O   UNL     1       1.716  10.000 -25.317  1.00  0.00    -0.508 OA
ATOM     19  H   UNL     1       2.382  10.750 -25.173  1.00  0.00     0.293 HD
ENDBRANCH  15  18
ENDBRANCH   1  12
BRANCH  11  20
ATOM     20  C   UNL     1       3.801  -0.319 -23.698  1.00  0.00     0.188 C 
ATOM     21  C   UNL     1       4.630  -0.127 -22.412  1.00  0.00     0.179 C 
ATOM     22  O   UNL     1       3.740  -1.691 -24.054  1.00  0.00    -0.362 OA
ATOM     23  C   UNL     1       3.987  -0.951 -21.280  1.00  0.00     0.177 C 
ATOM     24  C   UNL     1       3.023  -2.440 -23.084  1.00  0.00     0.176 C 
ATOM     25  C   UNL     1       3.762  -2.414 -21.721  1.00  0.00     0.177 C 
BRANCH  21  26
ATOM     26  O   UNL     1       5.955  -0.546 -22.632  1.00  0.00    -0.387 OA
ATOM     27  H   UNL     1       6.423  -0.507 -21.757  1.00  0.00     0.211 HD
ENDBRANCH  21  26
BRANCH  23  28
ATOM     28  O   UNL     1       4.750  -0.875 -20.100  1.00  0.00    -0.387 OA
ATOM     29  H   UNL     1       4.912   0.084 -19.900  1.00  0.00     0.211 HD
ENDBRANCH  23  28
BRANCH  24  30
ATOM     30  C   UNL     1       2.877  -3.872 -23.617  1.00  0.00     0.191 C 
BRANCH  30  31
ATOM     31  O   UNL     1       3.833  -4.723 -23.039  1.00  0.00    -0.394 OA
ATOM     32  H   UNL     1       4.292  -4.205 -22.327  1.00  0.00     0.210 HD
ENDBRANCH  30  31
ENDBRANCH  24  30
BRANCH  25  33
ATOM     33  O   UNL     1       2.996  -3.079 -20.750  1.00  0.00    -0.388 OA
ATOM     34  H   UNL     1       2.186  -2.527 -20.594  1.00  0.00     0.211 HD
ENDBRANCH  25  33
ENDBRANCH  11  20
BRANCH  10  35
ATOM     35  O   UNL     1       5.728  -1.388 -25.618  1.00  0.00    -0.507 OA
ATOM     36  H   UNL     1       5.433  -2.098 -26.278  1.00  0.00     0.293 HD
ENDBRANCH  10  35
TORSDOF 9
ENDMDL
MODEL 6
REMARK VINA RESULT:    -7.133      3.136      9.599
REMARK INTER + INTRA:         -10.541
REMARK INTER:                  -9.734
REMARK INTRA:                  -0.807
REMARK UNBOUND:                -0.906
REMARK SMILES O=c1c(-c2ccc(O)cc2)coc2c([C@H]3O[C@@H](CO)[C@H](O)[C@@H](O)[C@H]3O)c(O)ccc12
REMARK SMILES IDX 3 1 11 2 12 3 13 4 30 5 2 6 1 7 29 8 28 9 26 10 14 11 4 12
REMARK SMILES IDX 5 13 6 14 7 15 10 16 9 17 8 18 15 20 24 21 16 22 22 23 17 24
REMARK SMILES IDX 20 25 25 26 23 28 18 30 19 31 21 33 27 35
REMARK H PARENT 8 19 25 27 23 29 19 32 21 34 27 36
REMARK Flexibility Score: inf
ROOT
ATOM      1  C   UNL     1       2.949   5.291 -24.878  1.00  0.00     0.065 A 
ATOM      2  C   UNL     1       2.687   4.164 -25.669  1.00  0.00     0.208 A 
ATOM      3  O   UNL     1       3.234   2.989 -25.384  1.00  0.00    -0.463 OA
ATOM      4  C   UNL     1       4.051   2.797 -24.352  1.00  0.00     0.147 A 
ATOM      5  C   UNL     1       4.361   3.879 -23.494  1.00  0.00     0.066 A 
ATOM      6  C   UNL     1       3.795   5.137 -23.765  1.00  0.00     0.200 A 
ATOM      7  O   UNL     1       4.029   6.117 -23.004  1.00  0.00    -0.288 OA
ATOM      8  C   UNL     1       5.205   3.669 -22.393  1.00  0.00     0.020 A 
ATOM      9  C   UNL     1       5.728   2.403 -22.139  1.00  0.00     0.047 A 
ATOM     10  C   UNL     1       5.426   1.324 -22.980  1.00  0.00     0.125 A 
ATOM     11  C   UNL     1       4.602   1.515 -24.115  1.00  0.00     0.069 A 
ENDROOT
BRANCH   1  12
ATOM     12  C   UNL     1       2.332   6.597 -25.221  1.00  0.00    -0.011 A 
ATOM     13  C   UNL     1       1.210   7.060 -24.510  1.00  0.00     0.013 A 
ATOM     14  C   UNL     1       0.621   8.285 -24.837  1.00  0.00     0.047 A 
ATOM     15  C   UNL     1       1.140   9.060 -25.879  1.00  0.00     0.115 A 
ATOM     16  C   UNL     1       2.844   7.378 -26.272  1.00  0.00     0.013 A 
ATOM     17  C   UNL     1       2.252   8.603 -26.597  1.00  0.00     0.047 A 
BRANCH  15  18
ATOM     18  O   UNL     1       0.543  10.279 -26.192  1.00  0.00    -0.508 OA
ATOM     19  H   UNL     1      -0.360  10.324 -26.649  1.00  0.00     0.293 HD
ENDBRANCH  15  18
ENDBRANCH   1  12
BRANCH  11  20
ATOM     20  C   UNL     1       4.236   0.355 -25.034  1.00  0.00     0.188 C 
ATOM     21  C   UNL     1       3.107  -0.492 -24.410  1.00  0.00     0.179 C 
ATOM     22  O   UNL     1       5.375  -0.448 -25.297  1.00  0.00    -0.362 OA
ATOM     23  C   UNL     1       2.752  -1.636 -25.380  1.00  0.00     0.177 C 
ATOM     24  C   UNL     1       5.099  -1.418 -26.297  1.00  0.00     0.176 C 
ATOM     25  C   UNL     1       4.017  -2.413 -25.805  1.00  0.00     0.177 C 
BRANCH  21  26
ATOM     26  O   UNL     1       3.529  -1.012 -23.173  1.00  0.00    -0.387 OA
ATOM     27  H   UNL     1       2.974  -0.582 -22.471  1.00  0.00     0.211 HD
ENDBRANCH  21  26
BRANCH  23  28
ATOM     28  O   UNL     1       1.779  -2.488 -24.825  1.00  0.00    -0.387 OA
ATOM     29  H   UNL     1       1.015  -2.536 -25.457  1.00  0.00     0.211 HD
ENDBRANCH  23  28
BRANCH  24  30
ATOM     30  C   UNL     1       6.416  -2.137 -26.624  1.00  0.00     0.191 C 
BRANCH  30  31
ATOM     31  O   UNL     1       7.490  -1.233 -26.641  1.00  0.00    -0.394 OA
ATOM     32  H   UNL     1       7.506  -0.782 -25.757  1.00  0.00     0.210 HD
ENDBRANCH  30  31
ENDBRANCH  24  30
BRANCH  25  33
ATOM     33  O   UNL     1       3.687  -3.307 -26.836  1.00  0.00    -0.388 OA
ATOM     34  H   UNL     1       2.780  -3.656 -26.635  1.00  0.00     0.211 HD
ENDBRANCH  25  33
ENDBRANCH  11  20
BRANCH  10  35
ATOM     35  O   UNL     1       5.943   0.063 -22.679  1.00  0.00    -0.507 OA
ATOM     36  H   UNL     1       6.434  -0.120 -21.811  1.00  0.00     0.293 HD
ENDBRANCH  10  35
TORSDOF 9
ENDMDL
MODEL 7
REMARK VINA RESULT:    -7.023      3.317      9.661
REMARK INTER + INTRA:         -10.392
REMARK INTER:                  -9.539
REMARK INTRA:                  -0.854
REMARK UNBOUND:                -0.906
REMARK SMILES O=c1c(-c2ccc(O)cc2)coc2c([C@H]3O[C@@H](CO)[C@H](O)[C@@H](O)[C@H]3O)c(O)ccc12
REMARK SMILES IDX 3 1 11 2 12 3 13 4 30 5 2 6 1 7 29 8 28 9 26 10 14 11 4 12
REMARK SMILES IDX 5 13 6 14 7 15 10 16 9 17 8 18 15 20 24 21 16 22 22 23 17 24
REMARK SMILES IDX 20 25 25 26 23 28 18 30 19 31 21 33 27 35
REMARK H PARENT 8 19 25 27 23 29 19 32 21 34 27 36
REMARK Flexibility Score: inf
ROOT
ATOM      1  C   UNL     1       3.563   4.720 -24.014  1.00  0.00     0.065 A 
ATOM      2  C   UNL     1       4.408   3.646 -23.702  1.00  0.00     0.208 A 
ATOM      3  O   UNL     1       4.120   2.414 -24.102  1.00  0.00    -0.463 OA
ATOM      4  C   UNL     1       3.036   2.112 -24.811  1.00  0.00     0.147 A 
ATOM      5  C   UNL     1       2.133   3.138 -25.180  1.00  0.00     0.066 A 
ATOM      6  C   UNL     1       2.410   4.456 -24.776  1.00  0.00     0.200 A 
ATOM      7  O   UNL     1       1.641   5.399 -25.111  1.00  0.00    -0.288 OA
ATOM      8  C   UNL     1       1.002   2.822 -25.946  1.00  0.00     0.020 A 
ATOM      9  C   UNL     1       0.772   1.509 -26.350  1.00  0.00     0.047 A 
ATOM     10  C   UNL     1       1.659   0.485 -25.994  1.00  0.00     0.125 A 
ATOM     11  C   UNL     1       2.792   0.772 -25.195  1.00  0.00     0.069 A 
ENDROOT
BRANCH   1  12
ATOM     12  C   UNL     1       3.902   6.089 -23.550  1.00  0.00    -0.011 A 
ATOM     13  C   UNL     1       4.095   7.126 -24.480  1.00  0.00     0.013 A 
ATOM     14  C   UNL     1       4.423   8.414 -24.046  1.00  0.00     0.047 A 
ATOM     15  C   UNL     1       4.568   8.681 -22.682  1.00  0.00     0.115 A 
ATOM     16  C   UNL     1       4.056   6.364 -22.179  1.00  0.00     0.013 A 
ATOM     17  C   UNL     1       4.384   7.652 -21.749  1.00  0.00     0.047 A 
BRANCH  15  18
ATOM     18  O   UNL     1       4.894   9.970 -22.265  1.00  0.00    -0.508 OA
ATOM     19  H   UNL     1       5.522  10.131 -21.486  1.00  0.00     0.293 HD
ENDBRANCH  15  18
ENDBRANCH   1  12
BRANCH  11  20
ATOM     20  C   UNL     1       3.789  -0.316 -24.812  1.00  0.00     0.188 C 
ATOM     21  C   UNL     1       4.857  -0.482 -25.912  1.00  0.00     0.179 C 
ATOM     22  O   UNL     1       3.117  -1.544 -24.578  1.00  0.00    -0.362 OA
ATOM     23  C   UNL     1       5.855  -1.570 -25.475  1.00  0.00     0.177 C 
ATOM     24  C   UNL     1       4.000  -2.516 -24.039  1.00  0.00     0.176 C 
ATOM     25  C   UNL     1       5.117  -2.861 -25.056  1.00  0.00     0.177 C 
BRANCH  21  26
ATOM     26  O   UNL     1       4.240  -0.841 -27.125  1.00  0.00    -0.387 OA
ATOM     27  H   UNL     1       4.892  -0.655 -27.850  1.00  0.00     0.211 HD
ENDBRANCH  21  26
BRANCH  23  28
ATOM     28  O   UNL     1       6.809  -1.818 -26.479  1.00  0.00    -0.387 OA
ATOM     29  H   UNL     1       6.858  -2.799 -26.622  1.00  0.00     0.211 HD
ENDBRANCH  23  28
BRANCH  24  30
ATOM     30  C   UNL     1       3.165  -3.754 -23.679  1.00  0.00     0.191 C 
BRANCH  30  31
ATOM     31  O   UNL     1       3.954  -4.721 -23.037  1.00  0.00    -0.394 OA
ATOM     32  H   UNL     1       4.796  -4.274 -22.760  1.00  0.00     0.210 HD
ENDBRANCH  30  31
ENDBRANCH  24  30
BRANCH  25  33
ATOM     33  O   UNL     1       6.034  -3.752 -24.475  1.00  0.00    -0.388 OA
ATOM     34  H   UNL     1       5.810  -3.806 -23.509  1.00  0.00     0.211 HD
ENDBRANCH  25  33
ENDBRANCH  11  20
BRANCH  10  35
ATOM     35  O   UNL     1       1.413  -0.813 -26.442  1.00  0.00    -0.507 OA
ATOM     36  H   UNL     1       0.586  -1.046 -26.978  1.00  0.00     0.293 HD
ENDBRANCH  10  35
TORSDOF 9
ENDMDL
MODEL 8
REMARK VINA RESULT:    -7.016      2.201      2.704
REMARK INTER + INTRA:         -10.383
REMARK INTER:                 -10.161
REMARK INTRA:                  -0.222
REMARK UNBOUND:                -0.906
REMARK SMILES O=c1c(-c2ccc(O)cc2)coc2c([C@H]3O[C@@H](CO)[C@H](O)[C@@H](O)[C@H]3O)c(O)ccc12
REMARK SMILES IDX 3 1 11 2 12 3 13 4 30 5 2 6 1 7 29 8 28 9 26 10 14 11 4 12
REMARK SMILES IDX 5 13 6 14 7 15 10 16 9 17 8 18 15 20 24 21 16 22 22 23 17 24
REMARK SMILES IDX 20 25 25 26 23 28 18 30 19 31 21 33 27 35
REMARK H PARENT 8 19 25 27 23 29 19 32 21 34 27 36
REMARK Flexibility Score: inf
ROOT
ATOM      1  C   UNL     1       3.180   4.081 -24.711  1.00  0.00     0.065 A 
ATOM      2  C   UNL     1       4.378   4.802 -24.625  1.00  0.00     0.208 A 
ATOM      3  O   UNL     1       4.375   6.129 -24.589  1.00  0.00    -0.463 OA
ATOM      4  C   UNL     1       3.261   6.856 -24.628  1.00  0.00     0.147 A 
ATOM      5  C   UNL     1       2.005   6.208 -24.703  1.00  0.00     0.066 A 
ATOM      6  C   UNL     1       1.972   4.803 -24.740  1.00  0.00     0.200 A 
ATOM      7  O   UNL     1       0.868   4.193 -24.779  1.00  0.00    -0.288 OA
ATOM      8  C   UNL     1       0.831   6.976 -24.722  1.00  0.00     0.020 A 
ATOM      9  C   UNL     1       0.899   8.365 -24.658  1.00  0.00     0.047 A 
ATOM     10  C   UNL     1       2.137   9.018 -24.581  1.00  0.00     0.125 A 
ATOM     11  C   UNL     1       3.338   8.268 -24.591  1.00  0.00     0.069 A 
ENDROOT
BRANCH   1  12
ATOM     12  C   UNL     1       3.209   2.597 -24.759  1.00  0.00    -0.011 A 
ATOM     13  C   UNL     1       3.942   1.871 -23.804  1.00  0.00     0.013 A 
ATOM     14  C   UNL     1       3.979   0.474 -23.852  1.00  0.00     0.047 A 
ATOM     15  C   UNL     1       3.291  -0.214 -24.855  1.00  0.00     0.115 A 
ATOM     16  C   UNL     1       2.525   1.899 -25.769  1.00  0.00     0.013 A 
ATOM     17  C   UNL     1       2.564   0.502 -25.815  1.00  0.00     0.047 A 
BRANCH  15  18
ATOM     18  O   UNL     1       3.336  -1.605 -24.891  1.00  0.00    -0.508 OA
ATOM     19  H   UNL     1       4.163  -2.100 -25.202  1.00  0.00     0.293 HD
ENDBRANCH  15  18
ENDBRANCH   1  12
BRANCH  11  20
ATOM     20  C   UNL     1       4.698   8.948 -24.484  1.00  0.00     0.188 C 
ATOM     21  C   UNL     1       5.402   8.543 -23.172  1.00  0.00     0.179 C 
ATOM     22  O   UNL     1       4.555  10.358 -24.559  1.00  0.00    -0.362 OA
ATOM     23  C   UNL     1       6.780   9.230 -23.116  1.00  0.00     0.177 C 
ATOM     24  C   UNL     1       5.820  10.996 -24.651  1.00  0.00     0.176 C 
ATOM     25  C   UNL     1       6.650  10.749 -23.366  1.00  0.00     0.177 C 
BRANCH  21  26
ATOM     26  O   UNL     1       4.616   8.928 -22.070  1.00  0.00    -0.387 OA
ATOM     27  H   UNL     1       4.578   9.921 -22.072  1.00  0.00     0.211 HD
ENDBRANCH  21  26
BRANCH  23  28
ATOM     28  O   UNL     1       7.434   8.956 -21.901  1.00  0.00    -0.387 OA
ATOM     29  H   UNL     1       6.902   8.277 -21.410  1.00  0.00     0.211 HD
ENDBRANCH  23  28
BRANCH  24  30
ATOM     30  C   UNL     1       5.570  12.494 -24.879  1.00  0.00     0.191 C 
BRANCH  30  31
ATOM     31  O   UNL     1       5.942  13.242 -23.750  1.00  0.00    -0.394 OA
ATOM     32  H   UNL     1       6.360  14.080 -24.079  1.00  0.00     0.210 HD
ENDBRANCH  30  31
ENDBRANCH  24  30
BRANCH  25  33
ATOM     33  O   UNL     1       7.931  11.306 -23.510  1.00  0.00    -0.388 OA
ATOM     34  H   UNL     1       7.842  12.076 -24.131  1.00  0.00     0.211 HD
ENDBRANCH  25  33
ENDBRANCH  11  20
BRANCH  10  35
ATOM     35  O   UNL     1       2.166  10.410 -24.488  1.00  0.00    -0.507 OA
ATOM     36  H   UNL     1       3.007  10.941 -24.683  1.00  0.00     0.293 HD
ENDBRANCH  10  35
TORSDOF 9
ENDMDL
MODEL 9
REMARK VINA RESULT:    -6.997      2.776      9.159
REMARK INTER + INTRA:         -10.357
REMARK INTER:                  -9.333
REMARK INTRA:                  -1.024
REMARK UNBOUND:                -0.906
REMARK SMILES O=c1c(-c2ccc(O)cc2)coc2c([C@H]3O[C@@H](CO)[C@H](O)[C@@H](O)[C@H]3O)c(O)ccc12
REMARK SMILES IDX 3 1 11 2 12 3 13 4 30 5 2 6 1 7 29 8 28 9 26 10 14 11 4 12
REMARK SMILES IDX 5 13 6 14 7 15 10 16 9 17 8 18 15 20 24 21 16 22 22 23 17 24
REMARK SMILES IDX 20 25 25 26 23 28 18 30 19 31 21 33 27 35
REMARK H PARENT 8 19 25 27 23 29 19 32 21 34 27 36
REMARK Flexibility Score: inf
ROOT
ATOM      1  C   UNL     1       3.826   6.040 -24.355  1.00  0.00     0.065 A 
ATOM      2  C   UNL     1       4.598   4.930 -23.985  1.00  0.00     0.208 A 
ATOM      3  O   UNL     1       4.205   3.697 -24.281  1.00  0.00    -0.463 OA
ATOM      4  C   UNL     1       3.079   3.429 -24.935  1.00  0.00     0.147 A 
ATOM      5  C   UNL     1       2.244   4.491 -25.356  1.00  0.00     0.066 A 
ATOM      6  C   UNL     1       2.632   5.810 -25.063  1.00  0.00     0.200 A 
ATOM      7  O   UNL     1       1.925   6.783 -25.448  1.00  0.00    -0.288 OA
ATOM      8  C   UNL     1       1.067   4.207 -26.065  1.00  0.00     0.020 A 
ATOM      9  C   UNL     1       0.726   2.890 -26.361  1.00  0.00     0.047 A 
ATOM     10  C   UNL     1       1.545   1.830 -25.951  1.00  0.00     0.125 A 
ATOM     11  C   UNL     1       2.722   2.087 -25.208  1.00  0.00     0.069 A 
ENDROOT
BRANCH   1  12
ATOM     12  C   UNL     1       4.282   7.409 -24.007  1.00  0.00    -0.011 A 
ATOM     13  C   UNL     1       4.745   8.280 -25.010  1.00  0.00     0.013 A 
ATOM     14  C   UNL     1       5.183   9.567 -24.684  1.00  0.00     0.047 A 
ATOM     15  C   UNL     1       5.170   9.998 -23.354  1.00  0.00     0.115 A 
ATOM     16  C   UNL     1       4.278   7.848 -22.671  1.00  0.00     0.013 A 
ATOM     17  C   UNL     1       4.717   9.135 -22.348  1.00  0.00     0.047 A 
BRANCH  15  18
ATOM     18  O   UNL     1       5.609  11.283 -23.044  1.00  0.00    -0.508 OA
ATOM     19  H   UNL     1       5.100  12.104 -23.349  1.00  0.00     0.293 HD
ENDBRANCH  15  18
ENDBRANCH   1  12
BRANCH  11  20
ATOM     20  C   UNL     1       3.647   0.956 -24.770  1.00  0.00     0.188 C 
ATOM     21  C   UNL     1       4.672   0.637 -25.877  1.00  0.00     0.179 C 
ATOM     22  O   UNL     1       2.894  -0.200 -24.439  1.00  0.00    -0.362 OA
ATOM     23  C   UNL     1       5.600  -0.490 -25.385  1.00  0.00     0.177 C 
ATOM     24  C   UNL     1       3.717  -1.196 -23.850  1.00  0.00     0.176 C 
ATOM     25  C   UNL     1       4.781  -1.691 -24.863  1.00  0.00     0.177 C 
BRANCH  21  26
ATOM     26  O   UNL     1       4.001   0.243 -27.049  1.00  0.00    -0.387 OA
ATOM     27  H   UNL     1       3.921   1.049 -27.624  1.00  0.00     0.211 HD
ENDBRANCH  21  26
BRANCH  23  28
ATOM     28  O   UNL     1       6.508  -0.875 -26.388  1.00  0.00    -0.387 OA
ATOM     29  H   UNL     1       6.034  -1.481 -27.016  1.00  0.00     0.211 HD
ENDBRANCH  23  28
BRANCH  24  30
ATOM     30  C   UNL     1       2.804  -2.341 -23.389  1.00  0.00     0.191 C 
BRANCH  30  31
ATOM     31  O   UNL     1       2.831  -3.404 -24.306  1.00  0.00    -0.394 OA
ATOM     32  H   UNL     1       3.759  -3.758 -24.315  1.00  0.00     0.210 HD
ENDBRANCH  30  31
ENDBRANCH  24  30
BRANCH  25  33
ATOM     33  O   UNL     1       5.645  -2.606 -24.239  1.00  0.00    -0.388 OA
ATOM     34  H   UNL     1       5.183  -3.485 -24.241  1.00  0.00     0.211 HD
ENDBRANCH  25  33
ENDBRANCH  11  20
BRANCH  10  35
ATOM     35  O   UNL     1       1.188   0.524 -26.291  1.00  0.00    -0.507 OA
ATOM     36  H   UNL     1       1.106  -0.206 -25.593  1.00  0.00     0.293 HD
ENDBRANCH  10  35
TORSDOF 9
ENDMDL
