MODEL 1
REMARK VINA RESULT:    -3.741      0.000      0.000
REMARK INTER + INTRA:          -4.340
REMARK INTER:                  -4.288
REMARK INTRA:                  -0.052
REMARK UNBOUND:                -0.052
REMARK SMILES O=C([O-])c1cc(O)c(O)c(O)c1
REMARK SMILES IDX 4 1 5 2 12 3 6 4 10 5 8 6 2 7 1 8 3 9 7 10 11 12 9 14
REMARK H PARENT 7 11 11 13 9 15
REMARK Flexibility Score: inf
ROOT
ATOM      1  C   UNL     1       2.244   5.369  -3.241  1.00  0.00     0.005 A 
ATOM      2  C   UNL     1       2.663   4.847  -2.004  1.00  0.00     0.060 A 
ATOM      3  C   UNL     1       1.180   6.285  -3.269  1.00  0.00     0.060 A 
ATOM      4  C   UNL     1       2.028   5.234  -0.816  1.00  0.00     0.162 A 
ATOM      5  C   UNL     1       0.541   6.675  -2.083  1.00  0.00     0.162 A 
ATOM      6  C   UNL     1       0.967   6.147  -0.852  1.00  0.00     0.200 A 
ENDROOT
BRANCH   1   7
ATOM      7  C   UNL     1       2.919   4.956  -4.492  1.00  0.00     0.072 C 
ATOM      8  O   UNL     1       2.823   5.659  -5.533  1.00  0.00    -0.545 OA
ATOM      9  O   UNL     1       3.670   3.787  -4.535  1.00  0.00    -0.545 OA
ENDBRANCH   1   7
BRANCH   4  10
ATOM     10  O   UNL     1       2.448   4.713   0.407  1.00  0.00    -0.504 OA
ATOM     11  H   UNL     1       1.795   4.289   1.055  1.00  0.00     0.293 HD
ENDBRANCH   4  10
BRANCH   5  12
ATOM     12  O   UNL     1      -0.515   7.585  -2.123  1.00  0.00    -0.504 OA
ATOM     13  H   UNL     1      -1.475   7.291  -1.989  1.00  0.00     0.293 HD
ENDBRANCH   5  12
BRANCH   6  14
ATOM     14  O   UNL     1       0.348   6.520   0.341  1.00  0.00    -0.502 OA
ATOM     15  H   UNL     1      -0.215   5.873   0.881  1.00  0.00     0.293 HD
ENDBRANCH   6  14
TORSDOF 4
ENDMDL
MODEL 2
REMARK VINA RESULT:    -3.730      0.045      2.422
REMARK INTER + INTRA:          -4.327
REMARK INTER:                  -4.276
REMARK INTRA:                  -0.051
REMARK UNBOUND:                -0.052
REMARK SMILES O=C([O-])c1cc(O)c(O)c(O)c1
REMARK SMILES IDX 4 1 5 2 12 3 6 4 10 5 8 6 2 7 1 8 3 9 7 10 11 12 9 14
REMARK H PARENT 7 11 11 13 9 15
REMARK Flexibility Score: inf
ROOT
ATOM      1  C   UNL     1       2.250   5.378  -3.257  1.00  0.00     0.005 A 
ATOM      2  C   UNL     1       1.185   6.296  -3.282  1.00  0.00     0.060 A 
ATOM      3  C   UNL     1       2.661   4.845  -2.023  1.00  0.00     0.060 A 
ATOM      4  C   UNL     1       0.542   6.675  -2.096  1.00  0.00     0.162 A 
ATOM      5  C   UNL     1       2.022   5.221  -0.833  1.00  0.00     0.162 A 
ATOM      6  C   UNL     1       0.959   6.140  -0.871  1.00  0.00     0.200 A 
ENDROOT
BRANCH   1   7
ATOM      7  C   UNL     1       2.924   4.982  -4.513  1.00  0.00     0.072 C 
ATOM      8  O   UNL     1       2.885   5.732  -5.525  1.00  0.00    -0.545 OA
ATOM      9  O   UNL     1       3.613   3.777  -4.594  1.00  0.00    -0.545 OA
ENDBRANCH   1   7
BRANCH   4  10
ATOM     10  O   UNL     1      -0.513   7.585  -2.127  1.00  0.00    -0.504 OA
ATOM     11  H   UNL     1      -1.476   7.279  -2.192  1.00  0.00     0.293 HD
ENDBRANCH   4  10
BRANCH   5  12
ATOM     12  O   UNL     1       2.439   4.686   0.384  1.00  0.00    -0.504 OA
ATOM     13  H   UNL     1       2.937   5.244   1.068  1.00  0.00     0.293 HD
ENDBRANCH   5  12
BRANCH   6  14
ATOM     14  O   UNL     1       0.307   6.529   0.300  1.00  0.00    -0.502 OA
ATOM     15  H   UNL     1      -0.131   7.438   0.396  1.00  0.00     0.293 HD
ENDBRANCH   6  14
TORSDOF 4
ENDMDL
MODEL 3
REMARK VINA RESULT:    -3.690     11.628     12.185
REMARK INTER + INTRA:          -4.281
REMARK INTER:                  -4.228
REMARK INTRA:                  -0.053
REMARK UNBOUND:                -0.052
REMARK SMILES O=C([O-])c1cc(O)c(O)c(O)c1
REMARK SMILES IDX 4 1 5 2 12 3 6 4 10 5 8 6 2 7 1 8 3 9 7 10 11 12 9 14
REMARK H PARENT 7 11 11 13 9 15
REMARK Flexibility Score: inf
ROOT
ATOM      1  C   UNL     1      -6.653  -1.171  -3.644  1.00  0.00     0.005 A 
ATOM      2  C   UNL     1      -5.763  -1.846  -4.499  1.00  0.00     0.060 A 
ATOM      3  C   UNL     1      -7.513  -1.923  -2.826  1.00  0.00     0.060 A 
ATOM      4  C   UNL     1      -5.733  -3.246  -4.535  1.00  0.00     0.162 A 
ATOM      5  C   UNL     1      -7.487  -3.324  -2.859  1.00  0.00     0.162 A 
ATOM      6  C   UNL     1      -6.594  -3.988  -3.717  1.00  0.00     0.200 A 
ENDROOT
BRANCH   1   7
ATOM      7  C   UNL     1      -6.679   0.308  -3.611  1.00  0.00     0.072 C 
ATOM      8  O   UNL     1      -5.887   0.979  -4.325  1.00  0.00    -0.545 OA
ATOM      9  O   UNL     1      -7.579   0.978  -2.790  1.00  0.00    -0.545 OA
ENDBRANCH   1   7
BRANCH   4  10
ATOM     10  O   UNL     1      -4.849  -3.909  -5.385  1.00  0.00    -0.504 OA
ATOM     11  H   UNL     1      -4.473  -4.821  -5.153  1.00  0.00     0.293 HD
ENDBRANCH   4  10
BRANCH   5  12
ATOM     12  O   UNL     1      -8.346  -4.059  -2.042  1.00  0.00    -0.504 OA
ATOM     13  H   UNL     1      -8.788  -3.648  -1.228  1.00  0.00     0.293 HD
ENDBRANCH   5  12
BRANCH   6  14
ATOM     14  O   UNL     1      -6.551  -5.381  -3.768  1.00  0.00    -0.502 OA
ATOM     15  H   UNL     1      -6.056  -5.879  -4.499  1.00  0.00     0.293 HD
ENDBRANCH   6  14
TORSDOF 4
ENDMDL
MODEL 4
REMARK VINA RESULT:    -3.673     11.583     12.158
REMARK INTER + INTRA:          -4.261
REMARK INTER:                  -4.208
REMARK INTRA:                  -0.053
REMARK UNBOUND:                -0.052
REMARK SMILES O=C([O-])c1cc(O)c(O)c(O)c1
REMARK SMILES IDX 4 1 5 2 12 3 6 4 10 5 8 6 2 7 1 8 3 9 7 10 11 12 9 14
REMARK H PARENT 7 11 11 13 9 15
REMARK Flexibility Score: inf
ROOT
ATOM      1  C   UNL     1      -6.656  -1.108  -3.653  1.00  0.00     0.005 A 
ATOM      2  C   UNL     1      -7.517  -1.858  -2.833  1.00  0.00     0.060 A 
ATOM      3  C   UNL     1      -5.757  -1.785  -4.495  1.00  0.00     0.060 A 
ATOM      4  C   UNL     1      -7.479  -3.259  -2.852  1.00  0.00     0.162 A 
ATOM      5  C   UNL     1      -5.715  -3.186  -4.518  1.00  0.00     0.162 A 
ATOM      6  C   UNL     1      -6.579  -3.925  -3.692  1.00  0.00     0.200 A 
ENDROOT
BRANCH   1   7
ATOM      7  C   UNL     1      -6.701   0.371  -3.628  1.00  0.00     0.072 C 
ATOM      8  O   UNL     1      -5.924   1.047  -4.352  1.00  0.00    -0.545 OA
ATOM      9  O   UNL     1      -7.605   1.034  -2.806  1.00  0.00    -0.545 OA
ENDBRANCH   1   7
BRANCH   4  10
ATOM     10  O   UNL     1      -8.335  -3.997  -2.035  1.00  0.00    -0.504 OA
ATOM     11  H   UNL     1      -8.164  -4.975  -1.834  1.00  0.00     0.293 HD
ENDBRANCH   4  10
BRANCH   5  12
ATOM     12  O   UNL     1      -4.818  -3.845  -5.357  1.00  0.00    -0.504 OA
ATOM     13  H   UNL     1      -4.015  -3.372  -5.754  1.00  0.00     0.293 HD
ENDBRANCH   5  12
BRANCH   6  14
ATOM     14  O   UNL     1      -6.556  -5.320  -3.698  1.00  0.00    -0.502 OA
ATOM     15  H   UNL     1      -6.435  -5.854  -4.550  1.00  0.00     0.293 HD
ENDBRANCH   6  14
TORSDOF 4
ENDMDL
MODEL 5
REMARK VINA RESULT:    -3.559      9.532     10.921
REMARK INTER + INTRA:          -4.131
REMARK INTER:                  -4.078
REMARK INTRA:                  -0.053
REMARK UNBOUND:                -0.052
REMARK SMILES O=C([O-])c1cc(O)c(O)c(O)c1
REMARK SMILES IDX 4 1 5 2 12 3 6 4 10 5 8 6 2 7 1 8 3 9 7 10 11 12 9 14
REMARK H PARENT 7 11 11 13 9 15
REMARK Flexibility Score: inf
ROOT
ATOM      1  C   UNL     1       5.268  -5.332  -4.620  1.00  0.00     0.005 A 
ATOM      2  C   UNL     1       5.863  -4.656  -3.541  1.00  0.00     0.060 A 
ATOM      3  C   UNL     1       3.944  -5.020  -4.974  1.00  0.00     0.060 A 
ATOM      4  C   UNL     1       5.148  -3.686  -2.827  1.00  0.00     0.162 A 
ATOM      5  C   UNL     1       3.225  -4.049  -4.262  1.00  0.00     0.162 A 
ATOM      6  C   UNL     1       3.830  -3.381  -3.184  1.00  0.00     0.200 A 
ENDROOT
BRANCH   1   7
ATOM      7  C   UNL     1       6.029  -6.356  -5.371  1.00  0.00     0.072 C 
ATOM      8  O   UNL     1       5.515  -6.935  -6.365  1.00  0.00    -0.545 OA
ATOM      9  O   UNL     1       7.323  -6.693  -4.990  1.00  0.00    -0.545 OA
ENDBRANCH   1   7
BRANCH   4  10
ATOM     10  O   UNL     1       5.744  -3.019  -1.757  1.00  0.00    -0.504 OA
ATOM     11  H   UNL     1       5.434  -3.163  -0.803  1.00  0.00     0.293 HD
ENDBRANCH   4  10
BRANCH   5  12
ATOM     12  O   UNL     1       1.912  -3.749  -4.622  1.00  0.00    -0.504 OA
ATOM     13  H   UNL     1       1.701  -3.102  -5.372  1.00  0.00     0.293 HD
ENDBRANCH   5  12
BRANCH   6  14
ATOM     14  O   UNL     1       3.134  -2.411  -2.461  1.00  0.00    -0.502 OA
ATOM     15  H   UNL     1       2.352  -1.902  -2.856  1.00  0.00     0.293 HD
ENDBRANCH   6  14
TORSDOF 4
ENDMDL
MODEL 6
REMARK VINA RESULT:    -3.542      9.582     11.166
REMARK INTER + INTRA:          -4.112
REMARK INTER:                  -4.059
REMARK INTRA:                  -0.053
REMARK UNBOUND:                -0.052
REMARK SMILES O=C([O-])c1cc(O)c(O)c(O)c1
REMARK SMILES IDX 4 1 5 2 12 3 6 4 10 5 8 6 2 7 1 8 3 9 7 10 11 12 9 14
REMARK H PARENT 7 11 11 13 9 15
REMARK Flexibility Score: inf
ROOT
ATOM      1  C   UNL     1       5.192  -5.400  -4.696  1.00  0.00     0.005 A 
ATOM      2  C   UNL     1       3.876  -5.041  -5.036  1.00  0.00     0.060 A 
ATOM      3  C   UNL     1       5.810  -4.766  -3.604  1.00  0.00     0.060 A 
ATOM      4  C   UNL     1       3.189  -4.066  -4.299  1.00  0.00     0.162 A 
ATOM      5  C   UNL     1       5.128  -3.790  -2.864  1.00  0.00     0.162 A 
ATOM      6  C   UNL     1       3.813  -3.439  -3.214  1.00  0.00     0.200 A 
ENDROOT
BRANCH   1   7
ATOM      7  C   UNL     1       5.911  -6.430  -5.478  1.00  0.00     0.072 C 
ATOM      8  O   UNL     1       5.301  -7.127  -6.332  1.00  0.00    -0.545 OA
ATOM      9  O   UNL     1       7.271  -6.641  -5.282  1.00  0.00    -0.545 OA
ENDBRANCH   1   7
BRANCH   4  10
ATOM     10  O   UNL     1       1.885  -3.714  -4.642  1.00  0.00    -0.504 OA
ATOM     11  H   UNL     1       1.653  -3.370  -5.566  1.00  0.00     0.293 HD
ENDBRANCH   4  10
BRANCH   5  12
ATOM     12  O   UNL     1       5.752  -3.168  -1.784  1.00  0.00    -0.504 OA
ATOM     13  H   UNL     1       5.724  -2.163  -1.659  1.00  0.00     0.293 HD
ENDBRANCH   5  12
BRANCH   6  14
ATOM     14  O   UNL     1       3.114  -2.471  -2.493  1.00  0.00    -0.502 OA
ATOM     15  H   UNL     1       3.396  -1.498  -2.482  1.00  0.00     0.293 HD
ENDBRANCH   6  14
TORSDOF 4
ENDMDL
MODEL 7
REMARK VINA RESULT:    -3.418      9.488     11.178
REMARK INTER + INTRA:          -3.969
REMARK INTER:                  -3.917
REMARK INTRA:                  -0.052
REMARK UNBOUND:                -0.052
REMARK SMILES O=C([O-])c1cc(O)c(O)c(O)c1
REMARK SMILES IDX 4 1 5 2 12 3 6 4 10 5 8 6 2 7 1 8 3 9 7 10 11 12 9 14
REMARK H PARENT 7 11 11 13 9 15
REMARK Flexibility Score: inf
ROOT
ATOM      1  C   UNL     1       5.882  -4.774  -3.580  1.00  0.00     0.005 A 
ATOM      2  C   UNL     1       5.178  -3.787  -2.868  1.00  0.00     0.060 A 
ATOM      3  C   UNL     1       5.246  -5.423  -4.653  1.00  0.00     0.060 A 
ATOM      4  C   UNL     1       3.863  -3.455  -3.220  1.00  0.00     0.162 A 
ATOM      5  C   UNL     1       3.930  -5.095  -5.009  1.00  0.00     0.162 A 
ATOM      6  C   UNL     1       3.237  -4.108  -4.289  1.00  0.00     0.200 A 
ENDROOT
BRANCH   1   7
ATOM      7  C   UNL     1       7.270  -5.119  -3.204  1.00  0.00     0.072 C 
ATOM      8  O   UNL     1       7.820  -6.155  -3.664  1.00  0.00    -0.545 OA
ATOM      9  O   UNL     1       7.989  -4.303  -2.337  1.00  0.00    -0.545 OA
ENDBRANCH   1   7
BRANCH   4  10
ATOM     10  O   UNL     1       3.170  -2.476  -2.509  1.00  0.00    -0.504 OA
ATOM     11  H   UNL     1       3.544  -2.073  -1.659  1.00  0.00     0.293 HD
ENDBRANCH   4  10
BRANCH   5  12
ATOM     12  O   UNL     1       3.311  -5.747  -6.074  1.00  0.00    -0.504 OA
ATOM     13  H   UNL     1       2.541  -5.326  -6.580  1.00  0.00     0.293 HD
ENDBRANCH   5  12
BRANCH   6  14
ATOM     14  O   UNL     1       1.927  -3.764  -4.624  1.00  0.00    -0.502 OA
ATOM     15  H   UNL     1       1.674  -3.443  -5.551  1.00  0.00     0.293 HD
ENDBRANCH   6  14
TORSDOF 4
ENDMDL
MODEL 8
REMARK VINA RESULT:    -3.366      9.817     11.437
REMARK INTER + INTRA:          -3.909
REMARK INTER:                  -3.864
REMARK INTRA:                  -0.045
REMARK UNBOUND:                -0.052
REMARK SMILES O=C([O-])c1cc(O)c(O)c(O)c1
REMARK SMILES IDX 4 1 5 2 12 3 6 4 10 5 8 6 2 7 1 8 3 9 7 10 11 12 9 14
REMARK H PARENT 7 11 11 13 9 15
REMARK Flexibility Score: inf
ROOT
ATOM      1  C   UNL     1       5.896  -5.233  -3.040  1.00  0.00     0.005 A 
ATOM      2  C   UNL     1       5.073  -5.961  -3.916  1.00  0.00     0.060 A 
ATOM      3  C   UNL     1       5.481  -3.959  -2.617  1.00  0.00     0.060 A 
ATOM      4  C   UNL     1       3.856  -5.427  -4.361  1.00  0.00     0.162 A 
ATOM      5  C   UNL     1       4.265  -3.419  -3.060  1.00  0.00     0.162 A 
ATOM      6  C   UNL     1       3.451  -4.156  -3.936  1.00  0.00     0.200 A 
ENDROOT
BRANCH   1   7
ATOM      7  C   UNL     1       7.179  -5.803  -2.574  1.00  0.00     0.072 C 
ATOM      8  O   UNL     1       7.280  -6.292  -1.417  1.00  0.00    -0.545 OA
ATOM      9  O   UNL     1       8.293  -5.808  -3.407  1.00  0.00    -0.545 OA
ENDBRANCH   1   7
BRANCH   4  10
ATOM     10  O   UNL     1       3.044  -6.154  -5.230  1.00  0.00    -0.504 OA
ATOM     11  H   UNL     1       2.778  -7.111  -5.032  1.00  0.00     0.293 HD
ENDBRANCH   4  10
BRANCH   5  12
ATOM     12  O   UNL     1       3.865  -2.154  -2.633  1.00  0.00    -0.504 OA
ATOM     13  H   UNL     1       2.922  -1.815  -2.784  1.00  0.00     0.293 HD
ENDBRANCH   5  12
BRANCH   6  14
ATOM     14  O   UNL     1       2.236  -3.641  -4.390  1.00  0.00    -0.502 OA
ATOM     15  H   UNL     1       1.547  -3.249  -3.759  1.00  0.00     0.293 HD
ENDBRANCH   6  14
TORSDOF 4
ENDMDL
MODEL 9
REMARK VINA RESULT:    -3.352     11.302     11.600
REMARK INTER + INTRA:          -3.894
REMARK INTER:                  -3.847
REMARK INTRA:                  -0.047
REMARK UNBOUND:                -0.052
REMARK SMILES O=C([O-])c1cc(O)c(O)c(O)c1
REMARK SMILES IDX 4 1 5 2 12 3 6 4 10 5 8 6 2 7 1 8 3 9 7 10 11 12 9 14
REMARK H PARENT 7 11 11 13 9 15
REMARK Flexibility Score: inf
ROOT
ATOM      1  C   UNL     1      -6.496  -2.426  -4.436  1.00  0.00     0.005 A 
ATOM      2  C   UNL     1      -6.007  -1.128  -4.668  1.00  0.00     0.060 A 
ATOM      3  C   UNL     1      -7.398  -2.636  -3.380  1.00  0.00     0.060 A 
ATOM      4  C   UNL     1      -6.413  -0.059  -3.858  1.00  0.00     0.162 A 
ATOM      5  C   UNL     1      -7.807  -1.569  -2.566  1.00  0.00     0.162 A 
ATOM      6  C   UNL     1      -7.312  -0.276  -2.807  1.00  0.00     0.200 A 
ENDROOT
BRANCH   1   7
ATOM      7  C   UNL     1      -6.064  -3.551  -5.295  1.00  0.00     0.072 C 
ATOM      8  O   UNL     1      -4.843  -3.840  -5.406  1.00  0.00    -0.545 OA
ATOM      9  O   UNL     1      -7.001  -4.306  -5.991  1.00  0.00    -0.545 OA
ENDBRANCH   1   7
BRANCH   4  10
ATOM     10  O   UNL     1      -5.925   1.226  -4.093  1.00  0.00    -0.504 OA
ATOM     11  H   UNL     1      -5.188   1.399  -4.766  1.00  0.00     0.293 HD
ENDBRANCH   4  10
BRANCH   5  12
ATOM     12  O   UNL     1      -8.702  -1.790  -1.521  1.00  0.00    -0.504 OA
ATOM     13  H   UNL     1      -9.247  -1.036  -1.118  1.00  0.00     0.293 HD
ENDBRANCH   5  12
BRANCH   6  14
ATOM     14  O   UNL     1      -7.704   0.801  -2.011  1.00  0.00    -0.502 OA
ATOM     15  H   UNL     1      -8.195   1.601  -2.392  1.00  0.00     0.293 HD
ENDBRANCH   6  14
TORSDOF 4
ENDMDL
