MODEL 1
REMARK VINA RESULT:    -4.910      0.000      0.000
REMARK INTER + INTRA:          -5.737
REMARK INTER:                  -5.484
REMARK INTRA:                  -0.253
REMARK UNBOUND:                -0.253
REMARK SMILES COc1cc(C)ccc1C(C)C
REMARK SMILES IDX 6 1 5 2 4 3 3 4 9 5 8 6 7 7 2 8 1 9 10 10 11 11 12 12
REMARK H PARENT
REMARK Flexibility Score: inf
ROOT
ATOM      1  C   UNL     1      19.500 -26.125 -23.832  1.00  0.00     0.044 C 
ATOM      2  C   UNL     1      18.469 -25.040 -23.727  1.00  0.00    -0.047 A 
ATOM      3  C   UNL     1      18.568 -23.892 -24.525  1.00  0.00     0.050 A 
ATOM      4  C   UNL     1      17.626 -22.850 -24.411  1.00  0.00     0.122 A 
ATOM      5  C   UNL     1      16.576 -22.961 -23.468  1.00  0.00    -0.003 A 
ATOM      6  C   UNL     1      16.501 -24.111 -22.660  1.00  0.00     0.008 A 
ATOM      7  C   UNL     1      17.440 -25.135 -22.783  1.00  0.00     0.004 A 
ENDROOT
BRANCH   4   8
ATOM      8  O   UNL     1      17.710 -21.698 -25.212  1.00  0.00    -0.496 OA
ATOM      9  C   UNL     1      17.347 -21.637 -26.588  1.00  0.00     0.278 C 
ENDBRANCH   4   8
BRANCH   5  10
ATOM     10  C   UNL     1      15.539 -21.856 -23.314  1.00  0.00     0.017 C 
ATOM     11  C   UNL     1      14.988 -21.813 -21.883  1.00  0.00     0.012 C 
ATOM     12  C   UNL     1      14.406 -22.014 -24.336  1.00  0.00     0.012 C 
ENDBRANCH   5  10
TORSDOF 2
ENDMDL
MODEL 2
REMARK VINA RESULT:    -4.887      6.711      9.318
REMARK INTER + INTRA:          -5.712
REMARK INTER:                  -5.470
REMARK INTRA:                  -0.242
REMARK UNBOUND:                -0.253
REMARK SMILES COc1cc(C)ccc1C(C)C
REMARK SMILES IDX 6 1 5 2 4 3 3 4 9 5 8 6 7 7 2 8 1 9 10 10 11 11 12 12
REMARK H PARENT
REMARK Flexibility Score: inf
ROOT
ATOM      1  C   UNL     1       7.009 -18.691 -22.250  1.00  0.00     0.044 C 
ATOM      2  C   UNL     1       8.448 -18.449 -21.897  1.00  0.00    -0.047 A 
ATOM      3  C   UNL     1       9.279 -17.737 -22.772  1.00  0.00     0.050 A 
ATOM      4  C   UNL     1      10.641 -17.533 -22.470  1.00  0.00     0.122 A 
ATOM      5  C   UNL     1      11.175 -18.068 -21.272  1.00  0.00    -0.003 A 
ATOM      6  C   UNL     1      10.331 -18.798 -20.413  1.00  0.00     0.008 A 
ATOM      7  C   UNL     1       8.986 -18.992 -20.725  1.00  0.00     0.004 A 
ENDROOT
BRANCH   4   8
ATOM      8  O   UNL     1      11.482 -16.813 -23.335  1.00  0.00    -0.496 OA
ATOM      9  C   UNL     1      11.031 -15.975 -24.394  1.00  0.00     0.278 C 
ENDBRANCH   4   8
BRANCH   5  10
ATOM     10  C   UNL     1      12.640 -17.871 -20.910  1.00  0.00     0.017 C 
ATOM     11  C   UNL     1      13.463 -19.125 -21.233  1.00  0.00     0.012 C 
ATOM     12  C   UNL     1      12.798 -17.473 -19.436  1.00  0.00     0.012 C 
ENDBRANCH   5  10
TORSDOF 2
ENDMDL
MODEL 3
REMARK VINA RESULT:    -4.703      1.394      1.867
REMARK INTER + INTRA:          -5.505
REMARK INTER:                  -5.235
REMARK INTRA:                  -0.271
REMARK UNBOUND:                -0.253
REMARK SMILES COc1cc(C)ccc1C(C)C
REMARK SMILES IDX 6 1 5 2 4 3 3 4 9 5 8 6 7 7 2 8 1 9 10 10 11 11 12 12
REMARK H PARENT
REMARK Flexibility Score: inf
ROOT
ATOM      1  C   UNL     1      18.447 -25.397 -21.595  1.00  0.00     0.044 C 
ATOM      2  C   UNL     1      17.744 -24.500 -22.570  1.00  0.00    -0.047 A 
ATOM      3  C   UNL     1      18.342 -24.186 -23.798  1.00  0.00     0.050 A 
ATOM      4  C   UNL     1      17.709 -23.316 -24.709  1.00  0.00     0.122 A 
ATOM      5  C   UNL     1      16.459 -22.744 -24.370  1.00  0.00    -0.003 A 
ATOM      6  C   UNL     1      15.880 -23.054 -23.124  1.00  0.00     0.008 A 
ATOM      7  C   UNL     1      16.518 -23.916 -22.233  1.00  0.00     0.004 A 
ENDROOT
BRANCH   4   8
ATOM      8  O   UNL     1      18.295 -23.001 -25.947  1.00  0.00    -0.496 OA
ATOM      9  C   UNL     1      19.579 -22.409 -26.110  1.00  0.00     0.278 C 
ENDBRANCH   4   8
BRANCH   5  10
ATOM     10  C   UNL     1      15.743 -21.800 -25.326  1.00  0.00     0.017 C 
ATOM     11  C   UNL     1      16.120 -20.340 -25.045  1.00  0.00     0.012 C 
ATOM     12  C   UNL     1      14.223 -21.997 -25.265  1.00  0.00     0.012 C 
ENDBRANCH   5  10
TORSDOF 2
ENDMDL
MODEL 4
REMARK VINA RESULT:    -4.677      3.893      5.804
REMARK INTER + INTRA:          -5.477
REMARK INTER:                  -5.231
REMARK INTRA:                  -0.246
REMARK UNBOUND:                -0.253
REMARK SMILES COc1cc(C)ccc1C(C)C
REMARK SMILES IDX 6 1 5 2 4 3 3 4 9 5 8 6 7 7 2 8 1 9 10 10 11 11 12 12
REMARK H PARENT
REMARK Flexibility Score: inf
ROOT
ATOM      1  C   UNL     1      15.643 -22.666 -22.245  1.00  0.00     0.044 C 
ATOM      2  C   UNL     1      15.385 -21.378 -21.519  1.00  0.00    -0.047 A 
ATOM      3  C   UNL     1      16.390 -20.405 -21.431  1.00  0.00     0.050 A 
ATOM      4  C   UNL     1      16.174 -19.206 -20.722  1.00  0.00     0.122 A 
ATOM      5  C   UNL     1      14.931 -18.991 -20.080  1.00  0.00    -0.003 A 
ATOM      6  C   UNL     1      13.938 -19.987 -20.161  1.00  0.00     0.008 A 
ATOM      7  C   UNL     1      14.165 -21.169 -20.866  1.00  0.00     0.004 A 
ENDROOT
BRANCH   4   8
ATOM      8  O   UNL     1      17.171 -18.219 -20.634  1.00  0.00    -0.496 OA
ATOM      9  C   UNL     1      18.475 -18.426 -20.102  1.00  0.00     0.278 C 
ENDBRANCH   4   8
BRANCH   5  10
ATOM     10  C   UNL     1      14.658 -17.710 -19.304  1.00  0.00     0.017 C 
ATOM     11  C   UNL     1      15.205 -17.804 -17.874  1.00  0.00     0.012 C 
ATOM     12  C   UNL     1      13.162 -17.372 -19.301  1.00  0.00     0.012 C 
ENDBRANCH   5  10
TORSDOF 2
ENDMDL
MODEL 5
REMARK VINA RESULT:    -4.640      4.571      7.156
REMARK INTER + INTRA:          -5.435
REMARK INTER:                  -5.178
REMARK INTRA:                  -0.257
REMARK UNBOUND:                -0.253
REMARK SMILES COc1cc(C)ccc1C(C)C
REMARK SMILES IDX 6 1 5 2 4 3 3 4 9 5 8 6 7 7 2 8 1 9 10 10 11 11 12 12
REMARK H PARENT
REMARK Flexibility Score: inf
ROOT
ATOM      1  C   UNL     1      14.587 -19.141 -16.350  1.00  0.00     0.044 C 
ATOM      2  C   UNL     1      14.973 -18.844 -17.770  1.00  0.00    -0.047 A 
ATOM      3  C   UNL     1      14.626 -19.734 -18.796  1.00  0.00     0.050 A 
ATOM      4  C   UNL     1      15.012 -19.486 -20.128  1.00  0.00     0.122 A 
ATOM      5  C   UNL     1      15.772 -18.329 -20.428  1.00  0.00    -0.003 A 
ATOM      6  C   UNL     1      16.130 -17.455 -19.383  1.00  0.00     0.008 A 
ATOM      7  C   UNL     1      15.740 -17.713 -18.069  1.00  0.00     0.004 A 
ENDROOT
BRANCH   4   8
ATOM      8  O   UNL     1      14.663 -20.366 -21.167  1.00  0.00    -0.496 OA
ATOM      9  C   UNL     1      15.346 -21.578 -21.468  1.00  0.00     0.278 C 
ENDBRANCH   4   8
BRANCH   5  10
ATOM     10  C   UNL     1      16.210 -18.025 -21.855  1.00  0.00     0.017 C 
ATOM     11  C   UNL     1      17.728 -18.174 -22.009  1.00  0.00     0.012 C 
ATOM     12  C   UNL     1      15.746 -16.630 -22.291  1.00  0.00     0.012 C 
ENDBRANCH   5  10
TORSDOF 2
ENDMDL
MODEL 6
REMARK VINA RESULT:    -4.625      8.016      9.026
REMARK INTER + INTRA:          -5.419
REMARK INTER:                  -5.161
REMARK INTRA:                  -0.257
REMARK UNBOUND:                -0.253
REMARK SMILES COc1cc(C)ccc1C(C)C
REMARK SMILES IDX 6 1 5 2 4 3 3 4 9 5 8 6 7 7 2 8 1 9 10 10 11 11 12 12
REMARK H PARENT
REMARK Flexibility Score: inf
ROOT
ATOM      1  C   UNL     1      13.372 -18.171 -19.087  1.00  0.00     0.044 C 
ATOM      2  C   UNL     1      12.548 -17.904 -20.313  1.00  0.00    -0.047 A 
ATOM      3  C   UNL     1      11.169 -18.155 -20.304  1.00  0.00     0.050 A 
ATOM      4  C   UNL     1      10.390 -17.943 -21.459  1.00  0.00     0.122 A 
ATOM      5  C   UNL     1      11.012 -17.481 -22.644  1.00  0.00    -0.003 A 
ATOM      6  C   UNL     1      12.402 -17.252 -22.642  1.00  0.00     0.008 A 
ATOM      7  C   UNL     1      13.161 -17.467 -21.492  1.00  0.00     0.004 A 
ENDROOT
BRANCH   4   8
ATOM      8  O   UNL     1       9.005 -18.182 -21.460  1.00  0.00    -0.496 OA
ATOM      9  C   UNL     1       8.384 -19.358 -20.950  1.00  0.00     0.278 C 
ENDBRANCH   4   8
BRANCH   5  10
ATOM     10  C   UNL     1      10.205 -17.239 -23.912  1.00  0.00     0.017 C 
ATOM     11  C   UNL     1      10.195 -18.486 -24.806  1.00  0.00     0.012 C 
ATOM     12  C   UNL     1      10.728 -16.017 -24.677  1.00  0.00     0.012 C 
ENDBRANCH   5  10
TORSDOF 2
ENDMDL
MODEL 7
REMARK VINA RESULT:    -4.585      7.104      9.330
REMARK INTER + INTRA:          -5.374
REMARK INTER:                  -5.135
REMARK INTRA:                  -0.239
REMARK UNBOUND:                -0.253
REMARK SMILES COc1cc(C)ccc1C(C)C
REMARK SMILES IDX 6 1 5 2 4 3 3 4 9 5 8 6 7 7 2 8 1 9 10 10 11 11 12 12
REMARK H PARENT
REMARK Flexibility Score: inf
ROOT
ATOM      1  C   UNL     1      10.874 -15.484 -25.083  1.00  0.00     0.044 C 
ATOM      2  C   UNL     1      11.132 -16.326 -23.868  1.00  0.00    -0.047 A 
ATOM      3  C   UNL     1      10.076 -16.996 -23.236  1.00  0.00     0.050 A 
ATOM      4  C   UNL     1      10.297 -17.761 -22.073  1.00  0.00     0.122 A 
ATOM      5  C   UNL     1      11.603 -17.841 -21.532  1.00  0.00    -0.003 A 
ATOM      6  C   UNL     1      12.651 -17.146 -22.166  1.00  0.00     0.008 A 
ATOM      7  C   UNL     1      12.417 -16.393 -23.316  1.00  0.00     0.004 A 
ENDROOT
BRANCH   4   8
ATOM      8  O   UNL     1       9.247 -18.445 -21.437  1.00  0.00    -0.496 OA
ATOM      9  C   UNL     1       7.952 -18.642 -21.993  1.00  0.00     0.278 C 
ENDBRANCH   4   8
BRANCH   5  10
ATOM     10  C   UNL     1      11.884 -18.657 -20.277  1.00  0.00     0.017 C 
ATOM     11  C   UNL     1      12.475 -17.777 -19.168  1.00  0.00     0.012 C 
ATOM     12  C   UNL     1      12.802 -19.846 -20.584  1.00  0.00     0.012 C 
ENDBRANCH   5  10
TORSDOF 2
ENDMDL
MODEL 8
REMARK VINA RESULT:    -4.564      6.233      8.484
REMARK INTER + INTRA:          -5.351
REMARK INTER:                  -5.075
REMARK INTRA:                  -0.276
REMARK UNBOUND:                -0.253
REMARK SMILES COc1cc(C)ccc1C(C)C
REMARK SMILES IDX 6 1 5 2 4 3 3 4 9 5 8 6 7 7 2 8 1 9 10 10 11 11 12 12
REMARK H PARENT
REMARK Flexibility Score: inf
ROOT
ATOM      1  C   UNL     1      10.128 -18.250 -20.113  1.00  0.00     0.044 C 
ATOM      2  C   UNL     1      11.607 -18.080 -20.302  1.00  0.00    -0.047 A 
ATOM      3  C   UNL     1      12.442 -17.889 -19.192  1.00  0.00     0.050 A 
ATOM      4  C   UNL     1      13.828 -17.692 -19.358  1.00  0.00     0.122 A 
ATOM      5  C   UNL     1      14.378 -17.674 -20.662  1.00  0.00    -0.003 A 
ATOM      6  C   UNL     1      13.522 -17.848 -21.768  1.00  0.00     0.008 A 
ATOM      7  C   UNL     1      12.153 -18.042 -21.589  1.00  0.00     0.004 A 
ENDROOT
BRANCH   4   8
ATOM      8  O   UNL     1      14.677 -17.508 -18.253  1.00  0.00    -0.496 OA
ATOM      9  C   UNL     1      15.095 -18.543 -17.369  1.00  0.00     0.278 C 
ENDBRANCH   4   8
BRANCH   5  10
ATOM     10  C   UNL     1      15.870 -17.465 -20.883  1.00  0.00     0.017 C 
ATOM     11  C   UNL     1      16.133 -16.718 -22.197  1.00  0.00     0.012 C 
ATOM     12  C   UNL     1      16.628 -18.797 -20.845  1.00  0.00     0.012 C 
ENDBRANCH   5  10
TORSDOF 2
ENDMDL
MODEL 9
REMARK VINA RESULT:    -4.557      6.915      7.406
REMARK INTER + INTRA:          -5.342
REMARK INTER:                  -5.104
REMARK INTRA:                  -0.238
REMARK UNBOUND:                -0.253
REMARK SMILES COc1cc(C)ccc1C(C)C
REMARK SMILES IDX 6 1 5 2 4 3 3 4 9 5 8 6 7 7 2 8 1 9 10 10 11 11 12 12
REMARK H PARENT
REMARK Flexibility Score: inf
ROOT
ATOM      1  C   UNL     1      18.216 -17.437 -18.538  1.00  0.00     0.044 C 
ATOM      2  C   UNL     1      16.792 -17.618 -18.974  1.00  0.00    -0.047 A 
ATOM      3  C   UNL     1      16.436 -17.431 -20.317  1.00  0.00     0.050 A 
ATOM      4  C   UNL     1      15.096 -17.563 -20.734  1.00  0.00     0.122 A 
ATOM      5  C   UNL     1      14.097 -17.875 -19.779  1.00  0.00    -0.003 A 
ATOM      6  C   UNL     1      14.468 -18.041 -18.431  1.00  0.00     0.008 A 
ATOM      7  C   UNL     1      15.798 -17.908 -18.032  1.00  0.00     0.004 A 
ENDROOT
BRANCH   4   8
ATOM      8  O   UNL     1      14.727 -17.386 -22.078  1.00  0.00    -0.496 OA
ATOM      9  C   UNL     1      15.129 -16.290 -22.893  1.00  0.00     0.278 C 
ENDBRANCH   4   8
BRANCH   5  10
ATOM     10  C   UNL     1      12.639 -18.026 -20.189  1.00  0.00     0.017 C 
ATOM     11  C   UNL     1      11.700 -17.567 -19.066  1.00  0.00     0.012 C 
ATOM     12  C   UNL     1      12.328 -19.468 -20.611  1.00  0.00     0.012 C 
ENDBRANCH   5  10
TORSDOF 2
ENDMDL
