MODEL 1
REMARK VINA RESULT:    -4.610      0.000      0.000
REMARK INTER + INTRA:         -14.155
REMARK INTER:                 -10.539
REMARK INTRA:                  -3.615
REMARK UNBOUND:                -3.615
REMARK SMILES CCCCCCCCCCCCCCCCCCCCCCCC(=O)[O-]
REMARK SMILES IDX 13 1 14 2 15 3 16 4 17 5 18 6 19 7 20 8 21 9 22 10 23 11
REMARK SMILES IDX 24 12 25 13 26 14 12 15 11 16 10 17 9 18 8 19 7 20 6 21 5 22
REMARK SMILES IDX 4 23 3 24 2 25 1 26
REMARK H PARENT
REMARK Flexibility Score: inf
ROOT
ATOM      1  C   UNL     1      62.371  29.834   8.961  1.00  0.00     0.000 C 
ENDROOT
BRANCH   1   2
ATOM      2  C   UNL     1      63.785  29.382   9.366  1.00  0.00     0.000 C 
BRANCH   2   3
ATOM      3  C   UNL     1      64.867  30.403   8.974  1.00  0.00     0.000 C 
BRANCH   3   4
ATOM      4  C   UNL     1      65.554  31.039  10.196  1.00  0.00     0.000 C 
BRANCH   4   5
ATOM      5  C   UNL     1      64.854  32.325  10.661  1.00  0.00     0.000 C 
BRANCH   5   6
ATOM      6  C   UNL     1      65.671  33.101  11.710  1.00  0.00     0.000 C 
BRANCH   6   7
ATOM      7  C   UNL     1      64.821  33.529  12.917  1.00  0.00     0.000 C 
BRANCH   7   8
ATOM      8  C   UNL     1      65.629  33.558  14.226  1.00  0.00     0.000 C 
BRANCH   8   9
ATOM      9  C   UNL     1      65.915  34.988  14.719  1.00  0.00     0.000 C 
BRANCH   9  10
ATOM     10  C   UNL     1      65.353  35.316  16.114  1.00  0.00     0.006 C 
BRANCH  10  11
ATOM     11  C   UNL     1      64.778  34.088  16.832  1.00  0.00     0.053 C 
BRANCH  11  12
ATOM     12  C   UNL     1      63.937  34.510  17.995  1.00  0.00     0.041 C 
ATOM     13  O   UNL     1      62.779  34.969  17.806  1.00  0.00    -0.550 OA
ATOM     14  O   UNL     1      64.449  34.444  19.285  1.00  0.00    -0.550 OA
ENDBRANCH  11  12
ENDBRANCH  10  11
ENDBRANCH   9  10
ENDBRANCH   8   9
ENDBRANCH   7   8
ENDBRANCH   6   7
ENDBRANCH   5   6
ENDBRANCH   4   5
ENDBRANCH   3   4
ENDBRANCH   2   3
ENDBRANCH   1   2
BRANCH   1  15
ATOM     15  C   UNL     1      61.278  28.887   9.484  1.00  0.00     0.000 C 
BRANCH  15  16
ATOM     16  C   UNL     1      60.401  29.533  10.567  1.00  0.00     0.000 C 
BRANCH  16  17
ATOM     17  C   UNL     1      60.142  28.551  11.720  1.00  0.00     0.000 C 
BRANCH  17  18
ATOM     18  C   UNL     1      60.741  29.027  13.052  1.00  0.00    -0.000 C 
BRANCH  18  19
ATOM     19  C   UNL     1      62.225  28.658  13.201  1.00  0.00    -0.000 C 
BRANCH  19  20
ATOM     20  C   UNL     1      63.125  29.867  12.907  1.00  0.00    -0.000 C 
BRANCH  20  21
ATOM     21  C   UNL     1      63.899  30.358  14.144  1.00  0.00    -0.000 C 
BRANCH  21  22
ATOM     22  C   UNL     1      63.021  30.797  15.329  1.00  0.00    -0.000 C 
BRANCH  22  23
ATOM     23  C   UNL     1      62.282  32.119  15.071  1.00  0.00    -0.000 C 
BRANCH  23  24
ATOM     24  C   UNL     1      60.766  31.935  15.204  1.00  0.00    -0.000 C 
BRANCH  24  25
ATOM     25  C   UNL     1      60.049  32.330  13.907  1.00  0.00    -0.003 C 
ATOM     26  C   UNL     1      61.049  32.727  12.824  1.00  0.00     0.004 C 
ENDBRANCH  24  25
ENDBRANCH  23  24
ENDBRANCH  22  23
ENDBRANCH  21  22
ENDBRANCH  20  21
ENDBRANCH  19  20
ENDBRANCH  18  19
ENDBRANCH  17  18
ENDBRANCH  16  17
ENDBRANCH  15  16
ENDBRANCH   1  15
TORSDOF 22
ENDMDL
MODEL 2
REMARK VINA RESULT:    -4.606      2.215      4.754
REMARK INTER + INTRA:         -14.145
REMARK INTER:                 -10.332
REMARK INTRA:                  -3.812
REMARK UNBOUND:                -3.615
REMARK SMILES CCCCCCCCCCCCCCCCCCCCCCCC(=O)[O-]
REMARK SMILES IDX 13 1 14 2 15 3 16 4 17 5 18 6 19 7 20 8 21 9 22 10 23 11
REMARK SMILES IDX 24 12 25 13 26 14 12 15 11 16 10 17 9 18 8 19 7 20 6 21 5 22
REMARK SMILES IDX 4 23 3 24 2 25 1 26
REMARK H PARENT
REMARK Flexibility Score: inf
ROOT
ATOM      1  C   UNL     1      59.993  28.725  12.497  1.00  0.00     0.000 C 
ENDROOT
BRANCH   1   2
ATOM      2  C   UNL     1      60.192  29.384  11.121  1.00  0.00     0.000 C 
BRANCH   2   3
ATOM      3  C   UNL     1      60.012  28.392   9.959  1.00  0.00     0.000 C 
BRANCH   3   4
ATOM      4  C   UNL     1      61.180  28.432   8.958  1.00  0.00     0.000 C 
BRANCH   4   5
ATOM      5  C   UNL     1      61.930  29.773   8.982  1.00  0.00     0.000 C 
BRANCH   5   6
ATOM      6  C   UNL     1      63.447  29.603   9.180  1.00  0.00     0.000 C 
BRANCH   6   7
ATOM      7  C   UNL     1      64.133  30.910   9.609  1.00  0.00     0.000 C 
BRANCH   7   8
ATOM      8  C   UNL     1      65.665  30.839   9.487  1.00  0.00     0.000 C 
BRANCH   8   9
ATOM      9  C   UNL     1      66.376  31.998  10.207  1.00  0.00     0.000 C 
BRANCH   9  10
ATOM     10  C   UNL     1      65.436  33.031  10.855  1.00  0.00     0.006 C 
BRANCH  10  11
ATOM     11  C   UNL     1      65.839  33.387  12.292  1.00  0.00     0.053 C 
BRANCH  11  12
ATOM     12  C   UNL     1      66.441  34.755  12.341  1.00  0.00     0.041 C 
ATOM     13  O   UNL     1      66.615  35.331  13.448  1.00  0.00    -0.550 OA
ATOM     14  O   UNL     1      66.764  35.417  11.163  1.00  0.00    -0.550 OA
ENDBRANCH  11  12
ENDBRANCH  10  11
ENDBRANCH   9  10
ENDBRANCH   8   9
ENDBRANCH   7   8
ENDBRANCH   6   7
ENDBRANCH   5   6
ENDBRANCH   4   5
ENDBRANCH   3   4
ENDBRANCH   2   3
ENDBRANCH   1   2
BRANCH   1  15
ATOM     15  C   UNL     1      61.189  28.950  13.436  1.00  0.00     0.000 C 
BRANCH  15  16
ATOM     16  C   UNL     1      62.541  28.836  12.715  1.00  0.00     0.000 C 
BRANCH  16  17
ATOM     17  C   UNL     1      63.486  29.969  13.141  1.00  0.00     0.000 C 
BRANCH  17  18
ATOM     18  C   UNL     1      62.736  31.201  13.672  1.00  0.00    -0.000 C 
BRANCH  18  19
ATOM     19  C   UNL     1      62.264  32.138  12.549  1.00  0.00    -0.000 C 
BRANCH  19  20
ATOM     20  C   UNL     1      61.101  33.021  13.023  1.00  0.00    -0.000 C 
BRANCH  20  21
ATOM     21  C   UNL     1      60.749  32.808  14.506  1.00  0.00    -0.000 C 
BRANCH  21  22
ATOM     22  C   UNL     1      61.080  33.994  15.431  1.00  0.00    -0.000 C 
BRANCH  22  23
ATOM     23  C   UNL     1      61.804  33.567  16.717  1.00  0.00    -0.000 C 
BRANCH  23  24
ATOM     24  C   UNL     1      63.254  33.166  16.423  1.00  0.00    -0.000 C 
BRANCH  24  25
ATOM     25  C   UNL     1      63.988  34.277  15.661  1.00  0.00    -0.003 C 
ATOM     26  C   UNL     1      65.128  34.856  16.495  1.00  0.00     0.004 C 
ENDBRANCH  24  25
ENDBRANCH  23  24
ENDBRANCH  22  23
ENDBRANCH  21  22
ENDBRANCH  20  21
ENDBRANCH  19  20
ENDBRANCH  18  19
ENDBRANCH  17  18
ENDBRANCH  16  17
ENDBRANCH  15  16
ENDBRANCH   1  15
TORSDOF 22
ENDMDL
MODEL 3
REMARK VINA RESULT:    -4.549      1.215      4.344
REMARK INTER + INTRA:         -14.016
REMARK INTER:                 -11.063
REMARK INTRA:                  -2.953
REMARK UNBOUND:                -3.615
REMARK SMILES CCCCCCCCCCCCCCCCCCCCCCCC(=O)[O-]
REMARK SMILES IDX 13 1 14 2 15 3 16 4 17 5 18 6 19 7 20 8 21 9 22 10 23 11
REMARK SMILES IDX 24 12 25 13 26 14 12 15 11 16 10 17 9 18 8 19 7 20 6 21 5 22
REMARK SMILES IDX 4 23 3 24 2 25 1 26
REMARK H PARENT
REMARK Flexibility Score: inf
ROOT
ATOM      1  C   UNL     1      60.376  28.569  12.381  1.00  0.00     0.000 C 
ENDROOT
BRANCH   1   2
ATOM      2  C   UNL     1      61.677  28.642  13.200  1.00  0.00     0.000 C 
BRANCH   2   3
ATOM      3  C   UNL     1      62.518  29.884  12.864  1.00  0.00     0.000 C 
BRANCH   3   4
ATOM      4  C   UNL     1      62.719  30.811  14.076  1.00  0.00     0.000 C 
BRANCH   4   5
ATOM      5  C   UNL     1      61.863  30.395  15.282  1.00  0.00     0.000 C 
BRANCH   5   6
ATOM      6  C   UNL     1      60.820  31.460  15.666  1.00  0.00     0.000 C 
BRANCH   6   7
ATOM      7  C   UNL     1      60.497  32.411  14.503  1.00  0.00     0.000 C 
BRANCH   7   8
ATOM      8  C   UNL     1      60.851  33.874  14.821  1.00  0.00     0.000 C 
BRANCH   8   9
ATOM      9  C   UNL     1      61.982  34.003  15.857  1.00  0.00     0.000 C 
BRANCH   9  10
ATOM     10  C   UNL     1      61.581  34.697  17.171  1.00  0.00     0.006 C 
BRANCH  10  11
ATOM     11  C   UNL     1      61.857  33.835  18.410  1.00  0.00     0.053 C 
BRANCH  11  12
ATOM     12  C   UNL     1      63.146  34.241  19.051  1.00  0.00     0.041 C 
ATOM     13  O   UNL     1      63.349  34.003  20.271  1.00  0.00    -0.550 OA
ATOM     14  O   UNL     1      64.104  34.928  18.316  1.00  0.00    -0.550 OA
ENDBRANCH  11  12
ENDBRANCH  10  11
ENDBRANCH   9  10
ENDBRANCH   8   9
ENDBRANCH   7   8
ENDBRANCH   6   7
ENDBRANCH   5   6
ENDBRANCH   4   5
ENDBRANCH   3   4
ENDBRANCH   2   3
ENDBRANCH   1   2
BRANCH   1  15
ATOM     15  C   UNL     1      60.378  29.534  11.185  1.00  0.00     0.000 C 
BRANCH  15  16
ATOM     16  C   UNL     1      60.086  28.828   9.852  1.00  0.00     0.000 C 
BRANCH  16  17
ATOM     17  C   UNL     1      61.385  28.575   9.071  1.00  0.00     0.000 C 
BRANCH  17  18
ATOM     18  C   UNL     1      62.451  29.651   9.325  1.00  0.00    -0.000 C 
BRANCH  18  19
ATOM     19  C   UNL     1      63.884  29.107   9.211  1.00  0.00    -0.000 C 
BRANCH  19  20
ATOM     20  C   UNL     1      64.913  30.242   9.313  1.00  0.00    -0.000 C 
BRANCH  20  21
ATOM     21  C   UNL     1      64.413  31.435  10.148  1.00  0.00    -0.000 C 
BRANCH  21  22
ATOM     22  C   UNL     1      65.443  32.018  11.132  1.00  0.00    -0.000 C 
BRANCH  22  23
ATOM     23  C   UNL     1      64.851  33.099  12.049  1.00  0.00    -0.000 C 
BRANCH  23  24
ATOM     24  C   UNL     1      65.913  34.135  12.434  1.00  0.00    -0.000 C 
BRANCH  24  25
ATOM     25  C   UNL     1      66.482  33.846  13.829  1.00  0.00    -0.003 C 
ATOM     26  C   UNL     1      65.420  34.040  14.908  1.00  0.00     0.004 C 
ENDBRANCH  24  25
ENDBRANCH  23  24
ENDBRANCH  22  23
ENDBRANCH  21  22
ENDBRANCH  20  21
ENDBRANCH  19  20
ENDBRANCH  18  19
ENDBRANCH  17  18
ENDBRANCH  16  17
ENDBRANCH  15  16
ENDBRANCH   1  15
TORSDOF 22
ENDMDL
MODEL 4
REMARK VINA RESULT:    -4.505      3.172      6.257
REMARK INTER + INTRA:         -13.914
REMARK INTER:                 -10.404
REMARK INTRA:                  -3.510
REMARK UNBOUND:                -3.615
REMARK SMILES CCCCCCCCCCCCCCCCCCCCCCCC(=O)[O-]
REMARK SMILES IDX 13 1 14 2 15 3 16 4 17 5 18 6 19 7 20 8 21 9 22 10 23 11
REMARK SMILES IDX 24 12 25 13 26 14 12 15 11 16 10 17 9 18 8 19 7 20 6 21 5 22
REMARK SMILES IDX 4 23 3 24 2 25 1 26
REMARK H PARENT
REMARK Flexibility Score: inf
ROOT
ATOM      1  C   UNL     1      61.443  29.419  14.048  1.00  0.00     0.000 C 
ENDROOT
BRANCH   1   2
ATOM      2  C   UNL     1      62.907  29.322  13.582  1.00  0.00     0.000 C 
BRANCH   2   3
ATOM      3  C   UNL     1      63.713  30.593  13.897  1.00  0.00     0.000 C 
BRANCH   3   4
ATOM      4  C   UNL     1      64.600  31.039  12.721  1.00  0.00     0.000 C 
BRANCH   4   5
ATOM      5  C   UNL     1      64.124  32.358  12.093  1.00  0.00     0.000 C 
BRANCH   5   6
ATOM      6  C   UNL     1      65.220  33.051  11.263  1.00  0.00     0.000 C 
BRANCH   6   7
ATOM      7  C   UNL     1      65.873  32.103  10.244  1.00  0.00     0.000 C 
BRANCH   7   8
ATOM      8  C   UNL     1      64.870  31.574   9.205  1.00  0.00     0.000 C 
BRANCH   8   9
ATOM      9  C   UNL     1      64.805  30.037   9.167  1.00  0.00     0.000 C 
BRANCH   9  10
ATOM     10  C   UNL     1      63.410  29.454   8.875  1.00  0.00     0.006 C 
BRANCH  10  11
ATOM     11  C   UNL     1      62.367  29.846   9.929  1.00  0.00     0.053 C 
BRANCH  11  12
ATOM     12  C   UNL     1      61.071  29.147   9.664  1.00  0.00     0.041 C 
ATOM     13  O   UNL     1      59.981  29.697   9.972  1.00  0.00    -0.550 OA
ATOM     14  O   UNL     1      61.067  27.867   9.124  1.00  0.00    -0.550 OA
ENDBRANCH  11  12
ENDBRANCH  10  11
ENDBRANCH   9  10
ENDBRANCH   8   9
ENDBRANCH   7   8
ENDBRANCH   6   7
ENDBRANCH   5   6
ENDBRANCH   4   5
ENDBRANCH   3   4
ENDBRANCH   2   3
ENDBRANCH   1   2
BRANCH   1  15
ATOM     15  C   UNL     1      60.627  30.424  13.219  1.00  0.00     0.000 C 
BRANCH  15  16
ATOM     16  C   UNL     1      60.195  31.652  14.034  1.00  0.00     0.000 C 
BRANCH  16  17
ATOM     17  C   UNL     1      60.767  32.942  13.426  1.00  0.00     0.000 C 
BRANCH  17  18
ATOM     18  C   UNL     1      61.595  33.757  14.433  1.00  0.00    -0.000 C 
BRANCH  18  19
ATOM     19  C   UNL     1      61.447  33.246  15.874  1.00  0.00    -0.000 C 
BRANCH  19  20
ATOM     20  C   UNL     1      61.501  34.408  16.877  1.00  0.00    -0.000 C 
BRANCH  20  21
ATOM     21  C   UNL     1      62.243  34.047  18.177  1.00  0.00    -0.000 C 
BRANCH  21  22
ATOM     22  C   UNL     1      63.777  33.996  18.058  1.00  0.00    -0.000 C 
BRANCH  22  23
ATOM     23  C   UNL     1      64.332  34.989  17.025  1.00  0.00    -0.000 C 
BRANCH  23  24
ATOM     24  C   UNL     1      65.711  34.546  16.525  1.00  0.00    -0.000 C 
BRANCH  24  25
ATOM     25  C   UNL     1      65.643  34.080  15.065  1.00  0.00    -0.003 C 
ATOM     26  C   UNL     1      65.976  35.220  14.107  1.00  0.00     0.004 C 
ENDBRANCH  24  25
ENDBRANCH  23  24
ENDBRANCH  22  23
ENDBRANCH  21  22
ENDBRANCH  20  21
ENDBRANCH  19  20
ENDBRANCH  18  19
ENDBRANCH  17  18
ENDBRANCH  16  17
ENDBRANCH  15  16
ENDBRANCH   1  15
TORSDOF 22
ENDMDL
MODEL 5
REMARK VINA RESULT:    -4.442      1.305      4.347
REMARK INTER + INTRA:         -13.771
REMARK INTER:                 -10.915
REMARK INTRA:                  -2.856
REMARK UNBOUND:                -3.615
REMARK SMILES CCCCCCCCCCCCCCCCCCCCCCCC(=O)[O-]
REMARK SMILES IDX 13 1 14 2 15 3 16 4 17 5 18 6 19 7 20 8 21 9 22 10 23 11
REMARK SMILES IDX 24 12 25 13 26 14 12 15 11 16 10 17 9 18 8 19 7 20 6 21 5 22
REMARK SMILES IDX 4 23 3 24 2 25 1 26
REMARK H PARENT
REMARK Flexibility Score: inf
ROOT
ATOM      1  C   UNL     1      60.600  28.705  13.097  1.00  0.00     0.000 C 
ENDROOT
BRANCH   1   2
ATOM      2  C   UNL     1      62.024  29.243  13.322  1.00  0.00     0.000 C 
BRANCH   2   3
ATOM      3  C   UNL     1      62.095  30.268  14.467  1.00  0.00     0.000 C 
BRANCH   3   4
ATOM      4  C   UNL     1      60.828  31.135  14.566  1.00  0.00     0.000 C 
BRANCH   4   5
ATOM      5  C   UNL     1      60.919  32.409  13.711  1.00  0.00     0.000 C 
BRANCH   5   6
ATOM      6  C   UNL     1      61.021  33.689  14.560  1.00  0.00     0.000 C 
BRANCH   6   7
ATOM      7  C   UNL     1      62.186  33.639  15.561  1.00  0.00     0.000 C 
BRANCH   7   8
ATOM      8  C   UNL     1      61.720  33.800  17.018  1.00  0.00     0.000 C 
BRANCH   8   9
ATOM      9  C   UNL     1      62.742  34.545  17.893  1.00  0.00     0.000 C 
BRANCH   9  10
ATOM     10  C   UNL     1      64.205  34.107  17.696  1.00  0.00     0.006 C 
BRANCH  10  11
ATOM     11  C   UNL     1      65.207  35.046  18.380  1.00  0.00     0.053 C 
BRANCH  11  12
ATOM     12  C   UNL     1      65.466  34.600  19.784  1.00  0.00     0.041 C 
ATOM     13  O   UNL     1      66.456  33.866  20.043  1.00  0.00    -0.550 OA
ATOM     14  O   UNL     1      64.586  34.952  20.800  1.00  0.00    -0.550 OA
ENDBRANCH  11  12
ENDBRANCH  10  11
ENDBRANCH   9  10
ENDBRANCH   8   9
ENDBRANCH   7   8
ENDBRANCH   6   7
ENDBRANCH   5   6
ENDBRANCH   4   5
ENDBRANCH   3   4
ENDBRANCH   2   3
ENDBRANCH   1   2
BRANCH   1  15
ATOM     15  C   UNL     1      60.195  28.711  11.614  1.00  0.00     0.000 C 
BRANCH  15  16
ATOM     16  C   UNL     1      60.517  30.040  10.915  1.00  0.00     0.000 C 
BRANCH  16  17
ATOM     17  C   UNL     1      60.851  29.813   9.433  1.00  0.00     0.000 C 
BRANCH  17  18
ATOM     18  C   UNL     1      61.861  28.674   9.219  1.00  0.00    -0.000 C 
BRANCH  18  19
ATOM     19  C   UNL     1      63.293  29.068   9.612  1.00  0.00    -0.000 C 
BRANCH  19  20
ATOM     20  C   UNL     1      63.716  30.369   8.915  1.00  0.00    -0.000 C 
BRANCH  20  21
ATOM     21  C   UNL     1      65.113  30.856   9.344  1.00  0.00    -0.000 C 
BRANCH  21  22
ATOM     22  C   UNL     1      65.247  32.380   9.515  1.00  0.00    -0.000 C 
BRANCH  22  23
ATOM     23  C   UNL     1      65.530  32.797  10.966  1.00  0.00    -0.000 C 
BRANCH  23  24
ATOM     24  C   UNL     1      64.355  32.434  11.881  1.00  0.00    -0.000 C 
BRANCH  24  25
ATOM     25  C   UNL     1      64.749  32.560  13.358  1.00  0.00    -0.003 C 
ATOM     26  C   UNL     1      65.528  33.847  13.612  1.00  0.00     0.004 C 
ENDBRANCH  24  25
ENDBRANCH  23  24
ENDBRANCH  22  23
ENDBRANCH  21  22
ENDBRANCH  20  21
ENDBRANCH  19  20
ENDBRANCH  18  19
ENDBRANCH  17  18
ENDBRANCH  16  17
ENDBRANCH  15  16
ENDBRANCH   1  15
TORSDOF 22
ENDMDL
MODEL 6
REMARK VINA RESULT:    -4.438      3.020      6.872
REMARK INTER + INTRA:         -13.761
REMARK INTER:                 -10.352
REMARK INTRA:                  -3.409
REMARK UNBOUND:                -3.615
REMARK SMILES CCCCCCCCCCCCCCCCCCCCCCCC(=O)[O-]
REMARK SMILES IDX 13 1 14 2 15 3 16 4 17 5 18 6 19 7 20 8 21 9 22 10 23 11
REMARK SMILES IDX 24 12 25 13 26 14 12 15 11 16 10 17 9 18 8 19 7 20 6 21 5 22
REMARK SMILES IDX 4 23 3 24 2 25 1 26
REMARK H PARENT
REMARK Flexibility Score: inf
ROOT
ATOM      1  C   UNL     1      60.659  31.726  15.021  1.00  0.00     0.000 C 
ENDROOT
BRANCH   1   2
ATOM      2  C   UNL     1      61.759  30.663  15.193  1.00  0.00     0.000 C 
BRANCH   2   3
ATOM      3  C   UNL     1      61.662  29.537  14.150  1.00  0.00     0.000 C 
BRANCH   3   4
ATOM      4  C   UNL     1      62.949  29.382  13.322  1.00  0.00     0.000 C 
BRANCH   4   5
ATOM      5  C   UNL     1      63.310  30.660  12.549  1.00  0.00     0.000 C 
BRANCH   5   6
ATOM      6  C   UNL     1      64.567  30.492  11.676  1.00  0.00     0.000 C 
BRANCH   6   7
ATOM      7  C   UNL     1      64.585  31.461  10.482  1.00  0.00     0.000 C 
BRANCH   7   8
ATOM      8  C   UNL     1      64.542  30.730   9.129  1.00  0.00     0.000 C 
BRANCH   8   9
ATOM      9  C   UNL     1      64.050  29.277   9.250  1.00  0.00     0.000 C 
BRANCH   9  10
ATOM     10  C   UNL     1      62.572  29.061   8.875  1.00  0.00     0.006 C 
BRANCH  10  11
ATOM     11  C   UNL     1      61.733  28.520  10.040  1.00  0.00     0.053 C 
BRANCH  11  12
ATOM     12  C   UNL     1      60.450  29.281  10.156  1.00  0.00     0.041 C 
ATOM     13  O   UNL     1      60.119  30.103   9.262  1.00  0.00    -0.550 OA
ATOM     14  O   UNL     1      59.644  29.119  11.276  1.00  0.00    -0.550 OA
ENDBRANCH  11  12
ENDBRANCH  10  11
ENDBRANCH   9  10
ENDBRANCH   8   9
ENDBRANCH   7   8
ENDBRANCH   6   7
ENDBRANCH   5   6
ENDBRANCH   4   5
ENDBRANCH   3   4
ENDBRANCH   2   3
ENDBRANCH   1   2
BRANCH   1  15
ATOM     15  C   UNL     1      61.200  33.048  14.454  1.00  0.00     0.000 C 
BRANCH  15  16
ATOM     16  C   UNL     1      61.217  34.178  15.494  1.00  0.00     0.000 C 
BRANCH  16  17
ATOM     17  C   UNL     1      61.656  33.650  16.869  1.00  0.00     0.000 C 
BRANCH  17  18
ATOM     18  C   UNL     1      62.220  34.755  17.777  1.00  0.00    -0.000 C 
BRANCH  18  19
ATOM     19  C   UNL     1      63.730  34.966  17.587  1.00  0.00    -0.000 C 
BRANCH  19  20
ATOM     20  C   UNL     1      64.535  33.953  18.413  1.00  0.00    -0.000 C 
BRANCH  20  21
ATOM     21  C   UNL     1      66.027  33.916  18.033  1.00  0.00    -0.000 C 
BRANCH  21  22
ATOM     22  C   UNL     1      66.334  34.266  16.567  1.00  0.00    -0.000 C 
BRANCH  22  23
ATOM     23  C   UNL     1      66.465  33.026  15.669  1.00  0.00    -0.000 C 
BRANCH  23  24
ATOM     24  C   UNL     1      65.124  32.681  15.010  1.00  0.00    -0.000 C 
BRANCH  24  25
ATOM     25  C   UNL     1      64.722  33.752  13.989  1.00  0.00    -0.003 C 
ATOM     26  C   UNL     1      65.783  33.902  12.902  1.00  0.00     0.004 C 
ENDBRANCH  24  25
ENDBRANCH  23  24
ENDBRANCH  22  23
ENDBRANCH  21  22
ENDBRANCH  20  21
ENDBRANCH  19  20
ENDBRANCH  18  19
ENDBRANCH  17  18
ENDBRANCH  16  17
ENDBRANCH  15  16
ENDBRANCH   1  15
TORSDOF 22
ENDMDL
MODEL 7
REMARK VINA RESULT:    -4.397      1.231      4.196
REMARK INTER + INTRA:         -13.668
REMARK INTER:                 -10.616
REMARK INTRA:                  -3.053
REMARK UNBOUND:                -3.615
REMARK SMILES CCCCCCCCCCCCCCCCCCCCCCCC(=O)[O-]
REMARK SMILES IDX 13 1 14 2 15 3 16 4 17 5 18 6 19 7 20 8 21 9 22 10 23 11
REMARK SMILES IDX 24 12 25 13 26 14 12 15 11 16 10 17 9 18 8 19 7 20 6 21 5 22
REMARK SMILES IDX 4 23 3 24 2 25 1 26
REMARK H PARENT
REMARK Flexibility Score: inf
ROOT
ATOM      1  C   UNL     1      62.103  28.807  12.764  1.00  0.00     0.000 C 
ENDROOT
BRANCH   1   2
ATOM      2  C   UNL     1      62.695  29.898  13.674  1.00  0.00     0.000 C 
BRANCH   2   3
ATOM      3  C   UNL     1      61.992  31.256  13.503  1.00  0.00     0.000 C 
BRANCH   3   4
ATOM      4  C   UNL     1      61.318  31.741  14.798  1.00  0.00     0.000 C 
BRANCH   4   5
ATOM      5  C   UNL     1      61.351  33.271  14.941  1.00  0.00     0.000 C 
BRANCH   5   6
ATOM      6  C   UNL     1      62.482  33.758  15.865  1.00  0.00     0.000 C 
BRANCH   6   7
ATOM      7  C   UNL     1      63.824  33.893  15.128  1.00  0.00     0.000 C 
BRANCH   7   8
ATOM      8  C   UNL     1      64.797  32.747  15.458  1.00  0.00     0.000 C 
BRANCH   8   9
ATOM      9  C   UNL     1      66.242  33.232  15.667  1.00  0.00     0.000 C 
BRANCH   9  10
ATOM     10  C   UNL     1      66.413  34.309  16.755  1.00  0.00     0.006 C 
BRANCH  10  11
ATOM     11  C   UNL     1      66.047  33.806  18.157  1.00  0.00     0.053 C 
BRANCH  11  12
ATOM     12  C   UNL     1      65.029  34.705  18.784  1.00  0.00     0.041 C 
ATOM     13  O   UNL     1      65.317  35.902  19.047  1.00  0.00    -0.550 OA
ATOM     14  O   UNL     1      63.777  34.208  19.125  1.00  0.00    -0.550 OA
ENDBRANCH  11  12
ENDBRANCH  10  11
ENDBRANCH   9  10
ENDBRANCH   8   9
ENDBRANCH   7   8
ENDBRANCH   6   7
ENDBRANCH   5   6
ENDBRANCH   4   5
ENDBRANCH   3   4
ENDBRANCH   2   3
ENDBRANCH   1   2
BRANCH   1  15
ATOM     15  C   UNL     1      60.693  28.378  13.200  1.00  0.00     0.000 C 
BRANCH  15  16
ATOM     16  C   UNL     1      59.627  28.666  12.131  1.00  0.00     0.000 C 
BRANCH  16  17
ATOM     17  C   UNL     1      60.238  29.413  10.935  1.00  0.00     0.000 C 
BRANCH  17  18
ATOM     18  C   UNL     1      60.133  28.619   9.624  1.00  0.00    -0.000 C 
BRANCH  18  19
ATOM     19  C   UNL     1      61.480  28.499   8.893  1.00  0.00    -0.000 C 
BRANCH  19  20
ATOM     20  C   UNL     1      62.369  29.718   9.174  1.00  0.00    -0.000 C 
BRANCH  20  21
ATOM     21  C   UNL     1      63.812  29.337   9.552  1.00  0.00    -0.000 C 
BRANCH  21  22
ATOM     22  C   UNL     1      64.818  30.502   9.538  1.00  0.00    -0.000 C 
BRANCH  22  23
ATOM     23  C   UNL     1      64.601  31.494  10.691  1.00  0.00    -0.000 C 
BRANCH  23  24
ATOM     24  C   UNL     1      65.730  32.530  10.744  1.00  0.00    -0.000 C 
BRANCH  24  25
ATOM     25  C   UNL     1      65.540  33.491  11.923  1.00  0.00    -0.003 C 
ATOM     26  C   UNL     1      66.388  34.748  11.752  1.00  0.00     0.004 C 
ENDBRANCH  24  25
ENDBRANCH  23  24
ENDBRANCH  22  23
ENDBRANCH  21  22
ENDBRANCH  20  21
ENDBRANCH  19  20
ENDBRANCH  18  19
ENDBRANCH  17  18
ENDBRANCH  16  17
ENDBRANCH  15  16
ENDBRANCH   1  15
TORSDOF 22
ENDMDL
MODEL 8
REMARK VINA RESULT:    -4.390      2.049      5.547
REMARK INTER + INTRA:         -13.651
REMARK INTER:                 -10.195
REMARK INTRA:                  -3.456
REMARK UNBOUND:                -3.615
REMARK SMILES CCCCCCCCCCCCCCCCCCCCCCCC(=O)[O-]
REMARK SMILES IDX 13 1 14 2 15 3 16 4 17 5 18 6 19 7 20 8 21 9 22 10 23 11
REMARK SMILES IDX 24 12 25 13 26 14 12 15 11 16 10 17 9 18 8 19 7 20 6 21 5 22
REMARK SMILES IDX 4 23 3 24 2 25 1 26
REMARK H PARENT
REMARK Flexibility Score: inf
ROOT
ATOM      1  C   UNL     1      64.466  32.618  14.382  1.00  0.00     0.000 C 
ENDROOT
BRANCH   1   2
ATOM      2  C   UNL     1      65.882  32.809  14.956  1.00  0.00     0.000 C 
BRANCH   2   3
ATOM      3  C   UNL     1      66.523  34.136  14.518  1.00  0.00     0.000 C 
BRANCH   3   4
ATOM      4  C   UNL     1      66.078  35.325  15.388  1.00  0.00     0.000 C 
BRANCH   4   5
ATOM      5  C   UNL     1      66.713  35.300  16.787  1.00  0.00     0.000 C 
BRANCH   5   6
ATOM      6  C   UNL     1      65.673  35.131  17.909  1.00  0.00     0.000 C 
BRANCH   6   7
ATOM      7  C   UNL     1      64.230  35.256  17.395  1.00  0.00     0.000 C 
BRANCH   7   8
ATOM      8  C   UNL     1      63.361  34.043  17.772  1.00  0.00     0.000 C 
BRANCH   8   9
ATOM      9  C   UNL     1      61.869  34.258  17.464  1.00  0.00     0.000 C 
BRANCH   9  10
ATOM     10  C   UNL     1      61.484  34.098  15.982  1.00  0.00     0.006 C 
BRANCH  10  11
ATOM     11  C   UNL     1      61.214  32.640  15.589  1.00  0.00     0.053 C 
BRANCH  11  12
ATOM     12  C   UNL     1      60.549  32.575  14.250  1.00  0.00     0.041 C 
ATOM     13  O   UNL     1      61.041  33.192  13.268  1.00  0.00    -0.550 OA
ATOM     14  O   UNL     1      59.359  31.876  14.097  1.00  0.00    -0.550 OA
ENDBRANCH  11  12
ENDBRANCH  10  11
ENDBRANCH   9  10
ENDBRANCH   8   9
ENDBRANCH   7   8
ENDBRANCH   6   7
ENDBRANCH   5   6
ENDBRANCH   4   5
ENDBRANCH   3   4
ENDBRANCH   2   3
ENDBRANCH   1   2
BRANCH   1  15
ATOM     15  C   UNL     1      64.444  31.669  13.173  1.00  0.00     0.000 C 
BRANCH  15  16
ATOM     16  C   UNL     1      64.218  32.406  11.844  1.00  0.00     0.000 C 
BRANCH  16  17
ATOM     17  C   UNL     1      65.557  32.744  11.170  1.00  0.00     0.000 C 
BRANCH  17  18
ATOM     18  C   UNL     1      65.874  31.820   9.984  1.00  0.00    -0.000 C 
BRANCH  18  19
ATOM     19  C   UNL     1      64.619  31.410   9.198  1.00  0.00    -0.000 C 
BRANCH  19  20
ATOM     20  C   UNL     1      64.505  29.882   9.101  1.00  0.00    -0.000 C 
BRANCH  20  21
ATOM     21  C   UNL     1      63.482  29.291  10.089  1.00  0.00    -0.000 C 
BRANCH  21  22
ATOM     22  C   UNL     1      62.027  29.742   9.867  1.00  0.00    -0.000 C 
BRANCH  22  23
ATOM     23  C   UNL     1      61.334  30.190  11.163  1.00  0.00    -0.000 C 
BRANCH  23  24
ATOM     24  C   UNL     1      60.236  29.200  11.569  1.00  0.00    -0.000 C 
BRANCH  24  25
ATOM     25  C   UNL     1      60.475  28.664  12.986  1.00  0.00    -0.003 C 
ATOM     26  C   UNL     1      61.848  29.081  13.508  1.00  0.00     0.004 C 
ENDBRANCH  24  25
ENDBRANCH  23  24
ENDBRANCH  22  23
ENDBRANCH  21  22
ENDBRANCH  20  21
ENDBRANCH  19  20
ENDBRANCH  18  19
ENDBRANCH  17  18
ENDBRANCH  16  17
ENDBRANCH  15  16
ENDBRANCH   1  15
TORSDOF 22
ENDMDL
MODEL 9
REMARK VINA RESULT:    -4.388      3.162      7.118
REMARK INTER + INTRA:         -13.647
REMARK INTER:                 -10.180
REMARK INTRA:                  -3.467
REMARK UNBOUND:                -3.615
REMARK SMILES CCCCCCCCCCCCCCCCCCCCCCCC(=O)[O-]
REMARK SMILES IDX 13 1 14 2 15 3 16 4 17 5 18 6 19 7 20 8 21 9 22 10 23 11
REMARK SMILES IDX 24 12 25 13 26 14 12 15 11 16 10 17 9 18 8 19 7 20 6 21 5 22
REMARK SMILES IDX 4 23 3 24 2 25 1 26
REMARK H PARENT
REMARK Flexibility Score: inf
ROOT
ATOM      1  C   UNL     1      65.735  33.137  16.105  1.00  0.00     0.000 C 
ENDROOT
BRANCH   1   2
ATOM      2  C   UNL     1      65.516  32.604  14.678  1.00  0.00     0.000 C 
BRANCH   2   3
ATOM      3  C   UNL     1      65.116  33.711  13.688  1.00  0.00     0.000 C 
BRANCH   3   4
ATOM      4  C   UNL     1      64.836  33.172  12.274  1.00  0.00     0.000 C 
BRANCH   4   5
ATOM      5  C   UNL     1      65.873  33.650  11.246  1.00  0.00     0.000 C 
BRANCH   5   6
ATOM      6  C   UNL     1      66.238  32.563  10.219  1.00  0.00     0.000 C 
BRANCH   6   7
ATOM      7  C   UNL     1      65.487  31.245  10.469  1.00  0.00     0.000 C 
BRANCH   7   8
ATOM      8  C   UNL     1      65.151  30.501   9.164  1.00  0.00     0.000 C 
BRANCH   8   9
ATOM      9  C   UNL     1      64.192  29.318   9.382  1.00  0.00     0.000 C 
BRANCH   9  10
ATOM     10  C   UNL     1      62.743  29.566   8.924  1.00  0.00     0.006 C 
BRANCH  10  11
ATOM     11  C   UNL     1      61.748  28.560   9.517  1.00  0.00     0.053 C 
BRANCH  11  12
ATOM     12  C   UNL     1      60.346  29.052   9.351  1.00  0.00     0.041 C 
ATOM     13  O   UNL     1      60.046  30.231   9.678  1.00  0.00    -0.550 OA
ATOM     14  O   UNL     1      59.358  28.196   8.881  1.00  0.00    -0.550 OA
ENDBRANCH  11  12
ENDBRANCH  10  11
ENDBRANCH   9  10
ENDBRANCH   8   9
ENDBRANCH   7   8
ENDBRANCH   6   7
ENDBRANCH   5   6
ENDBRANCH   4   5
ENDBRANCH   3   4
ENDBRANCH   2   3
ENDBRANCH   1   2
BRANCH   1  15
ATOM     15  C   UNL     1      65.949  34.659  16.139  1.00  0.00     0.000 C 
BRANCH  15  16
ATOM     16  C   UNL     1      64.836  35.399  16.896  1.00  0.00     0.000 C 
BRANCH  16  17
ATOM     17  C   UNL     1      64.356  34.578  18.104  1.00  0.00     0.000 C 
BRANCH  17  18
ATOM     18  C   UNL     1      62.863  34.225  18.027  1.00  0.00    -0.000 C 
BRANCH  18  19
ATOM     19  C   UNL     1      62.372  34.031  16.584  1.00  0.00    -0.000 C 
BRANCH  19  20
ATOM     20  C   UNL     1      61.894  32.590  16.355  1.00  0.00    -0.000 C 
BRANCH  20  21
ATOM     21  C   UNL     1      60.836  32.476  15.242  1.00  0.00    -0.000 C 
BRANCH  21  22
ATOM     22  C   UNL     1      61.061  33.401  14.032  1.00  0.00    -0.000 C 
BRANCH  22  23
ATOM     23  C   UNL     1      61.163  32.636  12.703  1.00  0.00    -0.000 C 
BRANCH  23  24
ATOM     24  C   UNL     1      61.144  31.122  12.938  1.00  0.00    -0.000 C 
BRANCH  24  25
ATOM     25  C   UNL     1      62.429  30.468  12.417  1.00  0.00    -0.003 C 
ATOM     26  C   UNL     1      63.046  29.551  13.469  1.00  0.00     0.004 C 
ENDBRANCH  24  25
ENDBRANCH  23  24
ENDBRANCH  22  23
ENDBRANCH  21  22
ENDBRANCH  20  21
ENDBRANCH  19  20
ENDBRANCH  18  19
ENDBRANCH  17  18
ENDBRANCH  16  17
ENDBRANCH  15  16
ENDBRANCH   1  15
TORSDOF 22
ENDMDL
