MODEL 1
REMARK VINA RESULT:    -6.207      0.000      0.000
REMARK INTER + INTRA:         -10.549
REMARK INTER:                  -9.473
REMARK INTRA:                  -1.075
REMARK UNBOUND:                -1.075
REMARK SMILES OC[C@@H]1O[C@@H](O[C@]2(CO)O[C@@H](CO)[C@H](O)[C@@H]2O)[C@H](O)[C@@H](O)[C@H]1O
REMARK SMILES IDX 6 1 5 2 3 3 22 4 4 5 20 6 18 7 2 8 1 9 23 11 21 13 19 15
REMARK SMILES IDX 7 17 16 18 10 19 14 20 11 21 8 22 9 23 17 25 15 27 12 29
REMARK SMILES IDX 13 30
REMARK H PARENT 1 10 23 12 21 14 19 16 9 24 17 26 15 28 13 31
REMARK Flexibility Score: inf
ROOT
ATOM      1  O   UNL     1       0.995  29.777   1.968  1.00  0.00    -0.313 OA
ENDROOT
BRANCH   1   2
ATOM      2  C   UNL     1       2.386  29.261   1.715  1.00  0.00     0.285 C 
ATOM      3  C   UNL     1       2.777  27.943  -0.396  1.00  0.00     0.178 C 
ATOM      4  C   UNL     1       3.470  26.738   0.343  1.00  0.00     0.177 C 
ATOM      5  O   UNL     1       2.727  29.206   0.275  1.00  0.00    -0.341 OA
ATOM      6  C   UNL     1       3.079  26.579   1.862  1.00  0.00     0.179 C 
ATOM      7  C   UNL     1       2.841  27.977   2.586  1.00  0.00     0.202 C 
BRANCH   3   8
ATOM      8  C   UNL     1       3.300  28.113  -1.804  1.00  0.00     0.191 C 
BRANCH   8   9
ATOM      9  O   UNL     1       4.638  27.653  -1.929  1.00  0.00    -0.394 OA
ATOM     10  H   UNL     1       4.776  26.855  -1.344  1.00  0.00     0.210 HD
ENDBRANCH   8   9
ENDBRANCH   3   8
BRANCH   4  11
ATOM     11  O   UNL     1       3.304  25.491  -0.236  1.00  0.00    -0.387 OA
ATOM     12  H   UNL     1       4.315  25.144  -0.371  1.00  0.00     0.211 HD
ENDBRANCH   4  11
BRANCH   6  13
ATOM     13  O   UNL     1       1.992  25.604   2.076  1.00  0.00    -0.387 OA
ATOM     14  H   UNL     1       1.271  26.102   2.324  1.00  0.00     0.211 HD
ENDBRANCH   6  13
BRANCH   7  15
ATOM     15  O   UNL     1       4.152  28.402   2.786  1.00  0.00    -0.385 OA
ATOM     16  H   UNL     1       4.726  27.607   2.459  1.00  0.00     0.211 HD
ENDBRANCH   7  15
ENDBRANCH   1   2
BRANCH   1  17
ATOM     17  C   UNL     1       0.965  31.118   2.523  1.00  0.00     0.224 C 
ATOM     18  C   UNL     1       0.247  32.157   1.369  1.00  0.00     0.208 C 
ATOM     19  O   UNL     1       0.195  31.101   3.735  1.00  0.00    -0.337 OA
ATOM     20  C   UNL     1      -1.098  32.007   1.976  1.00  0.00     0.180 C 
ATOM     21  C   UNL     1      -0.796  32.088   3.480  1.00  0.00     0.179 C 
BRANCH  17  22
ATOM     22  C   UNL     1       2.366  31.640   2.864  1.00  0.00     0.225 C 
BRANCH  22  23
ATOM     23  O   UNL     1       2.705  31.534   4.236  1.00  0.00    -0.391 OA
ATOM     24  H   UNL     1       3.175  32.431   4.481  1.00  0.00     0.210 HD
ENDBRANCH  22  23
ENDBRANCH  17  22
BRANCH  18  25
ATOM     25  O   UNL     1       0.875  31.818   0.162  1.00  0.00    -0.385 OA
ATOM     26  H   UNL     1       1.584  31.208   0.483  1.00  0.00     0.211 HD
ENDBRANCH  18  25
BRANCH  20  27
ATOM     27  O   UNL     1      -1.536  30.648   1.574  1.00  0.00    -0.387 OA
ATOM     28  H   UNL     1      -0.717  30.186   1.163  1.00  0.00     0.211 HD
ENDBRANCH  20  27
BRANCH  21  29
ATOM     29  C   UNL     1      -0.226  33.462   4.073  1.00  0.00     0.191 C 
BRANCH  29  30
ATOM     30  O   UNL     1      -1.241  34.236   4.590  1.00  0.00    -0.394 OA
ATOM     31  H   UNL     1      -0.662  35.020   4.932  1.00  0.00     0.210 HD
ENDBRANCH  29  30
ENDBRANCH  21  29
ENDBRANCH   1  17
TORSDOF 13
ENDMDL
MODEL 2
REMARK VINA RESULT:    -6.166      3.630      6.790
REMARK INTER + INTRA:         -10.485
REMARK INTER:                  -9.339
REMARK INTRA:                  -1.146
REMARK UNBOUND:                -1.075
REMARK SMILES OC[C@@H]1O[C@@H](O[C@]2(CO)O[C@@H](CO)[C@H](O)[C@@H]2O)[C@H](O)[C@@H](O)[C@H]1O
REMARK SMILES IDX 6 1 5 2 3 3 22 4 4 5 20 6 18 7 2 8 1 9 23 11 21 13 19 15
REMARK SMILES IDX 7 17 16 18 10 19 14 20 11 21 8 22 9 23 17 25 15 27 12 29
REMARK SMILES IDX 13 30
REMARK H PARENT 1 10 23 12 21 14 19 16 9 24 17 26 15 28 13 31
REMARK Flexibility Score: inf
ROOT
ATOM      1  O   UNL     1       3.655  33.413   2.836  1.00  0.00    -0.313 OA
ENDROOT
BRANCH   1   2
ATOM      2  C   UNL     1       2.683  32.452   3.462  1.00  0.00     0.285 C 
ATOM      3  C   UNL     1       0.267  32.614   2.766  1.00  0.00     0.178 C 
ATOM      4  C   UNL     1      -0.278  32.673   4.242  1.00  0.00     0.177 C 
ATOM      5  O   UNL     1       1.576  32.077   2.552  1.00  0.00    -0.341 OA
ATOM      6  C   UNL     1       0.754  33.203   5.309  1.00  0.00     0.179 C 
ATOM      7  C   UNL     1       2.251  32.764   4.988  1.00  0.00     0.202 C 
BRANCH   3   8
ATOM      8  C   UNL     1      -0.728  31.972   1.826  1.00  0.00     0.191 C 
BRANCH   8   9
ATOM      9  O   UNL     1      -2.000  32.602   1.891  1.00  0.00    -0.394 OA
ATOM     10  H   UNL     1      -2.645  32.119   1.302  1.00  0.00     0.210 HD
ENDBRANCH   8   9
ENDBRANCH   3   8
BRANCH   4  11
ATOM     11  O   UNL     1      -1.444  33.395   4.434  1.00  0.00    -0.387 OA
ATOM     12  H   UNL     1      -2.115  32.671   4.864  1.00  0.00     0.211 HD
ENDBRANCH   4  11
BRANCH   6  13
ATOM     13  O   UNL     1       0.602  34.643   5.588  1.00  0.00    -0.387 OA
ATOM     14  H   UNL     1      -0.247  34.736   5.906  1.00  0.00     0.211 HD
ENDBRANCH   6  13
BRANCH   7  15
ATOM     15  O   UNL     1       2.236  31.435   5.404  1.00  0.00    -0.385 OA
ATOM     16  H   UNL     1       3.128  31.052   5.051  1.00  0.00     0.211 HD
ENDBRANCH   7  15
ENDBRANCH   1   2
BRANCH   1  17
ATOM     17  C   UNL     1       4.901  32.793   2.423  1.00  0.00     0.224 C 
ATOM     18  C   UNL     1       5.267  33.332   0.841  1.00  0.00     0.208 C 
ATOM     19  O   UNL     1       5.937  33.179   3.339  1.00  0.00    -0.337 OA
ATOM     20  C   UNL     1       6.123  34.433   1.345  1.00  0.00     0.180 C 
ATOM     21  C   UNL     1       6.910  33.753   2.475  1.00  0.00     0.179 C 
BRANCH  17  22
ATOM     22  C   UNL     1       4.819  31.262   2.424  1.00  0.00     0.225 C 
BRANCH  22  23
ATOM     23  O   UNL     1       5.492  30.647   3.509  1.00  0.00    -0.391 OA
ATOM     24  H   UNL     1       4.920  30.859   4.353  1.00  0.00     0.210 HD
ENDBRANCH  22  23
ENDBRANCH  17  22
BRANCH  18  25
ATOM     25  O   UNL     1       4.056  33.206   0.146  1.00  0.00    -0.385 OA
ATOM     26  H   UNL     1       3.520  33.922   0.567  1.00  0.00     0.211 HD
ENDBRANCH  18  25
BRANCH  20  27
ATOM     27  O   UNL     1       5.165  35.439   1.866  1.00  0.00    -0.387 OA
ATOM     28  H   UNL     1       5.591  36.359   1.704  1.00  0.00     0.211 HD
ENDBRANCH  20  27
BRANCH  21  29
ATOM     29  C   UNL     1       7.929  32.576   2.099  1.00  0.00     0.191 C 
BRANCH  29  30
ATOM     30  O   UNL     1       8.238  31.818   3.206  1.00  0.00    -0.394 OA
ATOM     31  H   UNL     1       7.274  31.621   3.518  1.00  0.00     0.210 HD
ENDBRANCH  29  30
ENDBRANCH  21  29
ENDBRANCH   1  17
TORSDOF 13
ENDMDL
MODEL 3
REMARK VINA RESULT:    -6.018      1.425      6.680
REMARK INTER + INTRA:         -10.259
REMARK INTER:                  -8.969
REMARK INTRA:                  -1.291
REMARK UNBOUND:                -1.075
REMARK SMILES OC[C@@H]1O[C@@H](O[C@]2(CO)O[C@@H](CO)[C@H](O)[C@@H]2O)[C@H](O)[C@@H](O)[C@H]1O
REMARK SMILES IDX 6 1 5 2 3 3 22 4 4 5 20 6 18 7 2 8 1 9 23 11 21 13 19 15
REMARK SMILES IDX 7 17 16 18 10 19 14 20 11 21 8 22 9 23 17 25 15 27 12 29
REMARK SMILES IDX 13 30
REMARK H PARENT 1 10 23 12 21 14 19 16 9 24 17 26 15 28 13 31
REMARK Flexibility Score: inf
ROOT
ATOM      1  O   UNL     1       1.474  29.131   2.709  1.00  0.00    -0.313 OA
ENDROOT
BRANCH   1   2
ATOM      2  C   UNL     1       1.633  30.621   2.848  1.00  0.00     0.285 C 
ATOM      3  C   UNL     1       0.520  31.735   4.815  1.00  0.00     0.178 C 
ATOM      4  C   UNL     1      -0.195  32.832   3.940  1.00  0.00     0.177 C 
ATOM      5  O   UNL     1       1.658  31.069   4.260  1.00  0.00    -0.341 OA
ATOM      6  C   UNL     1      -0.429  32.430   2.434  1.00  0.00     0.179 C 
ATOM      7  C   UNL     1       0.747  31.530   1.848  1.00  0.00     0.202 C 
BRANCH   3   8
ATOM      8  C   UNL     1       0.831  32.241   6.205  1.00  0.00     0.191 C 
BRANCH   8   9
ATOM      9  O   UNL     1       0.833  33.661   6.263  1.00  0.00    -0.394 OA
ATOM     10  H   UNL     1       1.631  34.015   5.779  1.00  0.00     0.210 HD
ENDBRANCH   8   9
ENDBRANCH   3   8
BRANCH   4  11
ATOM     11  O   UNL     1      -1.412  33.293   4.416  1.00  0.00    -0.387 OA
ATOM     12  H   UNL     1      -1.220  34.333   4.619  1.00  0.00     0.211 HD
ENDBRANCH   4  11
BRANCH   6  13
ATOM     13  O   UNL     1      -1.777  31.884   2.189  1.00  0.00    -0.387 OA
ATOM     14  H   UNL     1      -2.054  31.563   2.995  1.00  0.00     0.211 HD
ENDBRANCH   6  13
BRANCH   7  15
ATOM     15  O   UNL     1       1.731  32.489   1.623  1.00  0.00    -0.385 OA
ATOM     16  H   UNL     1       1.662  32.688   0.611  1.00  0.00     0.211 HD
ENDBRANCH   7  15
ENDBRANCH   1   2
BRANCH   1  17
ATOM     17  C   UNL     1       2.576  28.492   2.012  1.00  0.00     0.224 C 
ATOM     18  C   UNL     1       3.119  27.178   2.963  1.00  0.00     0.208 C 
ATOM     19  O   UNL     1       2.110  28.032   0.734  1.00  0.00    -0.337 OA
ATOM     20  C   UNL     1       2.259  26.214   2.235  1.00  0.00     0.180 C 
ATOM     21  C   UNL     1       2.433  26.648   0.773  1.00  0.00     0.179 C 
BRANCH  17  22
ATOM     22  C   UNL     1       3.747  29.452   1.768  1.00  0.00     0.225 C 
BRANCH  22  23
ATOM     23  O   UNL     1       3.864  29.892   0.426  1.00  0.00    -0.391 OA
ATOM     24  H   UNL     1       2.931  29.726  -0.008  1.00  0.00     0.210 HD
ENDBRANCH  22  23
ENDBRANCH  17  22
BRANCH  18  25
ATOM     25  O   UNL     1       3.207  27.705   4.260  1.00  0.00    -0.385 OA
ATOM     26  H   UNL     1       2.251  27.764   4.505  1.00  0.00     0.211 HD
ENDBRANCH  18  25
BRANCH  20  27
ATOM     27  O   UNL     1       0.889  26.489   2.734  1.00  0.00    -0.387 OA
ATOM     28  H   UNL     1       0.254  26.345   1.940  1.00  0.00     0.211 HD
ENDBRANCH  20  27
BRANCH  21  29
ATOM     29  C   UNL     1       3.879  26.503   0.098  1.00  0.00     0.191 C 
BRANCH  29  30
ATOM     30  O   UNL     1       3.955  27.231  -1.068  1.00  0.00    -0.394 OA
ATOM     31  H   UNL     1       4.270  28.125  -0.658  1.00  0.00     0.210 HD
ENDBRANCH  29  30
ENDBRANCH  21  29
ENDBRANCH   1  17
TORSDOF 13
ENDMDL
MODEL 4
REMARK VINA RESULT:    -5.876      1.799      6.538
REMARK INTER + INTRA:         -10.042
REMARK INTER:                  -8.853
REMARK INTRA:                  -1.189
REMARK UNBOUND:                -1.075
REMARK SMILES OC[C@@H]1O[C@@H](O[C@]2(CO)O[C@@H](CO)[C@H](O)[C@@H]2O)[C@H](O)[C@@H](O)[C@H]1O
REMARK SMILES IDX 6 1 5 2 3 3 22 4 4 5 20 6 18 7 2 8 1 9 23 11 21 13 19 15
REMARK SMILES IDX 7 17 16 18 10 19 14 20 11 21 8 22 9 23 17 25 15 27 12 29
REMARK SMILES IDX 13 30
REMARK H PARENT 1 10 23 12 21 14 19 16 9 24 17 26 15 28 13 31
REMARK Flexibility Score: inf
ROOT
ATOM      1  O   UNL     1       2.258  29.539   3.657  1.00  0.00    -0.313 OA
ENDROOT
BRANCH   1   2
ATOM      2  C   UNL     1       1.642  30.769   3.047  1.00  0.00     0.285 C 
ATOM      3  C   UNL     1       2.457  33.009   3.861  1.00  0.00     0.178 C 
ATOM      4  C   UNL     1       1.011  33.565   4.146  1.00  0.00     0.177 C 
ATOM      5  O   UNL     1       2.588  31.905   2.961  1.00  0.00    -0.341 OA
ATOM      6  C   UNL     1      -0.083  32.461   4.410  1.00  0.00     0.179 C 
ATOM      7  C   UNL     1       0.151  31.144   3.545  1.00  0.00     0.202 C 
BRANCH   3   8
ATOM      8  C   UNL     1       3.418  34.114   3.485  1.00  0.00     0.191 C 
BRANCH   8   9
ATOM      9  O   UNL     1       3.793  34.894   4.612  1.00  0.00    -0.394 OA
ATOM     10  H   UNL     1       3.113  34.788   5.336  1.00  0.00     0.210 HD
ENDBRANCH   8   9
ENDBRANCH   3   8
BRANCH   4  11
ATOM     11  O   UNL     1       0.902  34.479   5.180  1.00  0.00    -0.387 OA
ATOM     12  H   UNL     1      -0.104  34.850   5.077  1.00  0.00     0.211 HD
ENDBRANCH   4  11
BRANCH   6  13
ATOM     13  O   UNL     1      -0.300  32.200   5.845  1.00  0.00    -0.387 OA
ATOM     14  H   UNL     1      -0.027  31.341   5.976  1.00  0.00     0.211 HD
ENDBRANCH   6  13
BRANCH   7  15
ATOM     15  O   UNL     1      -0.313  31.556   2.299  1.00  0.00    -0.385 OA
ATOM     16  H   UNL     1      -1.341  31.567   2.404  1.00  0.00     0.211 HD
ENDBRANCH   7  15
ENDBRANCH   1   2
BRANCH   1  17
ATOM     17  C   UNL     1       3.042  28.755   2.720  1.00  0.00     0.224 C 
ATOM     18  C   UNL     1       3.169  27.162   3.330  1.00  0.00     0.208 C 
ATOM     19  O   UNL     1       2.378  28.756   1.446  1.00  0.00    -0.337 OA
ATOM     20  C   UNL     1       1.996  26.701   2.548  1.00  0.00     0.180 C 
ATOM     21  C   UNL     1       2.222  27.368   1.183  1.00  0.00     0.179 C 
BRANCH  17  22
ATOM     22  C   UNL     1       4.450  29.328   2.515  1.00  0.00     0.225 C 
BRANCH  22  23
ATOM     23  O   UNL     1       4.962  30.020   3.641  1.00  0.00    -0.391 OA
ATOM     24  H   UNL     1       4.518  30.962   3.619  1.00  0.00     0.210 HD
ENDBRANCH  22  23
ENDBRANCH  17  22
BRANCH  18  25
ATOM     25  O   UNL     1       3.500  27.338   4.681  1.00  0.00    -0.385 OA
ATOM     26  H   UNL     1       3.477  28.323   4.756  1.00  0.00     0.211 HD
ENDBRANCH  18  25
BRANCH  20  27
ATOM     27  O   UNL     1       0.827  27.277   3.257  1.00  0.00    -0.387 OA
ATOM     28  H   UNL     1       0.021  26.687   3.019  1.00  0.00     0.211 HD
ENDBRANCH  20  27
BRANCH  21  29
ATOM     29  C   UNL     1       3.496  26.928   0.317  1.00  0.00     0.191 C 
BRANCH  29  30
ATOM     30  O   UNL     1       3.377  25.625  -0.111  1.00  0.00    -0.394 OA
ATOM     31  H   UNL     1       2.840  25.260   0.692  1.00  0.00     0.210 HD
ENDBRANCH  29  30
ENDBRANCH  21  29
ENDBRANCH   1  17
TORSDOF 13
ENDMDL
MODEL 5
REMARK VINA RESULT:    -5.872      2.984      6.745
REMARK INTER + INTRA:         -10.037
REMARK INTER:                  -8.915
REMARK INTRA:                  -1.122
REMARK UNBOUND:                -1.075
REMARK SMILES OC[C@@H]1O[C@@H](O[C@]2(CO)O[C@@H](CO)[C@H](O)[C@@H]2O)[C@H](O)[C@@H](O)[C@H]1O
REMARK SMILES IDX 6 1 5 2 3 3 22 4 4 5 20 6 18 7 2 8 1 9 23 11 21 13 19 15
REMARK SMILES IDX 7 17 16 18 10 19 14 20 11 21 8 22 9 23 17 25 15 27 12 29
REMARK SMILES IDX 13 30
REMARK H PARENT 1 10 23 12 21 14 19 16 9 24 17 26 15 28 13 31
REMARK Flexibility Score: inf
ROOT
ATOM      1  O   UNL     1       3.325  32.571   2.540  1.00  0.00    -0.313 OA
ENDROOT
BRANCH   1   2
ATOM      2  C   UNL     1       2.308  31.876   3.404  1.00  0.00     0.285 C 
ATOM      3  C   UNL     1      -0.126  32.229   2.858  1.00  0.00     0.178 C 
ATOM      4  C   UNL     1      -0.522  32.626   4.330  1.00  0.00     0.177 C 
ATOM      5  O   UNL     1       1.085  31.493   2.662  1.00  0.00    -0.341 OA
ATOM      6  C   UNL     1       0.660  33.198   5.202  1.00  0.00     0.179 C 
ATOM      7  C   UNL     1       2.059  32.514   4.869  1.00  0.00     0.202 C 
BRANCH   3   8
ATOM      8  C   UNL     1      -1.272  31.566   2.129  1.00  0.00     0.191 C 
BRANCH   8   9
ATOM      9  O   UNL     1      -2.438  32.378   2.126  1.00  0.00    -0.394 OA
ATOM     10  H   UNL     1      -3.203  31.868   2.514  1.00  0.00     0.210 HD
ENDBRANCH   8   9
ENDBRANCH   3   8
BRANCH   4  11
ATOM     11  O   UNL     1      -1.572  33.519   4.459  1.00  0.00    -0.387 OA
ATOM     12  H   UNL     1      -2.216  33.265   3.635  1.00  0.00     0.211 HD
ENDBRANCH   4  11
BRANCH   6  13
ATOM     13  O   UNL     1       0.704  34.673   5.210  1.00  0.00    -0.387 OA
ATOM     14  H   UNL     1      -0.167  34.938   5.175  1.00  0.00     0.211 HD
ENDBRANCH   6  13
BRANCH   7  15
ATOM     15  O   UNL     1       1.926  31.297   5.531  1.00  0.00    -0.385 OA
ATOM     16  H   UNL     1       2.887  31.069   5.833  1.00  0.00     0.211 HD
ENDBRANCH   7  15
ENDBRANCH   1   2
BRANCH   1  17
ATOM     17  C   UNL     1       4.292  31.668   1.942  1.00  0.00     0.224 C 
ATOM     18  C   UNL     1       5.537  32.609   1.240  1.00  0.00     0.208 C 
ATOM     19  O   UNL     1       4.822  30.813   2.966  1.00  0.00    -0.337 OA
ATOM     20  C   UNL     1       6.381  32.514   2.455  1.00  0.00     0.180 C 
ATOM     21  C   UNL     1       6.222  31.041   2.858  1.00  0.00     0.179 C 
BRANCH  17  22
ATOM     22  C   UNL     1       3.668  30.777   0.862  1.00  0.00     0.225 C 
BRANCH  22  23
ATOM     23  O   UNL     1       2.718  31.437   0.044  1.00  0.00    -0.391 OA
ATOM     24  H   UNL     1       3.269  31.906  -0.706  1.00  0.00     0.210 HD
ENDBRANCH  22  23
ENDBRANCH  17  22
BRANCH  18  25
ATOM     25  O   UNL     1       4.854  33.612   0.536  1.00  0.00    -0.385 OA
ATOM     26  H   UNL     1       4.013  33.667   1.053  1.00  0.00     0.211 HD
ENDBRANCH  18  25
BRANCH  20  27
ATOM     27  O   UNL     1       5.733  33.426   3.429  1.00  0.00    -0.387 OA
ATOM     28  H   UNL     1       4.871  33.763   2.985  1.00  0.00     0.211 HD
ENDBRANCH  20  27
BRANCH  21  29
ATOM     29  C   UNL     1       6.787  29.911   1.872  1.00  0.00     0.191 C 
BRANCH  29  30
ATOM     30  O   UNL     1       8.102  30.155   1.543  1.00  0.00    -0.394 OA
ATOM     31  H   UNL     1       7.948  30.486   0.577  1.00  0.00     0.210 HD
ENDBRANCH  29  30
ENDBRANCH  21  29
ENDBRANCH   1  17
TORSDOF 13
ENDMDL
MODEL 6
REMARK VINA RESULT:    -5.732      1.544      2.407
REMARK INTER + INTRA:          -9.823
REMARK INTER:                  -8.619
REMARK INTRA:                  -1.204
REMARK UNBOUND:                -1.075
REMARK SMILES OC[C@@H]1O[C@@H](O[C@]2(CO)O[C@@H](CO)[C@H](O)[C@@H]2O)[C@H](O)[C@@H](O)[C@H]1O
REMARK SMILES IDX 6 1 5 2 3 3 22 4 4 5 20 6 18 7 2 8 1 9 23 11 21 13 19 15
REMARK SMILES IDX 7 17 16 18 10 19 14 20 11 21 8 22 9 23 17 25 15 27 12 29
REMARK SMILES IDX 13 30
REMARK H PARENT 1 10 23 12 21 14 19 16 9 24 17 26 15 28 13 31
REMARK Flexibility Score: inf
ROOT
ATOM      1  O   UNL     1       1.333  30.176   2.045  1.00  0.00    -0.313 OA
ENDROOT
BRANCH   1   2
ATOM      2  C   UNL     1       2.347  29.114   2.374  1.00  0.00     0.285 C 
ATOM      3  C   UNL     1       2.765  27.323   0.652  1.00  0.00     0.178 C 
ATOM      4  C   UNL     1       2.570  26.135   1.667  1.00  0.00     0.177 C 
ATOM      5  O   UNL     1       3.070  28.617   1.181  1.00  0.00    -0.341 OA
ATOM      6  C   UNL     1       1.684  26.477   2.926  1.00  0.00     0.179 C 
ATOM      7  C   UNL     1       1.876  27.978   3.424  1.00  0.00     0.202 C 
BRANCH   3   8
ATOM      8  C   UNL     1       3.730  26.963  -0.454  1.00  0.00     0.191 C 
BRANCH   8   9
ATOM      9  O   UNL     1       4.240  25.645  -0.302  1.00  0.00    -0.394 OA
ATOM     10  H   UNL     1       4.149  25.357   0.650  1.00  0.00     0.210 HD
ENDBRANCH   8   9
ENDBRANCH   3   8
BRANCH   4  11
ATOM     11  O   UNL     1       2.062  24.959   1.140  1.00  0.00    -0.387 OA
ATOM     12  H   UNL     1       0.996  25.110   1.180  1.00  0.00     0.211 HD
ENDBRANCH   4  11
BRANCH   6  13
ATOM     13  O   UNL     1       0.274  26.079   2.761  1.00  0.00    -0.387 OA
ATOM     14  H   UNL     1       0.156  25.987   1.862  1.00  0.00     0.211 HD
ENDBRANCH   6  13
BRANCH   7  15
ATOM     15  O   UNL     1       3.097  27.886   4.087  1.00  0.00    -0.385 OA
ATOM     16  H   UNL     1       3.466  26.963   3.808  1.00  0.00     0.211 HD
ENDBRANCH   7  15
ENDBRANCH   1   2
BRANCH   1  17
ATOM     17  C   UNL     1       1.825  31.528   2.236  1.00  0.00     0.224 C 
ATOM     18  C   UNL     1       0.494  32.532   2.619  1.00  0.00     0.208 C 
ATOM     19  O   UNL     1       2.780  31.526   3.309  1.00  0.00    -0.337 OA
ATOM     20  C   UNL     1       0.713  32.375   4.077  1.00  0.00     0.180 C 
ATOM     21  C   UNL     1       2.239  32.493   4.199  1.00  0.00     0.179 C 
BRANCH  17  22
ATOM     22  C   UNL     1       2.524  32.077   0.986  1.00  0.00     0.225 C 
BRANCH  22  23
ATOM     23  O   UNL     1       3.855  31.620   0.819  1.00  0.00    -0.391 OA
ATOM     24  H   UNL     1       3.902  31.237  -0.149  1.00  0.00     0.210 HD
ENDBRANCH  22  23
ENDBRANCH  17  22
BRANCH  18  25
ATOM     25  O   UNL     1      -0.486  32.175   1.681  1.00  0.00    -0.385 OA
ATOM     26  H   UNL     1       0.076  31.913   0.911  1.00  0.00     0.211 HD
ENDBRANCH  18  25
BRANCH  20  27
ATOM     27  O   UNL     1       0.239  31.002   4.378  1.00  0.00    -0.387 OA
ATOM     28  H   UNL     1      -0.075  31.009   5.355  1.00  0.00     0.211 HD
ENDBRANCH  20  27
BRANCH  21  29
ATOM     29  C   UNL     1       2.932  33.888   3.825  1.00  0.00     0.191 C 
BRANCH  29  30
ATOM     30  O   UNL     1       4.304  33.770   3.809  1.00  0.00    -0.394 OA
ATOM     31  H   UNL     1       4.436  33.783   2.785  1.00  0.00     0.210 HD
ENDBRANCH  29  30
ENDBRANCH  21  29
ENDBRANCH   1  17
TORSDOF 13
ENDMDL
MODEL 7
REMARK VINA RESULT:    -5.728      3.329      5.494
REMARK INTER + INTRA:          -9.817
REMARK INTER:                  -8.572
REMARK INTRA:                  -1.245
REMARK UNBOUND:                -1.075
REMARK SMILES OC[C@@H]1O[C@@H](O[C@]2(CO)O[C@@H](CO)[C@H](O)[C@@H]2O)[C@H](O)[C@@H](O)[C@H]1O
REMARK SMILES IDX 6 1 5 2 3 3 22 4 4 5 20 6 18 7 2 8 1 9 23 11 21 13 19 15
REMARK SMILES IDX 7 17 16 18 10 19 14 20 11 21 8 22 9 23 17 25 15 27 12 29
REMARK SMILES IDX 13 30
REMARK H PARENT 1 10 23 12 21 14 19 16 9 24 17 26 15 28 13 31
REMARK Flexibility Score: inf
ROOT
ATOM      1  O   UNL     1       5.486  29.884   1.082  1.00  0.00    -0.313 OA
ENDROOT
BRANCH   1   2
ATOM      2  C   UNL     1       4.072  29.444   0.813  1.00  0.00     0.285 C 
ATOM      3  C   UNL     1       3.127  27.604   2.252  1.00  0.00     0.178 C 
ATOM      4  C   UNL     1       2.639  26.738   1.030  1.00  0.00     0.177 C 
ATOM      5  O   UNL     1       3.365  28.999   2.036  1.00  0.00    -0.341 OA
ATOM      6  C   UNL     1       3.413  26.999  -0.318  1.00  0.00     0.179 C 
ATOM      7  C   UNL     1       3.847  28.521  -0.494  1.00  0.00     0.202 C 
BRANCH   3   8
ATOM      8  C   UNL     1       2.255  27.399   3.469  1.00  0.00     0.191 C 
BRANCH   8   9
ATOM      9  O   UNL     1       0.956  26.943   3.118  1.00  0.00    -0.394 OA
ATOM     10  H   UNL     1       1.010  26.377   2.296  1.00  0.00     0.210 HD
ENDBRANCH   8   9
ENDBRANCH   3   8
BRANCH   4  11
ATOM     11  O   UNL     1       2.633  25.366   1.219  1.00  0.00    -0.387 OA
ATOM     12  H   UNL     1       3.476  25.033   0.637  1.00  0.00     0.211 HD
ENDBRANCH   4  11
BRANCH   6  13
ATOM     13  O   UNL     1       4.506  26.037  -0.547  1.00  0.00    -0.387 OA
ATOM     14  H   UNL     1       4.686  25.680   0.272  1.00  0.00     0.211 HD
ENDBRANCH   6  13
BRANCH   7  15
ATOM     15  O   UNL     1       2.639  29.103  -0.870  1.00  0.00    -0.385 OA
ATOM     16  H   UNL     1       2.780  30.111  -0.693  1.00  0.00     0.211 HD
ENDBRANCH   7  15
ENDBRANCH   1   2
BRANCH   1  17
ATOM     17  C   UNL     1       5.590  31.258   1.538  1.00  0.00     0.224 C 
ATOM     18  C   UNL     1       6.164  31.243   3.150  1.00  0.00     0.208 C 
ATOM     19  O   UNL     1       6.505  31.961   0.684  1.00  0.00    -0.337 OA
ATOM     20  C   UNL     1       7.573  31.407   2.718  1.00  0.00     0.180 C 
ATOM     21  C   UNL     1       7.461  32.463   1.609  1.00  0.00     0.179 C 
BRANCH  17  22
ATOM     22  C   UNL     1       4.245  31.992   1.492  1.00  0.00     0.225 C 
BRANCH  22  23
ATOM     23  O   UNL     1       4.113  32.890   0.403  1.00  0.00    -0.391 OA
ATOM     24  H   UNL     1       3.273  33.469   0.614  1.00  0.00     0.210 HD
ENDBRANCH  22  23
ENDBRANCH  17  22
BRANCH  18  25
ATOM     25  O   UNL     1       5.389  30.260   3.782  1.00  0.00    -0.385 OA
ATOM     26  H   UNL     1       6.090  29.637   4.093  1.00  0.00     0.211 HD
ENDBRANCH  18  25
BRANCH  20  27
ATOM     27  O   UNL     1       7.952  30.078   2.179  1.00  0.00    -0.387 OA
ATOM     28  H   UNL     1       8.370  29.555   2.957  1.00  0.00     0.211 HD
ENDBRANCH  20  27
BRANCH  21  29
ATOM     29  C   UNL     1       6.975  33.939   2.002  1.00  0.00     0.191 C 
BRANCH  29  30
ATOM     30  O   UNL     1       6.553  34.633   0.891  1.00  0.00    -0.394 OA
ATOM     31  H   UNL     1       6.573  35.581   1.298  1.00  0.00     0.210 HD
ENDBRANCH  29  30
ENDBRANCH  21  29
ENDBRANCH   1  17
TORSDOF 13
ENDMDL
MODEL 8
REMARK VINA RESULT:    -5.686      1.894      2.613
REMARK INTER + INTRA:          -9.752
REMARK INTER:                  -8.400
REMARK INTRA:                  -1.353
REMARK UNBOUND:                -1.075
REMARK SMILES OC[C@@H]1O[C@@H](O[C@]2(CO)O[C@@H](CO)[C@H](O)[C@@H]2O)[C@H](O)[C@@H](O)[C@H]1O
REMARK SMILES IDX 6 1 5 2 3 3 22 4 4 5 20 6 18 7 2 8 1 9 23 11 21 13 19 15
REMARK SMILES IDX 7 17 16 18 10 19 14 20 11 21 8 22 9 23 17 25 15 27 12 29
REMARK SMILES IDX 13 30
REMARK H PARENT 1 10 23 12 21 14 19 16 9 24 17 26 15 28 13 31
REMARK Flexibility Score: inf
ROOT
ATOM      1  O   UNL     1       2.672  30.425   0.787  1.00  0.00    -0.313 OA
ENDROOT
BRANCH   1   2
ATOM      2  C   UNL     1       3.450  29.169   1.067  1.00  0.00     0.285 C 
ATOM      3  C   UNL     1       5.609  28.828  -0.186  1.00  0.00     0.178 C 
ATOM      4  C   UNL     1       5.237  27.376  -0.670  1.00  0.00     0.177 C 
ATOM      5  O   UNL     1       4.914  29.358   0.947  1.00  0.00    -0.341 OA
ATOM      6  C   UNL     1       3.690  27.076  -0.738  1.00  0.00     0.179 C 
ATOM      7  C   UNL     1       2.870  27.808   0.414  1.00  0.00     0.202 C 
BRANCH   3   8
ATOM      8  C   UNL     1       7.102  28.997  -0.017  1.00  0.00     0.191 C 
BRANCH   8   9
ATOM      9  O   UNL     1       7.798  28.790  -1.238  1.00  0.00    -0.394 OA
ATOM     10  H   UNL     1       8.746  28.542  -1.045  1.00  0.00     0.210 HD
ENDBRANCH   8   9
ENDBRANCH   3   8
BRANCH   4  11
ATOM     11  O   UNL     1       5.765  26.986  -1.889  1.00  0.00    -0.387 OA
ATOM     12  H   UNL     1       6.144  25.998  -1.690  1.00  0.00     0.211 HD
ENDBRANCH   4  11
BRANCH   6  13
ATOM     13  O   UNL     1       3.127  27.272  -2.087  1.00  0.00    -0.387 OA
ATOM     14  H   UNL     1       2.505  26.613  -2.184  1.00  0.00     0.211 HD
ENDBRANCH   6  13
BRANCH   7  15
ATOM     15  O   UNL     1       3.159  26.995   1.507  1.00  0.00    -0.385 OA
ATOM     16  H   UNL     1       3.712  26.220   1.104  1.00  0.00     0.211 HD
ENDBRANCH   7  15
ENDBRANCH   1   2
BRANCH   1  17
ATOM     17  C   UNL     1       2.366  31.197   1.978  1.00  0.00     0.224 C 
ATOM     18  C   UNL     1       0.881  32.006   1.723  1.00  0.00     0.208 C 
ATOM     19  O   UNL     1       2.267  30.302   3.097  1.00  0.00    -0.337 OA
ATOM     20  C   UNL     1       0.105  30.922   2.373  1.00  0.00     0.180 C 
ATOM     21  C   UNL     1       0.966  30.584   3.598  1.00  0.00     0.179 C 
BRANCH  17  22
ATOM     22  C   UNL     1       3.452  32.230   2.299  1.00  0.00     0.225 C 
BRANCH  22  23
ATOM     23  O   UNL     1       4.475  31.749   3.153  1.00  0.00    -0.391 OA
ATOM     24  H   UNL     1       4.859  32.589   3.635  1.00  0.00     0.210 HD
ENDBRANCH  22  23
ENDBRANCH  17  22
BRANCH  18  25
ATOM     25  O   UNL     1       1.005  32.556   0.439  1.00  0.00    -0.385 OA
ATOM     26  H   UNL     1       0.360  32.004  -0.067  1.00  0.00     0.211 HD
ENDBRANCH  18  25
BRANCH  20  27
ATOM     27  O   UNL     1       0.101  29.822   1.378  1.00  0.00    -0.387 OA
ATOM     28  H   UNL     1      -0.477  29.072   1.775  1.00  0.00     0.211 HD
ENDBRANCH  20  27
BRANCH  21  29
ATOM     29  C   UNL     1       1.153  31.697   4.735  1.00  0.00     0.191 C 
BRANCH  29  30
ATOM     30  O   UNL     1       2.322  31.498   5.433  1.00  0.00    -0.394 OA
ATOM     31  H   UNL     1       2.688  30.708   4.879  1.00  0.00     0.210 HD
ENDBRANCH  29  30
ENDBRANCH  21  29
ENDBRANCH   1  17
TORSDOF 13
ENDMDL
MODEL 9
REMARK VINA RESULT:    -5.580      2.491      3.830
REMARK INTER + INTRA:          -9.591
REMARK INTER:                  -8.473
REMARK INTRA:                  -1.117
REMARK UNBOUND:                -1.075
REMARK SMILES OC[C@@H]1O[C@@H](O[C@]2(CO)O[C@@H](CO)[C@H](O)[C@@H]2O)[C@H](O)[C@@H](O)[C@H]1O
REMARK SMILES IDX 6 1 5 2 3 3 22 4 4 5 20 6 18 7 2 8 1 9 23 11 21 13 19 15
REMARK SMILES IDX 7 17 16 18 10 19 14 20 11 21 8 22 9 23 17 25 15 27 12 29
REMARK SMILES IDX 13 30
REMARK H PARENT 1 10 23 12 21 14 19 16 9 24 17 26 15 28 13 31
REMARK Flexibility Score: inf
ROOT
ATOM      1  O   UNL     1       3.709  30.186   2.925  1.00  0.00    -0.313 OA
ENDROOT
BRANCH   1   2
ATOM      2  C   UNL     1       4.270  30.556   1.579  1.00  0.00     0.285 C 
ATOM      3  C   UNL     1       5.146  28.694   0.126  1.00  0.00     0.178 C 
ATOM      4  C   UNL     1       6.531  29.396  -0.144  1.00  0.00     0.177 C 
ATOM      5  O   UNL     1       4.052  29.509   0.555  1.00  0.00    -0.341 OA
ATOM      6  C   UNL     1       6.970  30.437   0.955  1.00  0.00     0.179 C 
ATOM      7  C   UNL     1       5.739  31.231   1.578  1.00  0.00     0.202 C 
BRANCH   3   8
ATOM      8  C   UNL     1       4.730  27.814  -1.031  1.00  0.00     0.191 C 
BRANCH   8   9
ATOM      9  O   UNL     1       5.736  26.870  -1.366  1.00  0.00    -0.394 OA
ATOM     10  H   UNL     1       5.363  26.189  -1.994  1.00  0.00     0.210 HD
ENDBRANCH   8   9
ENDBRANCH   3   8
BRANCH   4  11
ATOM     11  O   UNL     1       7.613  28.554  -0.340  1.00  0.00    -0.387 OA
ATOM     12  H   UNL     1       8.379  29.218  -0.704  1.00  0.00     0.211 HD
ENDBRANCH   4  11
BRANCH   6  13
ATOM     13  O   UNL     1       7.878  29.859   1.963  1.00  0.00    -0.387 OA
ATOM     14  H   UNL     1       8.575  30.443   2.020  1.00  0.00     0.211 HD
ENDBRANCH   6  13
BRANCH   7  15
ATOM     15  O   UNL     1       5.470  32.148   0.565  1.00  0.00    -0.385 OA
ATOM     16  H   UNL     1       5.431  33.058   1.053  1.00  0.00     0.211 HD
ENDBRANCH   7  15
ENDBRANCH   1   2
BRANCH   1  17
ATOM     17  C   UNL     1       2.278  30.400   3.037  1.00  0.00     0.224 C 
ATOM     18  C   UNL     1       1.951  31.021   4.597  1.00  0.00     0.208 C 
ATOM     19  O   UNL     1       1.869  31.335   2.026  1.00  0.00    -0.337 OA
ATOM     20  C   UNL     1       2.002  32.424   4.119  1.00  0.00     0.180 C 
ATOM     21  C   UNL     1       1.235  32.352   2.791  1.00  0.00     0.179 C 
BRANCH  17  22
ATOM     22  C   UNL     1       1.476  29.109   2.833  1.00  0.00     0.225 C 
BRANCH  22  23
ATOM     23  O   UNL     1       1.321  28.732   1.476  1.00  0.00    -0.391 OA
ATOM     24  H   UNL     1       0.449  28.162   1.440  1.00  0.00     0.210 HD
ENDBRANCH  22  23
ENDBRANCH  17  22
BRANCH  18  25
ATOM     25  O   UNL     1       2.694  30.199   5.456  1.00  0.00    -0.385 OA
ATOM     26  H   UNL     1       3.540  30.112   4.951  1.00  0.00     0.211 HD
ENDBRANCH  18  25
BRANCH  20  27
ATOM     27  O   UNL     1       3.446  32.692   3.909  1.00  0.00    -0.387 OA
ATOM     28  H   UNL     1       3.643  33.596   4.356  1.00  0.00     0.211 HD
ENDBRANCH  20  27
BRANCH  21  29
ATOM     29  C   UNL     1      -0.324  31.983   2.826  1.00  0.00     0.191 C 
BRANCH  29  30
ATOM     30  O   UNL     1      -1.045  32.947   3.495  1.00  0.00    -0.394 OA
ATOM     31  H   UNL     1      -1.662  33.229   2.717  1.00  0.00     0.210 HD
ENDBRANCH  29  30
ENDBRANCH  21  29
ENDBRANCH   1  17
TORSDOF 13
ENDMDL
