MODEL 1
REMARK VINA RESULT:    -3.679      0.000      0.000
REMARK INTER + INTRA:          -4.768
REMARK INTER:                  -4.647
REMARK INTRA:                  -0.121
REMARK UNBOUND:                -0.121
REMARK SMILES CSCC[C@H]([NH3+])C(=O)[O-]
REMARK SMILES IDX 4 1 5 2 6 3 7 7 8 8 9 9 3 10 2 11 1 12
REMARK H PARENT 6 4 6 5 6 6
REMARK Flexibility Score: inf
ROOT
ATOM      1  C   UNL     1     -26.144 -22.447 -28.794  1.00  0.00     0.082 C 
ENDROOT
BRANCH   1   2
ATOM      2  C   UNL     1     -25.537 -21.948 -27.464  1.00  0.00     0.228 C 
BRANCH   2   3
ATOM      3  N   UNL     1     -24.092 -21.713 -27.580  1.00  0.00    -0.350 N 
ATOM      4  H   UNL     1     -23.606 -22.022 -26.707  1.00  0.00     0.345 HD
ATOM      5  H   UNL     1     -23.892 -20.701 -27.749  1.00  0.00     0.345 HD
ATOM      6  H   UNL     1     -23.702 -22.274 -28.372  1.00  0.00     0.345 HD
ENDBRANCH   2   3
BRANCH   2   7
ATOM      7  C   UNL     1     -25.810 -22.955 -26.379  1.00  0.00     0.099 C 
ATOM      8  O   UNL     1     -26.311 -24.075 -26.665  1.00  0.00    -0.544 OA
ATOM      9  O   UNL     1     -25.494 -22.663 -25.057  1.00  0.00    -0.544 OA
ENDBRANCH   2   7
ENDBRANCH   1   2
BRANCH   1  10
ATOM     10  C   UNL     1     -27.195 -21.486 -29.361  1.00  0.00     0.076 C 
BRANCH  10  11
ATOM     11  S   UNL     1     -28.779 -21.670 -28.466  1.00  0.00    -0.165 SA
ATOM     12  C   UNL     1     -29.820 -21.843 -29.952  1.00  0.00     0.085 C 
ENDBRANCH  10  11
ENDBRANCH   1  10
TORSDOF 5
ENDMDL
MODEL 2
REMARK VINA RESULT:    -3.558      2.066      2.746
REMARK INTER + INTRA:          -4.615
REMARK INTER:                  -4.535
REMARK INTRA:                  -0.080
REMARK UNBOUND:                -0.121
REMARK SMILES CSCC[C@H]([NH3+])C(=O)[O-]
REMARK SMILES IDX 4 1 5 2 6 3 7 7 8 8 9 9 3 10 2 11 1 12
REMARK H PARENT 6 4 6 5 6 6
REMARK Flexibility Score: inf
ROOT
ATOM      1  C   UNL     1     -25.882 -22.461 -28.927  1.00  0.00     0.082 C 
ENDROOT
BRANCH   1   2
ATOM      2  C   UNL     1     -25.435 -21.934 -27.546  1.00  0.00     0.228 C 
BRANCH   2   3
ATOM      3  N   UNL     1     -23.983 -21.722 -27.488  1.00  0.00    -0.350 N 
ATOM      4  H   UNL     1     -23.728 -20.835 -27.980  1.00  0.00     0.345 HD
ATOM      5  H   UNL     1     -23.472 -22.522 -27.926  1.00  0.00     0.345 HD
ATOM      6  H   UNL     1     -23.676 -21.627 -26.492  1.00  0.00     0.345 HD
ENDBRANCH   2   3
BRANCH   2   7
ATOM      7  C   UNL     1     -25.856 -22.907 -26.477  1.00  0.00     0.099 C 
ATOM      8  O   UNL     1     -25.790 -22.583 -25.262  1.00  0.00    -0.544 OA
ATOM      9  O   UNL     1     -26.340 -24.163 -26.825  1.00  0.00    -0.544 OA
ENDBRANCH   2   7
ENDBRANCH   1   2
BRANCH   1  10
ATOM     10  C   UNL     1     -26.164 -21.332 -29.926  1.00  0.00     0.076 C 
BRANCH  10  11
ATOM     11  S   UNL     1     -24.909 -21.327 -31.256  1.00  0.00    -0.165 SA
ATOM     12  C   UNL     1     -24.781 -19.513 -31.392  1.00  0.00     0.085 C 
ENDBRANCH  10  11
ENDBRANCH   1  10
TORSDOF 5
ENDMDL
MODEL 3
REMARK VINA RESULT:    -3.539      3.093      4.331
REMARK INTER + INTRA:          -4.590
REMARK INTER:                  -4.546
REMARK INTRA:                  -0.044
REMARK UNBOUND:                -0.121
REMARK SMILES CSCC[C@H]([NH3+])C(=O)[O-]
REMARK SMILES IDX 4 1 5 2 6 3 7 7 8 8 9 9 3 10 2 11 1 12
REMARK H PARENT 6 4 6 5 6 6
REMARK Flexibility Score: inf
ROOT
ATOM      1  C   UNL     1     -26.650 -21.607 -25.508  1.00  0.00     0.082 C 
ENDROOT
BRANCH   1   2
ATOM      2  C   UNL     1     -25.742 -22.797 -25.889  1.00  0.00     0.228 C 
BRANCH   2   3
ATOM      3  N   UNL     1     -24.459 -22.347 -26.444  1.00  0.00    -0.350 N 
ATOM      4  H   UNL     1     -24.622 -21.701 -27.250  1.00  0.00     0.345 HD
ATOM      5  H   UNL     1     -23.885 -23.161 -26.762  1.00  0.00     0.345 HD
ATOM      6  H   UNL     1     -23.924 -21.815 -25.719  1.00  0.00     0.345 HD
ENDBRANCH   2   3
BRANCH   2   7
ATOM      7  C   UNL     1     -26.455 -23.673 -26.885  1.00  0.00     0.099 C 
ATOM      8  O   UNL     1     -26.370 -24.927 -26.801  1.00  0.00    -0.544 OA
ATOM      9  O   UNL     1     -27.228 -23.105 -27.891  1.00  0.00    -0.544 OA
ENDBRANCH   2   7
ENDBRANCH   1   2
BRANCH   1  10
ATOM     10  C   UNL     1     -26.573 -21.261 -24.016  1.00  0.00     0.076 C 
BRANCH  10  11
ATOM     11  S   UNL     1     -26.957 -19.492 -23.750  1.00  0.00    -0.165 SA
ATOM     12  C   UNL     1     -26.656 -19.500 -21.952  1.00  0.00     0.085 C 
ENDBRANCH  10  11
ENDBRANCH   1  10
TORSDOF 5
ENDMDL
MODEL 4
REMARK VINA RESULT:    -3.464      2.787      3.248
REMARK INTER + INTRA:          -4.496
REMARK INTER:                  -4.357
REMARK INTRA:                  -0.139
REMARK UNBOUND:                -0.121
REMARK SMILES CSCC[C@H]([NH3+])C(=O)[O-]
REMARK SMILES IDX 4 1 5 2 6 3 7 7 8 8 9 9 3 10 2 11 1 12
REMARK H PARENT 6 4 6 5 6 6
REMARK Flexibility Score: inf
ROOT
ATOM      1  C   UNL     1     -26.428 -23.378 -26.627  1.00  0.00     0.082 C 
ENDROOT
BRANCH   1   2
ATOM      2  C   UNL     1     -25.776 -22.277 -25.763  1.00  0.00     0.228 C 
BRANCH   2   3
ATOM      3  N   UNL     1     -24.966 -22.846 -24.677  1.00  0.00    -0.350 N 
ATOM      4  H   UNL     1     -25.565 -23.032 -23.840  1.00  0.00     0.345 HD
ATOM      5  H   UNL     1     -24.191 -22.196 -24.412  1.00  0.00     0.345 HD
ATOM      6  H   UNL     1     -24.556 -23.759 -24.980  1.00  0.00     0.345 HD
ENDBRANCH   2   3
BRANCH   2   7
ATOM      7  C   UNL     1     -26.848 -21.386 -25.193  1.00  0.00     0.099 C 
ATOM      8  O   UNL     1     -27.007 -21.304 -23.946  1.00  0.00    -0.544 OA
ATOM      9  O   UNL     1     -27.656 -20.633 -26.037  1.00  0.00    -0.544 OA
ENDBRANCH   2   7
ENDBRANCH   1   2
BRANCH   1  10
ATOM     10  C   UNL     1     -26.377 -23.059 -28.126  1.00  0.00     0.076 C 
BRANCH  10  11
ATOM     11  S   UNL     1     -24.945 -21.986 -28.503  1.00  0.00    -0.165 SA
ATOM     12  C   UNL     1     -24.769 -22.505 -30.241  1.00  0.00     0.085 C 
ENDBRANCH  10  11
ENDBRANCH   1  10
TORSDOF 5
ENDMDL
MODEL 5
REMARK VINA RESULT:    -3.452      1.876      2.078
REMARK INTER + INTRA:          -4.481
REMARK INTER:                  -4.397
REMARK INTRA:                  -0.084
REMARK UNBOUND:                -0.121
REMARK SMILES CSCC[C@H]([NH3+])C(=O)[O-]
REMARK SMILES IDX 4 1 5 2 6 3 7 7 8 8 9 9 3 10 2 11 1 12
REMARK H PARENT 6 4 6 5 6 6
REMARK Flexibility Score: inf
ROOT
ATOM      1  C   UNL     1     -27.679 -23.084 -27.438  1.00  0.00     0.082 C 
ENDROOT
BRANCH   1   2
ATOM      2  C   UNL     1     -26.306 -23.746 -27.192  1.00  0.00     0.228 C 
BRANCH   2   3
ATOM      3  N   UNL     1     -26.431 -24.984 -26.410  1.00  0.00    -0.350 N 
ATOM      4  H   UNL     1     -27.338 -25.456 -26.626  1.00  0.00     0.345 HD
ATOM      5  H   UNL     1     -26.379 -24.783 -25.386  1.00  0.00     0.345 HD
ATOM      6  H   UNL     1     -25.663 -25.646 -26.667  1.00  0.00     0.345 HD
ENDBRANCH   2   3
BRANCH   2   7
ATOM      7  C   UNL     1     -25.401 -22.776 -26.480  1.00  0.00     0.099 C 
ATOM      8  O   UNL     1     -25.507 -22.608 -25.236  1.00  0.00    -0.544 OA
ATOM      9  O   UNL     1     -24.431 -22.074 -27.186  1.00  0.00    -0.544 OA
ENDBRANCH   2   7
ENDBRANCH   1   2
BRANCH   1  10
ATOM     10  C   UNL     1     -27.657 -22.098 -28.612  1.00  0.00     0.076 C 
BRANCH  10  11
ATOM     11  S   UNL     1     -29.128 -21.012 -28.564  1.00  0.00    -0.165 SA
ATOM     12  C   UNL     1     -30.002 -21.813 -29.949  1.00  0.00     0.085 C 
ENDBRANCH  10  11
ENDBRANCH   1  10
TORSDOF 5
ENDMDL
MODEL 6
REMARK VINA RESULT:    -3.450      2.606      3.923
REMARK INTER + INTRA:          -4.478
REMARK INTER:                  -4.324
REMARK INTRA:                  -0.155
REMARK UNBOUND:                -0.121
REMARK SMILES CSCC[C@H]([NH3+])C(=O)[O-]
REMARK SMILES IDX 4 1 5 2 6 3 7 7 8 8 9 9 3 10 2 11 1 12
REMARK H PARENT 6 4 6 5 6 6
REMARK Flexibility Score: inf
ROOT
ATOM      1  C   UNL     1     -26.151 -23.148 -26.809  1.00  0.00     0.082 C 
ENDROOT
BRANCH   1   2
ATOM      2  C   UNL     1     -25.343 -22.585 -27.999  1.00  0.00     0.228 C 
BRANCH   2   3
ATOM      3  N   UNL     1     -24.226 -21.744 -27.549  1.00  0.00    -0.350 N 
ATOM      4  H   UNL     1     -23.840 -22.109 -26.649  1.00  0.00     0.345 HD
ATOM      5  H   UNL     1     -24.535 -20.753 -27.419  1.00  0.00     0.345 HD
ATOM      6  H   UNL     1     -23.454 -21.769 -28.255  1.00  0.00     0.345 HD
ENDBRANCH   2   3
BRANCH   2   7
ATOM      7  C   UNL     1     -26.257 -21.791 -28.895  1.00  0.00     0.099 C 
ATOM      8  O   UNL     1     -25.778 -21.057 -29.799  1.00  0.00    -0.544 OA
ATOM      9  O   UNL     1     -27.636 -21.877 -28.742  1.00  0.00    -0.544 OA
ENDBRANCH   2   7
ENDBRANCH   1   2
BRANCH   1  10
ATOM     10  C   UNL     1     -25.794 -22.470 -25.481  1.00  0.00     0.076 C 
BRANCH  10  11
ATOM     11  S   UNL     1     -26.963 -21.111 -25.122  1.00  0.00    -0.165 SA
ATOM     12  C   UNL     1     -26.631 -21.041 -23.331  1.00  0.00     0.085 C 
ENDBRANCH  10  11
ENDBRANCH   1  10
TORSDOF 5
ENDMDL
MODEL 7
REMARK VINA RESULT:    -3.434      3.430      4.656
REMARK INTER + INTRA:          -4.458
REMARK INTER:                  -4.409
REMARK INTRA:                  -0.049
REMARK UNBOUND:                -0.121
REMARK SMILES CSCC[C@H]([NH3+])C(=O)[O-]
REMARK SMILES IDX 4 1 5 2 6 3 7 7 8 8 9 9 3 10 2 11 1 12
REMARK H PARENT 6 4 6 5 6 6
REMARK Flexibility Score: inf
ROOT
ATOM      1  C   UNL     1     -26.782 -21.197 -25.441  1.00  0.00     0.082 C 
ENDROOT
BRANCH   1   2
ATOM      2  C   UNL     1     -26.112 -22.528 -25.847  1.00  0.00     0.228 C 
BRANCH   2   3
ATOM      3  N   UNL     1     -24.981 -22.857 -24.969  1.00  0.00    -0.350 N 
ATOM      4  H   UNL     1     -24.430 -23.649 -25.373  1.00  0.00     0.345 HD
ATOM      5  H   UNL     1     -25.315 -23.119 -24.014  1.00  0.00     0.345 HD
ATOM      6  H   UNL     1     -24.339 -22.035 -24.892  1.00  0.00     0.345 HD
ENDBRANCH   2   3
BRANCH   2   7
ATOM      7  C   UNL     1     -25.645 -22.440 -27.276  1.00  0.00     0.099 C 
ATOM      8  O   UNL     1     -24.483 -22.032 -27.539  1.00  0.00    -0.544 OA
ATOM      9  O   UNL     1     -26.487 -22.826 -28.313  1.00  0.00    -0.544 OA
ENDBRANCH   2   7
ENDBRANCH   1   2
BRANCH   1  10
ATOM     10  C   UNL     1     -26.970 -21.070 -23.925  1.00  0.00     0.076 C 
BRANCH  10  11
ATOM     11  S   UNL     1     -26.897 -19.314 -23.417  1.00  0.00    -0.165 SA
ATOM     12  C   UNL     1     -26.540 -19.639 -21.659  1.00  0.00     0.085 C 
ENDBRANCH  10  11
ENDBRANCH   1  10
TORSDOF 5
ENDMDL
MODEL 8
REMARK VINA RESULT:    -3.409      2.610      2.709
REMARK INTER + INTRA:          -4.427
REMARK INTER:                  -4.300
REMARK INTRA:                  -0.127
REMARK UNBOUND:                -0.121
REMARK SMILES CSCC[C@H]([NH3+])C(=O)[O-]
REMARK SMILES IDX 4 1 5 2 6 3 7 7 8 8 9 9 3 10 2 11 1 12
REMARK H PARENT 6 4 6 5 6 6
REMARK Flexibility Score: inf
ROOT
ATOM      1  C   UNL     1     -24.574 -22.112 -27.858  1.00  0.00     0.082 C 
ENDROOT
BRANCH   1   2
ATOM      2  C   UNL     1     -25.560 -22.238 -26.676  1.00  0.00     0.228 C 
BRANCH   2   3
ATOM      3  N   UNL     1     -24.897 -22.740 -25.466  1.00  0.00    -0.350 N 
ATOM      4  H   UNL     1     -25.373 -22.367 -24.613  1.00  0.00     0.345 HD
ATOM      5  H   UNL     1     -23.889 -22.461 -25.451  1.00  0.00     0.345 HD
ATOM      6  H   UNL     1     -24.962 -23.784 -25.430  1.00  0.00     0.345 HD
ENDBRANCH   2   3
BRANCH   2   7
ATOM      7  C   UNL     1     -26.690 -23.156 -27.062  1.00  0.00     0.099 C 
ATOM      8  O   UNL     1     -26.479 -24.387 -27.226  1.00  0.00    -0.544 OA
ATOM      9  O   UNL     1     -27.977 -22.654 -27.220  1.00  0.00    -0.544 OA
ENDBRANCH   2   7
ENDBRANCH   1   2
BRANCH   1  10
ATOM     10  C   UNL     1     -25.263 -21.676 -29.157  1.00  0.00     0.076 C 
BRANCH  10  11
ATOM     11  S   UNL     1     -24.725 -22.730 -30.551  1.00  0.00    -0.165 SA
ATOM     12  C   UNL     1     -26.045 -22.217 -31.699  1.00  0.00     0.085 C 
ENDBRANCH  10  11
ENDBRANCH   1  10
TORSDOF 5
ENDMDL
MODEL 9
REMARK VINA RESULT:    -3.406      2.456      2.649
REMARK INTER + INTRA:          -4.423
REMARK INTER:                  -4.203
REMARK INTRA:                  -0.220
REMARK UNBOUND:                -0.121
REMARK SMILES CSCC[C@H]([NH3+])C(=O)[O-]
REMARK SMILES IDX 4 1 5 2 6 3 7 7 8 8 9 9 3 10 2 11 1 12
REMARK H PARENT 6 4 6 5 6 6
REMARK Flexibility Score: inf
ROOT
ATOM      1  C   UNL     1     -26.469 -21.801 -27.414  1.00  0.00     0.082 C 
ENDROOT
BRANCH   1   2
ATOM      2  C   UNL     1     -25.146 -22.339 -28.001  1.00  0.00     0.228 C 
BRANCH   2   3
ATOM      3  N   UNL     1     -23.976 -21.732 -27.351  1.00  0.00    -0.350 N 
ATOM      4  H   UNL     1     -24.240 -21.355 -26.412  1.00  0.00     0.345 HD
ATOM      5  H   UNL     1     -23.584 -20.960 -27.938  1.00  0.00     0.345 HD
ATOM      6  H   UNL     1     -23.236 -22.456 -27.203  1.00  0.00     0.345 HD
ENDBRANCH   2   3
BRANCH   2   7
ATOM      7  C   UNL     1     -25.109 -22.072 -29.482  1.00  0.00     0.099 C 
ATOM      8  O   UNL     1     -24.788 -22.989 -30.284  1.00  0.00    -0.544 OA
ATOM      9  O   UNL     1     -25.449 -20.818 -29.976  1.00  0.00    -0.544 OA
ENDBRANCH   2   7
ENDBRANCH   1   2
BRANCH   1  10
ATOM     10  C   UNL     1     -27.682 -22.646 -27.821  1.00  0.00     0.076 C 
BRANCH  10  11
ATOM     11  S   UNL     1     -29.009 -21.580 -28.489  1.00  0.00    -0.165 SA
ATOM     12  C   UNL     1     -28.972 -22.263 -30.179  1.00  0.00     0.085 C 
ENDBRANCH  10  11
ENDBRANCH   1  10
TORSDOF 5
ENDMDL
