MODEL 1
REMARK VINA RESULT:    -4.641      0.000      0.000
REMARK INTER + INTRA:          -6.451
REMARK INTER:                  -5.997
REMARK INTRA:                  -0.454
REMARK UNBOUND:                -0.454
REMARK SMILES CCO[C@H]1O[C@@H](CO)[C@@H](O)[C@@H](O)[C@H]1O
REMARK SMILES IDX 4 1 13 2 11 3 9 4 6 5 5 6 3 7 2 8 1 9 14 10 12 12 7 14 8 15
REMARK SMILES IDX 10 17
REMARK H PARENT 14 11 12 13 8 16 10 18
REMARK Flexibility Score: inf
ROOT
ATOM      1  C   UNL     1      11.724   3.004  -2.269  1.00  0.00     0.281 C 
ATOM      2  C   UNL     1      11.882   2.363  -0.879  1.00  0.00     0.202 C 
ATOM      3  C   UNL     1      10.547   2.332  -0.125  1.00  0.00     0.179 C 
ATOM      4  C   UNL     1       9.938   3.742  -0.117  1.00  0.00     0.177 C 
ATOM      5  C   UNL     1       9.909   4.381  -1.535  1.00  0.00     0.178 C 
ATOM      6  O   UNL     1      11.167   4.311  -2.200  1.00  0.00    -0.341 OA
ENDROOT
BRANCH   1   7
ATOM      7  O   UNL     1      10.947   2.169  -3.119  1.00  0.00    -0.350 OA
BRANCH   7   8
ATOM      8  C   UNL     1      11.515   2.039  -4.409  1.00  0.00     0.160 C 
ATOM      9  C   UNL     1      11.556   0.579  -4.856  1.00  0.00     0.035 C 
ENDBRANCH   7   8
ENDBRANCH   1   7
BRANCH   2  10
ATOM     10  O   UNL     1      12.399   1.064  -1.017  1.00  0.00    -0.385 OA
ATOM     11  H   UNL     1      12.633   0.748  -0.104  1.00  0.00     0.211 HD
ENDBRANCH   2  10
BRANCH   3  12
ATOM     12  O   UNL     1       9.677   1.400  -0.718  1.00  0.00    -0.387 OA
ATOM     13  H   UNL     1       9.018   1.917  -1.250  1.00  0.00     0.211 HD
ENDBRANCH   3  12
BRANCH   5  14
ATOM     14  C   UNL     1       8.744   3.922  -2.440  1.00  0.00     0.191 C 
BRANCH  14  15
ATOM     15  O   UNL     1       8.950   4.364  -3.753  1.00  0.00    -0.394 OA
ATOM     16  H   UNL     1       8.600   5.291  -3.793  1.00  0.00     0.210 HD
ENDBRANCH  14  15
ENDBRANCH   5  14
BRANCH   4  17
ATOM     17  O   UNL     1       8.657   3.707   0.458  1.00  0.00    -0.387 OA
ATOM     18  H   UNL     1       8.010   3.885  -0.274  1.00  0.00     0.211 HD
ENDBRANCH   4  17
TORSDOF 7
ENDMDL
MODEL 2
REMARK VINA RESULT:    -4.308      1.438      2.959
REMARK INTER + INTRA:          -6.021
REMARK INTER:                  -5.565
REMARK INTRA:                  -0.456
REMARK UNBOUND:                -0.454
REMARK SMILES CCO[C@H]1O[C@@H](CO)[C@@H](O)[C@@H](O)[C@H]1O
REMARK SMILES IDX 4 1 13 2 11 3 9 4 6 5 5 6 3 7 2 8 1 9 14 10 12 12 7 14 8 15
REMARK SMILES IDX 10 17
REMARK H PARENT 14 11 12 13 8 16 10 18
REMARK Flexibility Score: inf
ROOT
ATOM      1  C   UNL     1      11.135   3.048  -1.005  1.00  0.00     0.281 C 
ATOM      2  C   UNL     1       9.674   3.295  -0.586  1.00  0.00     0.202 C 
ATOM      3  C   UNL     1       8.738   3.292  -1.800  1.00  0.00     0.179 C 
ATOM      4  C   UNL     1       9.277   4.267  -2.856  1.00  0.00     0.177 C 
ATOM      5  C   UNL     1      10.786   4.040  -3.156  1.00  0.00     0.178 C 
ATOM      6  O   UNL     1      11.583   3.986  -1.976  1.00  0.00    -0.341 OA
ENDROOT
BRANCH   1   7
ATOM      7  O   UNL     1      11.300   1.716  -1.478  1.00  0.00    -0.350 OA
BRANCH   7   8
ATOM      8  C   UNL     1      12.570   1.185  -1.151  1.00  0.00     0.160 C 
ATOM      9  C   UNL     1      12.528   0.402   0.160  1.00  0.00     0.035 C 
ENDBRANCH   7   8
ENDBRANCH   1   7
BRANCH   2  10
ATOM     10  O   UNL     1       9.280   2.316   0.341  1.00  0.00    -0.385 OA
ATOM     11  H   UNL     1       9.589   2.624   1.234  1.00  0.00     0.211 HD
ENDBRANCH   2  10
BRANCH   3  12
ATOM     12  O   UNL     1       8.619   1.990  -2.317  1.00  0.00    -0.387 OA
ATOM     13  H   UNL     1       7.693   1.686  -2.125  1.00  0.00     0.211 HD
ENDBRANCH   3  12
BRANCH   5  14
ATOM     14  C   UNL     1      11.097   2.877  -4.124  1.00  0.00     0.191 C 
BRANCH  14  15
ATOM     15  O   UNL     1      10.686   3.206  -5.422  1.00  0.00    -0.394 OA
ATOM     16  H   UNL     1       9.755   2.875  -5.512  1.00  0.00     0.210 HD
ENDBRANCH  14  15
ENDBRANCH   5  14
BRANCH   4  17
ATOM     17  O   UNL     1       8.502   4.183  -4.026  1.00  0.00    -0.387 OA
ATOM     18  H   UNL     1       7.741   3.579  -3.821  1.00  0.00     0.211 HD
ENDBRANCH   4  17
TORSDOF 7
ENDMDL
MODEL 3
REMARK VINA RESULT:    -4.167      1.385      1.983
REMARK INTER + INTRA:          -5.839
REMARK INTER:                  -5.418
REMARK INTRA:                  -0.421
REMARK UNBOUND:                -0.454
REMARK SMILES CCO[C@H]1O[C@@H](CO)[C@@H](O)[C@@H](O)[C@H]1O
REMARK SMILES IDX 4 1 13 2 11 3 9 4 6 5 5 6 3 7 2 8 1 9 14 10 12 12 7 14 8 15
REMARK SMILES IDX 10 17
REMARK H PARENT 14 11 12 13 8 16 10 18
REMARK Flexibility Score: inf
ROOT
ATOM      1  C   UNL     1      11.205   2.521  -1.825  1.00  0.00     0.281 C 
ATOM      2  C   UNL     1      10.067   2.634  -0.794  1.00  0.00     0.202 C 
ATOM      3  C   UNL     1       8.928   3.517  -1.317  1.00  0.00     0.179 C 
ATOM      4  C   UNL     1       9.505   4.860  -1.787  1.00  0.00     0.177 C 
ATOM      5  C   UNL     1      10.722   4.680  -2.738  1.00  0.00     0.178 C 
ATOM      6  O   UNL     1      11.707   3.793  -2.216  1.00  0.00    -0.341 OA
ENDROOT
BRANCH   1   7
ATOM      7  O   UNL     1      10.779   1.777  -2.960  1.00  0.00    -0.350 OA
BRANCH   7   8
ATOM      8  C   UNL     1      11.853   1.118  -3.604  1.00  0.00     0.160 C 
ATOM      9  C   UNL     1      11.502   0.757  -5.046  1.00  0.00     0.035 C 
ENDBRANCH   7   8
ENDBRANCH   1   7
BRANCH   2  10
ATOM     10  O   UNL     1       9.590   1.351  -0.480  1.00  0.00    -0.385 OA
ATOM     11  H   UNL     1      10.280   0.918   0.090  1.00  0.00     0.211 HD
ENDBRANCH   2  10
BRANCH   3  12
ATOM     12  O   UNL     1       8.243   2.860  -2.355  1.00  0.00    -0.387 OA
ATOM     13  H   UNL     1       7.736   2.114  -1.940  1.00  0.00     0.211 HD
ENDBRANCH   3  12
BRANCH   5  14
ATOM     14  C   UNL     1      10.368   4.359  -4.207  1.00  0.00     0.191 C 
BRANCH  14  15
ATOM     15  O   UNL     1      10.015   5.533  -4.886  1.00  0.00    -0.394 OA
ATOM     16  H   UNL     1       9.023   5.574  -4.874  1.00  0.00     0.210 HD
ENDBRANCH  14  15
ENDBRANCH   5  14
BRANCH   4  17
ATOM     17  O   UNL     1       8.494   5.632  -2.386  1.00  0.00    -0.387 OA
ATOM     18  H   UNL     1       8.172   6.266  -1.693  1.00  0.00     0.211 HD
ENDBRANCH   4  17
TORSDOF 7
ENDMDL
MODEL 4
REMARK VINA RESULT:    -4.139      1.695      3.777
REMARK INTER + INTRA:          -5.803
REMARK INTER:                  -5.295
REMARK INTRA:                  -0.508
REMARK UNBOUND:                -0.454
REMARK SMILES CCO[C@H]1O[C@@H](CO)[C@@H](O)[C@@H](O)[C@H]1O
REMARK SMILES IDX 4 1 13 2 11 3 9 4 6 5 5 6 3 7 2 8 1 9 14 10 12 12 7 14 8 15
REMARK SMILES IDX 10 17
REMARK H PARENT 14 11 12 13 8 16 10 18
REMARK Flexibility Score: inf
ROOT
ATOM      1  C   UNL     1       9.743   2.776  -1.026  1.00  0.00     0.281 C 
ATOM      2  C   UNL     1      10.708   1.582  -0.921  1.00  0.00     0.202 C 
ATOM      3  C   UNL     1      11.741   1.598  -2.054  1.00  0.00     0.179 C 
ATOM      4  C   UNL     1      11.011   1.718  -3.399  1.00  0.00     0.177 C 
ATOM      5  C   UNL     1       9.969   2.872  -3.407  1.00  0.00     0.178 C 
ATOM      6  O   UNL     1       9.089   2.831  -2.288  1.00  0.00    -0.341 OA
ENDROOT
BRANCH   1   7
ATOM      7  O   UNL     1      10.426   3.995  -0.759  1.00  0.00    -0.350 OA
BRANCH   7   8
ATOM      8  C   UNL     1       9.625   4.913  -0.039  1.00  0.00     0.160 C 
ATOM      9  C   UNL     1       8.788   4.209   1.027  1.00  0.00     0.035 C 
ENDBRANCH   7   8
ENDBRANCH   1   7
BRANCH   2  10
ATOM     10  O   UNL     1      11.350   1.606   0.329  1.00  0.00    -0.385 OA
ATOM     11  H   UNL     1      10.663   1.857   1.002  1.00  0.00     0.211 HD
ENDBRANCH   2  10
BRANCH   3  12
ATOM     12  O   UNL     1      12.650   2.654  -1.866  1.00  0.00    -0.387 OA
ATOM     13  H   UNL     1      13.553   2.250  -1.797  1.00  0.00     0.211 HD
ENDBRANCH   3  12
BRANCH   5  14
ATOM     14  C   UNL     1      10.552   4.284  -3.639  1.00  0.00     0.191 C 
BRANCH  14  15
ATOM     15  O   UNL     1      10.701   4.525  -5.011  1.00  0.00    -0.394 OA
ATOM     16  H   UNL     1      11.224   5.365  -5.091  1.00  0.00     0.210 HD
ENDBRANCH  14  15
ENDBRANCH   5  14
BRANCH   4  17
ATOM     17  O   UNL     1      11.945   1.862  -4.440  1.00  0.00    -0.387 OA
ATOM     18  H   UNL     1      12.453   2.695  -4.254  1.00  0.00     0.211 HD
ENDBRANCH   4  17
TORSDOF 7
ENDMDL
MODEL 5
REMARK VINA RESULT:    -4.084      1.498      3.338
REMARK INTER + INTRA:          -5.732
REMARK INTER:                  -5.244
REMARK INTRA:                  -0.488
REMARK UNBOUND:                -0.454
REMARK SMILES CCO[C@H]1O[C@@H](CO)[C@@H](O)[C@@H](O)[C@H]1O
REMARK SMILES IDX 4 1 13 2 11 3 9 4 6 5 5 6 3 7 2 8 1 9 14 10 12 12 7 14 8 15
REMARK SMILES IDX 10 17
REMARK H PARENT 14 11 12 13 8 16 10 18
REMARK Flexibility Score: inf
ROOT
ATOM      1  C   UNL     1      10.390   4.401  -2.971  1.00  0.00     0.281 C 
ATOM      2  C   UNL     1      11.133   3.151  -3.477  1.00  0.00     0.202 C 
ATOM      3  C   UNL     1      10.873   1.942  -2.571  1.00  0.00     0.179 C 
ATOM      4  C   UNL     1      11.181   2.327  -1.116  1.00  0.00     0.177 C 
ATOM      5  C   UNL     1      10.491   3.657  -0.698  1.00  0.00     0.178 C 
ATOM      6  O   UNL     1      10.720   4.715  -1.624  1.00  0.00    -0.341 OA
ENDROOT
BRANCH   1   7
ATOM      7  O   UNL     1       8.984   4.240  -3.121  1.00  0.00    -0.350 OA
BRANCH   7   8
ATOM      8  C   UNL     1       8.367   5.394  -3.660  1.00  0.00     0.160 C 
ATOM      9  C   UNL     1       9.347   6.211  -4.500  1.00  0.00     0.035 C 
ENDBRANCH   7   8
ENDBRANCH   1   7
BRANCH   2  10
ATOM     10  O   UNL     1      10.735   2.871  -4.796  1.00  0.00    -0.385 OA
ATOM     11  H   UNL     1       9.971   3.472  -5.000  1.00  0.00     0.211 HD
ENDBRANCH   2  10
BRANCH   3  12
ATOM     12  O   UNL     1       9.546   1.503  -2.716  1.00  0.00    -0.387 OA
ATOM     13  H   UNL     1       9.417   0.753  -2.079  1.00  0.00     0.211 HD
ENDBRANCH   3  12
BRANCH   5  14
ATOM     14  C   UNL     1       9.000   3.532  -0.312  1.00  0.00     0.191 C 
BRANCH  14  15
ATOM     15  O   UNL     1       8.873   2.854   0.908  1.00  0.00    -0.394 OA
ATOM     16  H   UNL     1       7.969   3.073   1.255  1.00  0.00     0.210 HD
ENDBRANCH  14  15
ENDBRANCH   5  14
BRANCH   4  17
ATOM     17  O   UNL     1      10.828   1.272  -0.257  1.00  0.00    -0.387 OA
ATOM     18  H   UNL     1      11.236   1.475   0.625  1.00  0.00     0.211 HD
ENDBRANCH   4  17
TORSDOF 7
ENDMDL
MODEL 6
REMARK VINA RESULT:    -4.053      1.465      3.354
REMARK INTER + INTRA:          -5.692
REMARK INTER:                  -5.277
REMARK INTRA:                  -0.415
REMARK UNBOUND:                -0.454
REMARK SMILES CCO[C@H]1O[C@@H](CO)[C@@H](O)[C@@H](O)[C@H]1O
REMARK SMILES IDX 4 1 13 2 11 3 9 4 6 5 5 6 3 7 2 8 1 9 14 10 12 12 7 14 8 15
REMARK SMILES IDX 10 17
REMARK H PARENT 14 11 12 13 8 16 10 18
REMARK Flexibility Score: inf
ROOT
ATOM      1  C   UNL     1      10.885   1.608  -1.699  1.00  0.00     0.281 C 
ATOM      2  C   UNL     1      10.841   2.515  -2.942  1.00  0.00     0.202 C 
ATOM      3  C   UNL     1      10.430   3.946  -2.574  1.00  0.00     0.179 C 
ATOM      4  C   UNL     1       9.127   3.904  -1.763  1.00  0.00     0.177 C 
ATOM      5  C   UNL     1       9.194   2.888  -0.588  1.00  0.00     0.178 C 
ATOM      6  O   UNL     1       9.649   1.600  -0.994  1.00  0.00    -0.341 OA
ENDROOT
BRANCH   1   7
ATOM      7  O   UNL     1      11.952   1.990  -0.840  1.00  0.00    -0.350 OA
BRANCH   7   8
ATOM      8  C   UNL     1      12.893   0.948  -0.657  1.00  0.00     0.160 C 
ATOM      9  C   UNL     1      12.618   0.167   0.626  1.00  0.00     0.035 C 
ENDBRANCH   7   8
ENDBRANCH   1   7
BRANCH   2  10
ATOM     10  O   UNL     1      12.097   2.511  -3.571  1.00  0.00    -0.385 OA
ATOM     11  H   UNL     1      12.756   2.834  -2.900  1.00  0.00     0.211 HD
ENDBRANCH   2  10
BRANCH   3  12
ATOM     12  O   UNL     1      11.461   4.577  -1.857  1.00  0.00    -0.387 OA
ATOM     13  H   UNL     1      11.336   5.555  -1.970  1.00  0.00     0.211 HD
ENDBRANCH   3  12
BRANCH   5  14
ATOM     14  C   UNL     1       9.922   3.392   0.677  1.00  0.00     0.191 C 
BRANCH  14  15
ATOM     15  O   UNL     1       9.034   4.106   1.493  1.00  0.00    -0.394 OA
ATOM     16  H   UNL     1       8.817   3.510   2.256  1.00  0.00     0.210 HD
ENDBRANCH  14  15
ENDBRANCH   5  14
BRANCH   4  17
ATOM     17  O   UNL     1       8.803   5.194  -1.310  1.00  0.00    -0.387 OA
ATOM     18  H   UNL     1       9.458   5.815  -1.724  1.00  0.00     0.211 HD
ENDBRANCH   4  17
TORSDOF 7
ENDMDL
MODEL 7
REMARK VINA RESULT:    -3.978      1.592      2.064
REMARK INTER + INTRA:          -5.595
REMARK INTER:                  -5.127
REMARK INTRA:                  -0.467
REMARK UNBOUND:                -0.454
REMARK SMILES CCO[C@H]1O[C@@H](CO)[C@@H](O)[C@@H](O)[C@H]1O
REMARK SMILES IDX 4 1 13 2 11 3 9 4 6 5 5 6 3 7 2 8 1 9 14 10 12 12 7 14 8 15
REMARK SMILES IDX 10 17
REMARK H PARENT 14 11 12 13 8 16 10 18
REMARK Flexibility Score: inf
ROOT
ATOM      1  C   UNL     1      11.192   4.051  -2.726  1.00  0.00     0.281 C 
ATOM      2  C   UNL     1      11.634   2.655  -2.252  1.00  0.00     0.202 C 
ATOM      3  C   UNL     1      10.569   2.007  -1.358  1.00  0.00     0.179 C 
ATOM      4  C   UNL     1      10.198   2.981  -0.230  1.00  0.00     0.177 C 
ATOM      5  C   UNL     1       9.870   4.405  -0.762  1.00  0.00     0.178 C 
ATOM      6  O   UNL     1      10.871   4.912  -1.640  1.00  0.00    -0.341 OA
ENDROOT
BRANCH   1   7
ATOM      7  O   UNL     1      10.098   3.950  -3.629  1.00  0.00    -0.350 OA
BRANCH   7   8
ATOM      8  C   UNL     1      10.276   4.752  -4.780  1.00  0.00     0.160 C 
ATOM      9  C   UNL     1      10.790   3.930  -5.961  1.00  0.00     0.035 C 
ENDBRANCH   7   8
ENDBRANCH   1   7
BRANCH   2  10
ATOM     10  O   UNL     1      11.898   1.843  -3.368  1.00  0.00    -0.385 OA
ATOM     11  H   UNL     1      12.313   1.008  -3.025  1.00  0.00     0.211 HD
ENDBRANCH   2  10
BRANCH   3  12
ATOM     12  O   UNL     1       9.444   1.653  -2.122  1.00  0.00    -0.387 OA
ATOM     13  H   UNL     1       8.762   1.305  -1.490  1.00  0.00     0.211 HD
ENDBRANCH   3  12
BRANCH   5  14
ATOM     14  C   UNL     1       8.447   4.583  -1.335  1.00  0.00     0.191 C 
BRANCH  14  15
ATOM     15  O   UNL     1       7.509   4.622  -0.294  1.00  0.00    -0.394 OA
ATOM     16  H   UNL     1       8.008   4.410   0.538  1.00  0.00     0.210 HD
ENDBRANCH  14  15
ENDBRANCH   5  14
BRANCH   4  17
ATOM     17  O   UNL     1       9.135   2.456   0.524  1.00  0.00    -0.387 OA
ATOM     18  H   UNL     1       8.836   3.178   1.137  1.00  0.00     0.211 HD
ENDBRANCH   4  17
TORSDOF 7
ENDMDL
MODEL 8
REMARK VINA RESULT:    -3.949      1.464      3.251
REMARK INTER + INTRA:          -5.557
REMARK INTER:                  -5.108
REMARK INTRA:                  -0.449
REMARK UNBOUND:                -0.454
REMARK SMILES CCO[C@H]1O[C@@H](CO)[C@@H](O)[C@@H](O)[C@H]1O
REMARK SMILES IDX 4 1 13 2 11 3 9 4 6 5 5 6 3 7 2 8 1 9 14 10 12 12 7 14 8 15
REMARK SMILES IDX 10 17
REMARK H PARENT 14 11 12 13 8 16 10 18
REMARK Flexibility Score: inf
ROOT
ATOM      1  C   UNL     1       9.996   3.140  -2.415  1.00  0.00     0.281 C 
ATOM      2  C   UNL     1       9.434   4.510  -2.833  1.00  0.00     0.202 C 
ATOM      3  C   UNL     1       9.186   5.407  -1.615  1.00  0.00     0.179 C 
ATOM      4  C   UNL     1       8.327   4.645  -0.595  1.00  0.00     0.177 C 
ATOM      5  C   UNL     1       8.884   3.224  -0.296  1.00  0.00     0.178 C 
ATOM      6  O   UNL     1       9.156   2.476  -1.478  1.00  0.00    -0.341 OA
ENDROOT
BRANCH   1   7
ATOM      7  O   UNL     1      11.315   3.276  -1.899  1.00  0.00    -0.350 OA
BRANCH   7   8
ATOM      8  C   UNL     1      12.230   2.398  -2.526  1.00  0.00     0.160 C 
ATOM      9  C   UNL     1      11.579   1.647  -3.686  1.00  0.00     0.035 C 
ENDBRANCH   7   8
ENDBRANCH   1   7
BRANCH   2  10
ATOM     10  O   UNL     1      10.326   5.130  -3.726  1.00  0.00    -0.385 OA
ATOM     11  H   UNL     1      10.389   4.542  -4.524  1.00  0.00     0.211 HD
ENDBRANCH   2  10
BRANCH   3  12
ATOM     12  O   UNL     1      10.409   5.814  -1.055  1.00  0.00    -0.387 OA
ATOM     13  H   UNL     1      10.672   6.654  -1.512  1.00  0.00     0.211 HD
ENDBRANCH   3  12
BRANCH   5  14
ATOM     14  C   UNL     1      10.057   3.174   0.708  1.00  0.00     0.191 C 
BRANCH  14  15
ATOM     15  O   UNL     1      10.686   1.924   0.654  1.00  0.00    -0.394 OA
ATOM     16  H   UNL     1      10.391   1.501  -0.194  1.00  0.00     0.210 HD
ENDBRANCH  14  15
ENDBRANCH   5  14
BRANCH   4  17
ATOM     17  O   UNL     1       8.195   5.403   0.581  1.00  0.00    -0.387 OA
ATOM     18  H   UNL     1       7.439   6.029   0.434  1.00  0.00     0.211 HD
ENDBRANCH   4  17
TORSDOF 7
ENDMDL
MODEL 9
REMARK VINA RESULT:    -3.928      1.745      3.156
REMARK INTER + INTRA:          -5.530
REMARK INTER:                  -5.190
REMARK INTRA:                  -0.340
REMARK UNBOUND:                -0.454
REMARK SMILES CCO[C@H]1O[C@@H](CO)[C@@H](O)[C@@H](O)[C@H]1O
REMARK SMILES IDX 4 1 13 2 11 3 9 4 6 5 5 6 3 7 2 8 1 9 14 10 12 12 7 14 8 15
REMARK SMILES IDX 10 17
REMARK H PARENT 14 11 12 13 8 16 10 18
REMARK Flexibility Score: inf
ROOT
ATOM      1  C   UNL     1      10.212   2.917  -0.954  1.00  0.00     0.281 C 
ATOM      2  C   UNL     1       8.879   2.633  -1.668  1.00  0.00     0.202 C 
ATOM      3  C   UNL     1       8.339   3.889  -2.361  1.00  0.00     0.179 C 
ATOM      4  C   UNL     1       8.292   5.042  -1.348  1.00  0.00     0.177 C 
ATOM      5  C   UNL     1       9.632   5.209  -0.578  1.00  0.00     0.178 C 
ATOM      6  O   UNL     1      10.107   3.986  -0.021  1.00  0.00    -0.341 OA
ENDROOT
BRANCH   1   7
ATOM      7  O   UNL     1      11.242   3.174  -1.901  1.00  0.00    -0.350 OA
BRANCH   7   8
ATOM      8  C   UNL     1      12.250   2.182  -1.880  1.00  0.00     0.160 C 
ATOM      9  C   UNL     1      12.152   1.310  -0.630  1.00  0.00     0.035 C 
ENDBRANCH   7   8
ENDBRANCH   1   7
BRANCH   2  10
ATOM     10  O   UNL     1       9.058   1.597  -2.601  1.00  0.00    -0.385 OA
ATOM     11  H   UNL     1       9.922   1.158  -2.381  1.00  0.00     0.211 HD
ENDBRANCH   2  10
BRANCH   3  12
ATOM     12  O   UNL     1       9.138   4.213  -3.471  1.00  0.00    -0.387 OA
ATOM     13  H   UNL     1       8.760   5.039  -3.870  1.00  0.00     0.211 HD
ENDBRANCH   3  12
BRANCH   5  14
ATOM     14  C   UNL     1      10.739   5.971  -1.340  1.00  0.00     0.191 C 
BRANCH  14  15
ATOM     15  O   UNL     1      10.711   7.330  -0.999  1.00  0.00    -0.394 OA
ATOM     16  H   UNL     1      11.480   7.480  -0.390  1.00  0.00     0.210 HD
ENDBRANCH  14  15
ENDBRANCH   5  14
BRANCH   4  17
ATOM     17  O   UNL     1       7.919   6.233  -1.995  1.00  0.00    -0.387 OA
ATOM     18  H   UNL     1       7.117   6.577  -1.521  1.00  0.00     0.211 HD
ENDBRANCH   4  17
TORSDOF 7
ENDMDL
