MODEL 1
REMARK VINA RESULT:    -2.616      0.000      0.000
REMARK INTER + INTRA:          -2.956
REMARK INTER:                  -2.922
REMARK INTRA:                  -0.034
REMARK UNBOUND:                -0.034
REMARK SMILES CCCC(=O)[O-]
REMARK SMILES IDX 3 1 4 2 5 3 6 4 2 5 1 6
REMARK H PARENT
REMARK Flexibility Score: inf
ROOT
ATOM      1  C   UNL     1      23.511   5.001  12.686  1.00  0.00     0.052 C 
ENDROOT
BRANCH   1   2
ATOM      2  C   UNL     1      23.046   3.677  13.211  1.00  0.00     0.041 C 
ATOM      3  O   UNL     1      23.739   3.052  14.056  1.00  0.00    -0.550 OA
ATOM      4  O   UNL     1      21.864   3.117  12.740  1.00  0.00    -0.550 OA
ENDBRANCH   1   2
BRANCH   1   5
ATOM      5  C   UNL     1      25.022   5.187  12.870  1.00  0.00     0.003 C 
ATOM      6  C   UNL     1      25.361   6.457  13.651  1.00  0.00     0.004 C 
ENDBRANCH   1   5
TORSDOF 2
ENDMDL
MODEL 2
REMARK VINA RESULT:    -2.546      1.541      1.949
REMARK INTER + INTRA:          -2.877
REMARK INTER:                  -2.846
REMARK INTRA:                  -0.031
REMARK UNBOUND:                -0.034
REMARK SMILES CCCC(=O)[O-]
REMARK SMILES IDX 3 1 4 2 5 3 6 4 2 5 1 6
REMARK H PARENT
REMARK Flexibility Score: inf
ROOT
ATOM      1  C   UNL     1      24.834   5.147  12.774  1.00  0.00     0.052 C 
ENDROOT
BRANCH   1   2
ATOM      2  C   UNL     1      23.386   5.074  12.396  1.00  0.00     0.041 C 
ATOM      3  O   UNL     1      22.795   3.964  12.365  1.00  0.00    -0.550 OA
ATOM      4  O   UNL     1      22.699   6.230  12.045  1.00  0.00    -0.550 OA
ENDBRANCH   1   2
BRANCH   1   5
ATOM      5  C   UNL     1      25.038   5.866  14.113  1.00  0.00     0.003 C 
ATOM      6  C   UNL     1      25.896   7.124  13.974  1.00  0.00     0.004 C 
ENDBRANCH   1   5
TORSDOF 2
ENDMDL
MODEL 3
REMARK VINA RESULT:    -2.497      1.694      2.059
REMARK INTER + INTRA:          -2.823
REMARK INTER:                  -2.807
REMARK INTRA:                  -0.016
REMARK UNBOUND:                -0.034
REMARK SMILES CCCC(=O)[O-]
REMARK SMILES IDX 3 1 4 2 5 3 6 4 2 5 1 6
REMARK H PARENT
REMARK Flexibility Score: inf
ROOT
ATOM      1  C   UNL     1      23.498   3.339  13.827  1.00  0.00     0.052 C 
ENDROOT
BRANCH   1   2
ATOM      2  C   UNL     1      23.672   2.051  14.574  1.00  0.00     0.041 C 
ATOM      3  O   UNL     1      24.627   1.912  15.381  1.00  0.00    -0.550 OA
ATOM      4  O   UNL     1      22.799   0.994  14.350  1.00  0.00    -0.550 OA
ENDBRANCH   1   2
BRANCH   1   5
ATOM      5  C   UNL     1      24.603   4.347  14.166  1.00  0.00     0.003 C 
ATOM      6  C   UNL     1      24.967   5.236  12.977  1.00  0.00     0.004 C 
ENDBRANCH   1   5
TORSDOF 2
ENDMDL
MODEL 4
REMARK VINA RESULT:    -2.432      3.014      3.779
REMARK INTER + INTRA:          -2.750
REMARK INTER:                  -2.741
REMARK INTRA:                  -0.008
REMARK UNBOUND:                -0.034
REMARK SMILES CCCC(=O)[O-]
REMARK SMILES IDX 3 1 4 2 5 3 6 4 2 5 1 6
REMARK H PARENT
REMARK Flexibility Score: inf
ROOT
ATOM      1  C   UNL     1      22.680   1.614  14.225  1.00  0.00     0.052 C 
ENDROOT
BRANCH   1   2
ATOM      2  C   UNL     1      23.737   0.987  15.082  1.00  0.00     0.041 C 
ATOM      3  O   UNL     1      23.694  -0.244  15.340  1.00  0.00    -0.550 OA
ATOM      4  O   UNL     1      24.749   1.769  15.624  1.00  0.00    -0.550 OA
ENDBRANCH   1   2
BRANCH   1   5
ATOM      5  C   UNL     1      23.100   3.001  13.726  1.00  0.00     0.003 C 
ATOM      6  C   UNL     1      22.197   3.515  12.604  1.00  0.00     0.004 C 
ENDBRANCH   1   5
TORSDOF 2
ENDMDL
MODEL 5
REMARK VINA RESULT:    -2.394     11.148     11.806
REMARK INTER + INTRA:          -2.708
REMARK INTER:                  -2.695
REMARK INTRA:                  -0.013
REMARK UNBOUND:                -0.034
REMARK SMILES CCCC(=O)[O-]
REMARK SMILES IDX 3 1 4 2 5 3 6 4 2 5 1 6
REMARK H PARENT
REMARK Flexibility Score: inf
ROOT
ATOM      1  C   UNL     1      13.709   2.111   9.556  1.00  0.00     0.052 C 
ENDROOT
BRANCH   1   2
ATOM      2  C   UNL     1      13.394   0.757   8.998  1.00  0.00     0.041 C 
ATOM      3  O   UNL     1      14.153  -0.218   9.238  1.00  0.00    -0.550 OA
ATOM      4  O   UNL     1      12.282   0.579   8.184  1.00  0.00    -0.550 OA
ENDBRANCH   1   2
BRANCH   1   5
ATOM      5  C   UNL     1      12.534   3.083   9.388  1.00  0.00     0.003 C 
ATOM      6  C   UNL     1      12.324   3.962  10.622  1.00  0.00     0.004 C 
ENDBRANCH   1   5
TORSDOF 2
ENDMDL
MODEL 6
REMARK VINA RESULT:    -2.380      9.786     10.375
REMARK INTER + INTRA:          -2.692
REMARK INTER:                  -2.661
REMARK INTRA:                  -0.031
REMARK UNBOUND:                -0.034
REMARK SMILES CCCC(=O)[O-]
REMARK SMILES IDX 3 1 4 2 5 3 6 4 2 5 1 6
REMARK H PARENT
REMARK Flexibility Score: inf
ROOT
ATOM      1  C   UNL     1      15.548   0.834  10.462  1.00  0.00     0.052 C 
ENDROOT
BRANCH   1   2
ATOM      2  C   UNL     1      14.270   0.792   9.680  1.00  0.00     0.041 C 
ATOM      3  O   UNL     1      13.531   1.809   9.622  1.00  0.00    -0.550 OA
ATOM      4  O   UNL     1      13.880  -0.381   9.045  1.00  0.00    -0.550 OA
ENDBRANCH   1   2
BRANCH   1   5
ATOM      5  C   UNL     1      15.939  -0.553  10.988  1.00  0.00     0.003 C 
ATOM      6  C   UNL     1      17.359  -0.950  10.584  1.00  0.00     0.004 C 
ENDBRANCH   1   5
TORSDOF 2
ENDMDL
MODEL 7
REMARK VINA RESULT:    -2.374      8.307      9.338
REMARK INTER + INTRA:          -2.686
REMARK INTER:                  -2.679
REMARK INTRA:                  -0.007
REMARK UNBOUND:                -0.034
REMARK SMILES CCCC(=O)[O-]
REMARK SMILES IDX 3 1 4 2 5 3 6 4 2 5 1 6
REMARK H PARENT
REMARK Flexibility Score: inf
ROOT
ATOM      1  C   UNL     1      23.106  -3.878  16.589  1.00  0.00     0.052 C 
ENDROOT
BRANCH   1   2
ATOM      2  C   UNL     1      23.991  -4.400  17.679  1.00  0.00     0.041 C 
ATOM      3  O   UNL     1      24.827  -3.640  18.233  1.00  0.00    -0.550 OA
ATOM      4  O   UNL     1      23.917  -5.734  18.059  1.00  0.00    -0.550 OA
ENDBRANCH   1   2
BRANCH   1   5
ATOM      5  C   UNL     1      23.908  -3.153  15.502  1.00  0.00     0.003 C 
ATOM      6  C   UNL     1      23.045  -2.769  14.300  1.00  0.00     0.004 C 
ENDBRANCH   1   5
TORSDOF 2
ENDMDL
MODEL 8
REMARK VINA RESULT:    -2.374      5.716      6.417
REMARK INTER + INTRA:          -2.685
REMARK INTER:                  -2.653
REMARK INTRA:                  -0.032
REMARK UNBOUND:                -0.034
REMARK SMILES CCCC(=O)[O-]
REMARK SMILES IDX 3 1 4 2 5 3 6 4 2 5 1 6
REMARK H PARENT
REMARK Flexibility Score: inf
ROOT
ATOM      1  C   UNL     1      21.374  -0.841  13.894  1.00  0.00     0.052 C 
ENDROOT
BRANCH   1   2
ATOM      2  C   UNL     1      22.727  -1.349  14.291  1.00  0.00     0.041 C 
ATOM      3  O   UNL     1      23.499  -0.626  14.973  1.00  0.00    -0.550 OA
ATOM      4  O   UNL     1      23.148  -2.607  13.877  1.00  0.00    -0.550 OA
ENDBRANCH   1   2
BRANCH   1   5
ATOM      5  C   UNL     1      21.360  -0.327  12.449  1.00  0.00     0.003 C 
ATOM      6  C   UNL     1      20.915  -1.398  11.454  1.00  0.00     0.004 C 
ENDBRANCH   1   5
TORSDOF 2
ENDMDL
MODEL 9
REMARK VINA RESULT:    -2.373      5.740      7.133
REMARK INTER + INTRA:          -2.684
REMARK INTER:                  -2.613
REMARK INTRA:                  -0.071
REMARK UNBOUND:                -0.034
REMARK SMILES CCCC(=O)[O-]
REMARK SMILES IDX 3 1 4 2 5 3 6 4 2 5 1 6
REMARK H PARENT
REMARK Flexibility Score: inf
ROOT
ATOM      1  C   UNL     1      20.830  -1.482  11.435  1.00  0.00     0.052 C 
ENDROOT
BRANCH   1   2
ATOM      2  C   UNL     1      21.518  -0.782  12.567  1.00  0.00     0.041 C 
ATOM      3  O   UNL     1      21.396   0.462  12.709  1.00  0.00    -0.550 OA
ATOM      4  O   UNL     1      22.322  -1.500  13.444  1.00  0.00    -0.550 OA
ENDBRANCH   1   2
BRANCH   1   5
ATOM      5  C   UNL     1      19.305  -1.463  11.596  1.00  0.00     0.003 C 
ATOM      6  C   UNL     1      18.846  -2.161  12.877  1.00  0.00     0.004 C 
ENDBRANCH   1   5
TORSDOF 2
ENDMDL
