MODEL 1
REMARK VINA RESULT:    -7.163      0.000      0.000
REMARK INTER + INTRA:         -10.463
REMARK INTER:                  -9.675
REMARK INTRA:                  -0.788
REMARK UNBOUND:                -0.788
REMARK SMILES CC[C@H](CC[C@H](C)[C@H]1CC[C@@H]2[C@@H]3CC(=O)C4=CC(=O)CC[C@]4(C)[C@H]3CC[C@@]21C)C(C)C
REMARK SMILES IDX 4 1 3 2 2 3 1 4 29 5 30 6 31 7 5 8 6 9 7 10 8 11 9 12 27 13
REMARK SMILES IDX 10 14 11 15 26 16 28 17 12 18 25 19 24 20 13 21 22 22 14 23
REMARK SMILES IDX 16 24 21 25 23 26 15 27 17 28 20 29 18 30 19 31
REMARK H PARENT
REMARK Flexibility Score: inf
ROOT
ATOM      1  C   UNL     1      23.181  28.244  39.629  1.00  0.00     0.004 C 
ENDROOT
BRANCH   1   2
ATOM      2  C   UNL     1      24.532  28.878  40.069  1.00  0.00    -0.009 C 
BRANCH   2   3
ATOM      3  C   UNL     1      25.459  27.775  40.671  1.00  0.00     0.000 C 
ATOM      4  C   UNL     1      25.158  27.493  42.144  1.00  0.00     0.004 C 
ENDBRANCH   2   3
BRANCH   2   5
ATOM      5  C   UNL     1      25.222  29.720  38.940  1.00  0.00    -0.014 C 
ATOM      6  C   UNL     1      26.608  29.197  38.522  1.00  0.00     0.007 C 
ATOM      7  C   UNL     1      25.301  31.213  39.296  1.00  0.00     0.007 C 
ENDBRANCH   2   5
ENDBRANCH   1   2
BRANCH   1   8
ATOM      8  C   UNL     1      22.864  28.272  38.117  1.00  0.00     0.004 C 
BRANCH   8   9
ATOM      9  C   UNL     1      21.374  28.188  37.664  1.00  0.00    -0.011 C 
ATOM     10  C   UNL     1      20.895  26.745  37.395  1.00  0.00     0.008 C 
BRANCH   9  11
ATOM     11  C   UNL     1      20.978  29.259  36.573  1.00  0.00    -0.002 C 
ATOM     12  C   UNL     1      19.657  28.936  35.838  1.00  0.00     0.005 C 
ATOM     13  C   UNL     1      20.799  30.745  37.049  1.00  0.00    -0.026 C 
ATOM     14  C   UNL     1      18.616  29.963  36.280  1.00  0.00     0.005 C 
ATOM     15  C   UNL     1      19.289  30.853  37.334  1.00  0.00    -0.001 C 
ATOM     16  C   UNL     1      21.185  31.687  35.864  1.00  0.00     0.007 C 
ATOM     17  C   UNL     1      21.641  31.123  38.294  1.00  0.00     0.012 C 
ATOM     18  C   UNL     1      18.743  32.312  37.429  1.00  0.00     0.004 C 
ATOM     19  C   UNL     1      20.705  33.131  36.033  1.00  0.00     0.005 C 
ATOM     20  C   UNL     1      19.170  33.214  36.231  1.00  0.00     0.003 C 
ATOM     21  C   UNL     1      17.214  32.300  37.613  1.00  0.00     0.085 C 
ATOM     22  C   UNL     1      18.646  34.706  36.360  1.00  0.00    -0.000 C 
ATOM     23  C   UNL     1      16.651  33.679  37.662  1.00  0.00     0.159 C 
ATOM     24  C   UNL     1      17.160  34.711  36.737  1.00  0.00     0.005 C 
ATOM     25  C   UNL     1      18.836  35.433  34.990  1.00  0.00     0.020 C 
ATOM     26  C   UNL     1      19.406  35.491  37.463  1.00  0.00     0.017 C 
ATOM     27  O   UNL     1      15.681  33.924  38.429  1.00  0.00    -0.295 OA
ATOM     28  C   UNL     1      16.330  35.693  36.334  1.00  0.00     0.055 C 
ATOM     29  C   UNL     1      18.184  36.821  34.944  1.00  0.00     0.081 C 
ATOM     30  C   UNL     1      16.770  36.761  35.425  1.00  0.00     0.156 C 
ATOM     31  O   UNL     1      15.955  37.656  35.079  1.00  0.00    -0.295 OA
ENDBRANCH   9  11
ENDBRANCH   8   9
ENDBRANCH   1   8
TORSDOF 6
ENDMDL
MODEL 2
REMARK VINA RESULT:    -7.150      5.080      8.265
REMARK INTER + INTRA:         -10.445
REMARK INTER:                  -8.977
REMARK INTRA:                  -1.469
REMARK UNBOUND:                -0.788
REMARK SMILES CC[C@H](CC[C@H](C)[C@H]1CC[C@@H]2[C@@H]3CC(=O)C4=CC(=O)CC[C@]4(C)[C@H]3CC[C@@]21C)C(C)C
REMARK SMILES IDX 4 1 3 2 2 3 1 4 29 5 30 6 31 7 5 8 6 9 7 10 8 11 9 12 27 13
REMARK SMILES IDX 10 14 11 15 26 16 28 17 12 18 25 19 24 20 13 21 22 22 14 23
REMARK SMILES IDX 16 24 21 25 23 26 15 27 17 28 20 29 18 30 19 31
REMARK H PARENT
REMARK Flexibility Score: inf
ROOT
ATOM      1  C   UNL     1      26.661  38.003  40.242  1.00  0.00     0.004 C 
ENDROOT
BRANCH   1   2
ATOM      2  C   UNL     1      26.681  39.424  40.877  1.00  0.00    -0.009 C 
BRANCH   2   3
ATOM      3  C   UNL     1      26.485  40.499  39.761  1.00  0.00     0.000 C 
ATOM      4  C   UNL     1      25.982  39.899  38.448  1.00  0.00     0.004 C 
ENDBRANCH   2   3
BRANCH   2   5
ATOM      5  C   UNL     1      25.684  39.585  42.076  1.00  0.00    -0.014 C 
ATOM      6  C   UNL     1      24.573  40.623  41.836  1.00  0.00     0.007 C 
ATOM      7  C   UNL     1      26.409  39.877  43.399  1.00  0.00     0.007 C 
ENDBRANCH   2   5
ENDBRANCH   1   2
BRANCH   1   8
ATOM      8  C   UNL     1      25.682  36.981  40.866  1.00  0.00     0.004 C 
BRANCH   8   9
ATOM      9  C   UNL     1      24.445  36.528  40.032  1.00  0.00    -0.011 C 
ATOM     10  C   UNL     1      23.304  37.568  40.013  1.00  0.00     0.008 C 
BRANCH   9  11
ATOM     11  C   UNL     1      24.008  35.034  40.301  1.00  0.00    -0.002 C 
ATOM     12  C   UNL     1      22.573  34.898  40.861  1.00  0.00     0.005 C 
ATOM     13  C   UNL     1      24.040  34.041  39.083  1.00  0.00    -0.026 C 
ATOM     14  C   UNL     1      21.707  34.267  39.772  1.00  0.00     0.005 C 
ATOM     15  C   UNL     1      22.601  34.095  38.536  1.00  0.00    -0.001 C 
ATOM     16  C   UNL     1      24.349  32.610  39.629  1.00  0.00     0.007 C 
ATOM     17  C   UNL     1      25.078  34.404  37.990  1.00  0.00     0.012 C 
ATOM     18  C   UNL     1      22.217  32.916  37.588  1.00  0.00     0.004 C 
ATOM     19  C   UNL     1      24.038  31.484  38.638  1.00  0.00     0.005 C 
ATOM     20  C   UNL     1      22.561  31.512  38.173  1.00  0.00     0.003 C 
ATOM     21  C   UNL     1      20.734  33.015  37.186  1.00  0.00     0.085 C 
ATOM     22  C   UNL     1      22.206  30.324  37.183  1.00  0.00    -0.000 C 
ATOM     23  C   UNL     1      20.319  31.879  36.315  1.00  0.00     0.159 C 
ATOM     24  C   UNL     1      20.793  30.513  36.618  1.00  0.00     0.005 C 
ATOM     25  C   UNL     1      22.276  28.972  37.963  1.00  0.00     0.020 C 
ATOM     26  C   UNL     1      23.182  30.267  35.977  1.00  0.00     0.017 C 
ATOM     27  O   UNL     1      19.491  32.081  35.386  1.00  0.00    -0.295 OA
ATOM     28  C   UNL     1      20.015  29.464  36.289  1.00  0.00     0.055 C 
ATOM     29  C   UNL     1      21.760  27.776  37.152  1.00  0.00     0.081 C 
ATOM     30  C   UNL     1      20.426  28.077  36.548  1.00  0.00     0.156 C 
ATOM     31  O   UNL     1      19.662  27.132  36.221  1.00  0.00    -0.295 OA
ENDBRANCH   9  11
ENDBRANCH   8   9
ENDBRANCH   1   8
TORSDOF 6
ENDMDL
MODEL 3
REMARK VINA RESULT:    -7.110      3.613      8.023
REMARK INTER + INTRA:         -10.391
REMARK INTER:                  -8.876
REMARK INTRA:                  -1.515
REMARK UNBOUND:                -0.788
REMARK SMILES CC[C@H](CC[C@H](C)[C@H]1CC[C@@H]2[C@@H]3CC(=O)C4=CC(=O)CC[C@]4(C)[C@H]3CC[C@@]21C)C(C)C
REMARK SMILES IDX 4 1 3 2 2 3 1 4 29 5 30 6 31 7 5 8 6 9 7 10 8 11 9 12 27 13
REMARK SMILES IDX 10 14 11 15 26 16 28 17 12 18 25 19 24 20 13 21 22 22 14 23
REMARK SMILES IDX 16 24 21 25 23 26 15 27 17 28 20 29 18 30 19 31
REMARK H PARENT
REMARK Flexibility Score: inf
ROOT
ATOM      1  C   UNL     1      21.197  38.278  40.436  1.00  0.00     0.004 C 
ENDROOT
BRANCH   1   2
ATOM      2  C   UNL     1      19.752  38.073  39.896  1.00  0.00    -0.009 C 
BRANCH   2   3
ATOM      3  C   UNL     1      19.806  37.308  38.535  1.00  0.00     0.000 C 
ATOM      4  C   UNL     1      18.629  36.348  38.353  1.00  0.00     0.004 C 
ENDBRANCH   2   3
BRANCH   2   5
ATOM      5  C   UNL     1      18.784  37.415  40.939  1.00  0.00    -0.014 C 
ATOM      6  C   UNL     1      17.489  38.210  41.185  1.00  0.00     0.007 C 
ATOM      7  C   UNL     1      19.485  37.113  42.273  1.00  0.00     0.007 C 
ENDBRANCH   2   5
ENDBRANCH   1   2
BRANCH   1   8
ATOM      8  C   UNL     1      22.339  37.634  39.618  1.00  0.00     0.004 C 
BRANCH   8   9
ATOM      9  C   UNL     1      23.527  36.974  40.384  1.00  0.00    -0.011 C 
ATOM     10  C   UNL     1      24.910  37.490  39.933  1.00  0.00     0.008 C 
BRANCH   9  11
ATOM     11  C   UNL     1      23.395  35.408  40.538  1.00  0.00    -0.002 C 
ATOM     12  C   UNL     1      22.108  34.963  41.270  1.00  0.00     0.005 C 
ATOM     13  C   UNL     1      23.404  34.548  39.223  1.00  0.00    -0.026 C 
ATOM     14  C   UNL     1      21.202  34.282  40.246  1.00  0.00     0.005 C 
ATOM     15  C   UNL     1      21.910  34.385  38.888  1.00  0.00    -0.001 C 
ATOM     16  C   UNL     1      24.031  33.156  39.554  1.00  0.00     0.007 C 
ATOM     17  C   UNL     1      24.184  35.190  38.046  1.00  0.00     0.012 C 
ATOM     18  C   UNL     1      21.587  33.244  37.874  1.00  0.00     0.004 C 
ATOM     19  C   UNL     1      23.764  32.084  38.494  1.00  0.00     0.005 C 
ATOM     20  C   UNL     1      22.249  31.881  38.241  1.00  0.00     0.003 C 
ATOM     21  C   UNL     1      20.064  33.104  37.692  1.00  0.00     0.085 C 
ATOM     22  C   UNL     1      21.950  30.739  37.181  1.00  0.00    -0.000 C 
ATOM     23  C   UNL     1      19.716  31.992  36.763  1.00  0.00     0.159 C 
ATOM     24  C   UNL     1      20.455  30.715  36.840  1.00  0.00     0.005 C 
ATOM     25  C   UNL     1      22.366  29.360  37.786  1.00  0.00     0.020 C 
ATOM     26  C   UNL     1      22.723  30.968  35.854  1.00  0.00     0.017 C 
ATOM     27  O   UNL     1      18.733  32.120  35.985  1.00  0.00    -0.295 OA
ATOM     28  C   UNL     1      19.823  29.574  36.504  1.00  0.00     0.055 C 
ATOM     29  C   UNL     1      21.940  28.165  36.922  1.00  0.00     0.081 C 
ATOM     30  C   UNL     1      20.497  28.269  36.544  1.00  0.00     0.156 C 
ATOM     31  O   UNL     1      19.862  27.232  36.220  1.00  0.00    -0.295 OA
ENDBRANCH   9  11
ENDBRANCH   8   9
ENDBRANCH   1   8
TORSDOF 6
ENDMDL
MODEL 4
REMARK VINA RESULT:    -7.072      2.993      5.049
REMARK INTER + INTRA:         -10.341
REMARK INTER:                  -8.861
REMARK INTRA:                  -1.480
REMARK UNBOUND:                -0.788
REMARK SMILES CC[C@H](CC[C@H](C)[C@H]1CC[C@@H]2[C@@H]3CC(=O)C4=CC(=O)CC[C@]4(C)[C@H]3CC[C@@]21C)C(C)C
REMARK SMILES IDX 4 1 3 2 2 3 1 4 29 5 30 6 31 7 5 8 6 9 7 10 8 11 9 12 27 13
REMARK SMILES IDX 10 14 11 15 26 16 28 17 12 18 25 19 24 20 13 21 22 22 14 23
REMARK SMILES IDX 16 24 21 25 23 26 15 27 17 28 20 29 18 30 19 31
REMARK H PARENT
REMARK Flexibility Score: inf
ROOT
ATOM      1  C   UNL     1      25.621  29.050  40.317  1.00  0.00     0.004 C 
ENDROOT
BRANCH   1   2
ATOM      2  C   UNL     1      24.625  27.872  40.519  1.00  0.00    -0.009 C 
BRANCH   2   3
ATOM      3  C   UNL     1      24.949  27.133  41.856  1.00  0.00     0.000 C 
ATOM      4  C   UNL     1      26.261  26.349  41.792  1.00  0.00     0.004 C 
ENDBRANCH   2   3
BRANCH   2   5
ATOM      5  C   UNL     1      23.121  28.299  40.394  1.00  0.00    -0.014 C 
ATOM      6  C   UNL     1      22.160  27.485  41.279  1.00  0.00     0.007 C 
ATOM      7  C   UNL     1      22.635  28.295  38.936  1.00  0.00     0.007 C 
ENDBRANCH   2   5
ENDBRANCH   1   2
BRANCH   1   8
ATOM      8  C   UNL     1      26.328  29.130  38.945  1.00  0.00     0.004 C 
BRANCH   8   9
ATOM      9  C   UNL     1      26.281  30.475  38.158  1.00  0.00    -0.011 C 
ATOM     10  C   UNL     1      27.425  31.444  38.530  1.00  0.00     0.008 C 
BRANCH   9  11
ATOM     11  C   UNL     1      24.839  31.115  38.075  1.00  0.00    -0.002 C 
ATOM     12  C   UNL     1      24.710  32.456  38.832  1.00  0.00     0.005 C 
ATOM     13  C   UNL     1      24.267  31.425  36.644  1.00  0.00    -0.026 C 
ATOM     14  C   UNL     1      24.548  33.563  37.792  1.00  0.00     0.005 C 
ATOM     15  C   UNL     1      24.655  32.897  36.413  1.00  0.00    -0.001 C 
ATOM     16  C   UNL     1      22.712  31.286  36.700  1.00  0.00     0.007 C 
ATOM     17  C   UNL     1      24.819  30.508  35.523  1.00  0.00     0.012 C 
ATOM     18  C   UNL     1      23.875  33.606  35.262  1.00  0.00     0.004 C 
ATOM     19  C   UNL     1      21.986  31.921  35.511  1.00  0.00     0.005 C 
ATOM     20  C   UNL     1      22.330  33.424  35.355  1.00  0.00     0.003 C 
ATOM     21  C   UNL     1      24.267  35.094  35.187  1.00  0.00     0.085 C 
ATOM     22  C   UNL     1      21.550  34.112  34.157  1.00  0.00    -0.000 C 
ATOM     23  C   UNL     1      23.507  35.815  34.127  1.00  0.00     0.159 C 
ATOM     24  C   UNL     1      22.068  35.539  33.942  1.00  0.00     0.005 C 
ATOM     25  C   UNL     1      20.026  34.161  34.501  1.00  0.00     0.020 C 
ATOM     26  C   UNL     1      21.747  33.343  32.823  1.00  0.00     0.017 C 
ATOM     27  O   UNL     1      24.080  36.721  33.463  1.00  0.00    -0.295 OA
ATOM     28  C   UNL     1      21.269  36.522  33.484  1.00  0.00     0.055 C 
ATOM     29  C   UNL     1      19.204  34.981  33.499  1.00  0.00     0.081 C 
ATOM     30  C   UNL     1      19.830  36.318  33.263  1.00  0.00     0.156 C 
ATOM     31  O   UNL     1      19.127  37.269  32.833  1.00  0.00    -0.295 OA
ENDBRANCH   9  11
ENDBRANCH   8   9
ENDBRANCH   1   8
TORSDOF 6
ENDMDL
MODEL 5
REMARK VINA RESULT:    -7.070      3.820      5.891
REMARK INTER + INTRA:         -10.338
REMARK INTER:                  -8.613
REMARK INTRA:                  -1.725
REMARK UNBOUND:                -0.788
REMARK SMILES CC[C@H](CC[C@H](C)[C@H]1CC[C@@H]2[C@@H]3CC(=O)C4=CC(=O)CC[C@]4(C)[C@H]3CC[C@@]21C)C(C)C
REMARK SMILES IDX 4 1 3 2 2 3 1 4 29 5 30 6 31 7 5 8 6 9 7 10 8 11 9 12 27 13
REMARK SMILES IDX 10 14 11 15 26 16 28 17 12 18 25 19 24 20 13 21 22 22 14 23
REMARK SMILES IDX 16 24 21 25 23 26 15 27 17 28 20 29 18 30 19 31
REMARK H PARENT
REMARK Flexibility Score: inf
ROOT
ATOM      1  C   UNL     1      24.134  29.478  39.281  1.00  0.00     0.004 C 
ENDROOT
BRANCH   1   2
ATOM      2  C   UNL     1      23.134  28.289  39.367  1.00  0.00    -0.009 C 
BRANCH   2   3
ATOM      3  C   UNL     1      22.893  27.913  40.863  1.00  0.00     0.000 C 
ATOM      4  C   UNL     1      24.186  27.545  41.592  1.00  0.00     0.004 C 
ENDBRANCH   2   3
BRANCH   2   5
ATOM      5  C   UNL     1      21.807  28.531  38.567  1.00  0.00    -0.014 C 
ATOM      6  C   UNL     1      21.764  27.839  37.193  1.00  0.00     0.007 C 
ATOM      7  C   UNL     1      21.482  30.027  38.421  1.00  0.00     0.007 C 
ENDBRANCH   2   5
ENDBRANCH   1   2
BRANCH   1   8
ATOM      8  C   UNL     1      25.479  29.200  38.572  1.00  0.00     0.004 C 
BRANCH   8   9
ATOM      9  C   UNL     1      26.037  30.269  37.583  1.00  0.00    -0.011 C 
ATOM     10  C   UNL     1      27.565  30.463  37.687  1.00  0.00     0.008 C 
BRANCH   9  11
ATOM     11  C   UNL     1      25.179  31.594  37.527  1.00  0.00    -0.002 C 
ATOM     12  C   UNL     1      26.019  32.884  37.669  1.00  0.00     0.005 C 
ATOM     13  C   UNL     1      24.313  31.841  36.238  1.00  0.00    -0.026 C 
ATOM     14  C   UNL     1      26.009  33.597  36.318  1.00  0.00     0.005 C 
ATOM     15  C   UNL     1      25.230  32.699  35.347  1.00  0.00    -0.001 C 
ATOM     16  C   UNL     1      23.049  32.661  36.650  1.00  0.00     0.007 C 
ATOM     17  C   UNL     1      23.864  30.546  35.513  1.00  0.00     0.012 C 
ATOM     18  C   UNL     1      24.502  33.441  34.183  1.00  0.00     0.004 C 
ATOM     19  C   UNL     1      22.313  33.306  35.471  1.00  0.00     0.005 C 
ATOM     20  C   UNL     1      23.240  34.232  34.644  1.00  0.00     0.003 C 
ATOM     21  C   UNL     1      25.491  34.346  33.424  1.00  0.00     0.085 C 
ATOM     22  C   UNL     1      22.483  34.946  33.446  1.00  0.00    -0.000 C 
ATOM     23  C   UNL     1      24.821  35.106  32.331  1.00  0.00     0.159 C 
ATOM     24  C   UNL     1      23.487  35.697  32.562  1.00  0.00     0.005 C 
ATOM     25  C   UNL     1      21.447  35.961  34.030  1.00  0.00     0.020 C 
ATOM     26  C   UNL     1      21.742  33.926  32.540  1.00  0.00     0.017 C 
ATOM     27  O   UNL     1      25.440  35.317  31.254  1.00  0.00    -0.295 OA
ATOM     28  C   UNL     1      23.149  36.823  31.905  1.00  0.00     0.055 C 
ATOM     29  C   UNL     1      20.798  36.849  32.960  1.00  0.00     0.081 C 
ATOM     30  C   UNL     1      21.836  37.460  32.074  1.00  0.00     0.156 C 
ATOM     31  O   UNL     1      21.569  38.512  31.436  1.00  0.00    -0.295 OA
ENDBRANCH   9  11
ENDBRANCH   8   9
ENDBRANCH   1   8
TORSDOF 6
ENDMDL
MODEL 6
REMARK VINA RESULT:    -7.002      2.077      3.270
REMARK INTER + INTRA:         -10.246
REMARK INTER:                  -8.777
REMARK INTRA:                  -1.469
REMARK UNBOUND:                -0.788
REMARK SMILES CC[C@H](CC[C@H](C)[C@H]1CC[C@@H]2[C@@H]3CC(=O)C4=CC(=O)CC[C@]4(C)[C@H]3CC[C@@]21C)C(C)C
REMARK SMILES IDX 4 1 3 2 2 3 1 4 29 5 30 6 31 7 5 8 6 9 7 10 8 11 9 12 27 13
REMARK SMILES IDX 10 14 11 15 26 16 28 17 12 18 25 19 24 20 13 21 22 22 14 23
REMARK SMILES IDX 16 24 21 25 23 26 15 27 17 28 20 29 18 30 19 31
REMARK H PARENT
REMARK Flexibility Score: inf
ROOT
ATOM      1  C   UNL     1      23.229  28.855  39.911  1.00  0.00     0.004 C 
ENDROOT
BRANCH   1   2
ATOM      2  C   UNL     1      24.650  28.230  39.795  1.00  0.00    -0.009 C 
BRANCH   2   3
ATOM      3  C   UNL     1      25.567  29.164  38.944  1.00  0.00     0.000 C 
ATOM      4  C   UNL     1      25.738  30.549  39.570  1.00  0.00     0.004 C 
ENDBRANCH   2   3
BRANCH   2   5
ATOM      5  C   UNL     1      25.274  27.841  41.180  1.00  0.00    -0.014 C 
ATOM      6  C   UNL     1      26.358  26.751  41.098  1.00  0.00     0.007 C 
ATOM      7  C   UNL     1      24.203  27.452  42.211  1.00  0.00     0.007 C 
ENDBRANCH   2   5
ENDBRANCH   1   2
BRANCH   1   8
ATOM      8  C   UNL     1      22.113  28.194  39.071  1.00  0.00     0.004 C 
BRANCH   8   9
ATOM      9  C   UNL     1      21.518  28.985  37.865  1.00  0.00    -0.011 C 
ATOM     10  C   UNL     1      21.590  28.213  36.530  1.00  0.00     0.008 C 
BRANCH   9  11
ATOM     11  C   UNL     1      21.971  30.497  37.809  1.00  0.00    -0.002 C 
ATOM     12  C   UNL     1      23.026  30.789  36.718  1.00  0.00     0.005 C 
ATOM     13  C   UNL     1      20.856  31.577  37.562  1.00  0.00    -0.026 C 
ATOM     14  C   UNL     1      22.355  31.630  35.634  1.00  0.00     0.005 C 
ATOM     15  C   UNL     1      20.880  31.778  36.036  1.00  0.00    -0.001 C 
ATOM     16  C   UNL     1      21.287  32.895  38.281  1.00  0.00     0.007 C 
ATOM     17  C   UNL     1      19.446  31.165  38.059  1.00  0.00     0.012 C 
ATOM     18  C   UNL     1      20.175  33.078  35.536  1.00  0.00     0.004 C 
ATOM     19  C   UNL     1      20.514  34.136  37.823  1.00  0.00     0.005 C 
ATOM     20  C   UNL     1      20.629  34.361  36.295  1.00  0.00     0.003 C 
ATOM     21  C   UNL     1      20.349  33.229  34.013  1.00  0.00     0.085 C 
ATOM     22  C   UNL     1      19.874  35.669  35.808  1.00  0.00    -0.000 C 
ATOM     23  C   UNL     1      19.726  34.484  33.505  1.00  0.00     0.159 C 
ATOM     24  C   UNL     1      19.869  35.735  34.276  1.00  0.00     0.005 C 
ATOM     25  C   UNL     1      20.610  36.925  36.378  1.00  0.00     0.020 C 
ATOM     26  C   UNL     1      18.394  35.690  36.277  1.00  0.00     0.017 C 
ATOM     27  O   UNL     1      19.165  34.484  32.377  1.00  0.00    -0.295 OA
ATOM     28  C   UNL     1      19.881  36.910  33.617  1.00  0.00     0.055 C 
ATOM     29  C   UNL     1      20.081  38.248  35.810  1.00  0.00     0.081 C 
ATOM     30  C   UNL     1      20.007  38.196  34.318  1.00  0.00     0.156 C 
ATOM     31  O   UNL     1      20.013  39.266  33.655  1.00  0.00    -0.295 OA
ENDBRANCH   9  11
ENDBRANCH   8   9
ENDBRANCH   1   8
TORSDOF 6
ENDMDL
MODEL 7
REMARK VINA RESULT:    -6.969      3.864      5.956
REMARK INTER + INTRA:         -10.201
REMARK INTER:                  -8.779
REMARK INTRA:                  -1.422
REMARK UNBOUND:                -0.788
REMARK SMILES CC[C@H](CC[C@H](C)[C@H]1CC[C@@H]2[C@@H]3CC(=O)C4=CC(=O)CC[C@]4(C)[C@H]3CC[C@@]21C)C(C)C
REMARK SMILES IDX 4 1 3 2 2 3 1 4 29 5 30 6 31 7 5 8 6 9 7 10 8 11 9 12 27 13
REMARK SMILES IDX 10 14 11 15 26 16 28 17 12 18 25 19 24 20 13 21 22 22 14 23
REMARK SMILES IDX 16 24 21 25 23 26 15 27 17 28 20 29 18 30 19 31
REMARK H PARENT
REMARK Flexibility Score: inf
ROOT
ATOM      1  C   UNL     1      22.319  29.283  38.874  1.00  0.00     0.004 C 
ENDROOT
BRANCH   1   2
ATOM      2  C   UNL     1      21.009  29.521  38.069  1.00  0.00    -0.009 C 
BRANCH   2   3
ATOM      3  C   UNL     1      20.843  31.047  37.777  1.00  0.00     0.000 C 
ATOM      4  C   UNL     1      19.570  31.628  38.393  1.00  0.00     0.004 C 
ENDBRANCH   2   3
BRANCH   2   5
ATOM      5  C   UNL     1      20.894  28.628  36.785  1.00  0.00    -0.014 C 
ATOM      6  C   UNL     1      19.496  28.626  36.142  1.00  0.00     0.007 C 
ATOM      7  C   UNL     1      21.367  27.187  37.036  1.00  0.00     0.007 C 
ENDBRANCH   2   5
ENDBRANCH   1   2
BRANCH   1   8
ATOM      8  C   UNL     1      23.359  30.426  38.857  1.00  0.00     0.004 C 
BRANCH   8   9
ATOM      9  C   UNL     1      24.832  30.089  38.472  1.00  0.00    -0.011 C 
ATOM     10  C   UNL     1      25.845  30.393  39.597  1.00  0.00     0.008 C 
BRANCH   9  11
ATOM     11  C   UNL     1      25.243  30.580  37.028  1.00  0.00    -0.002 C 
ATOM     12  C   UNL     1      24.482  29.863  35.889  1.00  0.00     0.005 C 
ATOM     13  C   UNL     1      25.065  32.107  36.705  1.00  0.00    -0.026 C 
ATOM     14  C   UNL     1      23.534  30.878  35.252  1.00  0.00     0.005 C 
ATOM     15  C   UNL     1      23.671  32.179  36.055  1.00  0.00    -0.001 C 
ATOM     16  C   UNL     1      26.159  32.517  35.667  1.00  0.00     0.007 C 
ATOM     17  C   UNL     1      25.165  33.037  37.942  1.00  0.00     0.012 C 
ATOM     18  C   UNL     1      23.386  33.492  35.261  1.00  0.00     0.004 C 
ATOM     19  C   UNL     1      25.886  33.853  34.969  1.00  0.00     0.005 C 
ATOM     20  C   UNL     1      24.513  33.864  34.251  1.00  0.00     0.003 C 
ATOM     21  C   UNL     1      22.011  33.412  34.572  1.00  0.00     0.085 C 
ATOM     22  C   UNL     1      24.234  35.222  33.481  1.00  0.00    -0.000 C 
ATOM     23  C   UNL     1      21.723  34.632  33.765  1.00  0.00     0.159 C 
ATOM     24  C   UNL     1      22.795  35.241  32.951  1.00  0.00     0.005 C 
ATOM     25  C   UNL     1      25.229  35.343  32.282  1.00  0.00     0.020 C 
ATOM     26  C   UNL     1      24.401  36.456  34.408  1.00  0.00     0.017 C 
ATOM     27  O   UNL     1      20.544  35.075  33.713  1.00  0.00    -0.295 OA
ATOM     28  C   UNL     1      22.464  35.891  31.819  1.00  0.00     0.055 C 
ATOM     29  C   UNL     1      24.919  36.524  31.353  1.00  0.00     0.081 C 
ATOM     30  C   UNL     1      23.475  36.532  30.965  1.00  0.00     0.156 C 
ATOM     31  O   UNL     1      23.114  37.128  29.917  1.00  0.00    -0.295 OA
ENDBRANCH   9  11
ENDBRANCH   8   9
ENDBRANCH   1   8
TORSDOF 6
ENDMDL
MODEL 8
REMARK VINA RESULT:    -6.899      4.721      7.776
REMARK INTER + INTRA:         -10.107
REMARK INTER:                  -8.760
REMARK INTRA:                  -1.347
REMARK UNBOUND:                -0.788
REMARK SMILES CC[C@H](CC[C@H](C)[C@H]1CC[C@@H]2[C@@H]3CC(=O)C4=CC(=O)CC[C@]4(C)[C@H]3CC[C@@]21C)C(C)C
REMARK SMILES IDX 4 1 3 2 2 3 1 4 29 5 30 6 31 7 5 8 6 9 7 10 8 11 9 12 27 13
REMARK SMILES IDX 10 14 11 15 26 16 28 17 12 18 25 19 24 20 13 21 22 22 14 23
REMARK SMILES IDX 16 24 21 25 23 26 15 27 17 28 20 29 18 30 19 31
REMARK H PARENT
REMARK Flexibility Score: inf
ROOT
ATOM      1  C   UNL     1      25.419  38.764  40.374  1.00  0.00     0.004 C 
ENDROOT
BRANCH   1   2
ATOM      2  C   UNL     1      26.818  38.678  39.699  1.00  0.00    -0.009 C 
BRANCH   2   3
ATOM      3  C   UNL     1      27.905  38.386  40.781  1.00  0.00     0.000 C 
ATOM      4  C   UNL     1      27.776  39.295  42.005  1.00  0.00     0.004 C 
ENDBRANCH   2   3
BRANCH   2   5
ATOM      5  C   UNL     1      26.866  37.683  38.488  1.00  0.00    -0.014 C 
ATOM      6  C   UNL     1      27.680  36.405  38.754  1.00  0.00     0.007 C 
ATOM      7  C   UNL     1      27.348  38.362  37.196  1.00  0.00     0.007 C 
ENDBRANCH   2   5
ENDBRANCH   1   2
BRANCH   1   8
ATOM      8  C   UNL     1      24.806  37.433  40.868  1.00  0.00     0.004 C 
BRANCH   8   9
ATOM      9  C   UNL     1      23.603  36.828  40.083  1.00  0.00    -0.011 C 
ATOM     10  C   UNL     1      22.343  37.721  40.107  1.00  0.00     0.008 C 
BRANCH   9  11
ATOM     11  C   UNL     1      23.362  35.293  40.367  1.00  0.00    -0.002 C 
ATOM     12  C   UNL     1      21.967  34.983  40.956  1.00  0.00     0.005 C 
ATOM     13  C   UNL     1      23.496  34.303  39.155  1.00  0.00    -0.026 C 
ATOM     14  C   UNL     1      21.167  34.240  39.888  1.00  0.00     0.005 C 
ATOM     15  C   UNL     1      22.052  34.172  38.636  1.00  0.00    -0.001 C 
ATOM     16  C   UNL     1      23.993  32.927  39.701  1.00  0.00     0.007 C 
ATOM     17  C   UNL     1      24.459  34.785  38.039  1.00  0.00     0.012 C 
ATOM     18  C   UNL     1      21.801  32.947  37.702  1.00  0.00     0.004 C 
ATOM     19  C   UNL     1      23.807  31.763  38.723  1.00  0.00     0.005 C 
ATOM     20  C   UNL     1      22.330  31.602  38.286  1.00  0.00     0.003 C 
ATOM     21  C   UNL     1      20.310  32.855  37.328  1.00  0.00     0.085 C 
ATOM     22  C   UNL     1      22.108  30.371  37.310  1.00  0.00    -0.000 C 
ATOM     23  C   UNL     1      20.024  31.670  36.471  1.00  0.00     0.159 C 
ATOM     24  C   UNL     1      20.672  30.377  36.772  1.00  0.00     0.005 C 
ATOM     25  C   UNL     1      22.362  29.044  38.095  1.00  0.00     0.020 C 
ATOM     26  C   UNL     1      23.061  30.428  36.085  1.00  0.00     0.017 C 
ATOM     27  O   UNL     1      19.161  31.760  35.558  1.00  0.00    -0.295 OA
ATOM     28  C   UNL     1      20.026  29.236  36.464  1.00  0.00     0.055 C 
ATOM     29  C   UNL     1      21.986  27.787  37.301  1.00  0.00     0.081 C 
ATOM     30  C   UNL     1      20.614  27.913  36.721  1.00  0.00     0.156 C 
ATOM     31  O   UNL     1      19.968  26.877  36.414  1.00  0.00    -0.295 OA
ENDBRANCH   9  11
ENDBRANCH   8   9
ENDBRANCH   1   8
TORSDOF 6
ENDMDL
MODEL 9
REMARK VINA RESULT:    -6.814      3.590      7.634
REMARK INTER + INTRA:          -9.992
REMARK INTER:                  -8.078
REMARK INTRA:                  -1.913
REMARK UNBOUND:                -0.788
REMARK SMILES CC[C@H](CC[C@H](C)[C@H]1CC[C@@H]2[C@@H]3CC(=O)C4=CC(=O)CC[C@]4(C)[C@H]3CC[C@@]21C)C(C)C
REMARK SMILES IDX 4 1 3 2 2 3 1 4 29 5 30 6 31 7 5 8 6 9 7 10 8 11 9 12 27 13
REMARK SMILES IDX 10 14 11 15 26 16 28 17 12 18 25 19 24 20 13 21 22 22 14 23
REMARK SMILES IDX 16 24 21 25 23 26 15 27 17 28 20 29 18 30 19 31
REMARK H PARENT
REMARK Flexibility Score: inf
ROOT
ATOM      1  C   UNL     1      23.348  38.007  38.428  1.00  0.00     0.004 C 
ENDROOT
BRANCH   1   2
ATOM      2  C   UNL     1      22.399  37.310  37.411  1.00  0.00    -0.009 C 
BRANCH   2   3
ATOM      3  C   UNL     1      20.981  37.962  37.485  1.00  0.00     0.000 C 
ATOM      4  C   UNL     1      19.940  37.036  38.116  1.00  0.00     0.004 C 
ENDBRANCH   2   3
BRANCH   2   5
ATOM      5  C   UNL     1      22.979  37.250  35.956  1.00  0.00    -0.014 C 
ATOM      6  C   UNL     1      22.836  35.876  35.277  1.00  0.00     0.007 C 
ATOM      7  C   UNL     1      24.439  37.725  35.893  1.00  0.00     0.007 C 
ENDBRANCH   2   5
ENDBRANCH   1   2
BRANCH   1   8
ATOM      8  C   UNL     1      23.264  37.526  39.895  1.00  0.00     0.004 C 
BRANCH   8   9
ATOM      9  C   UNL     1      24.398  36.608  40.446  1.00  0.00    -0.011 C 
ATOM     10  C   UNL     1      25.774  36.876  39.798  1.00  0.00     0.008 C 
BRANCH   9  11
ATOM     11  C   UNL     1      23.984  35.089  40.573  1.00  0.00    -0.002 C 
ATOM     12  C   UNL     1      22.574  34.879  41.172  1.00  0.00     0.005 C 
ATOM     13  C   UNL     1      23.974  34.229  39.258  1.00  0.00    -0.026 C 
ATOM     14  C   UNL     1      21.669  34.355  40.059  1.00  0.00     0.005 C 
ATOM     15  C   UNL     1      22.514  34.323  38.777  1.00  0.00    -0.001 C 
ATOM     16  C   UNL     1      24.316  32.753  39.638  1.00  0.00     0.007 C 
ATOM     17  C   UNL     1      24.964  34.716  38.169  1.00  0.00     0.012 C 
ATOM     18  C   UNL     1      22.100  33.245  37.727  1.00  0.00     0.004 C 
ATOM     19  C   UNL     1      23.973  31.733  38.548  1.00  0.00     0.005 C 
ATOM     20  C   UNL     1      22.478  31.792  38.147  1.00  0.00     0.003 C 
ATOM     21  C   UNL     1      20.601  33.368  37.396  1.00  0.00     0.085 C 
ATOM     22  C   UNL     1      22.092  30.710  37.053  1.00  0.00    -0.000 C 
ATOM     23  C   UNL     1      20.159  32.324  36.428  1.00  0.00     0.159 C 
ATOM     24  C   UNL     1      20.656  30.940  36.567  1.00  0.00     0.005 C 
ATOM     25  C   UNL     1      22.203  29.284  37.684  1.00  0.00     0.020 C 
ATOM     26  C   UNL     1      23.019  30.790  35.810  1.00  0.00     0.017 C 
ATOM     27  O   UNL     1      19.293  32.613  35.559  1.00  0.00    -0.295 OA
ATOM     28  C   UNL     1      19.873  29.922  36.162  1.00  0.00     0.055 C 
ATOM     29  C   UNL     1      21.664  28.174  36.773  1.00  0.00     0.081 C 
ATOM     30  C   UNL     1      20.305  28.521  36.257  1.00  0.00     0.156 C 
ATOM     31  O   UNL     1      19.535  27.606  35.863  1.00  0.00    -0.295 OA
ENDBRANCH   9  11
ENDBRANCH   8   9
ENDBRANCH   1   8
TORSDOF 6
ENDMDL
