MODEL 1
REMARK VINA RESULT:     3.895      0.000      0.000
REMARK INTER + INTRA:           8.167
REMARK INTER:                  10.269
REMARK INTRA:                  -2.103
REMARK UNBOUND:                -2.103
REMARK SMILES CCCCCCCCCCCCCCCCCCCCCCCCCCCCCC(=O)[O-]
REMARK SMILES IDX 16 1 17 2 18 3 19 4 20 5 21 6 22 7 23 8 24 9 25 10 26 11
REMARK SMILES IDX 27 12 28 13 29 14 30 15 31 16 32 17 15 18 14 19 13 20 12 21
REMARK SMILES IDX 11 22 10 23 9 24 8 25 7 26 6 27 5 28 4 29 3 30 2 31 1 32
REMARK H PARENT
REMARK Flexibility Score: inf
ROOT
ATOM      1  C   UNL     1       1.248  -6.235   2.839  1.00  0.00     0.000 C 
ENDROOT
BRANCH   1   2
ATOM      2  C   UNL     1       0.576  -6.304   1.451  1.00  0.00     0.000 C 
BRANCH   2   3
ATOM      3  C   UNL     1       0.987  -5.135   0.535  1.00  0.00     0.000 C 
BRANCH   3   4
ATOM      4  C   UNL     1       0.284  -5.202  -0.838  1.00  0.00     0.000 C 
BRANCH   4   5
ATOM      5  C   UNL     1       0.702  -4.074  -1.796  1.00  0.00     0.000 C 
BRANCH   5   6
ATOM      6  C   UNL     1      -0.458  -3.133  -2.149  1.00  0.00     0.000 C 
BRANCH   6   7
ATOM      7  C   UNL     1       0.056  -1.718  -2.456  1.00  0.00     0.000 C 
BRANCH   7   8
ATOM      8  C   UNL     1       0.945  -1.663  -3.712  1.00  0.00     0.000 C 
BRANCH   8   9
ATOM      9  C   UNL     1       0.181  -1.709  -5.047  1.00  0.00     0.000 C 
BRANCH   9  10
ATOM     10  C   UNL     1       0.830  -0.836  -6.135  1.00  0.00     0.000 C 
BRANCH  10  11
ATOM     11  C   UNL     1      -0.047   0.365  -6.535  1.00  0.00     0.000 C 
BRANCH  11  12
ATOM     12  C   UNL     1       0.730   1.651  -6.884  1.00  0.00     0.000 C 
BRANCH  12  13
ATOM     13  C   UNL     1       1.174   2.492  -5.674  1.00  0.00     0.006 C 
BRANCH  13  14
ATOM     14  C   UNL     1       0.001   2.912  -4.779  1.00  0.00     0.053 C 
BRANCH  14  15
ATOM     15  C   UNL     1      -0.800   3.998  -5.431  1.00  0.00     0.041 C 
ATOM     16  O   UNL     1      -1.965   3.764  -5.850  1.00  0.00    -0.550 OA
ATOM     17  O   UNL     1      -0.270   5.277  -5.553  1.00  0.00    -0.550 OA
ENDBRANCH  14  15
ENDBRANCH  13  14
ENDBRANCH  12  13
ENDBRANCH  11  12
ENDBRANCH  10  11
ENDBRANCH   9  10
ENDBRANCH   8   9
ENDBRANCH   7   8
ENDBRANCH   6   7
ENDBRANCH   5   6
ENDBRANCH   4   5
ENDBRANCH   3   4
ENDBRANCH   2   3
ENDBRANCH   1   2
BRANCH   1  18
ATOM     18  C   UNL     1       0.297  -6.535   4.010  1.00  0.00     0.000 C 
BRANCH  18  19
ATOM     19  C   UNL     1       0.727  -7.762   4.827  1.00  0.00     0.000 C 
BRANCH  19  20
ATOM     20  C   UNL     1      -0.293  -8.917   4.780  1.00  0.00     0.000 C 
BRANCH  20  21
ATOM     21  C   UNL     1      -0.479  -9.581   3.403  1.00  0.00     0.000 C 
BRANCH  21  22
ATOM     22  C   UNL     1      -1.593 -10.638   3.383  1.00  0.00     0.000 C 
BRANCH  22  23
ATOM     23  C   UNL     1      -2.971  -9.987   3.551  1.00  0.00     0.000 C 
BRANCH  23  24
ATOM     24  C   UNL     1      -3.787 -10.081   2.256  1.00  0.00    -0.000 C 
BRANCH  24  25
ATOM     25  C   UNL     1      -5.217 -10.554   2.539  1.00  0.00    -0.000 C 
BRANCH  25  26
ATOM     26  C   UNL     1      -6.245  -9.677   1.809  1.00  0.00    -0.000 C 
BRANCH  26  27
ATOM     27  C   UNL     1      -7.026  -8.754   2.759  1.00  0.00    -0.000 C 
BRANCH  27  28
ATOM     28  C   UNL     1      -6.545  -8.823   4.224  1.00  0.00    -0.000 C 
BRANCH  28  29
ATOM     29  C   UNL     1      -5.635  -7.636   4.593  1.00  0.00    -0.000 C 
BRANCH  29  30
ATOM     30  C   UNL     1      -5.540  -6.590   3.472  1.00  0.00    -0.000 C 
BRANCH  30  31
ATOM     31  C   UNL     1      -5.640  -5.151   3.997  1.00  0.00    -0.003 C 
ATOM     32  C   UNL     1      -7.045  -4.850   4.511  1.00  0.00     0.004 C 
ENDBRANCH  30  31
ENDBRANCH  29  30
ENDBRANCH  28  29
ENDBRANCH  27  28
ENDBRANCH  26  27
ENDBRANCH  25  26
ENDBRANCH  24  25
ENDBRANCH  23  24
ENDBRANCH  22  23
ENDBRANCH  21  22
ENDBRANCH  20  21
ENDBRANCH  19  20
ENDBRANCH  18  19
ENDBRANCH   1  18
TORSDOF 28
ENDMDL
MODEL 2
REMARK VINA RESULT:     4.051      3.943     12.398
REMARK INTER + INTRA:           8.580
REMARK INTER:                  10.393
REMARK INTRA:                  -1.813
REMARK UNBOUND:                -2.103
REMARK SMILES CCCCCCCCCCCCCCCCCCCCCCCCCCCCCC(=O)[O-]
REMARK SMILES IDX 16 1 17 2 18 3 19 4 20 5 21 6 22 7 23 8 24 9 25 10 26 11
REMARK SMILES IDX 27 12 28 13 29 14 30 15 31 16 32 17 15 18 14 19 13 20 12 21
REMARK SMILES IDX 11 22 10 23 9 24 8 25 7 26 6 27 5 28 4 29 3 30 2 31 1 32
REMARK H PARENT
REMARK Flexibility Score: inf
ROOT
ATOM      1  C   UNL     1       0.785  -6.497   1.501  1.00  0.00     0.000 C 
ENDROOT
BRANCH   1   2
ATOM      2  C   UNL     1       1.134  -6.118   2.956  1.00  0.00     0.000 C 
BRANCH   2   3
ATOM      3  C   UNL     1      -0.020  -6.402   3.935  1.00  0.00     0.000 C 
BRANCH   3   4
ATOM      4  C   UNL     1       0.414  -7.334   5.087  1.00  0.00     0.000 C 
BRANCH   4   5
ATOM      5  C   UNL     1       0.336  -8.827   4.729  1.00  0.00     0.000 C 
BRANCH   5   6
ATOM      6  C   UNL     1      -1.011  -9.460   5.104  1.00  0.00     0.000 C 
BRANCH   6   7
ATOM      7  C   UNL     1      -1.918  -9.594   3.871  1.00  0.00     0.000 C 
BRANCH   7   8
ATOM      8  C   UNL     1      -3.416  -9.501   4.217  1.00  0.00     0.000 C 
BRANCH   8   9
ATOM      9  C   UNL     1      -4.236 -10.758   3.877  1.00  0.00     0.000 C 
BRANCH   9  10
ATOM     10  C   UNL     1      -5.494 -10.902   4.751  1.00  0.00     0.000 C 
BRANCH  10  11
ATOM     11  C   UNL     1      -6.730 -10.227   4.129  1.00  0.00     0.000 C 
BRANCH  11  12
ATOM     12  C   UNL     1      -6.669  -8.687   4.068  1.00  0.00     0.000 C 
BRANCH  12  13
ATOM     13  C   UNL     1      -7.056  -8.072   2.710  1.00  0.00     0.006 C 
BRANCH  13  14
ATOM     14  C   UNL     1      -7.123  -9.113   1.585  1.00  0.00     0.053 C 
BRANCH  14  15
ATOM     15  C   UNL     1      -6.008  -8.907   0.605  1.00  0.00     0.041 C 
ATOM     16  O   UNL     1      -6.242  -8.411  -0.530  1.00  0.00    -0.550 OA
ATOM     17  O   UNL     1      -4.704  -9.239   0.953  1.00  0.00    -0.550 OA
ENDBRANCH  14  15
ENDBRANCH  13  14
ENDBRANCH  12  13
ENDBRANCH  11  12
ENDBRANCH  10  11
ENDBRANCH   9  10
ENDBRANCH   8   9
ENDBRANCH   7   8
ENDBRANCH   6   7
ENDBRANCH   5   6
ENDBRANCH   4   5
ENDBRANCH   3   4
ENDBRANCH   2   3
ENDBRANCH   1   2
BRANCH   1  18
ATOM     18  C   UNL     1       0.843  -5.318   0.516  1.00  0.00     0.000 C 
BRANCH  18  19
ATOM     19  C   UNL     1       0.288  -5.672  -0.872  1.00  0.00     0.000 C 
BRANCH  19  20
ATOM     20  C   UNL     1      -0.435  -4.498  -1.560  1.00  0.00     0.000 C 
BRANCH  20  21
ATOM     21  C   UNL     1       0.441  -3.270  -1.873  1.00  0.00     0.000 C 
BRANCH  21  22
ATOM     22  C   UNL     1       1.785  -3.631  -2.523  1.00  0.00     0.000 C 
BRANCH  22  23
ATOM     23  C   UNL     1       2.241  -2.532  -3.489  1.00  0.00     0.000 C 
BRANCH  23  24
ATOM     24  C   UNL     1       1.049  -1.707  -3.988  1.00  0.00    -0.000 C 
BRANCH  24  25
ATOM     25  C   UNL     1       0.955  -1.746  -5.518  1.00  0.00    -0.000 C 
BRANCH  25  26
ATOM     26  C   UNL     1       0.253  -0.493  -6.061  1.00  0.00    -0.000 C 
BRANCH  26  27
ATOM     27  C   UNL     1       1.207   0.450  -6.813  1.00  0.00    -0.000 C 
BRANCH  27  28
ATOM     28  C   UNL     1       0.765   1.929  -6.786  1.00  0.00    -0.000 C 
BRANCH  28  29
ATOM     29  C   UNL     1       0.915   2.554  -5.387  1.00  0.00    -0.000 C 
BRANCH  29  30
ATOM     30  C   UNL     1      -0.428   2.998  -4.789  1.00  0.00    -0.000 C 
BRANCH  30  31
ATOM     31  C   UNL     1      -1.074   4.148  -5.576  1.00  0.00    -0.003 C 
ATOM     32  C   UNL     1      -2.569   3.911  -5.767  1.00  0.00     0.004 C 
ENDBRANCH  30  31
ENDBRANCH  29  30
ENDBRANCH  28  29
ENDBRANCH  27  28
ENDBRANCH  26  27
ENDBRANCH  25  26
ENDBRANCH  24  25
ENDBRANCH  23  24
ENDBRANCH  22  23
ENDBRANCH  21  22
ENDBRANCH  20  21
ENDBRANCH  19  20
ENDBRANCH  18  19
ENDBRANCH   1  18
TORSDOF 28
ENDMDL
MODEL 3
REMARK VINA RESULT:     4.053      3.405     11.879
REMARK INTER + INTRA:           8.585
REMARK INTER:                   9.972
REMARK INTRA:                  -1.387
REMARK UNBOUND:                -2.103
REMARK SMILES CCCCCCCCCCCCCCCCCCCCCCCCCCCCCC(=O)[O-]
REMARK SMILES IDX 16 1 17 2 18 3 19 4 20 5 21 6 22 7 23 8 24 9 25 10 26 11
REMARK SMILES IDX 27 12 28 13 29 14 30 15 31 16 32 17 15 18 14 19 13 20 12 21
REMARK SMILES IDX 11 22 10 23 9 24 8 25 7 26 6 27 5 28 4 29 3 30 2 31 1 32
REMARK H PARENT
REMARK Flexibility Score: inf
ROOT
ATOM      1  C   UNL     1       1.306  -5.938   2.920  1.00  0.00     0.000 C 
ENDROOT
BRANCH   1   2
ATOM      2  C   UNL     1       0.982  -6.933   4.054  1.00  0.00     0.000 C 
BRANCH   2   3
ATOM      3  C   UNL     1      -0.123  -6.420   4.995  1.00  0.00     0.000 C 
BRANCH   3   4
ATOM      4  C   UNL     1      -1.420  -7.249   4.871  1.00  0.00     0.000 C 
BRANCH   4   5
ATOM      5  C   UNL     1      -1.248  -8.536   4.046  1.00  0.00     0.000 C 
BRANCH   5   6
ATOM      6  C   UNL     1      -2.531  -9.376   3.979  1.00  0.00     0.000 C 
BRANCH   6   7
ATOM      7  C   UNL     1      -2.379 -10.532   2.980  1.00  0.00     0.000 C 
BRANCH   7   8
ATOM      8  C   UNL     1      -3.716 -10.947   2.337  1.00  0.00     0.000 C 
BRANCH   8   9
ATOM      9  C   UNL     1      -4.969 -10.518   3.119  1.00  0.00     0.000 C 
BRANCH   9  10
ATOM     10  C   UNL     1      -6.221 -10.418   2.231  1.00  0.00     0.000 C 
BRANCH  10  11
ATOM     11  C   UNL     1      -6.842  -9.008   2.236  1.00  0.00     0.000 C 
BRANCH  11  12
ATOM     12  C   UNL     1      -6.201  -8.018   3.229  1.00  0.00     0.000 C 
BRANCH  12  13
ATOM     13  C   UNL     1      -7.124  -6.880   3.703  1.00  0.00     0.006 C 
BRANCH  13  14
ATOM     14  C   UNL     1      -6.382  -5.815   4.520  1.00  0.00     0.053 C 
BRANCH  14  15
ATOM     15  C   UNL     1      -5.246  -5.239   3.733  1.00  0.00     0.041 C 
ATOM     16  O   UNL     1      -5.318  -4.066   3.278  1.00  0.00    -0.550 OA
ATOM     17  O   UNL     1      -4.094  -5.988   3.522  1.00  0.00    -0.550 OA
ENDBRANCH  14  15
ENDBRANCH  13  14
ENDBRANCH  12  13
ENDBRANCH  11  12
ENDBRANCH  10  11
ENDBRANCH   9  10
ENDBRANCH   8   9
ENDBRANCH   7   8
ENDBRANCH   6   7
ENDBRANCH   5   6
ENDBRANCH   4   5
ENDBRANCH   3   4
ENDBRANCH   2   3
ENDBRANCH   1   2
BRANCH   1  18
ATOM     18  C   UNL     1       0.668  -6.299   1.569  1.00  0.00     0.000 C 
BRANCH  18  19
ATOM     19  C   UNL     1       0.964  -5.264   0.473  1.00  0.00     0.000 C 
BRANCH  19  20
ATOM     20  C   UNL     1      -0.083  -5.251  -0.657  1.00  0.00     0.000 C 
BRANCH  20  21
ATOM     21  C   UNL     1       0.394  -4.662  -1.998  1.00  0.00     0.000 C 
BRANCH  21  22
ATOM     22  C   UNL     1       0.904  -3.218  -1.881  1.00  0.00     0.000 C 
BRANCH  22  23
ATOM     23  C   UNL     1       0.175  -2.296  -2.866  1.00  0.00     0.000 C 
BRANCH  23  24
ATOM     24  C   UNL     1       1.171  -1.452  -3.671  1.00  0.00    -0.000 C 
BRANCH  24  25
ATOM     25  C   UNL     1       1.170  -1.860  -5.149  1.00  0.00    -0.000 C 
BRANCH  25  26
ATOM     26  C   UNL     1       0.323  -0.894  -5.989  1.00  0.00    -0.000 C 
BRANCH  26  27
ATOM     27  C   UNL     1       1.143   0.268  -6.575  1.00  0.00    -0.000 C 
BRANCH  27  28
ATOM     28  C   UNL     1       0.375   1.605  -6.626  1.00  0.00    -0.000 C 
BRANCH  28  29
ATOM     29  C   UNL     1       0.931   2.634  -5.623  1.00  0.00    -0.000 C 
BRANCH  29  30
ATOM     30  C   UNL     1      -0.135   3.628  -5.141  1.00  0.00    -0.000 C 
BRANCH  30  31
ATOM     31  C   UNL     1      -1.178   3.948  -6.222  1.00  0.00    -0.003 C 
ATOM     32  C   UNL     1      -2.592   3.898  -5.652  1.00  0.00     0.004 C 
ENDBRANCH  30  31
ENDBRANCH  29  30
ENDBRANCH  28  29
ENDBRANCH  27  28
ENDBRANCH  26  27
ENDBRANCH  25  26
ENDBRANCH  24  25
ENDBRANCH  23  24
ENDBRANCH  22  23
ENDBRANCH  21  22
ENDBRANCH  20  21
ENDBRANCH  19  20
ENDBRANCH  18  19
ENDBRANCH   1  18
TORSDOF 28
ENDMDL
MODEL 4
REMARK VINA RESULT:     4.245      1.471      2.303
REMARK INTER + INTRA:           9.091
REMARK INTER:                  11.414
REMARK INTRA:                  -2.323
REMARK UNBOUND:                -2.103
REMARK SMILES CCCCCCCCCCCCCCCCCCCCCCCCCCCCCC(=O)[O-]
REMARK SMILES IDX 16 1 17 2 18 3 19 4 20 5 21 6 22 7 23 8 24 9 25 10 26 11
REMARK SMILES IDX 27 12 28 13 29 14 30 15 31 16 32 17 15 18 14 19 13 20 12 21
REMARK SMILES IDX 11 22 10 23 9 24 8 25 7 26 6 27 5 28 4 29 3 30 2 31 1 32
REMARK H PARENT
REMARK Flexibility Score: inf
ROOT
ATOM      1  C   UNL     1       0.588  -7.627   2.574  1.00  0.00     0.000 C 
ENDROOT
BRANCH   1   2
ATOM      2  C   UNL     1       0.766  -6.742   1.323  1.00  0.00     0.000 C 
BRANCH   2   3
ATOM      3  C   UNL     1       1.132  -5.287   1.672  1.00  0.00     0.000 C 
BRANCH   3   4
ATOM      4  C   UNL     1       1.100  -4.369   0.431  1.00  0.00     0.000 C 
BRANCH   4   5
ATOM      5  C   UNL     1       0.612  -5.078  -0.843  1.00  0.00     0.000 C 
BRANCH   5   6
ATOM      6  C   UNL     1      -0.266  -4.179  -1.725  1.00  0.00     0.000 C 
BRANCH   6   7
ATOM      7  C   UNL     1       0.462  -2.874  -2.078  1.00  0.00     0.000 C 
BRANCH   7   8
ATOM      8  C   UNL     1       1.798  -3.112  -2.806  1.00  0.00     0.000 C 
BRANCH   8   9
ATOM      9  C   UNL     1       1.883  -2.502  -4.216  1.00  0.00     0.000 C 
BRANCH   9  10
ATOM     10  C   UNL     1       0.880  -1.355  -4.429  1.00  0.00     0.000 C 
BRANCH  10  11
ATOM     11  C   UNL     1       0.663  -1.025  -5.918  1.00  0.00     0.000 C 
BRANCH  11  12
ATOM     12  C   UNL     1       1.252   0.324  -6.378  1.00  0.00     0.000 C 
BRANCH  12  13
ATOM     13  C   UNL     1       0.250   1.492  -6.424  1.00  0.00     0.006 C 
BRANCH  13  14
ATOM     14  C   UNL     1       0.802   2.774  -5.788  1.00  0.00     0.053 C 
BRANCH  14  15
ATOM     15  C   UNL     1      -0.303   3.745  -5.508  1.00  0.00     0.041 C 
ATOM     16  O   UNL     1      -0.052   4.972  -5.370  1.00  0.00    -0.550 OA
ATOM     17  O   UNL     1      -1.618   3.300  -5.423  1.00  0.00    -0.550 OA
ENDBRANCH  14  15
ENDBRANCH  13  14
ENDBRANCH  12  13
ENDBRANCH  11  12
ENDBRANCH  10  11
ENDBRANCH   9  10
ENDBRANCH   8   9
ENDBRANCH   7   8
ENDBRANCH   6   7
ENDBRANCH   5   6
ENDBRANCH   4   5
ENDBRANCH   3   4
ENDBRANCH   2   3
ENDBRANCH   1   2
BRANCH   1  18
ATOM     18  C   UNL     1       0.948  -6.924   3.894  1.00  0.00     0.000 C 
BRANCH  18  19
ATOM     19  C   UNL     1      -0.056  -7.218   5.019  1.00  0.00     0.000 C 
BRANCH  19  20
ATOM     20  C   UNL     1      -1.465  -6.658   4.745  1.00  0.00     0.000 C 
BRANCH  20  21
ATOM     21  C   UNL     1      -2.567  -7.712   4.524  1.00  0.00     0.000 C 
BRANCH  21  22
ATOM     22  C   UNL     1      -2.024  -9.142   4.396  1.00  0.00     0.000 C 
BRANCH  22  23
ATOM     23  C   UNL     1      -2.198  -9.671   2.968  1.00  0.00     0.000 C 
BRANCH  23  24
ATOM     24  C   UNL     1      -3.384 -10.640   2.880  1.00  0.00    -0.000 C 
BRANCH  24  25
ATOM     25  C   UNL     1      -3.894 -11.014   4.277  1.00  0.00    -0.000 C 
BRANCH  25  26
ATOM     26  C   UNL     1      -5.409 -10.797   4.389  1.00  0.00    -0.000 C 
BRANCH  26  27
ATOM     27  C   UNL     1      -5.806  -9.311   4.353  1.00  0.00    -0.000 C 
BRANCH  27  28
ATOM     28  C   UNL     1      -7.102  -9.035   3.562  1.00  0.00    -0.000 C 
BRANCH  28  29
ATOM     29  C   UNL     1      -6.838  -8.231   2.275  1.00  0.00    -0.000 C 
BRANCH  29  30
ATOM     30  C   UNL     1      -5.443  -8.492   1.689  1.00  0.00    -0.000 C 
BRANCH  30  31
ATOM     31  C   UNL     1      -5.494  -9.248   0.354  1.00  0.00    -0.003 C 
ATOM     32  C   UNL     1      -6.780  -8.934  -0.406  1.00  0.00     0.004 C 
ENDBRANCH  30  31
ENDBRANCH  29  30
ENDBRANCH  28  29
ENDBRANCH  27  28
ENDBRANCH  26  27
ENDBRANCH  25  26
ENDBRANCH  24  25
ENDBRANCH  23  24
ENDBRANCH  22  23
ENDBRANCH  21  22
ENDBRANCH  20  21
ENDBRANCH  19  20
ENDBRANCH  18  19
ENDBRANCH   1  18
TORSDOF 28
ENDMDL
MODEL 5
REMARK VINA RESULT:     4.635      3.812     11.936
REMARK INTER + INTRA:          10.119
REMARK INTER:                  11.378
REMARK INTRA:                  -1.259
REMARK UNBOUND:                -2.103
REMARK SMILES CCCCCCCCCCCCCCCCCCCCCCCCCCCCCC(=O)[O-]
REMARK SMILES IDX 16 1 17 2 18 3 19 4 20 5 21 6 22 7 23 8 24 9 25 10 26 11
REMARK SMILES IDX 27 12 28 13 29 14 30 15 31 16 32 17 15 18 14 19 13 20 12 21
REMARK SMILES IDX 11 22 10 23 9 24 8 25 7 26 6 27 5 28 4 29 3 30 2 31 1 32
REMARK H PARENT
REMARK Flexibility Score: inf
ROOT
ATOM      1  C   UNL     1       0.559  -7.473   4.835  1.00  0.00     0.000 C 
ENDROOT
BRANCH   1   2
ATOM      2  C   UNL     1      -0.596  -8.490   4.728  1.00  0.00     0.000 C 
BRANCH   2   3
ATOM      3  C   UNL     1      -0.098  -9.946   4.651  1.00  0.00     0.000 C 
BRANCH   3   4
ATOM      4  C   UNL     1      -0.275 -10.543   3.238  1.00  0.00     0.000 C 
BRANCH   4   5
ATOM      5  C   UNL     1      -1.737 -10.575   2.764  1.00  0.00     0.000 C 
BRANCH   5   6
ATOM      6  C   UNL     1      -2.721 -10.917   3.891  1.00  0.00     0.000 C 
BRANCH   6   7
ATOM      7  C   UNL     1      -4.157 -11.016   3.356  1.00  0.00     0.000 C 
BRANCH   7   8
ATOM      8  C   UNL     1      -4.224 -11.017   1.817  1.00  0.00     0.000 C 
BRANCH   8   9
ATOM      9  C   UNL     1      -5.643 -11.125   1.232  1.00  0.00     0.000 C 
BRANCH   9  10
ATOM     10  C   UNL     1      -6.677 -10.306   2.024  1.00  0.00     0.000 C 
BRANCH  10  11
ATOM     11  C   UNL     1      -7.036 -10.950   3.376  1.00  0.00     0.000 C 
BRANCH  11  12
ATOM     12  C   UNL     1      -7.077  -9.976   4.571  1.00  0.00     0.000 C 
BRANCH  12  13
ATOM     13  C   UNL     1      -6.903  -8.490   4.206  1.00  0.00     0.006 C 
BRANCH  13  14
ATOM     14  C   UNL     1      -5.733  -7.829   4.947  1.00  0.00     0.053 C 
BRANCH  14  15
ATOM     15  C   UNL     1      -4.984  -6.905   4.037  1.00  0.00     0.041 C 
ATOM     16  O   UNL     1      -5.498  -5.813   3.676  1.00  0.00    -0.550 OA
ATOM     17  O   UNL     1      -3.704  -7.238   3.606  1.00  0.00    -0.550 OA
ENDBRANCH  14  15
ENDBRANCH  13  14
ENDBRANCH  12  13
ENDBRANCH  11  12
ENDBRANCH  10  11
ENDBRANCH   9  10
ENDBRANCH   8   9
ENDBRANCH   7   8
ENDBRANCH   6   7
ENDBRANCH   5   6
ENDBRANCH   4   5
ENDBRANCH   3   4
ENDBRANCH   2   3
ENDBRANCH   1   2
BRANCH   1  18
ATOM     18  C   UNL     1       0.740  -6.597   3.585  1.00  0.00     0.000 C 
BRANCH  18  19
ATOM     19  C   UNL     1      -0.047  -7.117   2.372  1.00  0.00     0.000 C 
BRANCH  19  20
ATOM     20  C   UNL     1       0.700  -6.944   1.036  1.00  0.00     0.000 C 
BRANCH  20  21
ATOM     21  C   UNL     1       0.971  -5.488   0.611  1.00  0.00     0.000 C 
BRANCH  21  22
ATOM     22  C   UNL     1       0.293  -5.105  -0.713  1.00  0.00     0.000 C 
BRANCH  22  23
ATOM     23  C   UNL     1       1.104  -4.038  -1.458  1.00  0.00     0.000 C 
BRANCH  23  24
ATOM     24  C   UNL     1       0.203  -3.201  -2.374  1.00  0.00    -0.000 C 
BRANCH  24  25
ATOM     25  C   UNL     1       1.032  -2.229  -3.222  1.00  0.00    -0.000 C 
BRANCH  25  26
ATOM     26  C   UNL     1       0.141  -1.156  -3.863  1.00  0.00    -0.000 C 
BRANCH  26  27
ATOM     27  C   UNL     1       0.238  -1.135  -5.398  1.00  0.00    -0.000 C 
BRANCH  27  28
ATOM     28  C   UNL     1       0.864   0.158  -5.962  1.00  0.00    -0.000 C 
BRANCH  28  29
ATOM     29  C   UNL     1       0.159   1.422  -5.436  1.00  0.00    -0.000 C 
BRANCH  29  30
ATOM     30  C   UNL     1       0.918   2.712  -5.781  1.00  0.00    -0.000 C 
BRANCH  30  31
ATOM     31  C   UNL     1       0.094   3.976  -5.501  1.00  0.00    -0.003 C 
ATOM     32  C   UNL     1      -1.381   3.752  -5.825  1.00  0.00     0.004 C 
ENDBRANCH  30  31
ENDBRANCH  29  30
ENDBRANCH  28  29
ENDBRANCH  27  28
ENDBRANCH  26  27
ENDBRANCH  25  26
ENDBRANCH  24  25
ENDBRANCH  23  24
ENDBRANCH  22  23
ENDBRANCH  21  22
ENDBRANCH  20  21
ENDBRANCH  19  20
ENDBRANCH  18  19
ENDBRANCH   1  18
TORSDOF 28
ENDMDL
MODEL 6
REMARK VINA RESULT:     4.683      1.444      2.583
REMARK INTER + INTRA:          10.246
REMARK INTER:                  11.733
REMARK INTRA:                  -1.487
REMARK UNBOUND:                -2.103
REMARK SMILES CCCCCCCCCCCCCCCCCCCCCCCCCCCCCC(=O)[O-]
REMARK SMILES IDX 16 1 17 2 18 3 19 4 20 5 21 6 22 7 23 8 24 9 25 10 26 11
REMARK SMILES IDX 27 12 28 13 29 14 30 15 31 16 32 17 15 18 14 19 13 20 12 21
REMARK SMILES IDX 11 22 10 23 9 24 8 25 7 26 6 27 5 28 4 29 3 30 2 31 1 32
REMARK H PARENT
REMARK Flexibility Score: inf
ROOT
ATOM      1  C   UNL     1       0.712  -5.753   2.373  1.00  0.00     0.000 C 
ENDROOT
BRANCH   1   2
ATOM      2  C   UNL     1       1.060  -6.300   0.972  1.00  0.00     0.000 C 
BRANCH   2   3
ATOM      3  C   UNL     1       0.070  -5.831  -0.110  1.00  0.00     0.000 C 
BRANCH   3   4
ATOM      4  C   UNL     1       0.759  -4.965  -1.187  1.00  0.00     0.000 C 
BRANCH   4   5
ATOM      5  C   UNL     1      -0.085  -3.761  -1.638  1.00  0.00     0.000 C 
BRANCH   5   6
ATOM      6  C   UNL     1       0.771  -2.587  -2.133  1.00  0.00     0.000 C 
BRANCH   6   7
ATOM      7  C   UNL     1       0.090  -1.868  -3.307  1.00  0.00     0.000 C 
BRANCH   7   8
ATOM      8  C   UNL     1       1.012  -1.715  -4.532  1.00  0.00     0.000 C 
BRANCH   8   9
ATOM      9  C   UNL     1       0.337  -1.118  -5.778  1.00  0.00     0.000 C 
BRANCH   9  10
ATOM     10  C   UNL     1       1.227  -0.098  -6.508  1.00  0.00     0.000 C 
BRANCH  10  11
ATOM     11  C   UNL     1       0.476   1.197  -6.869  1.00  0.00     0.000 C 
BRANCH  11  12
ATOM     12  C   UNL     1       1.124   2.494  -6.343  1.00  0.00     0.000 C 
BRANCH  12  13
ATOM     13  C   UNL     1       0.468   3.087  -5.083  1.00  0.00     0.006 C 
BRANCH  13  14
ATOM     14  C   UNL     1      -1.060   2.953  -5.090  1.00  0.00     0.053 C 
BRANCH  14  15
ATOM     15  C   UNL     1      -1.698   4.184  -5.657  1.00  0.00     0.041 C 
ATOM     16  O   UNL     1      -1.002   5.207  -5.896  1.00  0.00    -0.550 OA
ATOM     17  O   UNL     1      -3.057   4.194  -5.947  1.00  0.00    -0.550 OA
ENDBRANCH  14  15
ENDBRANCH  13  14
ENDBRANCH  12  13
ENDBRANCH  11  12
ENDBRANCH  10  11
ENDBRANCH   9  10
ENDBRANCH   8   9
ENDBRANCH   7   8
ENDBRANCH   6   7
ENDBRANCH   5   6
ENDBRANCH   4   5
ENDBRANCH   3   4
ENDBRANCH   2   3
ENDBRANCH   1   2
BRANCH   1  18
ATOM     18  C   UNL     1       1.078  -6.702   3.525  1.00  0.00     0.000 C 
BRANCH  18  19
ATOM     19  C   UNL     1      -0.079  -7.632   3.923  1.00  0.00     0.000 C 
BRANCH  19  20
ATOM     20  C   UNL     1       0.292  -8.627   5.039  1.00  0.00     0.000 C 
BRANCH  20  21
ATOM     21  C   UNL     1       0.154 -10.117   4.672  1.00  0.00     0.000 C 
BRANCH  21  22
ATOM     22  C   UNL     1      -1.179 -10.734   5.121  1.00  0.00     0.000 C 
BRANCH  22  23
ATOM     23  C   UNL     1      -2.324 -10.297   4.201  1.00  0.00     0.000 C 
BRANCH  23  24
ATOM     24  C   UNL     1      -3.192  -9.225   4.872  1.00  0.00    -0.000 C 
BRANCH  24  25
ATOM     25  C   UNL     1      -3.437  -8.044   3.924  1.00  0.00    -0.000 C 
BRANCH  25  26
ATOM     26  C   UNL     1      -4.242  -8.483   2.692  1.00  0.00    -0.000 C 
BRANCH  26  27
ATOM     27  C   UNL     1      -5.761  -8.479   2.936  1.00  0.00    -0.000 C 
BRANCH  27  28
ATOM     28  C   UNL     1      -6.326  -9.855   3.345  1.00  0.00    -0.000 C 
BRANCH  28  29
ATOM     29  C   UNL     1      -7.125 -10.517   2.207  1.00  0.00    -0.000 C 
BRANCH  29  30
ATOM     30  C   UNL     1      -7.059  -9.722   0.895  1.00  0.00    -0.000 C 
BRANCH  30  31
ATOM     31  C   UNL     1      -6.194 -10.410  -0.171  1.00  0.00    -0.003 C 
ATOM     32  C   UNL     1      -6.926 -10.484  -1.507  1.00  0.00     0.004 C 
ENDBRANCH  30  31
ENDBRANCH  29  30
ENDBRANCH  28  29
ENDBRANCH  27  28
ENDBRANCH  26  27
ENDBRANCH  25  26
ENDBRANCH  24  25
ENDBRANCH  23  24
ENDBRANCH  22  23
ENDBRANCH  21  22
ENDBRANCH  20  21
ENDBRANCH  19  20
ENDBRANCH  18  19
ENDBRANCH   1  18
TORSDOF 28
ENDMDL
MODEL 7
REMARK VINA RESULT:     4.871      1.385      2.090
REMARK INTER + INTRA:          10.740
REMARK INTER:                  12.700
REMARK INTRA:                  -1.959
REMARK UNBOUND:                -2.103
REMARK SMILES CCCCCCCCCCCCCCCCCCCCCCCCCCCCCC(=O)[O-]
REMARK SMILES IDX 16 1 17 2 18 3 19 4 20 5 21 6 22 7 23 8 24 9 25 10 26 11
REMARK SMILES IDX 27 12 28 13 29 14 30 15 31 16 32 17 15 18 14 19 13 20 12 21
REMARK SMILES IDX 11 22 10 23 9 24 8 25 7 26 6 27 5 28 4 29 3 30 2 31 1 32
REMARK H PARENT
REMARK Flexibility Score: inf
ROOT
ATOM      1  C   UNL     1       0.596  -6.934   4.057  1.00  0.00     0.000 C 
ENDROOT
BRANCH   1   2
ATOM      2  C   UNL     1       1.221  -6.273   2.811  1.00  0.00     0.000 C 
BRANCH   2   3
ATOM      3  C   UNL     1       0.449  -6.595   1.518  1.00  0.00     0.000 C 
BRANCH   3   4
ATOM      4  C   UNL     1       1.083  -5.920   0.282  1.00  0.00     0.000 C 
BRANCH   4   5
ATOM      5  C   UNL     1       0.049  -5.416  -0.739  1.00  0.00     0.000 C 
BRANCH   5   6
ATOM      6  C   UNL     1       0.543  -4.201  -1.537  1.00  0.00     0.000 C 
BRANCH   6   7
ATOM      7  C   UNL     1      -0.605  -3.218  -1.808  1.00  0.00     0.000 C 
BRANCH   7   8
ATOM      8  C   UNL     1      -0.381  -2.371  -3.075  1.00  0.00     0.000 C 
BRANCH   8   9
ATOM      9  C   UNL     1       0.541  -1.155  -2.884  1.00  0.00     0.000 C 
BRANCH   9  10
ATOM     10  C   UNL     1      -0.168   0.029  -2.204  1.00  0.00     0.000 C 
BRANCH  10  11
ATOM     11  C   UNL     1       0.447   1.388  -2.584  1.00  0.00     0.000 C 
BRANCH  11  12
ATOM     12  C   UNL     1      -0.072   1.991  -3.906  1.00  0.00     0.000 C 
BRANCH  12  13
ATOM     13  C   UNL     1       0.825   3.080  -4.523  1.00  0.00     0.006 C 
BRANCH  13  14
ATOM     14  C   UNL     1       1.503   2.625  -5.821  1.00  0.00     0.053 C 
BRANCH  14  15
ATOM     15  C   UNL     1       0.617   1.685  -6.581  1.00  0.00     0.041 C 
ATOM     16  O   UNL     1       0.831   0.443  -6.548  1.00  0.00    -0.550 OA
ATOM     17  O   UNL     1      -0.463   2.176  -7.305  1.00  0.00    -0.550 OA
ENDBRANCH  14  15
ENDBRANCH  13  14
ENDBRANCH  12  13
ENDBRANCH  11  12
ENDBRANCH  10  11
ENDBRANCH   9  10
ENDBRANCH   8   9
ENDBRANCH   7   8
ENDBRANCH   6   7
ENDBRANCH   5   6
ENDBRANCH   4   5
ENDBRANCH   3   4
ENDBRANCH   2   3
ENDBRANCH   1   2
BRANCH   1  18
ATOM     18  C   UNL     1      -0.628  -6.189   4.614  1.00  0.00     0.000 C 
BRANCH  18  19
ATOM     19  C   UNL     1      -1.826  -7.116   4.871  1.00  0.00     0.000 C 
BRANCH  19  20
ATOM     20  C   UNL     1      -1.497  -8.609   4.677  1.00  0.00     0.000 C 
BRANCH  20  21
ATOM     21  C   UNL     1      -1.544  -9.116   3.223  1.00  0.00     0.000 C 
BRANCH  21  22
ATOM     22  C   UNL     1      -1.652 -10.644   3.114  1.00  0.00     0.000 C 
BRANCH  22  23
ATOM     23  C   UNL     1      -3.118 -11.091   3.087  1.00  0.00     0.000 C 
BRANCH  23  24
ATOM     24  C   UNL     1      -3.942 -10.222   2.128  1.00  0.00    -0.000 C 
BRANCH  24  25
ATOM     25  C   UNL     1      -5.237 -10.933   1.717  1.00  0.00    -0.000 C 
BRANCH  25  26
ATOM     26  C   UNL     1      -6.468 -10.087   2.074  1.00  0.00    -0.000 C 
BRANCH  26  27
ATOM     27  C   UNL     1      -7.016 -10.392   3.479  1.00  0.00    -0.000 C 
BRANCH  27  28
ATOM     28  C   UNL     1      -7.122  -9.148   4.386  1.00  0.00    -0.000 C 
BRANCH  28  29
ATOM     29  C   UNL     1      -6.690  -7.861   3.659  1.00  0.00    -0.000 C 
BRANCH  29  30
ATOM     30  C   UNL     1      -5.388  -7.271   4.220  1.00  0.00    -0.000 C 
BRANCH  30  31
ATOM     31  C   UNL     1      -5.055  -5.897   3.620  1.00  0.00    -0.003 C 
ATOM     32  C   UNL     1      -6.121  -4.867   3.981  1.00  0.00     0.004 C 
ENDBRANCH  30  31
ENDBRANCH  29  30
ENDBRANCH  28  29
ENDBRANCH  27  28
ENDBRANCH  26  27
ENDBRANCH  25  26
ENDBRANCH  24  25
ENDBRANCH  23  24
ENDBRANCH  22  23
ENDBRANCH  21  22
ENDBRANCH  20  21
ENDBRANCH  19  20
ENDBRANCH  18  19
ENDBRANCH   1  18
TORSDOF 28
ENDMDL
MODEL 8
REMARK VINA RESULT:     4.962      4.069     12.041
REMARK INTER + INTRA:          10.982
REMARK INTER:                  12.752
REMARK INTRA:                  -1.770
REMARK UNBOUND:                -2.103
REMARK SMILES CCCCCCCCCCCCCCCCCCCCCCCCCCCCCC(=O)[O-]
REMARK SMILES IDX 16 1 17 2 18 3 19 4 20 5 21 6 22 7 23 8 24 9 25 10 26 11
REMARK SMILES IDX 27 12 28 13 29 14 30 15 31 16 32 17 15 18 14 19 13 20 12 21
REMARK SMILES IDX 11 22 10 23 9 24 8 25 7 26 6 27 5 28 4 29 3 30 2 31 1 32
REMARK H PARENT
REMARK Flexibility Score: inf
ROOT
ATOM      1  C   UNL     1       1.126  -6.061   2.286  1.00  0.00     0.000 C 
ENDROOT
BRANCH   1   2
ATOM      2  C   UNL     1       0.980  -6.585   3.730  1.00  0.00     0.000 C 
BRANCH   2   3
ATOM      3  C   UNL     1       0.098  -5.675   4.605  1.00  0.00     0.000 C 
BRANCH   3   4
ATOM      4  C   UNL     1      -1.180  -6.397   5.085  1.00  0.00     0.000 C 
BRANCH   4   5
ATOM      5  C   UNL     1      -1.530  -7.642   4.253  1.00  0.00     0.000 C 
BRANCH   5   6
ATOM      6  C   UNL     1      -0.890  -8.925   4.802  1.00  0.00     0.000 C 
BRANCH   6   7
ATOM      7  C   UNL     1      -0.460  -9.857   3.660  1.00  0.00     0.000 C 
BRANCH   7   8
ATOM      8  C   UNL     1      -1.634 -10.659   3.067  1.00  0.00     0.000 C 
BRANCH   8   9
ATOM      9  C   UNL     1      -2.795 -10.920   4.042  1.00  0.00     0.000 C 
BRANCH   9  10
ATOM     10  C   UNL     1      -4.174 -10.685   3.403  1.00  0.00     0.000 C 
BRANCH  10  11
ATOM     11  C   UNL     1      -4.808  -9.348   3.832  1.00  0.00     0.000 C 
BRANCH  11  12
ATOM     12  C   UNL     1      -5.057  -8.349   2.684  1.00  0.00     0.000 C 
BRANCH  12  13
ATOM     13  C   UNL     1      -4.777  -8.895   1.272  1.00  0.00     0.006 C 
BRANCH  13  14
ATOM     14  C   UNL     1      -5.751 -10.007   0.861  1.00  0.00     0.053 C 
BRANCH  14  15
ATOM     15  C   UNL     1      -6.353  -9.716  -0.480  1.00  0.00     0.041 C 
ATOM     16  O   UNL     1      -6.673 -10.659  -1.251  1.00  0.00    -0.550 OA
ATOM     17  O   UNL     1      -6.584  -8.402  -0.870  1.00  0.00    -0.550 OA
ENDBRANCH  14  15
ENDBRANCH  13  14
ENDBRANCH  12  13
ENDBRANCH  11  12
ENDBRANCH  10  11
ENDBRANCH   9  10
ENDBRANCH   8   9
ENDBRANCH   7   8
ENDBRANCH   6   7
ENDBRANCH   5   6
ENDBRANCH   4   5
ENDBRANCH   3   4
ENDBRANCH   2   3
ENDBRANCH   1   2
BRANCH   1  18
ATOM     18  C   UNL     1       0.573  -7.014   1.214  1.00  0.00     0.000 C 
BRANCH  18  19
ATOM     19  C   UNL     1       0.680  -6.441  -0.207  1.00  0.00     0.000 C 
BRANCH  19  20
ATOM     20  C   UNL     1       0.414  -4.925  -0.278  1.00  0.00     0.000 C 
BRANCH  20  21
ATOM     21  C   UNL     1       0.033  -4.382  -1.668  1.00  0.00     0.000 C 
BRANCH  21  22
ATOM     22  C   UNL     1       0.349  -2.890  -1.846  1.00  0.00     0.000 C 
BRANCH  22  23
ATOM     23  C   UNL     1       0.775  -2.586  -3.288  1.00  0.00     0.000 C 
BRANCH  23  24
ATOM     24  C   UNL     1       0.454  -1.134  -3.663  1.00  0.00    -0.000 C 
BRANCH  24  25
ATOM     25  C   UNL     1      -0.096  -0.363  -2.457  1.00  0.00    -0.000 C 
BRANCH  25  26
ATOM     26  C   UNL     1       0.448   1.072  -2.424  1.00  0.00    -0.000 C 
BRANCH  26  27
ATOM     27  C   UNL     1      -0.009   1.913  -3.629  1.00  0.00    -0.000 C 
BRANCH  27  28
ATOM     28  C   UNL     1       1.142   2.666  -4.330  1.00  0.00    -0.000 C 
BRANCH  28  29
ATOM     29  C   UNL     1       0.768   3.094  -5.762  1.00  0.00    -0.000 C 
BRANCH  29  30
ATOM     30  C   UNL     1      -0.197   4.288  -5.792  1.00  0.00    -0.000 C 
BRANCH  30  31
ATOM     31  C   UNL     1      -1.496   3.979  -6.549  1.00  0.00    -0.003 C 
ATOM     32  C   UNL     1      -2.678   3.869  -5.591  1.00  0.00     0.004 C 
ENDBRANCH  30  31
ENDBRANCH  29  30
ENDBRANCH  28  29
ENDBRANCH  27  28
ENDBRANCH  26  27
ENDBRANCH  25  26
ENDBRANCH  24  25
ENDBRANCH  23  24
ENDBRANCH  22  23
ENDBRANCH  21  22
ENDBRANCH  20  21
ENDBRANCH  19  20
ENDBRANCH  18  19
ENDBRANCH   1  18
TORSDOF 28
ENDMDL
MODEL 9
REMARK VINA RESULT:     4.972      3.654     12.240
REMARK INTER + INTRA:          11.007
REMARK INTER:                  13.037
REMARK INTRA:                  -2.031
REMARK UNBOUND:                -2.103
REMARK SMILES CCCCCCCCCCCCCCCCCCCCCCCCCCCCCC(=O)[O-]
REMARK SMILES IDX 16 1 17 2 18 3 19 4 20 5 21 6 22 7 23 8 24 9 25 10 26 11
REMARK SMILES IDX 27 12 28 13 29 14 30 15 31 16 32 17 15 18 14 19 13 20 12 21
REMARK SMILES IDX 11 22 10 23 9 24 8 25 7 26 6 27 5 28 4 29 3 30 2 31 1 32
REMARK H PARENT
REMARK Flexibility Score: inf
ROOT
ATOM      1  C   UNL     1       0.382  -6.271   0.265  1.00  0.00     0.000 C 
ENDROOT
BRANCH   1   2
ATOM      2  C   UNL     1       1.128  -5.363   1.266  1.00  0.00     0.000 C 
BRANCH   2   3
ATOM      3  C   UNL     1       1.472  -6.088   2.581  1.00  0.00     0.000 C 
BRANCH   3   4
ATOM      4  C   UNL     1       0.368  -5.909   3.645  1.00  0.00     0.000 C 
BRANCH   4   5
ATOM      5  C   UNL     1       0.394  -6.985   4.743  1.00  0.00     0.000 C 
BRANCH   5   6
ATOM      6  C   UNL     1      -1.007  -7.493   5.112  1.00  0.00     0.000 C 
BRANCH   6   7
ATOM      7  C   UNL     1      -1.160  -8.982   4.768  1.00  0.00     0.000 C 
BRANCH   7   8
ATOM      8  C   UNL     1      -1.499  -9.222   3.284  1.00  0.00     0.000 C 
BRANCH   8   9
ATOM      9  C   UNL     1      -1.843 -10.678   2.928  1.00  0.00     0.000 C 
BRANCH   9  10
ATOM     10  C   UNL     1      -3.347 -10.980   3.043  1.00  0.00     0.000 C 
BRANCH  10  11
ATOM     11  C   UNL     1      -4.099  -9.939   3.893  1.00  0.00     0.000 C 
BRANCH  11  12
ATOM     12  C   UNL     1      -5.590  -9.763   3.538  1.00  0.00     0.000 C 
BRANCH  12  13
ATOM     13  C   UNL     1      -5.936  -8.451   2.809  1.00  0.00     0.006 C 
BRANCH  13  14
ATOM     14  C   UNL     1      -4.801  -7.421   2.869  1.00  0.00     0.053 C 
BRANCH  14  15
ATOM     15  C   UNL     1      -5.284  -6.133   3.464  1.00  0.00     0.041 C 
ATOM     16  O   UNL     1      -4.467  -5.215   3.740  1.00  0.00    -0.550 OA
ATOM     17  O   UNL     1      -6.642  -5.936   3.689  1.00  0.00    -0.550 OA
ENDBRANCH  14  15
ENDBRANCH  13  14
ENDBRANCH  12  13
ENDBRANCH  11  12
ENDBRANCH  10  11
ENDBRANCH   9  10
ENDBRANCH   8   9
ENDBRANCH   7   8
ENDBRANCH   6   7
ENDBRANCH   5   6
ENDBRANCH   4   5
ENDBRANCH   3   4
ENDBRANCH   2   3
ENDBRANCH   1   2
BRANCH   1  18
ATOM     18  C   UNL     1       0.213  -5.655  -1.133  1.00  0.00     0.000 C 
BRANCH  18  19
ATOM     19  C   UNL     1       0.226  -4.119  -1.114  1.00  0.00     0.000 C 
BRANCH  19  20
ATOM     20  C   UNL     1       1.549  -3.511  -1.620  1.00  0.00     0.000 C 
BRANCH  20  21
ATOM     21  C   UNL     1       1.442  -2.667  -2.905  1.00  0.00     0.000 C 
BRANCH  21  22
ATOM     22  C   UNL     1       0.117  -1.901  -3.022  1.00  0.00     0.000 C 
BRANCH  22  23
ATOM     23  C   UNL     1       0.231  -0.756  -4.034  1.00  0.00     0.000 C 
BRANCH  23  24
ATOM     24  C   UNL     1       1.047  -1.184  -5.261  1.00  0.00    -0.000 C 
BRANCH  24  25
ATOM     25  C   UNL     1       0.319  -0.821  -6.560  1.00  0.00    -0.000 C 
BRANCH  25  26
ATOM     26  C   UNL     1      -0.096   0.658  -6.567  1.00  0.00    -0.000 C 
BRANCH  26  27
ATOM     27  C   UNL     1       1.095   1.614  -6.749  1.00  0.00    -0.000 C 
BRANCH  27  28
ATOM     28  C   UNL     1       1.268   2.616  -5.588  1.00  0.00    -0.000 C 
BRANCH  28  29
ATOM     29  C   UNL     1      -0.029   2.795  -4.777  1.00  0.00    -0.000 C 
BRANCH  29  30
ATOM     30  C   UNL     1      -0.809   4.055  -5.178  1.00  0.00    -0.000 C 
BRANCH  30  31
ATOM     31  C   UNL     1      -1.821   3.791  -6.302  1.00  0.00    -0.003 C 
ATOM     32  C   UNL     1      -3.229   4.203  -5.882  1.00  0.00     0.004 C 
ENDBRANCH  30  31
ENDBRANCH  29  30
ENDBRANCH  28  29
ENDBRANCH  27  28
ENDBRANCH  26  27
ENDBRANCH  25  26
ENDBRANCH  24  25
ENDBRANCH  23  24
ENDBRANCH  22  23
ENDBRANCH  21  22
ENDBRANCH  20  21
ENDBRANCH  19  20
ENDBRANCH  18  19
ENDBRANCH   1  18
TORSDOF 28
ENDMDL
