MODEL 1
REMARK VINA RESULT:    -3.999      0.000      0.000
REMARK INTER + INTRA:          -4.692
REMARK INTER:                  -5.636
REMARK INTRA:                   0.944
REMARK UNBOUND:                 0.944
REMARK SMILES CC1=CCC(=C(C)C)C(=O)CC(C)=CCC1
REMARK SMILES IDX 12 1 14 2 13 3 15 4 16 5 2 6 1 7 3 8 11 10 9 11 10 12 5 13
REMARK SMILES IDX 6 14 7 15 8 16 4 17
REMARK H PARENT
REMARK Flexibility Score: 60.00
ROOT
ATOM      1  C   UNL     1      29.767  30.904  28.411  1.00  0.00    -0.070 C 
ATOM      2  C   UNL     1      30.475  31.758  27.638  1.00  0.00    -0.027 C 
ATOM      3  C   UNL     1      28.442  30.407  27.890  1.00  0.00     0.039 C 
ENDROOT
BRANCH   2   4
ATOM      4  C   UNL     1      31.788  32.399  28.026  1.00  0.00     0.032 C 
BRANCH   4   5
ATOM      5  C   UNL     1      31.572  33.727  28.768  1.00  0.00     0.034 C 
BRANCH   5   6
ATOM      6  C   UNL     1      31.672  33.600  30.282  1.00  0.00    -0.077 C 
ATOM      7  C   UNL     1      33.036  33.650  30.927  1.00  0.00     0.039 C 
ATOM      8  C   UNL     1      30.600  33.426  31.087  1.00  0.00    -0.023 CG0
ATOM      9  G   UNL     1      29.158  33.421  30.636  1.00  0.00     0.000 G0
ENDBRANCH   5   6
ENDBRANCH   4   5
ENDBRANCH   2   4
BRANCH   1  10
ATOM     10  C   UNL     1      30.247  30.426  29.768  1.00  0.00     0.111 C 
BRANCH  10  11
ATOM     11  C   UNL     1      29.291  30.832  30.854  1.00  0.00     0.163 C 
ATOM     12  O   UNL     1      29.174  30.106  31.878  1.00  0.00    -0.294 OA
BRANCH  11  13
ATOM     13  C   UNL     1      28.463  32.059  30.733  1.00  0.00    -0.002 C 
ATOM     14  C   UNL     1      27.105  31.972  30.719  1.00  0.00    -0.069 C 
ATOM     15  C   UNL     1      26.407  30.630  30.731  1.00  0.00     0.039 C 
ATOM     16  C   UNL     1      26.244  33.212  30.651  1.00  0.00     0.039 C 
BRANCH  13  17
ATOM     17  C   UNL     1      29.154  33.414  30.624  1.00  0.00     0.066 CG0
ATOM     18  G   UNL     1      30.593  33.402  31.084  1.00  0.00     0.000 G0
ENDBRANCH  13  17
ENDBRANCH  11  13
ENDBRANCH  10  11
ENDBRANCH   1  10
TORSDOF 0
ENDMDL
MODEL 2
REMARK VINA RESULT:    -3.852      7.906     10.980
REMARK INTER + INTRA:          -4.484
REMARK INTER:                  -5.115
REMARK INTRA:                   0.630
REMARK UNBOUND:                 0.944
REMARK SMILES CC1=CCC(=C(C)C)C(=O)CC(C)=CCC1
REMARK SMILES IDX 12 1 14 2 13 3 15 4 16 5 2 6 1 7 3 8 11 10 9 11 10 12 5 13
REMARK SMILES IDX 6 14 7 15 8 16 4 17
REMARK H PARENT
REMARK Flexibility Score: 60.00
ROOT
ATOM      1  C   UNL     1      17.254  31.152  29.518  1.00  0.00    -0.070 C 
ATOM      2  C   UNL     1      17.254  32.505  29.530  1.00  0.00    -0.027 C 
ATOM      3  C   UNL     1      15.945  30.441  29.750  1.00  0.00     0.039 C 
ENDROOT
BRANCH   2   4
ATOM      4  C   UNL     1      18.479  33.377  29.376  1.00  0.00     0.032 C 
BRANCH   4   5
ATOM      5  C   UNL     1      18.832  34.096  30.687  1.00  0.00     0.034 C 
BRANCH   5   6
ATOM      6  C   UNL     1      18.591  33.250  31.928  1.00  0.00    -0.077 C 
ATOM      7  C   UNL     1      17.353  33.504  32.753  1.00  0.00     0.039 C 
ATOM      8  C   UNL     1      19.441  32.286  32.349  1.00  0.00    -0.023 CG0
ATOM      9  G   UNL     1      20.690  31.842  31.623  1.00  0.00     0.000 G0
ENDBRANCH   5   6
ENDBRANCH   4   5
ENDBRANCH   2   4
BRANCH   1  10
ATOM     10  C   UNL     1      18.504  30.328  29.278  1.00  0.00     0.111 C 
BRANCH  10  11
ATOM     11  C   UNL     1      19.199  30.010  30.571  1.00  0.00     0.163 C 
ATOM     12  O   UNL     1      18.610  29.301  31.432  1.00  0.00    -0.294 OA
BRANCH  11  13
ATOM     13  C   UNL     1      20.557  30.535  30.866  1.00  0.00    -0.002 C 
ATOM     14  C   UNL     1      21.660  29.853  30.454  1.00  0.00    -0.069 C 
ATOM     15  C   UNL     1      21.540  28.507  29.773  1.00  0.00     0.039 C 
ATOM     16  C   UNL     1      23.050  30.396  30.698  1.00  0.00     0.039 C 
BRANCH  13  17
ATOM     17  C   UNL     1      20.697  31.842  31.637  1.00  0.00     0.066 CG0
ATOM     18  G   UNL     1      19.435  32.266  32.352  1.00  0.00     0.000 G0
ENDBRANCH  13  17
ENDBRANCH  11  13
ENDBRANCH  10  11
ENDBRANCH   1  10
TORSDOF 0
ENDMDL
MODEL 3
REMARK VINA RESULT:    -3.779      8.798     11.062
REMARK INTER + INTRA:          -4.381
REMARK INTER:                  -4.992
REMARK INTRA:                   0.610
REMARK UNBOUND:                 0.944
REMARK SMILES CC1=CCC(=C(C)C)C(=O)CC(C)=CCC1
REMARK SMILES IDX 12 1 14 2 13 3 15 4 16 5 2 6 1 7 3 8 11 10 9 11 10 12 5 13
REMARK SMILES IDX 6 14 7 15 8 16 4 17
REMARK H PARENT
REMARK Flexibility Score: 60.00
ROOT
ATOM      1  C   UNL     1      18.682  29.656  30.313  1.00  0.00    -0.070 C 
ATOM      2  C   UNL     1      19.973  29.730  30.711  1.00  0.00    -0.027 C 
ATOM      3  C   UNL     1      17.763  28.720  31.058  1.00  0.00     0.039 C 
ENDROOT
BRANCH   2   4
ATOM      4  C   UNL     1      21.042  30.566  30.044  1.00  0.00     0.032 C 
BRANCH   4   5
ATOM      5  C   UNL     1      21.535  31.694  30.964  1.00  0.00     0.034 C 
BRANCH   5   6
ATOM      6  C   UNL     1      20.985  33.063  30.595  1.00  0.00    -0.077 C 
ATOM      7  C   UNL     1      21.815  33.969  29.720  1.00  0.00     0.039 C 
ATOM      8  C   UNL     1      19.790  33.527  31.027  1.00  0.00    -0.023 CG0
ATOM      9  G   UNL     1      18.791  32.744  31.848  1.00  0.00     0.000 G0
ENDBRANCH   5   6
ENDBRANCH   4   5
ENDBRANCH   2   4
BRANCH   1  10
ATOM     10  C   UNL     1      18.123  30.470  29.162  1.00  0.00     0.111 C 
BRANCH  10  11
ATOM     11  C   UNL     1      17.843  31.884  29.585  1.00  0.00     0.163 C 
ATOM     12  O   UNL     1      17.825  32.798  28.716  1.00  0.00    -0.294 OA
BRANCH  11  13
ATOM     13  C   UNL     1      17.610  32.231  31.011  1.00  0.00    -0.002 C 
ATOM     14  C   UNL     1      16.375  32.080  31.561  1.00  0.00    -0.069 C 
ATOM     15  C   UNL     1      15.192  31.648  30.722  1.00  0.00     0.039 C 
ATOM     16  C   UNL     1      16.129  32.377  33.022  1.00  0.00     0.039 C 
BRANCH  13  17
ATOM     17  C   UNL     1      18.771  32.760  31.845  1.00  0.00     0.066 CG0
ATOM     18  G   UNL     1      19.797  33.528  31.045  1.00  0.00     0.000 G0
ENDBRANCH  13  17
ENDBRANCH  11  13
ENDBRANCH  10  11
ENDBRANCH   1  10
TORSDOF 0
ENDMDL
MODEL 4
REMARK VINA RESULT:    -3.629      5.558      7.401
REMARK INTER + INTRA:          -4.169
REMARK INTER:                  -4.647
REMARK INTRA:                   0.478
REMARK UNBOUND:                 0.944
REMARK SMILES CC1=CCC(=C(C)C)C(=O)CC(C)=CCC1
REMARK SMILES IDX 12 1 14 2 13 3 15 4 16 5 2 6 1 7 3 8 11 10 9 11 10 12 5 13
REMARK SMILES IDX 6 14 7 15 8 16 4 17
REMARK H PARENT
REMARK Flexibility Score: 60.00
ROOT
ATOM      1  C   UNL     1      24.581  29.313  29.811  1.00  0.00    -0.070 C 
ATOM      2  C   UNL     1      25.538  30.252  29.995  1.00  0.00    -0.027 C 
ATOM      3  C   UNL     1      24.810  28.266  28.750  1.00  0.00     0.039 C 
ENDROOT
BRANCH   2   4
ATOM      4  C   UNL     1      25.449  31.406  30.967  1.00  0.00     0.032 C 
BRANCH   4   5
ATOM      5  C   UNL     1      24.573  32.543  30.419  1.00  0.00     0.034 C 
BRANCH   5   6
ATOM      6  C   UNL     1      23.500  33.007  31.393  1.00  0.00    -0.077 C 
ATOM      7  C   UNL     1      23.921  33.726  32.651  1.00  0.00     0.039 C 
ATOM      8  C   UNL     1      22.178  32.792  31.203  1.00  0.00    -0.023 CG0
ATOM      9  G   UNL     1      21.562  32.156  29.978  1.00  0.00     0.000 G0
ENDBRANCH   5   6
ENDBRANCH   4   5
ENDBRANCH   2   4
BRANCH   1  10
ATOM     10  C   UNL     1      23.301  29.268  30.623  1.00  0.00     0.111 C 
BRANCH  10  11
ATOM     11  C   UNL     1      22.111  29.616  29.776  1.00  0.00     0.163 C 
ATOM     12  O   UNL     1      21.922  29.002  28.691  1.00  0.00    -0.294 OA
BRANCH  11  13
ATOM     13  C   UNL     1      21.164  30.688  30.179  1.00  0.00    -0.002 C 
ATOM     14  C   UNL     1      19.952  30.369  30.708  1.00  0.00    -0.069 C 
ATOM     15  C   UNL     1      19.498  28.929  30.814  1.00  0.00     0.039 C 
ATOM     16  C   UNL     1      18.995  31.443  31.173  1.00  0.00     0.039 C 
BRANCH  13  17
ATOM     17  C   UNL     1      21.567  32.146  29.988  1.00  0.00     0.066 CG0
ATOM     18  G   UNL     1      22.165  32.779  31.223  1.00  0.00     0.000 G0
ENDBRANCH  13  17
ENDBRANCH  11  13
ENDBRANCH  10  11
ENDBRANCH   1  10
TORSDOF 0
ENDMDL
MODEL 5
REMARK VINA RESULT:    -3.505      6.167      9.077
REMARK INTER + INTRA:          -3.995
REMARK INTER:                  -4.510
REMARK INTRA:                   0.516
REMARK UNBOUND:                 0.944
REMARK SMILES CC1=CCC(=C(C)C)C(=O)CC(C)=CCC1
REMARK SMILES IDX 12 1 14 2 13 3 15 4 16 5 2 6 1 7 3 8 11 10 9 11 10 12 5 13
REMARK SMILES IDX 6 14 7 15 8 16 4 17
REMARK H PARENT
REMARK Flexibility Score: 60.00
ROOT
ATOM      1  C   UNL     1      19.167  31.241  29.703  1.00  0.00    -0.070 C 
ATOM      2  C   UNL     1      19.276  32.588  29.779  1.00  0.00    -0.027 C 
ATOM      3  C   UNL     1      17.834  30.618  30.029  1.00  0.00     0.039 C 
ENDROOT
BRANCH   2   4
ATOM      4  C   UNL     1      20.547  33.373  29.546  1.00  0.00     0.032 C 
BRANCH   4   5
ATOM      5  C   UNL     1      21.043  34.044  30.836  1.00  0.00     0.034 C 
BRANCH   5   6
ATOM      6  C   UNL     1      20.926  33.156  32.067  1.00  0.00    -0.077 C 
ATOM      7  C   UNL     1      19.844  33.450  33.076  1.00  0.00     0.039 C 
ATOM      8  C   UNL     1      21.758  32.119  32.319  1.00  0.00    -0.023 CG0
ATOM      9  G   UNL     1      22.851  31.630  31.397  1.00  0.00     0.000 G0
ENDBRANCH   5   6
ENDBRANCH   4   5
ENDBRANCH   2   4
BRANCH   1  10
ATOM     10  C   UNL     1      20.320  30.341  29.302  1.00  0.00     0.111 C 
BRANCH  10  11
ATOM     11  C   UNL     1      21.116  29.914  30.502  1.00  0.00     0.163 C 
ATOM     12  O   UNL     1      20.563  29.217  31.396  1.00  0.00    -0.294 OA
BRANCH  11  13
ATOM     13  C   UNL     1      22.536  30.318  30.670  1.00  0.00    -0.002 C 
ATOM     14  C   UNL     1      23.534  29.532  30.185  1.00  0.00    -0.069 C 
ATOM     15  C   UNL     1      23.237  28.191  29.550  1.00  0.00     0.039 C 
ATOM     16  C   UNL     1      24.982  29.950  30.299  1.00  0.00     0.039 C 
BRANCH  13  17
ATOM     17  C   UNL     1      22.856  31.621  31.394  1.00  0.00     0.066 CG0
ATOM     18  G   UNL     1      21.750  32.099  32.307  1.00  0.00     0.000 G0
ENDBRANCH  13  17
ENDBRANCH  11  13
ENDBRANCH  10  11
ENDBRANCH   1  10
TORSDOF 0
ENDMDL
MODEL 6
REMARK VINA RESULT:    -3.462      8.615     11.298
REMARK INTER + INTRA:          -3.935
REMARK INTER:                  -4.735
REMARK INTRA:                   0.800
REMARK UNBOUND:                 0.944
REMARK SMILES CC1=CCC(=C(C)C)C(=O)CC(C)=CCC1
REMARK SMILES IDX 12 1 14 2 13 3 15 4 16 5 2 6 1 7 3 8 11 10 9 11 10 12 5 13
REMARK SMILES IDX 6 14 7 15 8 16 4 17
REMARK H PARENT
REMARK Flexibility Score: 60.00
ROOT
ATOM      1  C   UNL     1      18.096  31.786  29.629  1.00  0.00    -0.070 C 
ATOM      2  C   UNL     1      18.754  30.748  29.063  1.00  0.00    -0.027 C 
ATOM      3  C   UNL     1      16.628  31.946  29.325  1.00  0.00     0.039 C 
ENDROOT
BRANCH   2   4
ATOM      4  C   UNL     1      20.233  30.471  29.210  1.00  0.00     0.032 C 
BRANCH   4   5
ATOM      5  C   UNL     1      20.496  29.269  30.130  1.00  0.00     0.034 C 
BRANCH   5   6
ATOM      6  C   UNL     1      20.980  29.661  31.518  1.00  0.00    -0.077 C 
ATOM      7  C   UNL     1      22.461  29.836  31.750  1.00  0.00     0.039 C 
ATOM      8  C   UNL     1      20.151  29.845  32.572  1.00  0.00    -0.023 CG0
ATOM      9  G   UNL     1      18.642  29.785  32.519  1.00  0.00     0.000 G0
ENDBRANCH   5   6
ENDBRANCH   4   5
ENDBRANCH   2   4
BRANCH   1  10
ATOM     10  C   UNL     1      18.767  32.785  30.552  1.00  0.00     0.111 C 
BRANCH  10  11
ATOM     11  C   UNL     1      18.723  32.318  31.979  1.00  0.00     0.163 C 
ATOM     12  O   UNL     1      19.390  32.935  32.853  1.00  0.00    -0.294 OA
BRANCH  11  13
ATOM     13  C   UNL     1      17.927  31.128  32.377  1.00  0.00    -0.002 C 
ATOM     14  C   UNL     1      16.593  31.243  32.614  1.00  0.00    -0.069 C 
ATOM     15  C   UNL     1      15.903  32.589  32.571  1.00  0.00     0.039 C 
ATOM     16  C   UNL     1      15.756  30.036  32.969  1.00  0.00     0.039 C 
BRANCH  13  17
ATOM     17  C   UNL     1      18.627  29.780  32.519  1.00  0.00     0.066 CG0
ATOM     18  G   UNL     1      20.133  29.879  32.577  1.00  0.00     0.000 G0
ENDBRANCH  13  17
ENDBRANCH  11  13
ENDBRANCH  10  11
ENDBRANCH   1  10
TORSDOF 0
ENDMDL
MODEL 7
REMARK VINA RESULT:    -3.392      7.101     10.414
REMARK INTER + INTRA:          -3.836
REMARK INTER:                  -4.343
REMARK INTRA:                   0.507
REMARK UNBOUND:                 0.944
REMARK SMILES CC1=CCC(=C(C)C)C(=O)CC(C)=CCC1
REMARK SMILES IDX 12 1 14 2 13 3 15 4 16 5 2 6 1 7 3 8 11 10 9 11 10 12 5 13
REMARK SMILES IDX 6 14 7 15 8 16 4 17
REMARK H PARENT
REMARK Flexibility Score: 60.00
ROOT
ATOM      1  C   UNL     1      18.510  29.950  31.893  1.00  0.00    -0.070 C 
ATOM      2  C   UNL     1      17.797  31.094  32.007  1.00  0.00    -0.027 C 
ATOM      3  C   UNL     1      17.792  28.710  31.422  1.00  0.00     0.039 C 
ENDROOT
BRANCH   2   4
ATOM      4  C   UNL     1      18.338  32.410  32.519  1.00  0.00     0.032 C 
BRANCH   4   5
ATOM      5  C   UNL     1      18.250  33.511  31.451  1.00  0.00     0.034 C 
BRANCH   5   6
ATOM      6  C   UNL     1      18.621  33.036  30.054  1.00  0.00    -0.077 C 
ATOM      7  C   UNL     1      17.551  32.996  28.991  1.00  0.00     0.039 C 
ATOM      8  C   UNL     1      19.863  32.625  29.713  1.00  0.00    -0.023 CG0
ATOM      9  G   UNL     1      21.076  32.659  30.615  1.00  0.00     0.000 G0
ENDBRANCH   5   6
ENDBRANCH   4   5
ENDBRANCH   2   4
BRANCH   1  10
ATOM     10  C   UNL     1      19.991  29.863  32.212  1.00  0.00     0.111 C 
BRANCH  10  11
ATOM     11  C   UNL     1      20.823  30.098  30.984  1.00  0.00     0.163 C 
ATOM     12  O   UNL     1      20.789  29.259  30.043  1.00  0.00    -0.294 OA
BRANCH  11  13
ATOM     13  C   UNL     1      21.705  31.288  30.865  1.00  0.00    -0.002 C 
ATOM     14  C   UNL     1      23.054  31.156  30.983  1.00  0.00    -0.069 C 
ATOM     15  C   UNL     1      23.684  29.823  31.327  1.00  0.00     0.039 C 
ATOM     16  C   UNL     1      23.973  32.344  30.814  1.00  0.00     0.039 C 
BRANCH  13  17
ATOM     17  C   UNL     1      21.079  32.655  30.614  1.00  0.00     0.066 CG0
ATOM     18  G   UNL     1      19.876  32.615  29.701  1.00  0.00     0.000 G0
ENDBRANCH  13  17
ENDBRANCH  11  13
ENDBRANCH  10  11
ENDBRANCH   1  10
TORSDOF 0
ENDMDL
MODEL 8
REMARK VINA RESULT:    -3.223      9.183     11.529
REMARK INTER + INTRA:          -3.598
REMARK INTER:                  -4.553
REMARK INTRA:                   0.955
REMARK UNBOUND:                 0.944
REMARK SMILES CC1=CCC(=C(C)C)C(=O)CC(C)=CCC1
REMARK SMILES IDX 12 1 14 2 13 3 15 4 16 5 2 6 1 7 3 8 11 10 9 11 10 12 5 13
REMARK SMILES IDX 6 14 7 15 8 16 4 17
REMARK H PARENT
REMARK Flexibility Score: 60.00
ROOT
ATOM      1  C   UNL     1      19.040  29.746  31.967  1.00  0.00    -0.070 C 
ATOM      2  C   UNL     1      20.339  30.125  31.939  1.00  0.00    -0.027 C 
ATOM      3  C   UNL     1      18.542  28.839  30.871  1.00  0.00     0.039 C 
ENDROOT
BRANCH   2   4
ATOM      4  C   UNL     1      20.992  31.073  32.918  1.00  0.00     0.032 C 
BRANCH   4   5
ATOM      5  C   UNL     1      20.729  32.541  32.546  1.00  0.00     0.034 C 
BRANCH   5   6
ATOM      6  C   UNL     1      20.375  32.742  31.080  1.00  0.00    -0.077 C 
ATOM      7  C   UNL     1      21.477  32.681  30.050  1.00  0.00     0.039 C 
ATOM      8  C   UNL     1      19.119  32.993  30.645  1.00  0.00    -0.023 CG0
ATOM      9  G   UNL     1      17.882  33.022  31.511  1.00  0.00     0.000 G0
ENDBRANCH   5   6
ENDBRANCH   4   5
ENDBRANCH   2   4
BRANCH   1  10
ATOM     10  C   UNL     1      18.075  30.190  33.049  1.00  0.00     0.111 C 
BRANCH  10  11
ATOM     11  C   UNL     1      16.859  30.841  32.455  1.00  0.00     0.163 C 
ATOM     12  O   UNL     1      15.717  30.545  32.901  1.00  0.00    -0.294 OA
BRANCH  11  13
ATOM     13  C   UNL     1      16.972  31.811  31.335  1.00  0.00    -0.002 C 
ATOM     14  C   UNL     1      16.285  31.607  30.179  1.00  0.00    -0.069 C 
ATOM     15  C   UNL     1      15.466  30.352  29.966  1.00  0.00     0.039 C 
ATOM     16  C   UNL     1      16.345  32.607  29.047  1.00  0.00     0.039 C 
BRANCH  13  17
ATOM     17  C   UNL     1      17.870  33.032  31.498  1.00  0.00     0.066 CG0
ATOM     18  G   UNL     1      19.119  32.989  30.648  1.00  0.00     0.000 G0
ENDBRANCH  13  17
ENDBRANCH  11  13
ENDBRANCH  10  11
ENDBRANCH   1  10
TORSDOF 0
ENDMDL
MODEL 9
REMARK VINA RESULT:    -3.173      6.448      9.620
REMARK INTER + INTRA:          -3.528
REMARK INTER:                  -4.246
REMARK INTRA:                   0.718
REMARK UNBOUND:                 0.944
REMARK SMILES CC1=CCC(=C(C)C)C(=O)CC(C)=CCC1
REMARK SMILES IDX 12 1 14 2 13 3 15 4 16 5 2 6 1 7 3 8 11 10 9 11 10 12 5 13
REMARK SMILES IDX 6 14 7 15 8 16 4 17
REMARK H PARENT
REMARK Flexibility Score: 60.00
ROOT
ATOM      1  C   UNL     1      20.401  29.640  30.230  1.00  0.00    -0.070 C 
ATOM      2  C   UNL     1      19.211  30.020  29.710  1.00  0.00    -0.027 C 
ATOM      3  C   UNL     1      21.483  29.200  29.276  1.00  0.00     0.039 C 
ENDROOT
BRANCH   2   4
ATOM      4  C   UNL     1      18.000  30.431  30.517  1.00  0.00     0.032 C 
BRANCH   4   5
ATOM      5  C   UNL     1      18.241  31.749  31.269  1.00  0.00     0.034 C 
BRANCH   5   6
ATOM      6  C   UNL     1      18.938  32.809  30.428  1.00  0.00    -0.077 C 
ATOM      7  C   UNL     1      18.215  33.382  29.234  1.00  0.00     0.039 C 
ATOM      8  C   UNL     1      20.188  33.259  30.683  1.00  0.00    -0.023 CG0
ATOM      9  G   UNL     1      21.037  32.859  31.867  1.00  0.00     0.000 G0
ENDBRANCH   5   6
ENDBRANCH   4   5
ENDBRANCH   2   4
BRANCH   1  10
ATOM     10  C   UNL     1      20.691  29.641  31.718  1.00  0.00     0.111 C 
BRANCH  10  11
ATOM     11  C   UNL     1      21.936  30.423  32.026  1.00  0.00     0.163 C 
ATOM     12  O   UNL     1      22.842  29.893  32.726  1.00  0.00    -0.294 OA
BRANCH  11  13
ATOM     13  C   UNL     1      22.112  31.817  31.543  1.00  0.00    -0.002 C 
ATOM     14  C   UNL     1      23.212  32.158  30.818  1.00  0.00    -0.069 C 
ATOM     15  C   UNL     1      24.322  31.162  30.565  1.00  0.00     0.039 C 
ATOM     16  C   UNL     1      23.384  33.557  30.272  1.00  0.00     0.039 C 
BRANCH  13  17
ATOM     17  C   UNL     1      21.047  32.857  31.872  1.00  0.00     0.066 CG0
ATOM     18  G   UNL     1      20.199  33.257  30.686  1.00  0.00     0.000 G0
ENDBRANCH  13  17
ENDBRANCH  11  13
ENDBRANCH  10  11
ENDBRANCH   1  10
TORSDOF 0
ENDMDL
