MODEL 1
REMARK VINA RESULT:    -3.305      0.000      0.000
REMARK INTER + INTRA:          -5.229
REMARK INTER:                  -4.754
REMARK INTRA:                  -0.475
REMARK UNBOUND:                -0.475
REMARK SMILES CCCCCCCCCO
REMARK SMILES IDX 6 1 5 2 4 3 3 4 2 5 1 6 7 7 8 8 9 9 10 10
REMARK H PARENT 10 11
REMARK Flexibility Score: inf
ROOT
ATOM      1  C   UNL     1     139.924 136.133 129.569  1.00  0.00     0.000 C 
ENDROOT
BRANCH   1   2
ATOM      2  C   UNL     1     139.902 134.715 128.966  1.00  0.00     0.000 C 
BRANCH   2   3
ATOM      3  C   UNL     1     138.505 134.070 128.861  1.00  0.00    -0.000 C 
BRANCH   3   4
ATOM      4  C   UNL     1     137.349 134.938 129.389  1.00  0.00    -0.000 C 
BRANCH   4   5
ATOM      5  C   UNL     1     136.443 135.470 128.269  1.00  0.00    -0.003 C 
ATOM      6  C   UNL     1     136.388 136.995 128.284  1.00  0.00     0.004 C 
ENDBRANCH   4   5
ENDBRANCH   3   4
ENDBRANCH   2   3
ENDBRANCH   1   2
BRANCH   1   7
ATOM      7  C   UNL     1     140.126 137.273 128.550  1.00  0.00     0.002 C 
BRANCH   7   8
ATOM      8  C   UNL     1     141.079 138.391 129.011  1.00  0.00     0.028 C 
BRANCH   8   9
ATOM      9  C   UNL     1     141.942 138.947 127.876  1.00  0.00     0.156 C 
BRANCH   9  10
ATOM     10  O   UNL     1     143.286 138.646 128.125  1.00  0.00    -0.396 OA
ATOM     11  H   UNL     1     143.741 138.665 127.243  1.00  0.00     0.210 HD
ENDBRANCH   9  10
ENDBRANCH   8   9
ENDBRANCH   7   8
ENDBRANCH   1   7
TORSDOF 8
ENDMDL
MODEL 2
REMARK VINA RESULT:    -3.285      3.788      5.566
REMARK INTER + INTRA:          -5.201
REMARK INTER:                  -4.673
REMARK INTRA:                  -0.528
REMARK UNBOUND:                -0.475
REMARK SMILES CCCCCCCCCO
REMARK SMILES IDX 6 1 5 2 4 3 3 4 2 5 1 6 7 7 8 8 9 9 10 10
REMARK H PARENT 10 11
REMARK Flexibility Score: inf
ROOT
ATOM      1  C   UNL     1     138.845 140.035 130.585  1.00  0.00     0.000 C 
ENDROOT
BRANCH   1   2
ATOM      2  C   UNL     1     140.128 140.521 129.882  1.00  0.00     0.000 C 
BRANCH   2   3
ATOM      3  C   UNL     1     140.552 139.694 128.652  1.00  0.00    -0.000 C 
BRANCH   3   4
ATOM      4  C   UNL     1     141.225 138.348 128.976  1.00  0.00    -0.000 C 
BRANCH   4   5
ATOM      5  C   UNL     1     140.275 137.152 128.814  1.00  0.00    -0.003 C 
ATOM      6  C   UNL     1     140.016 136.470 130.155  1.00  0.00     0.004 C 
ENDBRANCH   4   5
ENDBRANCH   3   4
ENDBRANCH   2   3
ENDBRANCH   1   2
BRANCH   1   7
ATOM      7  C   UNL     1     137.640 139.796 129.653  1.00  0.00     0.002 C 
BRANCH   7   8
ATOM      8  C   UNL     1     136.968 141.076 129.124  1.00  0.00     0.028 C 
BRANCH   8   9
ATOM      9  C   UNL     1     135.756 140.792 128.234  1.00  0.00     0.156 C 
BRANCH   9  10
ATOM     10  O   UNL     1     134.602 140.740 129.023  1.00  0.00    -0.396 OA
ATOM     11  H   UNL     1     134.834 141.181 129.881  1.00  0.00     0.210 HD
ENDBRANCH   9  10
ENDBRANCH   8   9
ENDBRANCH   7   8
ENDBRANCH   1   7
TORSDOF 8
ENDMDL
MODEL 3
REMARK VINA RESULT:    -3.248      4.976      5.696
REMARK INTER + INTRA:          -5.147
REMARK INTER:                  -4.515
REMARK INTRA:                  -0.632
REMARK UNBOUND:                -0.475
REMARK SMILES CCCCCCCCCO
REMARK SMILES IDX 6 1 5 2 4 3 3 4 2 5 1 6 7 7 8 8 9 9 10 10
REMARK H PARENT 10 11
REMARK Flexibility Score: inf
ROOT
ATOM      1  C   UNL     1     134.002 136.861 128.932  1.00  0.00     0.000 C 
ENDROOT
BRANCH   1   2
ATOM      2  C   UNL     1     134.724 135.551 128.562  1.00  0.00     0.000 C 
BRANCH   2   3
ATOM      3  C   UNL     1     135.073 134.637 129.754  1.00  0.00    -0.000 C 
BRANCH   3   4
ATOM      4  C   UNL     1     136.184 135.169 130.676  1.00  0.00    -0.000 C 
BRANCH   4   5
ATOM      5  C   UNL     1     135.682 135.493 132.091  1.00  0.00    -0.003 C 
ATOM      6  C   UNL     1     134.312 134.871 132.343  1.00  0.00     0.004 C 
ENDBRANCH   4   5
ENDBRANCH   3   4
ENDBRANCH   2   3
ENDBRANCH   1   2
BRANCH   1   7
ATOM      7  C   UNL     1     134.885 138.125 128.901  1.00  0.00     0.002 C 
BRANCH   7   8
ATOM      8  C   UNL     1     135.219 138.714 130.284  1.00  0.00     0.028 C 
BRANCH   8   9
ATOM      9  C   UNL     1     134.939 140.216 130.377  1.00  0.00     0.156 C 
BRANCH   9  10
ATOM     10  O   UNL     1     134.465 140.678 129.144  1.00  0.00    -0.396 OA
ATOM     11  H   UNL     1     134.448 139.889 128.542  1.00  0.00     0.210 HD
ENDBRANCH   9  10
ENDBRANCH   8   9
ENDBRANCH   7   8
ENDBRANCH   1   7
TORSDOF 8
ENDMDL
MODEL 4
REMARK VINA RESULT:    -3.225      3.875      5.053
REMARK INTER + INTRA:          -5.115
REMARK INTER:                  -4.844
REMARK INTRA:                  -0.270
REMARK UNBOUND:                -0.475
REMARK SMILES CCCCCCCCCO
REMARK SMILES IDX 6 1 5 2 4 3 3 4 2 5 1 6 7 7 8 8 9 9 10 10
REMARK H PARENT 10 11
REMARK Flexibility Score: inf
ROOT
ATOM      1  C   UNL     1     136.291 135.081 129.628  1.00  0.00     0.000 C 
ENDROOT
BRANCH   1   2
ATOM      2  C   UNL     1     134.874 135.309 129.066  1.00  0.00     0.000 C 
BRANCH   2   3
ATOM      3  C   UNL     1     134.253 136.681 129.397  1.00  0.00    -0.000 C 
BRANCH   3   4
ATOM      4  C   UNL     1     134.998 137.891 128.805  1.00  0.00    -0.000 C 
BRANCH   4   5
ATOM      5  C   UNL     1     135.452 138.894 129.875  1.00  0.00    -0.003 C 
ATOM      6  C   UNL     1     134.701 140.216 129.743  1.00  0.00     0.004 C 
ENDBRANCH   4   5
ENDBRANCH   3   4
ENDBRANCH   2   3
ENDBRANCH   1   2
BRANCH   1   7
ATOM      7  C   UNL     1     137.416 135.053 128.573  1.00  0.00     0.002 C 
BRANCH   7   8
ATOM      8  C   UNL     1     138.646 134.213 128.960  1.00  0.00     0.028 C 
BRANCH   8   9
ATOM      9  C   UNL     1     139.055 133.215 127.875  1.00  0.00     0.156 C 
BRANCH   9  10
ATOM     10  O   UNL     1     138.388 132.003 128.084  1.00  0.00    -0.396 OA
ATOM     11  H   UNL     1     138.945 131.487 128.723  1.00  0.00     0.210 HD
ENDBRANCH   9  10
ENDBRANCH   8   9
ENDBRANCH   7   8
ENDBRANCH   1   7
TORSDOF 8
ENDMDL
MODEL 5
REMARK VINA RESULT:    -3.219      3.031      5.449
REMARK INTER + INTRA:          -5.105
REMARK INTER:                  -4.827
REMARK INTRA:                  -0.278
REMARK UNBOUND:                -0.475
REMARK SMILES CCCCCCCCCO
REMARK SMILES IDX 6 1 5 2 4 3 3 4 2 5 1 6 7 7 8 8 9 9 10 10
REMARK H PARENT 10 11
REMARK Flexibility Score: inf
ROOT
ATOM      1  C   UNL     1     140.005 137.159 128.651  1.00  0.00     0.000 C 
ENDROOT
BRANCH   1   2
ATOM      2  C   UNL     1     140.947 138.294 129.101  1.00  0.00     0.000 C 
BRANCH   2   3
ATOM      3  C   UNL     1     140.462 139.718 128.763  1.00  0.00    -0.000 C 
BRANCH   3   4
ATOM      4  C   UNL     1     140.216 140.627 129.980  1.00  0.00    -0.000 C 
BRANCH   4   5
ATOM      5  C   UNL     1     139.971 139.837 131.274  1.00  0.00    -0.003 C 
ATOM      6  C   UNL     1     140.879 140.327 132.398  1.00  0.00     0.004 C 
ENDBRANCH   4   5
ENDBRANCH   3   4
ENDBRANCH   2   3
ENDBRANCH   1   2
BRANCH   1   7
ATOM      7  C   UNL     1     140.097 135.865 129.484  1.00  0.00     0.002 C 
BRANCH   7   8
ATOM      8  C   UNL     1     139.902 134.565 128.683  1.00  0.00     0.028 C 
BRANCH   8   9
ATOM      9  C   UNL     1     138.510 133.955 128.863  1.00  0.00     0.156 C 
BRANCH   9  10
ATOM     10  O   UNL     1     138.522 132.630 128.413  1.00  0.00    -0.396 OA
ATOM     11  H   UNL     1     139.476 132.396 128.267  1.00  0.00     0.210 HD
ENDBRANCH   9  10
ENDBRANCH   8   9
ENDBRANCH   7   8
ENDBRANCH   1   7
TORSDOF 8
ENDMDL
MODEL 6
REMARK VINA RESULT:    -3.191      2.817      4.270
REMARK INTER + INTRA:          -5.066
REMARK INTER:                  -4.690
REMARK INTRA:                  -0.376
REMARK UNBOUND:                -0.475
REMARK SMILES CCCCCCCCCO
REMARK SMILES IDX 6 1 5 2 4 3 3 4 2 5 1 6 7 7 8 8 9 9 10 10
REMARK H PARENT 10 11
REMARK Flexibility Score: inf
ROOT
ATOM      1  C   UNL     1     138.065 140.136 128.279  1.00  0.00     0.000 C 
ENDROOT
BRANCH   1   2
ATOM      2  C   UNL     1     137.001 140.984 129.003  1.00  0.00     0.000 C 
BRANCH   2   3
ATOM      3  C   UNL     1     135.541 140.662 128.627  1.00  0.00    -0.000 C 
BRANCH   3   4
ATOM      4  C   UNL     1     134.701 140.043 129.759  1.00  0.00    -0.000 C 
BRANCH   4   5
ATOM      5  C   UNL     1     135.048 138.570 130.023  1.00  0.00    -0.003 C 
ATOM      6  C   UNL     1     135.000 137.755 128.735  1.00  0.00     0.004 C 
ENDBRANCH   4   5
ENDBRANCH   3   4
ENDBRANCH   2   3
ENDBRANCH   1   2
BRANCH   1   7
ATOM      7  C   UNL     1     139.207 139.617 129.175  1.00  0.00     0.002 C 
BRANCH   7   8
ATOM      8  C   UNL     1     140.603 139.647 128.527  1.00  0.00     0.028 C 
BRANCH   8   9
ATOM      9  C   UNL     1     141.449 138.419 128.871  1.00  0.00     0.156 C 
BRANCH   9  10
ATOM     10  O   UNL     1     142.739 138.585 128.353  1.00  0.00    -0.396 OA
ATOM     11  H   UNL     1     142.737 138.147 127.462  1.00  0.00     0.210 HD
ENDBRANCH   9  10
ENDBRANCH   8   9
ENDBRANCH   7   8
ENDBRANCH   1   7
TORSDOF 8
ENDMDL
MODEL 7
REMARK VINA RESULT:    -3.155      2.588      4.387
REMARK INTER + INTRA:          -5.013
REMARK INTER:                  -4.356
REMARK INTRA:                  -0.657
REMARK UNBOUND:                -0.475
REMARK SMILES CCCCCCCCCO
REMARK SMILES IDX 6 1 5 2 4 3 3 4 2 5 1 6 7 7 8 8 9 9 10 10
REMARK H PARENT 10 11
REMARK Flexibility Score: inf
ROOT
ATOM      1  C   UNL     1     141.202 138.245 128.895  1.00  0.00     0.000 C 
ENDROOT
BRANCH   1   2
ATOM      2  C   UNL     1     140.689 139.665 128.588  1.00  0.00     0.000 C 
BRANCH   2   3
ATOM      3  C   UNL     1     139.937 140.352 129.746  1.00  0.00    -0.000 C 
BRANCH   3   4
ATOM      4  C   UNL     1     138.409 140.420 129.578  1.00  0.00    -0.000 C 
BRANCH   4   5
ATOM      5  C   UNL     1     137.652 139.715 130.712  1.00  0.00    -0.003 C 
ATOM      6  C   UNL     1     136.680 138.675 130.162  1.00  0.00     0.004 C 
ENDBRANCH   4   5
ENDBRANCH   3   4
ENDBRANCH   2   3
ENDBRANCH   1   2
BRANCH   1   7
ATOM      7  C   UNL     1     140.104 137.174 129.055  1.00  0.00     0.002 C 
BRANCH   7   8
ATOM      8  C   UNL     1     139.927 136.638 130.487  1.00  0.00     0.028 C 
BRANCH   8   9
ATOM      9  C   UNL     1     140.082 135.119 130.581  1.00  0.00     0.156 C 
BRANCH   9  10
ATOM     10  O   UNL     1     141.062 134.695 129.677  1.00  0.00    -0.396 OA
ATOM     11  H   UNL     1     141.083 133.704 129.736  1.00  0.00     0.210 HD
ENDBRANCH   9  10
ENDBRANCH   8   9
ENDBRANCH   7   8
ENDBRANCH   1   7
TORSDOF 8
ENDMDL
MODEL 8
REMARK VINA RESULT:    -3.141      3.377      5.190
REMARK INTER + INTRA:          -4.994
REMARK INTER:                  -4.406
REMARK INTRA:                  -0.587
REMARK UNBOUND:                -0.475
REMARK SMILES CCCCCCCCCO
REMARK SMILES IDX 6 1 5 2 4 3 3 4 2 5 1 6 7 7 8 8 9 9 10 10
REMARK H PARENT 10 11
REMARK Flexibility Score: inf
ROOT
ATOM      1  C   UNL     1     137.167 134.630 129.377  1.00  0.00     0.000 C 
ENDROOT
BRANCH   1   2
ATOM      2  C   UNL     1     138.409 133.817 128.964  1.00  0.00     0.000 C 
BRANCH   2   3
ATOM      3  C   UNL     1     139.623 134.658 128.522  1.00  0.00    -0.000 C 
BRANCH   3   4
ATOM      4  C   UNL     1     140.339 135.412 129.657  1.00  0.00    -0.000 C 
BRANCH   4   5
ATOM      5  C   UNL     1     140.371 136.931 129.437  1.00  0.00    -0.003 C 
ATOM      6  C   UNL     1     139.348 137.636 130.323  1.00  0.00     0.004 C 
ENDBRANCH   4   5
ENDBRANCH   3   4
ENDBRANCH   2   3
ENDBRANCH   1   2
BRANCH   1   7
ATOM      7  C   UNL     1     136.515 135.448 128.244  1.00  0.00     0.002 C 
BRANCH   7   8
ATOM      8  C   UNL     1     135.762 136.709 128.707  1.00  0.00     0.028 C 
BRANCH   8   9
ATOM      9  C   UNL     1     134.255 136.485 128.856  1.00  0.00     0.156 C 
BRANCH   9  10
ATOM     10  O   UNL     1     133.901 135.282 128.236  1.00  0.00    -0.396 OA
ATOM     11  H   UNL     1     133.865 134.600 128.956  1.00  0.00     0.210 HD
ENDBRANCH   9  10
ENDBRANCH   8   9
ENDBRANCH   7   8
ENDBRANCH   1   7
TORSDOF 8
ENDMDL
MODEL 9
REMARK VINA RESULT:    -3.054      1.242      2.584
REMARK INTER + INTRA:          -4.868
REMARK INTER:                  -4.255
REMARK INTRA:                  -0.612
REMARK UNBOUND:                -0.475
REMARK SMILES CCCCCCCCCO
REMARK SMILES IDX 6 1 5 2 4 3 3 4 2 5 1 6 7 7 8 8 9 9 10 10
REMARK H PARENT 10 11
REMARK Flexibility Score: inf
ROOT
ATOM      1  C   UNL     1     138.406 138.525 129.018  1.00  0.00     0.000 C 
ENDROOT
BRANCH   1   2
ATOM      2  C   UNL     1     138.393 137.478 127.886  1.00  0.00     0.000 C 
BRANCH   2   3
ATOM      3  C   UNL     1     137.584 136.200 128.189  1.00  0.00    -0.000 C 
BRANCH   3   4
ATOM      4  C   UNL     1     138.229 135.251 129.214  1.00  0.00    -0.000 C 
BRANCH   4   5
ATOM      5  C   UNL     1     139.669 134.864 128.847  1.00  0.00    -0.003 C 
ATOM      6  C   UNL     1     140.593 134.971 130.056  1.00  0.00     0.004 C 
ENDBRANCH   4   5
ENDBRANCH   3   4
ENDBRANCH   2   3
ENDBRANCH   1   2
BRANCH   1   7
ATOM      7  C   UNL     1     139.744 139.270 129.202  1.00  0.00     0.002 C 
BRANCH   7   8
ATOM      8  C   UNL     1     141.000 138.419 128.942  1.00  0.00     0.028 C 
BRANCH   8   9
ATOM      9  C   UNL     1     141.919 139.019 127.875  1.00  0.00     0.156 C 
BRANCH   9  10
ATOM     10  O   UNL     1     143.249 138.711 128.182  1.00  0.00    -0.396 OA
ATOM     11  H   UNL     1     143.765 139.547 128.039  1.00  0.00     0.210 HD
ENDBRANCH   9  10
ENDBRANCH   8   9
ENDBRANCH   7   8
ENDBRANCH   1   7
TORSDOF 8
ENDMDL
