MODEL 1
REMARK VINA RESULT:    -4.975      0.000      0.000
REMARK INTER + INTRA:          -5.495
REMARK INTER:                  -5.411
REMARK INTRA:                  -0.085
REMARK UNBOUND:                -0.085
REMARK SMILES C=C(C)[C@H]1CC=C(C)[C@H](O)C1
REMARK SMILES IDX 8 1 7 2 6 3 5 4 4 5 11 6 9 7 10 8 2 10 1 11 3 12
REMARK H PARENT 10 9
REMARK Flexibility Score: inf
ROOT
ATOM      1  C   UNL     1      -3.157  19.874  48.787  1.00  0.00     0.042 C 
ATOM      2  C   UNL     1      -2.253  18.986  47.974  1.00  0.00    -0.049 C 
ATOM      3  C   UNL     1      -2.550  17.674  47.868  1.00  0.00    -0.025 C 
ATOM      4  C   UNL     1      -1.673  16.689  47.138  1.00  0.00     0.035 C 
ATOM      5  C   UNL     1      -0.822  17.370  46.054  1.00  0.00     0.021 C 
ATOM      6  C   UNL     1      -0.092  18.585  46.649  1.00  0.00     0.044 C 
ATOM      7  C   UNL     1      -1.088  19.617  47.219  1.00  0.00     0.140 C 
ENDROOT
BRANCH   7   8
ATOM      8  O   UNL     1      -1.562  20.466  46.203  1.00  0.00    -0.389 OA
ATOM      9  H   UNL     1      -2.201  21.104  46.613  1.00  0.00     0.211 HD
ENDBRANCH   7   8
BRANCH   5  10
ATOM     10  C   UNL     1       0.156  16.389  45.420  1.00  0.00    -0.077 C 
ATOM     11  C   UNL     1      -0.097  15.875  44.206  1.00  0.00     0.008 C 
ATOM     12  C   UNL     1       1.421  15.967  46.129  1.00  0.00     0.039 C 
ENDBRANCH   5  10
TORSDOF 2
ENDMDL
MODEL 2
REMARK VINA RESULT:    -4.859      1.678      4.518
REMARK INTER + INTRA:          -5.370
REMARK INTER:                  -5.275
REMARK INTRA:                  -0.095
REMARK UNBOUND:                -0.085
REMARK SMILES C=C(C)[C@H]1CC=C(C)[C@H](O)C1
REMARK SMILES IDX 8 1 7 2 6 3 5 4 4 5 11 6 9 7 10 8 2 10 1 11 3 12
REMARK H PARENT 10 9
REMARK Flexibility Score: inf
ROOT
ATOM      1  C   UNL     1       1.817  15.915  45.397  1.00  0.00     0.042 C 
ATOM      2  C   UNL     1       0.714  16.520  46.223  1.00  0.00    -0.049 C 
ATOM      3  C   UNL     1       1.032  17.416  47.181  1.00  0.00    -0.025 C 
ATOM      4  C   UNL     1       0.011  18.025  48.107  1.00  0.00     0.035 C 
ATOM      5  C   UNL     1      -1.396  18.037  47.486  1.00  0.00     0.021 C 
ATOM      6  C   UNL     1      -1.743  16.637  46.954  1.00  0.00     0.044 C 
ATOM      7  C   UNL     1      -0.732  16.174  45.884  1.00  0.00     0.140 C 
ENDROOT
BRANCH   7   8
ATOM      8  O   UNL     1      -1.076  16.683  44.620  1.00  0.00    -0.389 OA
ATOM      9  H   UNL     1      -2.061  16.795  44.594  1.00  0.00     0.211 HD
ENDBRANCH   7   8
BRANCH   5  10
ATOM     10  C   UNL     1      -2.438  18.527  48.483  1.00  0.00    -0.077 C 
ATOM     11  C   UNL     1      -3.448  17.723  48.850  1.00  0.00     0.008 C 
ATOM     12  C   UNL     1      -2.371  19.914  49.077  1.00  0.00     0.039 C 
ENDBRANCH   5  10
TORSDOF 2
ENDMDL
MODEL 3
REMARK VINA RESULT:    -4.843      0.443      1.133
REMARK INTER + INTRA:          -5.353
REMARK INTER:                  -5.259
REMARK INTRA:                  -0.094
REMARK UNBOUND:                -0.085
REMARK SMILES C=C(C)[C@H]1CC=C(C)[C@H](O)C1
REMARK SMILES IDX 8 1 7 2 6 3 5 4 4 5 11 6 9 7 10 8 2 10 1 11 3 12
REMARK H PARENT 10 9
REMARK Flexibility Score: inf
ROOT
ATOM      1  C   UNL     1      -2.750  20.252  49.168  1.00  0.00     0.042 C 
ATOM      2  C   UNL     1      -1.952  19.309  48.309  1.00  0.00    -0.049 C 
ATOM      3  C   UNL     1      -2.194  17.984  48.395  1.00  0.00    -0.025 C 
ATOM      4  C   UNL     1      -1.403  16.953  47.633  1.00  0.00     0.035 C 
ATOM      5  C   UNL     1      -0.783  17.534  46.351  1.00  0.00     0.021 C 
ATOM      6  C   UNL     1      -0.028  18.832  46.679  1.00  0.00     0.044 C 
ATOM      7  C   UNL     1      -0.965  19.888  47.301  1.00  0.00     0.140 C 
ENDROOT
BRANCH   7   8
ATOM      8  O   UNL     1      -1.647  20.601  46.299  1.00  0.00    -0.389 OA
ATOM      9  H   UNL     1      -2.098  19.942  45.710  1.00  0.00     0.211 HD
ENDBRANCH   7   8
BRANCH   5  10
ATOM     10  C   UNL     1       0.124  16.521  45.665  1.00  0.00    -0.077 C 
ATOM     11  C   UNL     1       1.300  16.186  46.220  1.00  0.00     0.008 C 
ATOM     12  C   UNL     1      -0.263  15.875  44.356  1.00  0.00     0.039 C 
ENDBRANCH   5  10
TORSDOF 2
ENDMDL
MODEL 4
REMARK VINA RESULT:    -4.821      1.508      2.139
REMARK INTER + INTRA:          -5.328
REMARK INTER:                  -5.235
REMARK INTRA:                  -0.094
REMARK UNBOUND:                -0.085
REMARK SMILES C=C(C)[C@H]1CC=C(C)[C@H](O)C1
REMARK SMILES IDX 8 1 7 2 6 3 5 4 4 5 11 6 9 7 10 8 2 10 1 11 3 12
REMARK H PARENT 10 9
REMARK Flexibility Score: inf
ROOT
ATOM      1  C   UNL     1      -2.754  20.168  49.242  1.00  0.00     0.042 C 
ATOM      2  C   UNL     1      -2.084  19.214  48.291  1.00  0.00    -0.049 C 
ATOM      3  C   UNL     1      -1.025  19.645  47.573  1.00  0.00    -0.025 C 
ATOM      4  C   UNL     1      -0.330  18.792  46.543  1.00  0.00     0.035 C 
ATOM      5  C   UNL     1      -0.500  17.291  46.828  1.00  0.00     0.021 C 
ATOM      6  C   UNL     1      -1.987  16.968  47.054  1.00  0.00     0.044 C 
ATOM      7  C   UNL     1      -2.563  17.768  48.241  1.00  0.00     0.140 C 
ENDROOT
BRANCH   7   8
ATOM      8  O   UNL     1      -2.291  17.118  49.458  1.00  0.00    -0.389 OA
ATOM      9  H   UNL     1      -2.536  16.162  49.354  1.00  0.00     0.211 HD
ENDBRANCH   7   8
BRANCH   5  10
ATOM     10  C   UNL     1       0.088  16.443  45.708  1.00  0.00    -0.077 C 
ATOM     11  C   UNL     1      -0.638  16.182  44.609  1.00  0.00     0.008 C 
ATOM     12  C   UNL     1       1.484  15.875  45.798  1.00  0.00     0.039 C 
ENDBRANCH   5  10
TORSDOF 2
ENDMDL
MODEL 5
REMARK VINA RESULT:    -4.687      8.935     10.042
REMARK INTER + INTRA:          -5.183
REMARK INTER:                  -5.089
REMARK INTRA:                  -0.094
REMARK UNBOUND:                -0.085
REMARK SMILES C=C(C)[C@H]1CC=C(C)[C@H](O)C1
REMARK SMILES IDX 8 1 7 2 6 3 5 4 4 5 11 6 9 7 10 8 2 10 1 11 3 12
REMARK H PARENT 10 9
REMARK Flexibility Score: inf
ROOT
ATOM      1  C   UNL     1       3.408  23.258  38.603  1.00  0.00     0.042 C 
ATOM      2  C   UNL     1       4.320  22.355  39.389  1.00  0.00    -0.049 C 
ATOM      3  C   UNL     1       5.116  21.491  38.724  1.00  0.00    -0.025 C 
ATOM      4  C   UNL     1       6.011  20.497  39.419  1.00  0.00     0.035 C 
ATOM      5  C   UNL     1       6.401  20.962  40.832  1.00  0.00     0.021 C 
ATOM      6  C   UNL     1       5.141  21.371  41.612  1.00  0.00     0.044 C 
ATOM      7  C   UNL     1       4.385  22.514  40.904  1.00  0.00     0.140 C 
ENDROOT
BRANCH   7   8
ATOM      8  O   UNL     1       4.936  23.762  41.245  1.00  0.00    -0.389 OA
ATOM      9  H   UNL     1       5.897  23.748  40.999  1.00  0.00     0.211 HD
ENDBRANCH   7   8
BRANCH   5  10
ATOM     10  C   UNL     1       7.189  19.889  41.571  1.00  0.00    -0.077 C 
ATOM     11  C   UNL     1       6.575  19.098  42.465  1.00  0.00     0.008 C 
ATOM     12  C   UNL     1       8.666  19.687  41.328  1.00  0.00     0.039 C 
ENDBRANCH   5  10
TORSDOF 2
ENDMDL
MODEL 6
REMARK VINA RESULT:    -4.663      1.669      2.646
REMARK INTER + INTRA:          -5.156
REMARK INTER:                  -5.063
REMARK INTRA:                  -0.093
REMARK UNBOUND:                -0.085
REMARK SMILES C=C(C)[C@H]1CC=C(C)[C@H](O)C1
REMARK SMILES IDX 8 1 7 2 6 3 5 4 4 5 11 6 9 7 10 8 2 10 1 11 3 12
REMARK H PARENT 10 9
REMARK Flexibility Score: inf
ROOT
ATOM      1  C   UNL     1      -1.683  22.741  48.999  1.00  0.00     0.042 C 
ATOM      2  C   UNL     1      -1.610  21.283  48.633  1.00  0.00    -0.049 C 
ATOM      3  C   UNL     1      -1.985  20.361  49.545  1.00  0.00    -0.025 C 
ATOM      4  C   UNL     1      -1.882  18.877  49.303  1.00  0.00     0.035 C 
ATOM      5  C   UNL     1      -1.928  18.533  47.806  1.00  0.00     0.021 C 
ATOM      6  C   UNL     1      -0.911  19.396  47.041  1.00  0.00     0.044 C 
ATOM      7  C   UNL     1      -1.206  20.901  47.214  1.00  0.00     0.140 C 
ENDROOT
BRANCH   7   8
ATOM      8  O   UNL     1      -2.180  21.327  46.294  1.00  0.00    -0.389 OA
ATOM      9  H   UNL     1      -3.037  21.432  46.783  1.00  0.00     0.211 HD
ENDBRANCH   7   8
BRANCH   5  10
ATOM     10  C   UNL     1      -1.685  17.048  47.571  1.00  0.00    -0.077 C 
ATOM     11  C   UNL     1      -1.733  16.547  46.325  1.00  0.00     0.008 C 
ATOM     12  C   UNL     1      -1.392  16.106  48.713  1.00  0.00     0.039 C 
ENDBRANCH   5  10
TORSDOF 2
ENDMDL
MODEL 7
REMARK VINA RESULT:    -4.649      9.340     10.600
REMARK INTER + INTRA:          -5.141
REMARK INTER:                  -5.045
REMARK INTRA:                  -0.096
REMARK UNBOUND:                -0.085
REMARK SMILES C=C(C)[C@H]1CC=C(C)[C@H](O)C1
REMARK SMILES IDX 8 1 7 2 6 3 5 4 4 5 11 6 9 7 10 8 2 10 1 11 3 12
REMARK H PARENT 10 9
REMARK Flexibility Score: inf
ROOT
ATOM      1  C   UNL     1       8.389  19.645  41.215  1.00  0.00     0.042 C 
ATOM      2  C   UNL     1       7.214  20.472  40.766  1.00  0.00    -0.049 C 
ATOM      3  C   UNL     1       6.895  20.493  39.455  1.00  0.00    -0.025 C 
ATOM      4  C   UNL     1       5.784  21.343  38.894  1.00  0.00     0.035 C 
ATOM      5  C   UNL     1       4.708  21.654  39.947  1.00  0.00     0.021 C 
ATOM      6  C   UNL     1       5.370  22.196  41.225  1.00  0.00     0.044 C 
ATOM      7  C   UNL     1       6.368  21.179  41.818  1.00  0.00     0.140 C 
ENDROOT
BRANCH   7   8
ATOM      8  O   UNL     1       5.701  20.240  42.625  1.00  0.00    -0.389 OA
ATOM      9  H   UNL     1       6.330  19.496  42.811  1.00  0.00     0.211 HD
ENDBRANCH   7   8
BRANCH   5  10
ATOM     10  C   UNL     1       3.666  22.624  39.406  1.00  0.00    -0.077 C 
ATOM     11  C   UNL     1       3.584  22.855  38.086  1.00  0.00     0.008 C 
ATOM     12  C   UNL     1       2.711  23.349  40.324  1.00  0.00     0.039 C 
ENDBRANCH   5  10
TORSDOF 2
ENDMDL
MODEL 8
REMARK VINA RESULT:    -4.570      2.014      4.809
REMARK INTER + INTRA:          -5.055
REMARK INTER:                  -4.963
REMARK INTRA:                  -0.091
REMARK UNBOUND:                -0.085
REMARK SMILES C=C(C)[C@H]1CC=C(C)[C@H](O)C1
REMARK SMILES IDX 8 1 7 2 6 3 5 4 4 5 11 6 9 7 10 8 2 10 1 11 3 12
REMARK H PARENT 10 9
REMARK Flexibility Score: inf
ROOT
ATOM      1  C   UNL     1      -1.584  16.217  46.363  1.00  0.00     0.042 C 
ATOM      2  C   UNL     1      -1.542  17.407  47.283  1.00  0.00    -0.049 C 
ATOM      3  C   UNL     1      -0.498  18.258  47.202  1.00  0.00    -0.025 C 
ATOM      4  C   UNL     1      -0.325  19.437  48.125  1.00  0.00     0.035 C 
ATOM      5  C   UNL     1      -1.669  19.928  48.689  1.00  0.00     0.021 C 
ATOM      6  C   UNL     1      -2.452  18.742  49.276  1.00  0.00     0.044 C 
ATOM      7  C   UNL     1      -2.727  17.663  48.208  1.00  0.00     0.140 C 
ENDROOT
BRANCH   7   8
ATOM      8  O   UNL     1      -3.874  17.983  47.460  1.00  0.00    -0.389 OA
ATOM      9  H   UNL     1      -3.761  18.904  47.108  1.00  0.00     0.211 HD
ENDBRANCH   7   8
BRANCH   5  10
ATOM     10  C   UNL     1      -1.467  21.027  49.724  1.00  0.00    -0.077 C 
ATOM     11  C   UNL     1      -2.498  21.805  50.089  1.00  0.00     0.008 C 
ATOM     12  C   UNL     1      -0.119  21.277  50.357  1.00  0.00     0.039 C 
ENDBRANCH   5  10
TORSDOF 2
ENDMDL
MODEL 9
REMARK VINA RESULT:    -4.523      2.252      4.707
REMARK INTER + INTRA:          -5.005
REMARK INTER:                  -4.908
REMARK INTRA:                  -0.097
REMARK UNBOUND:                -0.085
REMARK SMILES C=C(C)[C@H]1CC=C(C)[C@H](O)C1
REMARK SMILES IDX 8 1 7 2 6 3 5 4 4 5 11 6 9 7 10 8 2 10 1 11 3 12
REMARK H PARENT 10 9
REMARK Flexibility Score: inf
ROOT
ATOM      1  C   UNL     1      -1.748  16.240  46.547  1.00  0.00     0.042 C 
ATOM      2  C   UNL     1      -1.594  17.489  47.371  1.00  0.00    -0.049 C 
ATOM      3  C   UNL     1      -2.664  17.964  48.043  1.00  0.00    -0.025 C 
ATOM      4  C   UNL     1      -2.634  19.244  48.838  1.00  0.00     0.035 C 
ATOM      5  C   UNL     1      -1.215  19.589  49.319  1.00  0.00     0.021 C 
ATOM      6  C   UNL     1      -0.233  19.524  48.138  1.00  0.00     0.044 C 
ATOM      7  C   UNL     1      -0.213  18.121  47.497  1.00  0.00     0.140 C 
ENDROOT
BRANCH   7   8
ATOM      8  O   UNL     1       0.657  17.267  48.198  1.00  0.00    -0.389 OA
ATOM      9  H   UNL     1       0.522  16.346  47.855  1.00  0.00     0.211 HD
ENDBRANCH   7   8
BRANCH   5  10
ATOM     10  C   UNL     1      -1.177  20.951  50.001  1.00  0.00    -0.077 C 
ATOM     11  C   UNL     1      -2.272  21.727  50.015  1.00  0.00     0.008 C 
ATOM     12  C   UNL     1       0.076  21.465  50.667  1.00  0.00     0.039 C 
ENDBRANCH   5  10
TORSDOF 2
ENDMDL
