MODEL 1
REMARK VINA RESULT:    -4.920      0.000      0.000
REMARK INTER + INTRA:          -5.064
REMARK INTER:                  -5.064
REMARK INTRA:                   0.000
REMARK UNBOUND:                 0.000
REMARK SMILES Nc1ncnc2nc[nH]c12
REMARK SMILES IDX 8 1 7 2 6 3 5 4 4 5 3 6 2 7 10 8 9 9 1 11
REMARK H PARENT 9 10 1 12 1 13
REMARK Flexibility Score: inf
ROOT
ATOM      1  C   UNL     1       4.379  -7.097   3.338  1.00  0.00     0.199 A 
ATOM      2  N   UNL     1       4.631  -7.185   4.673  1.00  0.00    -0.217 NA
ATOM      3  C   UNL     1       3.452  -7.605   5.159  1.00  0.00     0.182 A 
ATOM      4  N   UNL     1       3.154  -7.854   6.457  1.00  0.00    -0.215 NA
ATOM      5  C   UNL     1       1.890  -8.278   6.760  1.00  0.00     0.226 A 
ATOM      6  N   UNL     1       0.955  -8.441   5.771  1.00  0.00    -0.217 NA
ATOM      7  C   UNL     1       1.251  -8.189   4.460  1.00  0.00     0.152 A 
ATOM      8  C   UNL     1       2.544  -7.759   4.168  1.00  0.00     0.127 A 
ATOM      9  N   UNL     1       3.112  -7.442   2.999  1.00  0.00    -0.340 N 
ATOM     10  H   UNL     1       2.690  -7.454   2.043  1.00  0.00     0.168 HD
ENDROOT
BRANCH   7  11
ATOM     11  N   UNL     1       0.262  -8.367   3.447  1.00  0.00    -0.382 N 
ATOM     12  H   UNL     1       0.027  -9.327   3.108  1.00  0.00     0.158 HD
ATOM     13  H   UNL     1      -0.242  -7.554   3.030  1.00  0.00     0.158 HD
ENDBRANCH   7  11
TORSDOF 1
ENDMDL
MODEL 2
REMARK VINA RESULT:    -4.872     13.573     14.135
REMARK INTER + INTRA:          -5.015
REMARK INTER:                  -5.015
REMARK INTRA:                   0.000
REMARK UNBOUND:                 0.000
REMARK SMILES Nc1ncnc2nc[nH]c12
REMARK SMILES IDX 8 1 7 2 6 3 5 4 4 5 3 6 2 7 10 8 9 9 1 11
REMARK H PARENT 9 10 1 12 1 13
REMARK Flexibility Score: inf
ROOT
ATOM      1  C   UNL     1       2.750   4.683   1.396  1.00  0.00     0.199 A 
ATOM      2  N   UNL     1       1.911   4.026   2.243  1.00  0.00    -0.217 NA
ATOM      3  C   UNL     1       1.504   5.009   3.062  1.00  0.00     0.182 A 
ATOM      4  N   UNL     1       0.646   4.891   4.104  1.00  0.00    -0.215 NA
ATOM      5  C   UNL     1       0.351   6.014   4.827  1.00  0.00     0.226 A 
ATOM      6  N   UNL     1       0.914   7.221   4.501  1.00  0.00    -0.217 NA
ATOM      7  C   UNL     1       1.780   7.343   3.451  1.00  0.00     0.152 A 
ATOM      8  C   UNL     1       2.071   6.190   2.724  1.00  0.00     0.127 A 
ATOM      9  N   UNL     1       2.868   6.008   1.664  1.00  0.00    -0.340 N 
ATOM     10  H   UNL     1       3.449   6.711   1.155  1.00  0.00     0.168 HD
ENDROOT
BRANCH   7  11
ATOM     11  N   UNL     1       2.354   8.610   3.129  1.00  0.00    -0.382 N 
ATOM     12  H   UNL     1       2.517   9.315   3.881  1.00  0.00     0.158 HD
ATOM     13  H   UNL     1       2.618   8.854   2.149  1.00  0.00     0.158 HD
ENDBRANCH   7  11
TORSDOF 1
ENDMDL
MODEL 3
REMARK VINA RESULT:    -4.798     13.833     15.301
REMARK INTER + INTRA:          -4.938
REMARK INTER:                  -4.938
REMARK INTRA:                   0.000
REMARK UNBOUND:                 0.000
REMARK SMILES Nc1ncnc2nc[nH]c12
REMARK SMILES IDX 8 1 7 2 6 3 5 4 4 5 3 6 2 7 10 8 9 9 1 11
REMARK H PARENT 9 10 1 12 1 13
REMARK Flexibility Score: inf
ROOT
ATOM      1  C   UNL     1      12.868   0.183   1.166  1.00  0.00     0.199 A 
ATOM      2  N   UNL     1      13.530  -0.235   0.053  1.00  0.00    -0.217 NA
ATOM      3  C   UNL     1      13.308   0.772  -0.807  1.00  0.00     0.182 A 
ATOM      4  N   UNL     1      13.753   0.859  -2.084  1.00  0.00    -0.215 NA
ATOM      5  C   UNL     1      13.421   1.970  -2.809  1.00  0.00     0.226 A 
ATOM      6  N   UNL     1      12.656   2.962  -2.252  1.00  0.00    -0.217 NA
ATOM      7  C   UNL     1      12.205   2.877  -0.965  1.00  0.00     0.152 A 
ATOM      8  C   UNL     1      12.552   1.740  -0.239  1.00  0.00     0.127 A 
ATOM      9  N   UNL     1      12.260   1.387   1.018  1.00  0.00    -0.340 N 
ATOM     10  H   UNL     1      11.698   1.907   1.729  1.00  0.00     0.168 HD
ENDROOT
BRANCH   7  11
ATOM     11  N   UNL     1      11.410   3.923  -0.405  1.00  0.00    -0.382 N 
ATOM     12  H   UNL     1      11.209   4.782  -0.964  1.00  0.00     0.158 HD
ATOM     13  H   UNL     1      11.018   3.852   0.559  1.00  0.00     0.158 HD
ENDBRANCH   7  11
TORSDOF 1
ENDMDL
MODEL 4
REMARK VINA RESULT:    -4.772     10.922     12.434
REMARK INTER + INTRA:          -4.911
REMARK INTER:                  -4.911
REMARK INTRA:                   0.000
REMARK UNBOUND:                 0.000
REMARK SMILES Nc1ncnc2nc[nH]c12
REMARK SMILES IDX 8 1 7 2 6 3 5 4 4 5 3 6 2 7 10 8 9 9 1 11
REMARK H PARENT 9 10 1 12 1 13
REMARK Flexibility Score: inf
ROOT
ATOM      1  C   UNL     1      12.059  -1.017  -0.114  1.00  0.00     0.199 A 
ATOM      2  N   UNL     1      13.289  -1.452  -0.503  1.00  0.00    -0.217 NA
ATOM      3  C   UNL     1      13.007  -2.630  -1.081  1.00  0.00     0.182 A 
ATOM      4  N   UNL     1      13.892  -3.487  -1.645  1.00  0.00    -0.215 NA
ATOM      5  C   UNL     1      13.411  -4.647  -2.188  1.00  0.00     0.226 A 
ATOM      6  N   UNL     1      12.069  -4.926  -2.156  1.00  0.00    -0.217 NA
ATOM      7  C   UNL     1      11.174  -4.063  -1.588  1.00  0.00     0.152 A 
ATOM      8  C   UNL     1      11.679  -2.887  -1.040  1.00  0.00     0.127 A 
ATOM      9  N   UNL     1      11.054  -1.873  -0.429  1.00  0.00    -0.340 N 
ATOM     10  H   UNL     1      10.035  -1.756  -0.234  1.00  0.00     0.168 HD
ENDROOT
BRANCH   7  11
ATOM     11  N   UNL     1       9.780  -4.375  -1.568  1.00  0.00    -0.382 N 
ATOM     12  H   UNL     1       9.459  -5.347  -1.775  1.00  0.00     0.158 HD
ATOM     13  H   UNL     1       9.064  -3.648  -1.348  1.00  0.00     0.158 HD
ENDBRANCH   7  11
TORSDOF 1
ENDMDL
MODEL 5
REMARK VINA RESULT:    -4.761     13.172     13.923
REMARK INTER + INTRA:          -4.900
REMARK INTER:                  -4.900
REMARK INTRA:                   0.000
REMARK UNBOUND:                 0.000
REMARK SMILES Nc1ncnc2nc[nH]c12
REMARK SMILES IDX 8 1 7 2 6 3 5 4 4 5 3 6 2 7 10 8 9 9 1 11
REMARK H PARENT 9 10 1 12 1 13
REMARK Flexibility Score: inf
ROOT
ATOM      1  C   UNL     1       0.163   4.328   4.322  1.00  0.00     0.199 A 
ATOM      2  N   UNL     1       1.317   3.670   4.026  1.00  0.00    -0.217 NA
ATOM      3  C   UNL     1       2.065   4.639   3.474  1.00  0.00     0.182 A 
ATOM      4  N   UNL     1       3.327   4.513   2.996  1.00  0.00    -0.215 NA
ATOM      5  C   UNL     1       3.930   5.621   2.466  1.00  0.00     0.226 A 
ATOM      6  N   UNL     1       3.267   6.821   2.423  1.00  0.00    -0.217 NA
ATOM      7  C   UNL     1       1.994   6.950   2.905  1.00  0.00     0.152 A 
ATOM      8  C   UNL     1       1.395   5.813   3.441  1.00  0.00     0.127 A 
ATOM      9  N   UNL     1       0.180   5.640   3.977  1.00  0.00    -0.340 N 
ATOM     10  H   UNL     1      -0.583   6.341   4.104  1.00  0.00     0.168 HD
ENDROOT
BRANCH   7  11
ATOM     11  N   UNL     1       1.324   8.210   2.850  1.00  0.00    -0.382 N 
ATOM     12  H   UNL     1       0.336   8.261   2.519  1.00  0.00     0.158 HD
ATOM     13  H   UNL     1       1.802   9.092   3.138  1.00  0.00     0.158 HD
ENDBRANCH   7  11
TORSDOF 1
ENDMDL
MODEL 6
REMARK VINA RESULT:    -4.755      0.991      2.964
REMARK INTER + INTRA:          -4.894
REMARK INTER:                  -4.894
REMARK INTRA:                   0.000
REMARK UNBOUND:                 0.000
REMARK SMILES Nc1ncnc2nc[nH]c12
REMARK SMILES IDX 8 1 7 2 6 3 5 4 4 5 3 6 2 7 10 8 9 9 1 11
REMARK H PARENT 9 10 1 12 1 13
REMARK Flexibility Score: inf
ROOT
ATOM      1  C   UNL     1       0.152  -8.639   4.095  1.00  0.00     0.199 A 
ATOM      2  N   UNL     1       0.367  -8.593   5.438  1.00  0.00    -0.217 NA
ATOM      3  C   UNL     1       1.664  -8.254   5.509  1.00  0.00     0.182 A 
ATOM      4  N   UNL     1       2.393  -8.074   6.637  1.00  0.00    -0.215 NA
ATOM      5  C   UNL     1       3.710  -7.728   6.507  1.00  0.00     0.226 A 
ATOM      6  N   UNL     1       4.269  -7.573   5.264  1.00  0.00    -0.217 NA
ATOM      7  C   UNL     1       3.537  -7.755   4.125  1.00  0.00     0.152 A 
ATOM      8  C   UNL     1       2.197  -8.106   4.274  1.00  0.00     0.127 A 
ATOM      9  N   UNL     1       1.252  -8.345   3.357  1.00  0.00    -0.340 N 
ATOM     10  H   UNL     1       1.331  -8.317   2.316  1.00  0.00     0.168 HD
ENDROOT
BRANCH   7  11
ATOM     11  N   UNL     1       4.140  -7.586   2.842  1.00  0.00    -0.382 N 
ATOM     12  H   UNL     1       3.736  -8.067   2.007  1.00  0.00     0.158 HD
ATOM     13  H   UNL     1       4.985  -6.987   2.713  1.00  0.00     0.158 HD
ENDBRANCH   7  11
TORSDOF 1
ENDMDL
MODEL 7
REMARK VINA RESULT:    -4.753     15.134     15.576
REMARK INTER + INTRA:          -4.892
REMARK INTER:                  -4.892
REMARK INTRA:                   0.000
REMARK UNBOUND:                 0.000
REMARK SMILES Nc1ncnc2nc[nH]c12
REMARK SMILES IDX 8 1 7 2 6 3 5 4 4 5 3 6 2 7 10 8 9 9 1 11
REMARK H PARENT 9 10 1 12 1 13
REMARK Flexibility Score: inf
ROOT
ATOM      1  C   UNL     1       2.546   6.997   2.278  1.00  0.00     0.199 A 
ATOM      2  N   UNL     1       1.771   6.015   2.814  1.00  0.00    -0.217 NA
ATOM      3  C   UNL     1       1.267   6.611   3.906  1.00  0.00     0.182 A 
ATOM      4  N   UNL     1       0.420   6.063   4.810  1.00  0.00    -0.215 NA
ATOM      5  C   UNL     1       0.014   6.833   5.865  1.00  0.00     0.226 A 
ATOM      6  N   UNL     1       0.459   8.123   5.997  1.00  0.00    -0.217 NA
ATOM      7  C   UNL     1       1.314   8.679   5.087  1.00  0.00     0.152 A 
ATOM      8  C   UNL     1       1.718   7.882   4.019  1.00  0.00     0.127 A 
ATOM      9  N   UNL     1       2.534   8.151   2.992  1.00  0.00    -0.340 N 
ATOM     10  H   UNL     1       3.047   9.035   2.780  1.00  0.00     0.168 HD
ENDROOT
BRANCH   7  11
ATOM     11  N   UNL     1       1.764  10.025   5.245  1.00  0.00    -0.382 N 
ATOM     12  H   UNL     1       2.783  10.226   5.348  1.00  0.00     0.158 HD
ATOM     13  H   UNL     1       1.093  10.824   5.259  1.00  0.00     0.158 HD
ENDBRANCH   7  11
TORSDOF 1
ENDMDL
MODEL 8
REMARK VINA RESULT:    -4.747      1.227      2.909
REMARK INTER + INTRA:          -4.886
REMARK INTER:                  -4.886
REMARK INTRA:                   0.000
REMARK UNBOUND:                 0.000
REMARK SMILES Nc1ncnc2nc[nH]c12
REMARK SMILES IDX 8 1 7 2 6 3 5 4 4 5 3 6 2 7 10 8 9 9 1 11
REMARK H PARENT 9 10 1 12 1 13
REMARK Flexibility Score: inf
ROOT
ATOM      1  C   UNL     1       2.869  -7.415   7.705  1.00  0.00     0.199 A 
ATOM      2  N   UNL     1       3.743  -6.680   6.965  1.00  0.00    -0.217 NA
ATOM      3  C   UNL     1       3.544  -7.161   5.727  1.00  0.00     0.182 A 
ATOM      4  N   UNL     1       4.174  -6.766   4.594  1.00  0.00    -0.215 NA
ATOM      5  C   UNL     1       3.835  -7.378   3.420  1.00  0.00     0.226 A 
ATOM      6  N   UNL     1       2.884  -8.365   3.398  1.00  0.00    -0.217 NA
ATOM      7  C   UNL     1       2.247  -8.766   4.539  1.00  0.00     0.152 A 
ATOM      8  C   UNL     1       2.603  -8.133   5.727  1.00  0.00     0.127 A 
ATOM      9  N   UNL     1       2.158  -8.312   6.977  1.00  0.00    -0.340 N 
ATOM     10  H   UNL     1       1.434  -8.981   7.323  1.00  0.00     0.168 HD
ENDROOT
BRANCH   7  11
ATOM     11  N   UNL     1       1.258  -9.796   4.493  1.00  0.00    -0.382 N 
ATOM     12  H   UNL     1       0.747 -10.068   5.362  1.00  0.00     0.158 HD
ATOM     13  H   UNL     1       1.029 -10.289   3.603  1.00  0.00     0.158 HD
ENDBRANCH   7  11
TORSDOF 1
ENDMDL
MODEL 9
REMARK VINA RESULT:    -4.701     14.004     14.639
REMARK INTER + INTRA:          -4.838
REMARK INTER:                  -4.838
REMARK INTRA:                   0.000
REMARK UNBOUND:                 0.000
REMARK SMILES Nc1ncnc2nc[nH]c12
REMARK SMILES IDX 8 1 7 2 6 3 5 4 4 5 3 6 2 7 10 8 9 9 1 11
REMARK H PARENT 9 10 1 12 1 13
REMARK Flexibility Score: inf
ROOT
ATOM      1  C   UNL     1       1.270   8.602   4.425  1.00  0.00     0.199 A 
ATOM      2  N   UNL     1       0.463   7.565   4.781  1.00  0.00    -0.217 NA
ATOM      3  C   UNL     1       1.017   6.533   4.125  1.00  0.00     0.182 A 
ATOM      4  N   UNL     1       0.593   5.246   4.135  1.00  0.00    -0.215 NA
ATOM      5  C   UNL     1       1.292   4.330   3.398  1.00  0.00     0.226 A 
ATOM      6  N   UNL     1       2.389   4.713   2.670  1.00  0.00    -0.217 NA
ATOM      7  C   UNL     1       2.819   6.011   2.657  1.00  0.00     0.152 A 
ATOM      8  C   UNL     1       2.097   6.931   3.413  1.00  0.00     0.127 A 
ATOM      9  N   UNL     1       2.278   8.246   3.590  1.00  0.00    -0.340 N 
ATOM     10  H   UNL     1       3.017   8.863   3.185  1.00  0.00     0.168 HD
ENDROOT
BRANCH   7  11
ATOM     11  N   UNL     1       3.965   6.387   1.893  1.00  0.00    -0.382 N 
ATOM     12  H   UNL     1       3.929   6.358   0.850  1.00  0.00     0.158 HD
ATOM     13  H   UNL     1       4.849   6.694   2.354  1.00  0.00     0.158 HD
ENDBRANCH   7  11
TORSDOF 1
ENDMDL
