MODEL 1
REMARK VINA RESULT:    -0.680      0.000      0.000
REMARK INTER + INTRA:          -0.968
REMARK INTER:                  -1.236
REMARK INTRA:                   0.268
REMARK UNBOUND:                 0.268
REMARK SMILES CCCCCCCCCCCCCCCC(=O)[O-]
REMARK SMILES IDX 9 1 10 2 11 3 12 4 13 5 14 6 15 7 16 8 17 9 18 10 8 11 7 12
REMARK SMILES IDX 6 13 5 14 4 15 3 16 2 17 1 18
REMARK H PARENT
REMARK Flexibility Score: inf
ROOT
ATOM      1  C   UNL     1      21.882  54.881  32.979  1.00  0.00     0.000 C 
ENDROOT
BRANCH   1   2
ATOM      2  C   UNL     1      21.001  54.883  34.240  1.00  0.00     0.000 C 
BRANCH   2   3
ATOM      3  C   UNL     1      21.360  53.746  35.213  1.00  0.00     0.000 C 
BRANCH   3   4
ATOM      4  C   UNL     1      22.876  53.616  35.450  1.00  0.00     0.000 C 
BRANCH   4   5
ATOM      5  C   UNL     1      23.634  54.949  35.595  1.00  0.00     0.000 C 
BRANCH   5   6
ATOM      6  C   UNL     1      24.837  55.062  34.644  1.00  0.00     0.006 C 
BRANCH   6   7
ATOM      7  C   UNL     1      24.558  54.417  33.279  1.00  0.00     0.053 C 
BRANCH   7   8
ATOM      8  C   UNL     1      25.606  54.776  32.269  1.00  0.00     0.041 C 
ATOM      9  O   UNL     1      25.330  54.764  31.041  1.00  0.00    -0.550 OA
ATOM     10  O   UNL     1      26.892  55.097  32.684  1.00  0.00    -0.550 OA
ENDBRANCH   7   8
ENDBRANCH   6   7
ENDBRANCH   5   6
ENDBRANCH   4   5
ENDBRANCH   3   4
ENDBRANCH   2   3
ENDBRANCH   1   2
BRANCH   1  11
ATOM     11  C   UNL     1      21.077  55.125  31.694  1.00  0.00     0.000 C 
BRANCH  11  12
ATOM     12  C   UNL     1      21.992  55.116  30.464  1.00  0.00    -0.000 C 
BRANCH  12  13
ATOM     13  C   UNL     1      21.716  53.891  29.580  1.00  0.00    -0.000 C 
BRANCH  13  14
ATOM     14  C   UNL     1      22.984  53.356  28.898  1.00  0.00    -0.000 C 
BRANCH  14  15
ATOM     15  C   UNL     1      22.851  51.881  28.476  1.00  0.00    -0.000 C 
BRANCH  15  16
ATOM     16  C   UNL     1      23.855  51.482  27.380  1.00  0.00    -0.000 C 
BRANCH  16  17
ATOM     17  C   UNL     1      24.051  52.533  26.273  1.00  0.00    -0.003 C 
ATOM     18  C   UNL     1      24.854  52.005  25.085  1.00  0.00     0.004 C 
ENDBRANCH  16  17
ENDBRANCH  15  16
ENDBRANCH  14  15
ENDBRANCH  13  14
ENDBRANCH  12  13
ENDBRANCH  11  12
ENDBRANCH   1  11
TORSDOF 14
ENDMDL
MODEL 2
REMARK VINA RESULT:    -0.578     21.085     25.843
REMARK INTER + INTRA:          -0.783
REMARK INTER:                  -0.135
REMARK INTRA:                  -0.648
REMARK UNBOUND:                 0.268
REMARK SMILES CCCCCCCCCCCCCCCC(=O)[O-]
REMARK SMILES IDX 9 1 10 2 11 3 12 4 13 5 14 6 15 7 16 8 17 9 18 10 8 11 7 12
REMARK SMILES IDX 6 13 5 14 4 15 3 16 2 17 1 18
REMARK H PARENT
REMARK Flexibility Score: inf
ROOT
ATOM      1  C   UNL     1      40.165  40.490  19.333  1.00  0.00     0.000 C 
ENDROOT
BRANCH   1   2
ATOM      2  C   UNL     1      40.448  39.299  18.402  1.00  0.00     0.000 C 
BRANCH   2   3
ATOM      3  C   UNL     1      40.568  39.719  16.926  1.00  0.00     0.000 C 
BRANCH   3   4
ATOM      4  C   UNL     1      40.234  38.577  15.949  1.00  0.00     0.000 C 
BRANCH   4   5
ATOM      5  C   UNL     1      40.512  37.158  16.478  1.00  0.00     0.000 C 
BRANCH   5   6
ATOM      6  C   UNL     1      39.283  36.236  16.399  1.00  0.00     0.006 C 
BRANCH   6   7
ATOM      7  C   UNL     1      39.254  35.210  17.540  1.00  0.00     0.053 C 
BRANCH   7   8
ATOM      8  C   UNL     1      39.733  35.800  18.832  1.00  0.00     0.041 C 
ATOM      9  O   UNL     1      40.839  35.445  19.316  1.00  0.00    -0.550 OA
ATOM     10  O   UNL     1      38.947  36.721  19.512  1.00  0.00    -0.550 OA
ENDBRANCH   7   8
ENDBRANCH   6   7
ENDBRANCH   5   6
ENDBRANCH   4   5
ENDBRANCH   3   4
ENDBRANCH   2   3
ENDBRANCH   1   2
BRANCH   1  11
ATOM     11  C   UNL     1      40.025  41.817  18.571  1.00  0.00     0.000 C 
BRANCH  11  12
ATOM     12  C   UNL     1      41.125  42.803  18.981  1.00  0.00    -0.000 C 
BRANCH  12  13
ATOM     13  C   UNL     1      40.800  43.460  20.331  1.00  0.00    -0.000 C 
BRANCH  13  14
ATOM     14  C   UNL     1      41.123  44.962  20.350  1.00  0.00    -0.000 C 
BRANCH  14  15
ATOM     15  C   UNL     1      41.118  45.550  21.773  1.00  0.00    -0.000 C 
BRANCH  15  16
ATOM     16  C   UNL     1      41.025  44.468  22.863  1.00  0.00    -0.000 C 
BRANCH  16  17
ATOM     17  C   UNL     1      40.805  45.006  24.288  1.00  0.00    -0.003 C 
ATOM     18  C   UNL     1      39.328  45.104  24.668  1.00  0.00     0.004 C 
ENDBRANCH  16  17
ENDBRANCH  15  16
ENDBRANCH  14  15
ENDBRANCH  13  14
ENDBRANCH  12  13
ENDBRANCH  11  12
ENDBRANCH   1  11
TORSDOF 14
ENDMDL
MODEL 3
REMARK VINA RESULT:    -0.345      2.650      6.368
REMARK INTER + INTRA:          -0.360
REMARK INTER:                  -0.376
REMARK INTRA:                   0.016
REMARK UNBOUND:                 0.268
REMARK SMILES CCCCCCCCCCCCCCCC(=O)[O-]
REMARK SMILES IDX 9 1 10 2 11 3 12 4 13 5 14 6 15 7 16 8 17 9 18 10 8 11 7 12
REMARK SMILES IDX 6 13 5 14 4 15 3 16 2 17 1 18
REMARK H PARENT
REMARK Flexibility Score: inf
ROOT
ATOM      1  C   UNL     1      21.977  53.851  31.643  1.00  0.00     0.000 C 
ENDROOT
BRANCH   1   2
ATOM      2  C   UNL     1      22.562  54.839  30.620  1.00  0.00     0.000 C 
BRANCH   2   3
ATOM      3  C   UNL     1      21.598  55.123  29.455  1.00  0.00     0.000 C 
BRANCH   3   4
ATOM      4  C   UNL     1      21.794  54.164  28.267  1.00  0.00     0.000 C 
BRANCH   4   5
ATOM      5  C   UNL     1      22.301  52.757  28.635  1.00  0.00     0.000 C 
BRANCH   5   6
ATOM      6  C   UNL     1      23.393  52.244  27.682  1.00  0.00     0.006 C 
BRANCH   6   7
ATOM      7  C   UNL     1      24.035  53.379  26.873  1.00  0.00     0.053 C 
BRANCH   7   8
ATOM      8  C   UNL     1      24.561  52.895  25.555  1.00  0.00     0.041 C 
ATOM      9  O   UNL     1      24.590  53.670  24.564  1.00  0.00    -0.550 OA
ATOM     10  O   UNL     1      24.993  51.583  25.417  1.00  0.00    -0.550 OA
ENDBRANCH   7   8
ENDBRANCH   6   7
ENDBRANCH   5   6
ENDBRANCH   4   5
ENDBRANCH   3   4
ENDBRANCH   2   3
ENDBRANCH   1   2
BRANCH   1  11
ATOM     11  C   UNL     1      20.880  54.481  32.515  1.00  0.00     0.000 C 
BRANCH  11  12
ATOM     12  C   UNL     1      21.301  54.511  33.989  1.00  0.00    -0.000 C 
BRANCH  12  13
ATOM     13  C   UNL     1      22.770  54.937  34.133  1.00  0.00    -0.000 C 
BRANCH  13  14
ATOM     14  C   UNL     1      23.568  54.001  35.054  1.00  0.00    -0.000 C 
BRANCH  14  15
ATOM     15  C   UNL     1      24.928  54.595  35.465  1.00  0.00    -0.000 C 
BRANCH  15  16
ATOM     16  C   UNL     1      25.735  55.122  34.265  1.00  0.00    -0.000 C 
BRANCH  16  17
ATOM     17  C   UNL     1      25.197  54.692  32.888  1.00  0.00    -0.003 C 
ATOM     18  C   UNL     1      26.207  54.902  31.761  1.00  0.00     0.004 C 
ENDBRANCH  16  17
ENDBRANCH  15  16
ENDBRANCH  14  15
ENDBRANCH  13  14
ENDBRANCH  12  13
ENDBRANCH  11  12
ENDBRANCH   1  11
TORSDOF 14
ENDMDL
MODEL 4
REMARK VINA RESULT:    -0.121     23.117     26.723
REMARK INTER + INTRA:           0.049
REMARK INTER:                   0.107
REMARK INTRA:                  -0.058
REMARK UNBOUND:                 0.268
REMARK SMILES CCCCCCCCCCCCCCCC(=O)[O-]
REMARK SMILES IDX 9 1 10 2 11 3 12 4 13 5 14 6 15 7 16 8 17 9 18 10 8 11 7 12
REMARK SMILES IDX 6 13 5 14 4 15 3 16 2 17 1 18
REMARK H PARENT
REMARK Flexibility Score: inf
ROOT
ATOM      1  C   UNL     1      37.918  35.035  18.591  1.00  0.00     0.000 C 
ENDROOT
BRANCH   1   2
ATOM      2  C   UNL     1      38.364  36.159  17.639  1.00  0.00     0.000 C 
BRANCH   2   3
ATOM      3  C   UNL     1      38.521  35.675  16.187  1.00  0.00     0.000 C 
BRANCH   3   4
ATOM      4  C   UNL     1      39.822  34.884  15.956  1.00  0.00     0.000 C 
BRANCH   4   5
ATOM      5  C   UNL     1      41.113  35.724  15.982  1.00  0.00     0.000 C 
BRANCH   5   6
ATOM      6  C   UNL     1      40.848  37.235  15.879  1.00  0.00     0.006 C 
BRANCH   6   7
ATOM      7  C   UNL     1      41.125  37.962  17.201  1.00  0.00     0.053 C 
BRANCH   7   8
ATOM      8  C   UNL     1      40.692  39.396  17.150  1.00  0.00     0.041 C 
ATOM      9  O   UNL     1      40.794  40.124  18.171  1.00  0.00    -0.550 OA
ATOM     10  O   UNL     1      40.153  39.920  15.981  1.00  0.00    -0.550 OA
ENDBRANCH   7   8
ENDBRANCH   6   7
ENDBRANCH   5   6
ENDBRANCH   4   5
ENDBRANCH   3   4
ENDBRANCH   2   3
ENDBRANCH   1   2
BRANCH   1  11
ATOM     11  C   UNL     1      38.751  34.986  19.881  1.00  0.00     0.000 C 
BRANCH  11  12
ATOM     12  C   UNL     1      37.846  34.997  21.119  1.00  0.00    -0.000 C 
BRANCH  12  13
ATOM     13  C   UNL     1      37.200  36.377  21.316  1.00  0.00    -0.000 C 
BRANCH  13  14
ATOM     14  C   UNL     1      38.118  37.527  20.876  1.00  0.00    -0.000 C 
BRANCH  14  15
ATOM     15  C   UNL     1      37.640  38.896  21.394  1.00  0.00    -0.000 C 
BRANCH  15  16
ATOM     16  C   UNL     1      36.718  39.620  20.398  1.00  0.00    -0.000 C 
BRANCH  16  17
ATOM     17  C   UNL     1      37.355  39.920  19.030  1.00  0.00    -0.003 C 
ATOM     18  C   UNL     1      38.392  41.041  19.087  1.00  0.00     0.004 C 
ENDBRANCH  16  17
ENDBRANCH  15  16
ENDBRANCH  14  15
ENDBRANCH  13  14
ENDBRANCH  12  13
ENDBRANCH  11  12
ENDBRANCH   1  11
TORSDOF 14
ENDMDL
MODEL 5
REMARK VINA RESULT:    -0.025     17.426     21.925
REMARK INTER + INTRA:           0.223
REMARK INTER:                   0.782
REMARK INTRA:                  -0.559
REMARK UNBOUND:                 0.268
REMARK SMILES CCCCCCCCCCCCCCCC(=O)[O-]
REMARK SMILES IDX 9 1 10 2 11 3 12 4 13 5 14 6 15 7 16 8 17 9 18 10 8 11 7 12
REMARK SMILES IDX 6 13 5 14 4 15 3 16 2 17 1 18
REMARK H PARENT
REMARK Flexibility Score: inf
ROOT
ATOM      1  C   UNL     1      41.125  44.642  22.341  1.00  0.00     0.000 C 
ENDROOT
BRANCH   1   2
ATOM      2  C   UNL     1      41.069  44.481  20.812  1.00  0.00     0.000 C 
BRANCH   2   3
ATOM      3  C   UNL     1      41.125  43.008  20.372  1.00  0.00     0.000 C 
BRANCH   3   4
ATOM      4  C   UNL     1      40.777  42.813  18.885  1.00  0.00     0.000 C 
BRANCH   4   5
ATOM      5  C   UNL     1      40.439  41.367  18.474  1.00  0.00     0.000 C 
BRANCH   5   6
ATOM      6  C   UNL     1      39.072  40.898  19.000  1.00  0.00     0.006 C 
BRANCH   6   7
ATOM      7  C   UNL     1      38.932  39.370  18.964  1.00  0.00     0.053 C 
BRANCH   7   8
ATOM      8  C   UNL     1      37.788  38.895  19.808  1.00  0.00     0.041 C 
ATOM      9  O   UNL     1      36.759  39.609  19.938  1.00  0.00    -0.550 OA
ATOM     10  O   UNL     1      37.870  37.678  20.472  1.00  0.00    -0.550 OA
ENDBRANCH   7   8
ENDBRANCH   6   7
ENDBRANCH   5   6
ENDBRANCH   4   5
ENDBRANCH   3   4
ENDBRANCH   2   3
ENDBRANCH   1   2
BRANCH   1  11
ATOM     11  C   UNL     1      39.976  45.502  22.889  1.00  0.00     0.000 C 
BRANCH  11  12
ATOM     12  C   UNL     1      39.909  45.419  24.418  1.00  0.00    -0.000 C 
BRANCH  12  13
ATOM     13  C   UNL     1      38.459  45.536  24.913  1.00  0.00    -0.000 C 
BRANCH  13  14
ATOM     14  C   UNL     1      37.486  45.948  23.798  1.00  0.00    -0.000 C 
BRANCH  14  15
ATOM     15  C   UNL     1      36.329  46.822  24.316  1.00  0.00    -0.000 C 
BRANCH  15  16
ATOM     16  C   UNL     1      35.043  46.659  23.488  1.00  0.00    -0.000 C 
BRANCH  16  17
ATOM     17  C   UNL     1      33.739  46.742  24.301  1.00  0.00    -0.003 C 
ATOM     18  C   UNL     1      33.331  45.403  24.914  1.00  0.00     0.004 C 
ENDBRANCH  16  17
ENDBRANCH  15  16
ENDBRANCH  14  15
ENDBRANCH  13  14
ENDBRANCH  12  13
ENDBRANCH  11  12
ENDBRANCH   1  11
TORSDOF 14
ENDMDL
MODEL 6
REMARK VINA RESULT:     1.871     19.154     23.727
REMARK INTER + INTRA:           3.670
REMARK INTER:                   3.664
REMARK INTRA:                   0.006
REMARK UNBOUND:                 0.268
REMARK SMILES CCCCCCCCCCCCCCCC(=O)[O-]
REMARK SMILES IDX 9 1 10 2 11 3 12 4 13 5 14 6 15 7 16 8 17 9 18 10 8 11 7 12
REMARK SMILES IDX 6 13 5 14 4 15 3 16 2 17 1 18
REMARK H PARENT
REMARK Flexibility Score: inf
ROOT
ATOM      1  C   UNL     1      41.032  43.519  20.668  1.00  0.00     0.000 C 
ENDROOT
BRANCH   1   2
ATOM      2  C   UNL     1      41.125  43.256  19.155  1.00  0.00     0.000 C 
BRANCH   2   3
ATOM      3  C   UNL     1      41.125  41.755  18.816  1.00  0.00     0.000 C 
BRANCH   3   4
ATOM      4  C   UNL     1      39.707  41.165  18.709  1.00  0.00     0.000 C 
BRANCH   4   5
ATOM      5  C   UNL     1      39.640  39.699  18.240  1.00  0.00     0.000 C 
BRANCH   5   6
ATOM      6  C   UNL     1      40.813  39.307  17.327  1.00  0.00     0.006 C 
BRANCH   6   7
ATOM      7  C   UNL     1      40.937  37.787  17.164  1.00  0.00     0.053 C 
BRANCH   7   8
ATOM      8  C   UNL     1      39.863  37.057  17.912  1.00  0.00     0.041 C 
ATOM      9  O   UNL     1      39.025  36.355  17.288  1.00  0.00    -0.550 OA
ATOM     10  O   UNL     1      39.773  37.174  19.293  1.00  0.00    -0.550 OA
ENDBRANCH   7   8
ENDBRANCH   6   7
ENDBRANCH   5   6
ENDBRANCH   4   5
ENDBRANCH   3   4
ENDBRANCH   2   3
ENDBRANCH   1   2
BRANCH   1  11
ATOM     11  C   UNL     1      41.070  45.016  21.011  1.00  0.00     0.000 C 
BRANCH  11  12
ATOM     12  C   UNL     1      40.985  45.233  22.527  1.00  0.00    -0.000 C 
BRANCH  12  13
ATOM     13  C   UNL     1      39.688  45.963  22.907  1.00  0.00    -0.000 C 
BRANCH  13  14
ATOM     14  C   UNL     1      38.971  45.310  24.099  1.00  0.00    -0.000 C 
BRANCH  14  15
ATOM     15  C   UNL     1      37.671  46.043  24.479  1.00  0.00    -0.000 C 
BRANCH  15  16
ATOM     16  C   UNL     1      36.898  46.559  23.253  1.00  0.00    -0.000 C 
BRANCH  16  17
ATOM     17  C   UNL     1      35.452  46.999  23.542  1.00  0.00    -0.003 C 
ATOM     18  C   UNL     1      34.811  46.227  24.694  1.00  0.00     0.004 C 
ENDBRANCH  16  17
ENDBRANCH  15  16
ENDBRANCH  14  15
ENDBRANCH  13  14
ENDBRANCH  12  13
ENDBRANCH  11  12
ENDBRANCH   1  11
TORSDOF 14
ENDMDL
