MODEL 1
REMARK VINA RESULT:    -4.914      0.000      0.000
REMARK INTER + INTRA:          -8.485
REMARK INTER:                  -7.499
REMARK INTRA:                  -0.986
REMARK UNBOUND:                -0.986
REMARK SMILES CCCCCCCCCCC(=O)[O-]
REMARK SMILES IDX 7 1 8 2 9 3 10 4 11 5 12 6 13 7 6 8 5 9 4 10 3 11 2 12 1 13
REMARK H PARENT
REMARK Flexibility Score: inf
ROOT
ATOM      1  C   UNL     1      10.440  36.688  23.779  1.00  0.00     0.000 C 
ENDROOT
BRANCH   1   2
ATOM      2  C   UNL     1      11.435  37.736  23.250  1.00  0.00     0.000 C 
BRANCH   2   3
ATOM      3  C   UNL     1      12.813  37.143  22.922  1.00  0.00     0.006 C 
BRANCH   3   4
ATOM      4  C   UNL     1      13.092  37.204  21.418  1.00  0.00     0.053 C 
BRANCH   4   5
ATOM      5  C   UNL     1      12.544  35.991  20.735  1.00  0.00     0.041 C 
ATOM      6  O   UNL     1      12.988  34.848  21.020  1.00  0.00    -0.550 OA
ATOM      7  O   UNL     1      11.509  36.119  19.818  1.00  0.00    -0.550 OA
ENDBRANCH   4   5
ENDBRANCH   3   4
ENDBRANCH   2   3
ENDBRANCH   1   2
BRANCH   1   8
ATOM      8  C   UNL     1       9.541  36.042  22.709  1.00  0.00     0.000 C 
BRANCH   8   9
ATOM      9  C   UNL     1       9.462  34.511  22.837  1.00  0.00    -0.000 C 
BRANCH   9  10
ATOM     10  C   UNL     1      10.812  33.883  23.221  1.00  0.00    -0.000 C 
BRANCH  10  11
ATOM     11  C   UNL     1      10.688  32.891  24.391  1.00  0.00    -0.000 C 
BRANCH  11  12
ATOM     12  C   UNL     1      11.447  33.360  25.642  1.00  0.00    -0.003 C 
ATOM     13  C   UNL     1      12.524  34.399  25.329  1.00  0.00     0.004 C 
ENDBRANCH  11  12
ENDBRANCH  10  11
ENDBRANCH   9  10
ENDBRANCH   8   9
ENDBRANCH   1   8
TORSDOF 9
ENDMDL
MODEL 2
REMARK VINA RESULT:    -4.756      3.389      4.469
REMARK INTER + INTRA:          -8.245
REMARK INTER:                  -7.682
REMARK INTRA:                  -0.563
REMARK UNBOUND:                -0.986
REMARK SMILES CCCCCCCCCCC(=O)[O-]
REMARK SMILES IDX 7 1 8 2 9 3 10 4 11 5 12 6 13 7 6 8 5 9 4 10 3 11 2 12 1 13
REMARK H PARENT
REMARK Flexibility Score: inf
ROOT
ATOM      1  C   UNL     1      11.684  37.274  23.012  1.00  0.00     0.000 C 
ENDROOT
BRANCH   1   2
ATOM      2  C   UNL     1      10.262  36.686  23.022  1.00  0.00     0.000 C 
BRANCH   2   3
ATOM      3  C   UNL     1       9.276  37.515  23.859  1.00  0.00     0.006 C 
BRANCH   3   4
ATOM      4  C   UNL     1      10.020  38.425  24.840  1.00  0.00     0.053 C 
BRANCH   4   5
ATOM      5  C   UNL     1       9.049  39.209  25.665  1.00  0.00     0.041 C 
ATOM      6  O   UNL     1       8.250  38.618  26.437  1.00  0.00    -0.550 OA
ATOM      7  O   UNL     1       9.061  40.597  25.618  1.00  0.00    -0.550 OA
ENDBRANCH   4   5
ENDBRANCH   3   4
ENDBRANCH   2   3
ENDBRANCH   1   2
BRANCH   1   8
ATOM      8  C   UNL     1      12.759  36.374  22.373  1.00  0.00     0.000 C 
BRANCH   8   9
ATOM      9  C   UNL     1      12.552  34.882  22.682  1.00  0.00    -0.000 C 
BRANCH   9  10
ATOM     10  C   UNL     1      12.750  34.556  24.172  1.00  0.00    -0.000 C 
BRANCH  10  11
ATOM     11  C   UNL     1      11.546  33.813  24.777  1.00  0.00    -0.000 C 
BRANCH  11  12
ATOM     12  C   UNL     1      10.491  33.446  23.721  1.00  0.00    -0.003 C 
ATOM     13  C   UNL     1      10.226  31.942  23.644  1.00  0.00     0.004 C 
ENDBRANCH  11  12
ENDBRANCH  10  11
ENDBRANCH   9  10
ENDBRANCH   8   9
ENDBRANCH   1   8
TORSDOF 9
ENDMDL
MODEL 3
REMARK VINA RESULT:    -4.740      3.446      5.063
REMARK INTER + INTRA:          -8.221
REMARK INTER:                  -7.672
REMARK INTRA:                  -0.548
REMARK UNBOUND:                -0.986
REMARK SMILES CCCCCCCCCCC(=O)[O-]
REMARK SMILES IDX 7 1 8 2 9 3 10 4 11 5 12 6 13 7 6 8 5 9 4 10 3 11 2 12 1 13
REMARK H PARENT
REMARK Flexibility Score: inf
ROOT
ATOM      1  C   UNL     1      10.146  35.165  23.142  1.00  0.00     0.000 C 
ENDROOT
BRANCH   1   2
ATOM      2  C   UNL     1       9.291  36.430  22.947  1.00  0.00     0.000 C 
BRANCH   2   3
ATOM      3  C   UNL     1       9.614  37.535  23.964  1.00  0.00     0.006 C 
BRANCH   3   4
ATOM      4  C   UNL     1       8.363  38.349  24.304  1.00  0.00     0.053 C 
BRANCH   4   5
ATOM      5  C   UNL     1       8.575  39.135  25.559  1.00  0.00     0.041 C 
ATOM      6  O   UNL     1       8.197  38.673  26.668  1.00  0.00    -0.550 OA
ATOM      7  O   UNL     1       9.234  40.357  25.511  1.00  0.00    -0.550 OA
ENDBRANCH   4   5
ENDBRANCH   3   4
ENDBRANCH   2   3
ENDBRANCH   1   2
BRANCH   1   8
ATOM      8  C   UNL     1      11.358  35.332  24.077  1.00  0.00     0.000 C 
BRANCH   8   9
ATOM      9  C   UNL     1      12.696  35.022  23.386  1.00  0.00    -0.000 C 
BRANCH   9  10
ATOM     10  C   UNL     1      12.584  35.038  21.852  1.00  0.00    -0.000 C 
BRANCH  10  11
ATOM     11  C   UNL     1      12.437  36.461  21.288  1.00  0.00    -0.000 C 
BRANCH  11  12
ATOM     12  C   UNL     1      13.538  37.409  21.790  1.00  0.00    -0.003 C 
ATOM     13  C   UNL     1      13.035  38.402  22.839  1.00  0.00     0.004 C 
ENDBRANCH  11  12
ENDBRANCH  10  11
ENDBRANCH   9  10
ENDBRANCH   8   9
ENDBRANCH   1   8
TORSDOF 9
ENDMDL
MODEL 4
REMARK VINA RESULT:    -4.722      2.167      4.617
REMARK INTER + INTRA:          -8.193
REMARK INTER:                  -7.169
REMARK INTRA:                  -1.024
REMARK UNBOUND:                -0.986
REMARK SMILES CCCCCCCCCCC(=O)[O-]
REMARK SMILES IDX 7 1 8 2 9 3 10 4 11 5 12 6 13 7 6 8 5 9 4 10 3 11 2 12 1 13
REMARK H PARENT
REMARK Flexibility Score: inf
ROOT
ATOM      1  C   UNL     1      10.009  35.662  22.521  1.00  0.00     0.000 C 
ENDROOT
BRANCH   1   2
ATOM      2  C   UNL     1       9.721  34.271  23.113  1.00  0.00     0.000 C 
BRANCH   2   3
ATOM      3  C   UNL     1      10.997  33.500  23.482  1.00  0.00     0.006 C 
BRANCH   3   4
ATOM      4  C   UNL     1      11.061  33.235  24.989  1.00  0.00     0.053 C 
BRANCH   4   5
ATOM      5  C   UNL     1      11.799  34.336  25.683  1.00  0.00     0.041 C 
ATOM      6  O   UNL     1      13.003  34.568  25.400  1.00  0.00    -0.550 OA
ATOM      7  O   UNL     1      11.141  35.137  26.607  1.00  0.00    -0.550 OA
ENDBRANCH   4   5
ENDBRANCH   3   4
ENDBRANCH   2   3
ENDBRANCH   1   2
BRANCH   1   8
ATOM      8  C   UNL     1       9.665  36.848  23.442  1.00  0.00     0.000 C 
BRANCH   8   9
ATOM      9  C   UNL     1      10.881  37.739  23.750  1.00  0.00    -0.000 C 
BRANCH   9  10
ATOM     10  C   UNL     1      12.214  37.057  23.400  1.00  0.00    -0.000 C 
BRANCH  10  11
ATOM     11  C   UNL     1      13.001  37.823  22.321  1.00  0.00    -0.000 C 
BRANCH  11  12
ATOM     12  C   UNL     1      13.229  36.984  21.054  1.00  0.00    -0.003 C 
ATOM     13  C   UNL     1      13.290  35.483  21.338  1.00  0.00     0.004 C 
ENDBRANCH  11  12
ENDBRANCH  10  11
ENDBRANCH   9  10
ENDBRANCH   8   9
ENDBRANCH   1   8
TORSDOF 9
ENDMDL
MODEL 5
REMARK VINA RESULT:    -4.447      2.301      4.544
REMARK INTER + INTRA:          -7.773
REMARK INTER:                  -6.617
REMARK INTRA:                  -1.156
REMARK UNBOUND:                -0.986
REMARK SMILES CCCCCCCCCCC(=O)[O-]
REMARK SMILES IDX 7 1 8 2 9 3 10 4 11 5 12 6 13 7 6 8 5 9 4 10 3 11 2 12 1 13
REMARK H PARENT
REMARK Flexibility Score: inf
ROOT
ATOM      1  C   UNL     1      10.861  37.059  24.052  1.00  0.00     0.000 C 
ENDROOT
BRANCH   1   2
ATOM      2  C   UNL     1       9.853  36.319  23.154  1.00  0.00     0.000 C 
BRANCH   2   3
ATOM      3  C   UNL     1      10.116  34.808  23.074  1.00  0.00     0.006 C 
BRANCH   3   4
ATOM      4  C   UNL     1      11.222  34.392  24.049  1.00  0.00     0.053 C 
BRANCH   4   5
ATOM      5  C   UNL     1      10.859  33.115  24.738  1.00  0.00     0.041 C 
ATOM      6  O   UNL     1      10.988  33.009  25.986  1.00  0.00    -0.550 OA
ATOM      7  O   UNL     1      10.332  32.057  24.008  1.00  0.00    -0.550 OA
ENDBRANCH   4   5
ENDBRANCH   3   4
ENDBRANCH   2   3
ENDBRANCH   1   2
BRANCH   1   8
ATOM      8  C   UNL     1      11.520  38.295  23.414  1.00  0.00     0.000 C 
BRANCH   8   9
ATOM      9  C   UNL     1      13.004  38.074  23.073  1.00  0.00    -0.000 C 
BRANCH   9  10
ATOM     10  C   UNL     1      13.199  37.409  21.700  1.00  0.00    -0.000 C 
BRANCH  10  11
ATOM     11  C   UNL     1      13.573  35.921  21.816  1.00  0.00    -0.000 C 
BRANCH  11  12
ATOM     12  C   UNL     1      12.746  35.032  20.873  1.00  0.00    -0.003 C 
ATOM     13  C   UNL     1      11.794  35.833  19.984  1.00  0.00     0.004 C 
ENDBRANCH  11  12
ENDBRANCH  10  11
ENDBRANCH   9  10
ENDBRANCH   8   9
ENDBRANCH   1   8
TORSDOF 9
ENDMDL
MODEL 6
REMARK VINA RESULT:    -4.405      2.602      4.668
REMARK INTER + INTRA:          -7.708
REMARK INTER:                  -7.198
REMARK INTRA:                  -0.510
REMARK UNBOUND:                -0.986
REMARK SMILES CCCCCCCCCCC(=O)[O-]
REMARK SMILES IDX 7 1 8 2 9 3 10 4 11 5 12 6 13 7 6 8 5 9 4 10 3 11 2 12 1 13
REMARK H PARENT
REMARK Flexibility Score: inf
ROOT
ATOM      1  C   UNL     1      12.754  36.876  21.642  1.00  0.00     0.000 C 
ENDROOT
BRANCH   1   2
ATOM      2  C   UNL     1      13.106  35.387  21.811  1.00  0.00     0.000 C 
BRANCH   2   3
ATOM      3  C   UNL     1      12.701  34.826  23.182  1.00  0.00     0.006 C 
BRANCH   3   4
ATOM      4  C   UNL     1      11.477  33.915  23.062  1.00  0.00     0.053 C 
BRANCH   4   5
ATOM      5  C   UNL     1      11.009  33.485  24.417  1.00  0.00     0.041 C 
ATOM      6  O   UNL     1      10.493  32.348  24.578  1.00  0.00    -0.550 OA
ATOM      7  O   UNL     1      11.187  34.321  25.511  1.00  0.00    -0.550 OA
ENDBRANCH   4   5
ENDBRANCH   3   4
ENDBRANCH   2   3
ENDBRANCH   1   2
BRANCH   1   8
ATOM      8  C   UNL     1      12.957  37.742  22.899  1.00  0.00     0.000 C 
BRANCH   8   9
ATOM      9  C   UNL     1      11.655  38.397  23.392  1.00  0.00    -0.000 C 
BRANCH   9  10
ATOM     10  C   UNL     1      10.565  37.364  23.722  1.00  0.00    -0.000 C 
BRANCH  10  11
ATOM     11  C   UNL     1       9.272  38.018  24.239  1.00  0.00    -0.000 C 
BRANCH  11  12
ATOM     12  C   UNL     1       9.543  39.100  25.296  1.00  0.00    -0.003 C 
ATOM     13  C   UNL     1       8.262  39.641  25.934  1.00  0.00     0.004 C 
ENDBRANCH  11  12
ENDBRANCH  10  11
ENDBRANCH   9  10
ENDBRANCH   8   9
ENDBRANCH   1   8
TORSDOF 9
ENDMDL
MODEL 7
REMARK VINA RESULT:    -4.401      0.858      1.425
REMARK INTER + INTRA:          -7.702
REMARK INTER:                  -6.613
REMARK INTRA:                  -1.089
REMARK UNBOUND:                -0.986
REMARK SMILES CCCCCCCCCCC(=O)[O-]
REMARK SMILES IDX 7 1 8 2 9 3 10 4 11 5 12 6 13 7 6 8 5 9 4 10 3 11 2 12 1 13
REMARK H PARENT
REMARK Flexibility Score: inf
ROOT
ATOM      1  C   UNL     1       9.563  36.169  22.587  1.00  0.00     0.000 C 
ENDROOT
BRANCH   1   2
ATOM      2  C   UNL     1      10.389  36.852  23.691  1.00  0.00     0.000 C 
BRANCH   2   3
ATOM      3  C   UNL     1      11.557  37.683  23.140  1.00  0.00     0.006 C 
BRANCH   3   4
ATOM      4  C   UNL     1      12.803  36.815  22.945  1.00  0.00     0.053 C 
BRANCH   4   5
ATOM      5  C   UNL     1      13.043  36.562  21.490  1.00  0.00     0.041 C 
ATOM      6  O   UNL     1      12.982  35.391  21.032  1.00  0.00    -0.550 OA
ATOM      7  O   UNL     1      13.286  37.626  20.631  1.00  0.00    -0.550 OA
ENDBRANCH   4   5
ENDBRANCH   3   4
ENDBRANCH   2   3
ENDBRANCH   1   2
BRANCH   1   8
ATOM      8  C   UNL     1       9.341  34.657  22.777  1.00  0.00     0.000 C 
BRANCH   8   9
ATOM      9  C   UNL     1      10.650  33.884  23.012  1.00  0.00    -0.000 C 
BRANCH   9  10
ATOM     10  C   UNL     1      10.469  32.695  23.970  1.00  0.00    -0.000 C 
BRANCH  10  11
ATOM     11  C   UNL     1      11.235  32.883  25.291  1.00  0.00    -0.000 C 
BRANCH  11  12
ATOM     12  C   UNL     1      12.279  34.008  25.211  1.00  0.00    -0.003 C 
ATOM     13  C   UNL     1      12.044  35.111  26.243  1.00  0.00     0.004 C 
ENDBRANCH  11  12
ENDBRANCH  10  11
ENDBRANCH   9  10
ENDBRANCH   8   9
ENDBRANCH   1   8
TORSDOF 9
ENDMDL
MODEL 8
REMARK VINA RESULT:    -4.387      2.105      3.368
REMARK INTER + INTRA:          -7.682
REMARK INTER:                  -7.028
REMARK INTRA:                  -0.654
REMARK UNBOUND:                -0.986
REMARK SMILES CCCCCCCCCCC(=O)[O-]
REMARK SMILES IDX 7 1 8 2 9 3 10 4 11 5 12 6 13 7 6 8 5 9 4 10 3 11 2 12 1 13
REMARK H PARENT
REMARK Flexibility Score: inf
ROOT
ATOM      1  C   UNL     1      12.630  35.153  24.193  1.00  0.00     0.000 C 
ENDROOT
BRANCH   1   2
ATOM      2  C   UNL     1      12.953  35.059  22.691  1.00  0.00     0.000 C 
BRANCH   2   3
ATOM      3  C   UNL     1      12.277  36.162  21.862  1.00  0.00     0.006 C 
BRANCH   3   4
ATOM      4  C   UNL     1      13.208  37.365  21.687  1.00  0.00     0.053 C 
BRANCH   4   5
ATOM      5  C   UNL     1      13.007  38.349  22.796  1.00  0.00     0.041 C 
ATOM      6  O   UNL     1      13.959  39.079  23.176  1.00  0.00    -0.550 OA
ATOM      7  O   UNL     1      11.753  38.495  23.376  1.00  0.00    -0.550 OA
ENDBRANCH   4   5
ENDBRANCH   3   4
ENDBRANCH   2   3
ENDBRANCH   1   2
BRANCH   1   8
ATOM      8  C   UNL     1      12.392  33.803  24.896  1.00  0.00     0.000 C 
BRANCH   8   9
ATOM      9  C   UNL     1      10.912  33.386  24.906  1.00  0.00    -0.000 C 
BRANCH   9  10
ATOM     10  C   UNL     1      10.525  32.558  23.669  1.00  0.00    -0.000 C 
BRANCH  10  11
ATOM     11  C   UNL     1       9.315  33.145  22.923  1.00  0.00    -0.000 C 
BRANCH  11  12
ATOM     12  C   UNL     1       9.369  34.678  22.829  1.00  0.00    -0.003 C 
ATOM     13  C   UNL     1       8.370  35.247  21.822  1.00  0.00     0.004 C 
ENDBRANCH  11  12
ENDBRANCH  10  11
ENDBRANCH   9  10
ENDBRANCH   8   9
ENDBRANCH   1   8
TORSDOF 9
ENDMDL
MODEL 9
REMARK VINA RESULT:    -4.324     16.218     17.724
REMARK INTER + INTRA:          -7.585
REMARK INTER:                  -7.290
REMARK INTRA:                  -0.295
REMARK UNBOUND:                -0.986
REMARK SMILES CCCCCCCCCCC(=O)[O-]
REMARK SMILES IDX 7 1 8 2 9 3 10 4 11 5 12 6 13 7 6 8 5 9 4 10 3 11 2 12 1 13
REMARK H PARENT
REMARK Flexibility Score: inf
ROOT
ATOM      1  C   UNL     1      26.363  26.033  22.416  1.00  0.00     0.000 C 
ENDROOT
BRANCH   1   2
ATOM      2  C   UNL     1      24.926  25.897  21.881  1.00  0.00     0.000 C 
BRANCH   2   3
ATOM      3  C   UNL     1      24.781  24.791  20.825  1.00  0.00     0.006 C 
BRANCH   3   4
ATOM      4  C   UNL     1      25.859  23.719  21.002  1.00  0.00     0.053 C 
BRANCH   4   5
ATOM      5  C   UNL     1      26.739  23.655  19.794  1.00  0.00     0.041 C 
ATOM      6  O   UNL     1      26.815  24.640  19.013  1.00  0.00    -0.550 OA
ATOM      7  O   UNL     1      27.512  22.526  19.556  1.00  0.00    -0.550 OA
ENDBRANCH   4   5
ENDBRANCH   3   4
ENDBRANCH   2   3
ENDBRANCH   1   2
BRANCH   1   8
ATOM      8  C   UNL     1      26.524  26.973  23.625  1.00  0.00     0.000 C 
BRANCH   8   9
ATOM      9  C   UNL     1      26.621  28.454  23.224  1.00  0.00    -0.000 C 
BRANCH   9  10
ATOM     10  C   UNL     1      25.859  29.377  24.191  1.00  0.00    -0.000 C 
BRANCH  10  11
ATOM     11  C   UNL     1      26.801  30.284  25.002  1.00  0.00    -0.000 C 
BRANCH  11  12
ATOM     12  C   UNL     1      26.138  31.613  25.400  1.00  0.00    -0.003 C 
ATOM     13  C   UNL     1      27.004  32.449  26.343  1.00  0.00     0.004 C 
ENDBRANCH  11  12
ENDBRANCH  10  11
ENDBRANCH   9  10
ENDBRANCH   8   9
ENDBRANCH   1   8
TORSDOF 9
ENDMDL
