MODEL 1
REMARK VINA RESULT:    -5.598      0.000      0.000
REMARK INTER + INTRA:         -15.122
REMARK INTER:                 -12.143
REMARK INTRA:                  -2.979
REMARK UNBOUND:                -2.979
REMARK SMILES CCCCCCCCCCCCCCCCCCCCCC(=O)[O-]
REMARK SMILES IDX 12 1 11 2 10 3 9 4 8 5 7 6 6 7 5 8 4 9 3 10 2 11 1 12 13 13
REMARK SMILES IDX 14 14 15 15 16 16 17 17 18 18 19 19 20 20 21 21 22 22 23 23
REMARK SMILES IDX 24 24
REMARK H PARENT
REMARK Flexibility Score: inf
ROOT
ATOM      1  C   UNL     1     -21.158  55.306  -3.188  1.00  0.00     0.000 C 
ENDROOT
BRANCH   1   2
ATOM      2  C   UNL     1     -20.354  56.614  -3.139  1.00  0.00     0.000 C 
BRANCH   2   3
ATOM      3  C   UNL     1     -18.869  56.411  -3.479  1.00  0.00     0.000 C 
BRANCH   3   4
ATOM      4  C   UNL     1     -18.468  54.929  -3.535  1.00  0.00    -0.000 C 
BRANCH   4   5
ATOM      5  C   UNL     1     -17.596  54.549  -2.329  1.00  0.00    -0.000 C 
BRANCH   5   6
ATOM      6  C   UNL     1     -18.426  54.178  -1.089  1.00  0.00    -0.000 C 
BRANCH   6   7
ATOM      7  C   UNL     1     -18.331  55.232   0.025  1.00  0.00    -0.000 C 
BRANCH   7   8
ATOM      8  C   UNL     1     -16.872  55.656   0.253  1.00  0.00    -0.000 C 
BRANCH   8   9
ATOM      9  C   UNL     1     -16.591  57.097  -0.203  1.00  0.00    -0.000 C 
BRANCH   9  10
ATOM     10  C   UNL     1     -16.348  58.102   0.937  1.00  0.00    -0.000 C 
BRANCH  10  11
ATOM     11  C   UNL     1     -15.386  59.250   0.562  1.00  0.00    -0.003 C 
ATOM     12  C   UNL     1     -14.007  59.091   1.202  1.00  0.00     0.004 C 
ENDBRANCH  10  11
ENDBRANCH   9  10
ENDBRANCH   8   9
ENDBRANCH   7   8
ENDBRANCH   6   7
ENDBRANCH   5   6
ENDBRANCH   4   5
ENDBRANCH   3   4
ENDBRANCH   2   3
ENDBRANCH   1   2
BRANCH   1  13
ATOM     13  C   UNL     1     -22.619  55.545  -2.776  1.00  0.00     0.000 C 
BRANCH  13  14
ATOM     14  C   UNL     1     -23.182  54.417  -1.896  1.00  0.00     0.000 C 
BRANCH  14  15
ATOM     15  C   UNL     1     -22.088  53.698  -1.088  1.00  0.00     0.000 C 
BRANCH  15  16
ATOM     16  C   UNL     1     -22.424  53.603   0.409  1.00  0.00     0.000 C 
BRANCH  16  17
ATOM     17  C   UNL     1     -23.715  54.352   0.776  1.00  0.00     0.000 C 
BRANCH  17  18
ATOM     18  C   UNL     1     -23.410  55.566   1.666  1.00  0.00     0.000 C 
BRANCH  18  19
ATOM     19  C   UNL     1     -23.326  56.885   0.877  1.00  0.00     0.000 C 
BRANCH  19  20
ATOM     20  C   UNL     1     -21.905  57.294   0.438  1.00  0.00     0.006 C 
BRANCH  20  21
ATOM     21  C   UNL     1     -20.990  57.751   1.585  1.00  0.00     0.053 C 
BRANCH  21  22
ATOM     22  C   UNL     1     -21.494  58.999   2.242  1.00  0.00     0.041 C 
ATOM     23  O   UNL     1     -21.749  59.005   3.475  1.00  0.00    -0.550 OA
ATOM     24  O   UNL     1     -21.650  60.163   1.502  1.00  0.00    -0.550 OA
ENDBRANCH  21  22
ENDBRANCH  20  21
ENDBRANCH  19  20
ENDBRANCH  18  19
ENDBRANCH  17  18
ENDBRANCH  16  17
ENDBRANCH  15  16
ENDBRANCH  14  15
ENDBRANCH  13  14
ENDBRANCH   1  13
TORSDOF 20
ENDMDL
MODEL 2
REMARK VINA RESULT:    -5.561      2.420      5.387
REMARK INTER + INTRA:         -15.042
REMARK INTER:                 -11.367
REMARK INTRA:                  -3.675
REMARK UNBOUND:                -2.979
REMARK SMILES CCCCCCCCCCCCCCCCCCCCCC(=O)[O-]
REMARK SMILES IDX 12 1 11 2 10 3 9 4 8 5 7 6 6 7 5 8 4 9 3 10 2 11 1 12 13 13
REMARK SMILES IDX 14 14 15 15 16 16 17 17 18 18 19 19 20 20 21 21 22 22 23 23
REMARK SMILES IDX 24 24
REMARK H PARENT
REMARK Flexibility Score: inf
ROOT
ATOM      1  C   UNL     1     -16.806  54.378  -1.320  1.00  0.00     0.000 C 
ENDROOT
BRANCH   1   2
ATOM      2  C   UNL     1     -17.482  54.459  -2.696  1.00  0.00     0.000 C 
BRANCH   2   3
ATOM      3  C   UNL     1     -17.157  55.762  -3.442  1.00  0.00     0.000 C 
BRANCH   3   4
ATOM      4  C   UNL     1     -18.415  56.549  -3.842  1.00  0.00    -0.000 C 
BRANCH   4   5
ATOM      5  C   UNL     1     -19.679  55.897  -3.262  1.00  0.00    -0.000 C 
BRANCH   5   6
ATOM      6  C   UNL     1     -20.839  56.892  -3.099  1.00  0.00    -0.000 C 
BRANCH   6   7
ATOM      7  C   UNL     1     -22.173  56.201  -2.782  1.00  0.00    -0.000 C 
BRANCH   7   8
ATOM      8  C   UNL     1     -22.013  54.672  -2.793  1.00  0.00    -0.000 C 
BRANCH   8   9
ATOM      9  C   UNL     1     -22.327  54.030  -1.432  1.00  0.00    -0.000 C 
BRANCH   9  10
ATOM     10  C   UNL     1     -21.104  53.466  -0.685  1.00  0.00    -0.000 C 
BRANCH  10  11
ATOM     11  C   UNL     1     -20.287  52.447  -1.507  1.00  0.00    -0.003 C 
ATOM     12  C   UNL     1     -19.719  51.320  -0.644  1.00  0.00     0.004 C 
ENDBRANCH  10  11
ENDBRANCH   9  10
ENDBRANCH   8   9
ENDBRANCH   7   8
ENDBRANCH   6   7
ENDBRANCH   5   6
ENDBRANCH   4   5
ENDBRANCH   3   4
ENDBRANCH   2   3
ENDBRANCH   1   2
BRANCH   1  13
ATOM     13  C   UNL     1     -17.682  55.032  -0.240  1.00  0.00     0.000 C 
BRANCH  13  14
ATOM     14  C   UNL     1     -17.339  56.514  -0.012  1.00  0.00     0.000 C 
BRANCH  14  15
ATOM     15  C   UNL     1     -18.417  57.250   0.802  1.00  0.00     0.000 C 
BRANCH  15  16
ATOM     16  C   UNL     1     -19.831  56.710   0.534  1.00  0.00     0.000 C 
BRANCH  16  17
ATOM     17  C   UNL     1     -20.911  57.449   1.341  1.00  0.00     0.000 C 
BRANCH  17  18
ATOM     18  C   UNL     1     -22.295  57.262   0.702  1.00  0.00     0.000 C 
BRANCH  18  19
ATOM     19  C   UNL     1     -23.261  56.449   1.584  1.00  0.00     0.000 C 
BRANCH  19  20
ATOM     20  C   UNL     1     -24.232  55.531   0.814  1.00  0.00     0.006 C 
BRANCH  20  21
ATOM     21  C   UNL     1     -25.477  56.241   0.259  1.00  0.00     0.053 C 
BRANCH  21  22
ATOM     22  C   UNL     1     -25.575  56.118  -1.231  1.00  0.00     0.041 C 
ATOM     23  O   UNL     1     -25.739  54.988  -1.762  1.00  0.00    -0.550 OA
ATOM     24  O   UNL     1     -25.522  57.252  -2.030  1.00  0.00    -0.550 OA
ENDBRANCH  21  22
ENDBRANCH  20  21
ENDBRANCH  19  20
ENDBRANCH  18  19
ENDBRANCH  17  18
ENDBRANCH  16  17
ENDBRANCH  15  16
ENDBRANCH  14  15
ENDBRANCH  13  14
ENDBRANCH   1  13
TORSDOF 20
ENDMDL
MODEL 3
REMARK VINA RESULT:    -5.476      2.400      4.652
REMARK INTER + INTRA:         -14.856
REMARK INTER:                 -11.446
REMARK INTRA:                  -3.410
REMARK UNBOUND:                -2.979
REMARK SMILES CCCCCCCCCCCCCCCCCCCCCC(=O)[O-]
REMARK SMILES IDX 12 1 11 2 10 3 9 4 8 5 7 6 6 7 5 8 4 9 3 10 2 11 1 12 13 13
REMARK SMILES IDX 14 14 15 15 16 16 17 17 18 18 19 19 20 20 21 21 22 22 23 23
REMARK SMILES IDX 24 24
REMARK H PARENT
REMARK Flexibility Score: inf
ROOT
ATOM      1  C   UNL     1     -22.500  53.883  -0.180  1.00  0.00     0.000 C 
ENDROOT
BRANCH   1   2
ATOM      2  C   UNL     1     -21.318  53.039   0.318  1.00  0.00     0.000 C 
BRANCH   2   3
ATOM      3  C   UNL     1     -20.080  53.160  -0.585  1.00  0.00     0.000 C 
BRANCH   3   4
ATOM      4  C   UNL     1     -20.358  52.732  -2.035  1.00  0.00    -0.000 C 
BRANCH   4   5
ATOM      5  C   UNL     1     -19.978  53.848  -3.020  1.00  0.00    -0.000 C 
BRANCH   5   6
ATOM      6  C   UNL     1     -20.753  55.151  -2.769  1.00  0.00    -0.000 C 
BRANCH   6   7
ATOM      7  C   UNL     1     -19.989  56.397  -3.242  1.00  0.00    -0.000 C 
BRANCH   7   8
ATOM      8  C   UNL     1     -18.630  56.008  -3.845  1.00  0.00    -0.000 C 
BRANCH   8   9
ATOM      9  C   UNL     1     -17.463  56.817  -3.255  1.00  0.00    -0.000 C 
BRANCH   9  10
ATOM     10  C   UNL     1     -16.370  55.974  -2.573  1.00  0.00    -0.000 C 
BRANCH  10  11
ATOM     11  C   UNL     1     -16.860  54.593  -2.089  1.00  0.00    -0.003 C 
ATOM     12  C   UNL     1     -16.226  54.179  -0.761  1.00  0.00     0.004 C 
ENDBRANCH  10  11
ENDBRANCH   9  10
ENDBRANCH   8   9
ENDBRANCH   7   8
ENDBRANCH   6   7
ENDBRANCH   5   6
ENDBRANCH   4   5
ENDBRANCH   3   4
ENDBRANCH   2   3
ENDBRANCH   1   2
BRANCH   1  13
ATOM     13  C   UNL     1     -23.534  54.090   0.938  1.00  0.00     0.000 C 
BRANCH  13  14
ATOM     14  C   UNL     1     -23.343  55.419   1.687  1.00  0.00     0.000 C 
BRANCH  14  15
ATOM     15  C   UNL     1     -22.678  56.498   0.814  1.00  0.00     0.000 C 
BRANCH  15  16
ATOM     16  C   UNL     1     -22.057  57.631   1.647  1.00  0.00     0.000 C 
BRANCH  16  17
ATOM     17  C   UNL     1     -20.526  57.692   1.519  1.00  0.00     0.000 C 
BRANCH  17  18
ATOM     18  C   UNL     1     -20.020  56.657   0.504  1.00  0.00     0.000 C 
BRANCH  18  19
ATOM     19  C   UNL     1     -18.488  56.504   0.513  1.00  0.00     0.000 C 
BRANCH  19  20
ATOM     20  C   UNL     1     -17.702  57.821   0.680  1.00  0.00     0.006 C 
BRANCH  20  21
ATOM     21  C   UNL     1     -16.334  57.665   1.363  1.00  0.00     0.053 C 
BRANCH  21  22
ATOM     22  C   UNL     1     -15.270  58.466   0.677  1.00  0.00     0.041 C 
ATOM     23  O   UNL     1     -14.335  58.978   1.346  1.00  0.00    -0.550 OA
ATOM     24  O   UNL     1     -15.291  58.617  -0.703  1.00  0.00    -0.550 OA
ENDBRANCH  21  22
ENDBRANCH  20  21
ENDBRANCH  19  20
ENDBRANCH  18  19
ENDBRANCH  17  18
ENDBRANCH  16  17
ENDBRANCH  15  16
ENDBRANCH  14  15
ENDBRANCH  13  14
ENDBRANCH   1  13
TORSDOF 20
ENDMDL
MODEL 4
REMARK VINA RESULT:    -5.473      2.350      4.685
REMARK INTER + INTRA:         -14.850
REMARK INTER:                 -11.996
REMARK INTRA:                  -2.855
REMARK UNBOUND:                -2.979
REMARK SMILES CCCCCCCCCCCCCCCCCCCCCC(=O)[O-]
REMARK SMILES IDX 12 1 11 2 10 3 9 4 8 5 7 6 6 7 5 8 4 9 3 10 2 11 1 12 13 13
REMARK SMILES IDX 14 14 15 15 16 16 17 17 18 18 19 19 20 20 21 21 22 22 23 23
REMARK SMILES IDX 24 24
REMARK H PARENT
REMARK Flexibility Score: inf
ROOT
ATOM      1  C   UNL     1     -25.238  56.418   0.044  1.00  0.00     0.000 C 
ENDROOT
BRANCH   1   2
ATOM      2  C   UNL     1     -24.168  57.495   0.276  1.00  0.00     0.000 C 
BRANCH   2   3
ATOM      3  C   UNL     1     -23.335  57.240   1.542  1.00  0.00     0.000 C 
BRANCH   3   4
ATOM      4  C   UNL     1     -21.888  56.826   1.229  1.00  0.00    -0.000 C 
BRANCH   4   5
ATOM      5  C   UNL     1     -20.896  57.908   1.679  1.00  0.00    -0.000 C 
BRANCH   5   6
ATOM      6  C   UNL     1     -19.480  57.684   1.125  1.00  0.00    -0.000 C 
BRANCH   6   7
ATOM      7  C   UNL     1     -19.351  56.370   0.342  1.00  0.00    -0.000 C 
BRANCH   7   8
ATOM      8  C   UNL     1     -17.874  55.987   0.155  1.00  0.00    -0.000 C 
BRANCH   8   9
ATOM      9  C   UNL     1     -16.914  56.947   0.877  1.00  0.00    -0.000 C 
BRANCH   9  10
ATOM     10  C   UNL     1     -16.020  57.789  -0.052  1.00  0.00    -0.000 C 
BRANCH  10  11
ATOM     11  C   UNL     1     -15.548  59.118   0.575  1.00  0.00    -0.003 C 
ATOM     12  C   UNL     1     -14.165  59.005   1.216  1.00  0.00     0.004 C 
ENDBRANCH  10  11
ENDBRANCH   9  10
ENDBRANCH   8   9
ENDBRANCH   7   8
ENDBRANCH   6   7
ENDBRANCH   5   6
ENDBRANCH   4   5
ENDBRANCH   3   4
ENDBRANCH   2   3
ENDBRANCH   1   2
BRANCH   1  13
ATOM     13  C   UNL     1     -24.786  55.420  -1.034  1.00  0.00     0.000 C 
BRANCH  13  14
ATOM     14  C   UNL     1     -23.706  55.996  -1.964  1.00  0.00     0.000 C 
BRANCH  14  15
ATOM     15  C   UNL     1     -22.447  55.113  -2.023  1.00  0.00     0.000 C 
BRANCH  15  16
ATOM     16  C   UNL     1     -22.616  53.791  -1.257  1.00  0.00     0.000 C 
BRANCH  16  17
ATOM     17  C   UNL     1     -21.342  53.374  -0.505  1.00  0.00     0.000 C 
BRANCH  17  18
ATOM     18  C   UNL     1     -20.435  52.515  -1.399  1.00  0.00     0.000 C 
BRANCH  18  19
ATOM     19  C   UNL     1     -19.168  53.258  -1.862  1.00  0.00     0.000 C 
BRANCH  19  20
ATOM     20  C   UNL     1     -19.289  53.969  -3.225  1.00  0.00     0.006 C 
BRANCH  20  21
ATOM     21  C   UNL     1     -18.096  54.870  -3.582  1.00  0.00     0.053 C 
BRANCH  21  22
ATOM     22  C   UNL     1     -18.464  56.321  -3.562  1.00  0.00     0.041 C 
ATOM     23  O   UNL     1     -19.675  56.667  -3.578  1.00  0.00    -0.550 OA
ATOM     24  O   UNL     1     -17.473  57.291  -3.489  1.00  0.00    -0.550 OA
ENDBRANCH  21  22
ENDBRANCH  20  21
ENDBRANCH  19  20
ENDBRANCH  18  19
ENDBRANCH  17  18
ENDBRANCH  16  17
ENDBRANCH  15  16
ENDBRANCH  14  15
ENDBRANCH  13  14
ENDBRANCH   1  13
TORSDOF 20
ENDMDL
MODEL 5
REMARK VINA RESULT:    -5.412      2.405      5.056
REMARK INTER + INTRA:         -14.719
REMARK INTER:                 -11.725
REMARK INTRA:                  -2.994
REMARK UNBOUND:                -2.979
REMARK SMILES CCCCCCCCCCCCCCCCCCCCCC(=O)[O-]
REMARK SMILES IDX 12 1 11 2 10 3 9 4 8 5 7 6 6 7 5 8 4 9 3 10 2 11 1 12 13 13
REMARK SMILES IDX 14 14 15 15 16 16 17 17 18 18 19 19 20 20 21 21 22 22 23 23
REMARK SMILES IDX 24 24
REMARK H PARENT
REMARK Flexibility Score: inf
ROOT
ATOM      1  C   UNL     1     -25.800  55.451  -0.533  1.00  0.00     0.000 C 
ENDROOT
BRANCH   1   2
ATOM      2  C   UNL     1     -25.144  55.928  -1.836  1.00  0.00     0.000 C 
BRANCH   2   3
ATOM      3  C   UNL     1     -24.262  54.851  -2.486  1.00  0.00     0.000 C 
BRANCH   3   4
ATOM      4  C   UNL     1     -22.919  55.404  -2.988  1.00  0.00    -0.000 C 
BRANCH   4   5
ATOM      5  C   UNL     1     -21.784  55.058  -2.012  1.00  0.00    -0.000 C 
BRANCH   5   6
ATOM      6  C   UNL     1     -21.999  53.712  -1.302  1.00  0.00    -0.000 C 
BRANCH   6   7
ATOM      7  C   UNL     1     -20.693  52.930  -1.103  1.00  0.00    -0.000 C 
BRANCH   7   8
ATOM      8  C   UNL     1     -19.889  52.867  -2.411  1.00  0.00    -0.000 C 
BRANCH   8   9
ATOM      9  C   UNL     1     -18.643  53.767  -2.390  1.00  0.00    -0.000 C 
BRANCH   9  10
ATOM     10  C   UNL     1     -18.486  54.686  -3.615  1.00  0.00    -0.000 C 
BRANCH  10  11
ATOM     11  C   UNL     1     -18.582  56.190  -3.282  1.00  0.00    -0.003 C 
ATOM     12  C   UNL     1     -17.220  56.883  -3.302  1.00  0.00     0.004 C 
ENDBRANCH  10  11
ENDBRANCH   9  10
ENDBRANCH   8   9
ENDBRANCH   7   8
ENDBRANCH   6   7
ENDBRANCH   5   6
ENDBRANCH   4   5
ENDBRANCH   3   4
ENDBRANCH   2   3
ENDBRANCH   1   2
BRANCH   1  13
ATOM     13  C   UNL     1     -24.778  55.417   0.615  1.00  0.00     0.000 C 
BRANCH  13  14
ATOM     14  C   UNL     1     -23.939  56.703   0.703  1.00  0.00     0.000 C 
BRANCH  14  15
ATOM     15  C   UNL     1     -22.490  56.432   1.143  1.00  0.00     0.000 C 
BRANCH  15  16
ATOM     16  C   UNL     1     -21.775  57.701   1.635  1.00  0.00     0.000 C 
BRANCH  16  17
ATOM     17  C   UNL     1     -20.288  57.733   1.247  1.00  0.00     0.000 C 
BRANCH  17  18
ATOM     18  C   UNL     1     -19.878  56.433   0.541  1.00  0.00     0.000 C 
BRANCH  18  19
ATOM     19  C   UNL     1     -18.354  56.294   0.372  1.00  0.00     0.000 C 
BRANCH  19  20
ATOM     20  C   UNL     1     -17.553  57.595   0.584  1.00  0.00     0.006 C 
BRANCH  20  21
ATOM     21  C   UNL     1     -16.060  57.383   0.880  1.00  0.00     0.053 C 
BRANCH  21  22
ATOM     22  C   UNL     1     -15.295  58.671   0.859  1.00  0.00     0.041 C 
ATOM     23  O   UNL     1     -15.843  59.724   0.440  1.00  0.00    -0.550 OA
ATOM     24  O   UNL     1     -13.991  58.715   1.333  1.00  0.00    -0.550 OA
ENDBRANCH  21  22
ENDBRANCH  20  21
ENDBRANCH  19  20
ENDBRANCH  18  19
ENDBRANCH  17  18
ENDBRANCH  16  17
ENDBRANCH  15  16
ENDBRANCH  14  15
ENDBRANCH  13  14
ENDBRANCH   1  13
TORSDOF 20
ENDMDL
MODEL 6
REMARK VINA RESULT:    -5.384      2.769      3.597
REMARK INTER + INTRA:         -14.657
REMARK INTER:                 -11.663
REMARK INTRA:                  -2.993
REMARK UNBOUND:                -2.979
REMARK SMILES CCCCCCCCCCCCCCCCCCCCCC(=O)[O-]
REMARK SMILES IDX 12 1 11 2 10 3 9 4 8 5 7 6 6 7 5 8 4 9 3 10 2 11 1 12 13 13
REMARK SMILES IDX 14 14 15 15 16 16 17 17 18 18 19 19 20 20 21 21 22 22 23 23
REMARK SMILES IDX 24 24
REMARK H PARENT
REMARK Flexibility Score: inf
ROOT
ATOM      1  C   UNL     1     -19.582  56.659  -3.572  1.00  0.00     0.000 C 
ENDROOT
BRANCH   1   2
ATOM      2  C   UNL     1     -18.418  55.760  -4.014  1.00  0.00     0.000 C 
BRANCH   2   3
ATOM      3  C   UNL     1     -17.073  56.188  -3.406  1.00  0.00     0.000 C 
BRANCH   3   4
ATOM      4  C   UNL     1     -16.385  55.057  -2.627  1.00  0.00    -0.000 C 
BRANCH   4   5
ATOM      5  C   UNL     1     -17.385  54.331  -1.714  1.00  0.00    -0.000 C 
BRANCH   5   6
ATOM      6  C   UNL     1     -16.829  54.086  -0.301  1.00  0.00    -0.000 C 
BRANCH   6   7
ATOM      7  C   UNL     1     -17.676  54.752   0.793  1.00  0.00    -0.000 C 
BRANCH   7   8
ATOM      8  C   UNL     1     -18.073  56.179   0.384  1.00  0.00    -0.000 C 
BRANCH   8   9
ATOM      9  C   UNL     1     -17.148  57.251   0.983  1.00  0.00    -0.000 C 
BRANCH   9  10
ATOM     10  C   UNL     1     -15.881  57.547   0.161  1.00  0.00    -0.000 C 
BRANCH  10  11
ATOM     11  C   UNL     1     -15.410  59.014   0.247  1.00  0.00    -0.003 C 
ATOM     12  C   UNL     1     -14.183  59.183   1.144  1.00  0.00     0.004 C 
ENDBRANCH  10  11
ENDBRANCH   9  10
ENDBRANCH   8   9
ENDBRANCH   7   8
ENDBRANCH   6   7
ENDBRANCH   5   6
ENDBRANCH   4   5
ENDBRANCH   3   4
ENDBRANCH   2   3
ENDBRANCH   1   2
BRANCH   1  13
ATOM     13  C   UNL     1     -20.571  55.881  -2.690  1.00  0.00     0.000 C 
BRANCH  13  14
ATOM     14  C   UNL     1     -21.895  55.574  -3.408  1.00  0.00     0.000 C 
BRANCH  14  15
ATOM     15  C   UNL     1     -23.094  55.540  -2.445  1.00  0.00     0.000 C 
BRANCH  15  16
ATOM     16  C   UNL     1     -23.258  56.851  -1.659  1.00  0.00     0.000 C 
BRANCH  16  17
ATOM     17  C   UNL     1     -23.860  56.636  -0.262  1.00  0.00     0.000 C 
BRANCH  17  18
ATOM     18  C   UNL     1     -22.850  55.948   0.669  1.00  0.00     0.000 C 
BRANCH  18  19
ATOM     19  C   UNL     1     -23.314  54.557   1.138  1.00  0.00     0.000 C 
BRANCH  19  20
ATOM     20  C   UNL     1     -22.552  53.370   0.514  1.00  0.00     0.006 C 
BRANCH  20  21
ATOM     21  C   UNL     1     -21.150  53.718  -0.012  1.00  0.00     0.053 C 
BRANCH  21  22
ATOM     22  C   UNL     1     -20.551  52.593  -0.798  1.00  0.00     0.041 C 
ATOM     23  O   UNL     1     -20.798  52.479  -2.027  1.00  0.00    -0.550 OA
ATOM     24  O   UNL     1     -19.693  51.691  -0.182  1.00  0.00    -0.550 OA
ENDBRANCH  21  22
ENDBRANCH  20  21
ENDBRANCH  19  20
ENDBRANCH  18  19
ENDBRANCH  17  18
ENDBRANCH  16  17
ENDBRANCH  15  16
ENDBRANCH  14  15
ENDBRANCH  13  14
ENDBRANCH   1  13
TORSDOF 20
ENDMDL
MODEL 7
REMARK VINA RESULT:    -5.342      2.687      5.743
REMARK INTER + INTRA:         -14.566
REMARK INTER:                 -11.632
REMARK INTRA:                  -2.934
REMARK UNBOUND:                -2.979
REMARK SMILES CCCCCCCCCCCCCCCCCCCCCC(=O)[O-]
REMARK SMILES IDX 12 1 11 2 10 3 9 4 8 5 7 6 6 7 5 8 4 9 3 10 2 11 1 12 13 13
REMARK SMILES IDX 14 14 15 15 16 16 17 17 18 18 19 19 20 20 21 21 22 22 23 23
REMARK SMILES IDX 24 24
REMARK H PARENT
REMARK Flexibility Score: inf
ROOT
ATOM      1  C   UNL     1     -17.301  54.453  -2.186  1.00  0.00     0.000 C 
ENDROOT
BRANCH   1   2
ATOM      2  C   UNL     1     -16.272  54.374  -1.049  1.00  0.00     0.000 C 
BRANCH   2   3
ATOM      3  C   UNL     1     -16.742  55.088   0.228  1.00  0.00     0.000 C 
BRANCH   3   4
ATOM      4  C   UNL     1     -16.331  56.568   0.268  1.00  0.00    -0.000 C 
BRANCH   4   5
ATOM      5  C   UNL     1     -17.484  57.445   0.780  1.00  0.00    -0.000 C 
BRANCH   5   6
ATOM      6  C   UNL     1     -18.864  56.808   0.547  1.00  0.00    -0.000 C 
BRANCH   6   7
ATOM      7  C   UNL     1     -19.996  57.572   1.247  1.00  0.00    -0.000 C 
BRANCH   7   8
ATOM      8  C   UNL     1     -21.359  56.930   0.944  1.00  0.00    -0.000 C 
BRANCH   8   9
ATOM      9  C   UNL     1     -22.530  57.912   1.104  1.00  0.00    -0.000 C 
BRANCH   9  10
ATOM     10  C   UNL     1     -23.552  57.531   2.190  1.00  0.00    -0.000 C 
BRANCH  10  11
ATOM     11  C   UNL     1     -23.475  58.412   3.455  1.00  0.00    -0.003 C 
ATOM     12  C   UNL     1     -22.442  59.532   3.326  1.00  0.00     0.004 C 
ENDBRANCH  10  11
ENDBRANCH   9  10
ENDBRANCH   8   9
ENDBRANCH   7   8
ENDBRANCH   6   7
ENDBRANCH   5   6
ENDBRANCH   4   5
ENDBRANCH   3   4
ENDBRANCH   2   3
ENDBRANCH   1   2
BRANCH   1  13
ATOM     13  C   UNL     1     -16.917  55.543  -3.199  1.00  0.00     0.000 C 
BRANCH  13  14
ATOM     14  C   UNL     1     -18.141  56.239  -3.817  1.00  0.00     0.000 C 
BRANCH  14  15
ATOM     15  C   UNL     1     -19.356  56.244  -2.873  1.00  0.00     0.000 C 
BRANCH  15  16
ATOM     16  C   UNL     1     -20.656  56.651  -3.586  1.00  0.00     0.000 C 
BRANCH  16  17
ATOM     17  C   UNL     1     -21.885  56.577  -2.667  1.00  0.00     0.000 C 
BRANCH  17  18
ATOM     18  C   UNL     1     -22.620  55.240  -2.842  1.00  0.00     0.000 C 
BRANCH  18  19
ATOM     19  C   UNL     1     -23.169  54.676  -1.519  1.00  0.00     0.000 C 
BRANCH  19  20
ATOM     20  C   UNL     1     -22.169  53.828  -0.706  1.00  0.00     0.006 C 
BRANCH  20  21
ATOM     21  C   UNL     1     -21.147  53.058  -1.556  1.00  0.00     0.053 C 
BRANCH  21  22
ATOM     22  C   UNL     1     -20.103  52.393  -0.713  1.00  0.00     0.041 C 
ATOM     23  O   UNL     1     -19.527  53.037   0.203  1.00  0.00    -0.550 OA
ATOM     24  O   UNL     1     -19.791  51.055  -0.914  1.00  0.00    -0.550 OA
ENDBRANCH  21  22
ENDBRANCH  20  21
ENDBRANCH  19  20
ENDBRANCH  18  19
ENDBRANCH  17  18
ENDBRANCH  16  17
ENDBRANCH  15  16
ENDBRANCH  14  15
ENDBRANCH  13  14
ENDBRANCH   1  13
TORSDOF 20
ENDMDL
MODEL 8
REMARK VINA RESULT:    -5.336      2.720      5.009
REMARK INTER + INTRA:         -14.553
REMARK INTER:                 -11.029
REMARK INTRA:                  -3.525
REMARK UNBOUND:                -2.979
REMARK SMILES CCCCCCCCCCCCCCCCCCCCCC(=O)[O-]
REMARK SMILES IDX 12 1 11 2 10 3 9 4 8 5 7 6 6 7 5 8 4 9 3 10 2 11 1 12 13 13
REMARK SMILES IDX 14 14 15 15 16 16 17 17 18 18 19 19 20 20 21 21 22 22 23 23
REMARK SMILES IDX 24 24
REMARK H PARENT
REMARK Flexibility Score: inf
ROOT
ATOM      1  C   UNL     1     -17.146  56.088   0.471  1.00  0.00     0.000 C 
ENDROOT
BRANCH   1   2
ATOM      2  C   UNL     1     -17.430  54.603   0.737  1.00  0.00     0.000 C 
BRANCH   2   3
ATOM      3  C   UNL     1     -18.158  53.920  -0.431  1.00  0.00     0.000 C 
BRANCH   3   4
ATOM      4  C   UNL     1     -19.372  53.095   0.025  1.00  0.00    -0.000 C 
BRANCH   4   5
ATOM      5  C   UNL     1     -19.971  52.303  -1.148  1.00  0.00    -0.000 C 
BRANCH   5   6
ATOM      6  C   UNL     1     -21.157  53.024  -1.808  1.00  0.00    -0.000 C 
BRANCH   6   7
ATOM      7  C   UNL     1     -21.734  54.144  -0.930  1.00  0.00    -0.000 C 
BRANCH   7   8
ATOM      8  C   UNL     1     -21.605  55.507  -1.627  1.00  0.00    -0.000 C 
BRANCH   8   9
ATOM      9  C   UNL     1     -20.998  55.401  -3.036  1.00  0.00    -0.000 C 
BRANCH   9  10
ATOM     10  C   UNL     1     -19.873  56.409  -3.335  1.00  0.00    -0.000 C 
BRANCH  10  11
ATOM     11  C   UNL     1     -18.523  55.749  -3.689  1.00  0.00    -0.003 C 
ATOM     12  C   UNL     1     -17.333  56.666  -3.410  1.00  0.00     0.004 C 
ENDBRANCH  10  11
ENDBRANCH   9  10
ENDBRANCH   8   9
ENDBRANCH   7   8
ENDBRANCH   6   7
ENDBRANCH   5   6
ENDBRANCH   4   5
ENDBRANCH   3   4
ENDBRANCH   2   3
ENDBRANCH   1   2
BRANCH   1  13
ATOM     13  C   UNL     1     -18.429  56.827   0.058  1.00  0.00     0.000 C 
BRANCH  13  14
ATOM     14  C   UNL     1     -19.181  57.430   1.256  1.00  0.00     0.000 C 
BRANCH  14  15
ATOM     15  C   UNL     1     -20.708  57.302   1.119  1.00  0.00     0.000 C 
BRANCH  15  16
ATOM     16  C   UNL     1     -21.467  58.184   2.124  1.00  0.00     0.000 C 
BRANCH  16  17
ATOM     17  C   UNL     1     -22.920  57.729   2.335  1.00  0.00     0.000 C 
BRANCH  17  18
ATOM     18  C   UNL     1     -23.168  56.365   1.672  1.00  0.00     0.000 C 
BRANCH  18  19
ATOM     19  C   UNL     1     -24.390  56.365   0.736  1.00  0.00     0.000 C 
BRANCH  19  20
ATOM     20  C   UNL     1     -24.554  57.635  -0.124  1.00  0.00     0.006 C 
BRANCH  20  21
ATOM     21  C   UNL     1     -24.531  57.385  -1.641  1.00  0.00     0.053 C 
BRANCH  21  22
ATOM     22  C   UNL     1     -25.440  56.264  -2.039  1.00  0.00     0.041 C 
ATOM     23  O   UNL     1     -24.966  55.219  -2.556  1.00  0.00    -0.550 OA
ATOM     24  O   UNL     1     -26.807  56.357  -1.806  1.00  0.00    -0.550 OA
ENDBRANCH  21  22
ENDBRANCH  20  21
ENDBRANCH  19  20
ENDBRANCH  18  19
ENDBRANCH  17  18
ENDBRANCH  16  17
ENDBRANCH  15  16
ENDBRANCH  14  15
ENDBRANCH  13  14
ENDBRANCH   1  13
TORSDOF 20
ENDMDL
MODEL 9
REMARK VINA RESULT:    -5.286      2.397      6.926
REMARK INTER + INTRA:         -14.445
REMARK INTER:                 -10.585
REMARK INTRA:                  -3.860
REMARK UNBOUND:                -2.979
REMARK SMILES CCCCCCCCCCCCCCCCCCCCCC(=O)[O-]
REMARK SMILES IDX 12 1 11 2 10 3 9 4 8 5 7 6 6 7 5 8 4 9 3 10 2 11 1 12 13 13
REMARK SMILES IDX 14 14 15 15 16 16 17 17 18 18 19 19 20 20 21 21 22 22 23 23
REMARK SMILES IDX 24 24
REMARK H PARENT
REMARK Flexibility Score: inf
ROOT
ATOM      1  C   UNL     1     -21.784  54.638  -0.348  1.00  0.00     0.000 C 
ENDROOT
BRANCH   1   2
ATOM      2  C   UNL     1     -22.832  54.017   0.587  1.00  0.00     0.000 C 
BRANCH   2   3
ATOM      3  C   UNL     1     -23.449  55.041   1.552  1.00  0.00     0.000 C 
BRANCH   3   4
ATOM      4  C   UNL     1     -22.741  56.404   1.505  1.00  0.00    -0.000 C 
BRANCH   4   5
ATOM      5  C   UNL     1     -23.730  57.547   1.779  1.00  0.00    -0.000 C 
BRANCH   5   6
ATOM      6  C   UNL     1     -24.008  58.404   0.533  1.00  0.00    -0.000 C 
BRANCH   6   7
ATOM      7  C   UNL     1     -23.068  58.073  -0.635  1.00  0.00    -0.000 C 
BRANCH   7   8
ATOM      8  C   UNL     1     -23.848  57.989  -1.957  1.00  0.00    -0.000 C 
BRANCH   8   9
ATOM      9  C   UNL     1     -25.337  57.667  -1.751  1.00  0.00    -0.000 C 
BRANCH   9  10
ATOM     10  C   UNL     1     -25.755  56.243  -2.159  1.00  0.00    -0.000 C 
BRANCH  10  11
ATOM     11  C   UNL     1     -25.936  55.281  -0.966  1.00  0.00    -0.003 C 
ATOM     12  C   UNL     1     -26.747  55.904   0.170  1.00  0.00     0.004 C 
ENDBRANCH  10  11
ENDBRANCH   9  10
ENDBRANCH   8   9
ENDBRANCH   7   8
ENDBRANCH   6   7
ENDBRANCH   5   6
ENDBRANCH   4   5
ENDBRANCH   3   4
ENDBRANCH   2   3
ENDBRANCH   1   2
BRANCH   1  13
ATOM     13  C   UNL     1     -22.258  54.596  -1.809  1.00  0.00     0.000 C 
BRANCH  13  14
ATOM     14  C   UNL     1     -21.103  54.732  -2.814  1.00  0.00     0.000 C 
BRANCH  14  15
ATOM     15  C   UNL     1     -20.895  56.183  -3.280  1.00  0.00     0.000 C 
BRANCH  15  16
ATOM     16  C   UNL     1     -19.408  56.558  -3.400  1.00  0.00     0.000 C 
BRANCH  16  17
ATOM     17  C   UNL     1     -18.497  55.331  -3.563  1.00  0.00     0.000 C 
BRANCH  17  18
ATOM     18  C   UNL     1     -17.424  55.296  -2.465  1.00  0.00     0.000 C 
BRANCH  18  19
ATOM     19  C   UNL     1     -17.786  54.360  -1.298  1.00  0.00     0.000 C 
BRANCH  19  20
ATOM     20  C   UNL     1     -17.973  55.058   0.065  1.00  0.00     0.006 C 
BRANCH  20  21
ATOM     21  C   UNL     1     -18.132  56.585  -0.017  1.00  0.00     0.053 C 
BRANCH  21  22
ATOM     22  C   UNL     1     -16.912  57.303   0.472  1.00  0.00     0.041 C 
ATOM     23  O   UNL     1     -16.020  57.659  -0.342  1.00  0.00    -0.550 OA
ATOM     24  O   UNL     1     -16.777  57.611   1.819  1.00  0.00    -0.550 OA
ENDBRANCH  21  22
ENDBRANCH  20  21
ENDBRANCH  19  20
ENDBRANCH  18  19
ENDBRANCH  17  18
ENDBRANCH  16  17
ENDBRANCH  15  16
ENDBRANCH  14  15
ENDBRANCH  13  14
ENDBRANCH   1  13
TORSDOF 20
ENDMDL
