MODEL 1
REMARK VINA RESULT:    -4.855      0.000      0.000
REMARK INTER + INTRA:          -6.735
REMARK INTER:                  -6.132
REMARK INTRA:                  -0.603
REMARK UNBOUND:                -0.603
REMARK SMILES CC(C)=CCCC(C)=CCO
REMARK SMILES IDX 7 1 9 2 8 3 6 4 5 5 4 6 1 7 2 8 3 9 10 10 11 11
REMARK H PARENT 11 12
REMARK Flexibility Score: inf
ROOT
ATOM      1  C   UNL     1      20.353  13.936  26.497  1.00  0.00    -0.075 C 
ATOM      2  C   UNL     1      19.141  14.260  25.994  1.00  0.00    -0.000 C 
ATOM      3  C   UNL     1      20.808  14.432  27.849  1.00  0.00     0.039 C 
ENDROOT
BRANCH   1   4
ATOM      4  C   UNL     1      21.275  13.053  25.683  1.00  0.00     0.034 C 
BRANCH   4   5
ATOM      5  C   UNL     1      21.456  11.688  26.356  1.00  0.00     0.032 C 
BRANCH   5   6
ATOM      6  C   UNL     1      20.625  10.636  25.665  1.00  0.00    -0.028 C 
ATOM      7  C   UNL     1      18.747  10.811  27.312  1.00  0.00     0.039 C 
ATOM      8  C   UNL     1      19.420  10.208  26.103  1.00  0.00    -0.080 C 
ATOM      9  C   UNL     1      18.686   9.130  25.348  1.00  0.00     0.039 C 
ENDBRANCH   5   6
ENDBRANCH   4   5
ENDBRANCH   1   4
BRANCH   2  10
ATOM     10  C   UNL     1      18.143  15.133  26.704  1.00  0.00     0.183 C 
BRANCH  10  11
ATOM     11  O   UNL     1      17.950  16.318  25.984  1.00  0.00    -0.392 OA
ATOM     12  H   UNL     1      17.298  16.102  25.268  1.00  0.00     0.210 HD
ENDBRANCH  10  11
ENDBRANCH   2  10
TORSDOF 5
ENDMDL
MODEL 2
REMARK VINA RESULT:    -4.780      1.942      3.594
REMARK INTER + INTRA:          -6.641
REMARK INTER:                  -6.303
REMARK INTRA:                  -0.338
REMARK UNBOUND:                -0.603
REMARK SMILES CC(C)=CCCC(C)=CCO
REMARK SMILES IDX 7 1 9 2 8 3 6 4 5 5 4 6 1 7 2 8 3 9 10 10 11 11
REMARK H PARENT 11 12
REMARK Flexibility Score: inf
ROOT
ATOM      1  C   UNL     1      17.637  15.915  26.901  1.00  0.00    -0.075 C 
ATOM      2  C   UNL     1      18.481  16.943  27.141  1.00  0.00    -0.000 C 
ATOM      3  C   UNL     1      16.146  16.125  26.781  1.00  0.00     0.039 C 
ENDROOT
BRANCH   1   4
ATOM      4  C   UNL     1      18.202  14.519  26.748  1.00  0.00     0.034 C 
BRANCH   4   5
ATOM      5  C   UNL     1      19.639  14.451  27.277  1.00  0.00     0.032 C 
BRANCH   5   6
ATOM      6  C   UNL     1      20.219  13.073  27.079  1.00  0.00    -0.028 C 
ATOM      7  C   UNL     1      21.629  13.773  25.131  1.00  0.00     0.039 C 
ATOM      8  C   UNL     1      21.090  12.746  26.098  1.00  0.00    -0.080 C 
ATOM      9  C   UNL     1      21.587  11.330  25.977  1.00  0.00     0.039 C 
ENDBRANCH   5   6
ENDBRANCH   4   5
ENDBRANCH   1   4
BRANCH   2  10
ATOM     10  C   UNL     1      18.038  18.370  27.317  1.00  0.00     0.183 C 
BRANCH  10  11
ATOM     11  O   UNL     1      18.245  19.082  26.129  1.00  0.00    -0.392 OA
ATOM     12  H   UNL     1      17.458  18.893  25.555  1.00  0.00     0.210 HD
ENDBRANCH  10  11
ENDBRANCH   2  10
TORSDOF 5
ENDMDL
MODEL 3
REMARK VINA RESULT:    -4.701      2.583      4.948
REMARK INTER + INTRA:          -6.540
REMARK INTER:                  -6.213
REMARK INTRA:                  -0.328
REMARK UNBOUND:                -0.603
REMARK SMILES CC(C)=CCCC(C)=CCO
REMARK SMILES IDX 7 1 9 2 8 3 6 4 5 5 4 6 1 7 2 8 3 9 10 10 11 11
REMARK H PARENT 11 12
REMARK Flexibility Score: inf
ROOT
ATOM      1  C   UNL     1      20.272  11.540  26.403  1.00  0.00    -0.075 C 
ATOM      2  C   UNL     1      19.115  10.840  26.420  1.00  0.00    -0.000 C 
ATOM      3  C   UNL     1      21.510  11.007  25.722  1.00  0.00     0.039 C 
ENDROOT
BRANCH   1   4
ATOM      4  C   UNL     1      20.325  12.892  27.083  1.00  0.00     0.034 C 
BRANCH   4   5
ATOM      5  C   UNL     1      20.169  14.023  26.060  1.00  0.00     0.032 C 
BRANCH   5   6
ATOM      6  C   UNL     1      18.750  14.530  26.032  1.00  0.00    -0.028 C 
ATOM      7  C   UNL     1      19.137  16.188  27.869  1.00  0.00     0.039 C 
ATOM      8  C   UNL     1      18.263  15.481  26.863  1.00  0.00    -0.080 C 
ATOM      9  C   UNL     1      16.818  15.894  26.765  1.00  0.00     0.039 C 
ENDBRANCH   5   6
ENDBRANCH   4   5
ENDBRANCH   1   4
BRANCH   2  10
ATOM     10  C   UNL     1      18.943   9.487  25.786  1.00  0.00     0.183 C 
BRANCH  10  11
ATOM     11  O   UNL     1      18.792   8.512  26.780  1.00  0.00    -0.392 OA
ATOM     12  H   UNL     1      19.701   8.154  26.955  1.00  0.00     0.210 HD
ENDBRANCH  10  11
ENDBRANCH   2  10
TORSDOF 5
ENDMDL
MODEL 4
REMARK VINA RESULT:    -4.577     13.040     14.583
REMARK INTER + INTRA:          -6.384
REMARK INTER:                  -6.157
REMARK INTRA:                  -0.227
REMARK UNBOUND:                -0.603
REMARK SMILES CC(C)=CCCC(C)=CCO
REMARK SMILES IDX 7 1 9 2 8 3 6 4 5 5 4 6 1 7 2 8 3 9 10 10 11 11
REMARK H PARENT 11 12
REMARK Flexibility Score: inf
ROOT
ATOM      1  C   UNL     1       7.101  15.640  25.694  1.00  0.00    -0.075 C 
ATOM      2  C   UNL     1       6.240  16.681  25.636  1.00  0.00    -0.000 C 
ATOM      3  C   UNL     1       8.595  15.851  25.770  1.00  0.00     0.039 C 
ENDROOT
BRANCH   1   4
ATOM      4  C   UNL     1       6.552  14.229  25.684  1.00  0.00     0.034 C 
BRANCH   4   5
ATOM      5  C   UNL     1       5.154  14.184  26.310  1.00  0.00     0.032 C 
BRANCH   5   6
ATOM      6  C   UNL     1       4.656  12.764  26.408  1.00  0.00    -0.028 C 
ATOM      7  C   UNL     1       2.308  13.455  26.939  1.00  0.00     0.039 C 
ATOM      8  C   UNL     1       3.386  12.421  26.723  1.00  0.00    -0.080 C 
ATOM      9  C   UNL     1       3.004  10.968  26.819  1.00  0.00     0.039 C 
ENDBRANCH   5   6
ENDBRANCH   4   5
ENDBRANCH   1   4
BRANCH   2  10
ATOM     10  C   UNL     1       6.666  18.123  25.633  1.00  0.00     0.183 C 
BRANCH  10  11
ATOM     11  O   UNL     1       6.021  18.812  26.668  1.00  0.00    -0.392 OA
ATOM     12  H   UNL     1       6.547  18.631  27.489  1.00  0.00     0.210 HD
ENDBRANCH  10  11
ENDBRANCH   2  10
TORSDOF 5
ENDMDL
MODEL 5
REMARK VINA RESULT:    -4.511      1.524      2.339
REMARK INTER + INTRA:          -6.300
REMARK INTER:                  -6.051
REMARK INTRA:                  -0.249
REMARK UNBOUND:                -0.603
REMARK SMILES CC(C)=CCCC(C)=CCO
REMARK SMILES IDX 7 1 9 2 8 3 6 4 5 5 4 6 1 7 2 8 3 9 10 10 11 11
REMARK H PARENT 11 12
REMARK Flexibility Score: inf
ROOT
ATOM      1  C   UNL     1      18.794  15.587  27.029  1.00  0.00    -0.075 C 
ATOM      2  C   UNL     1      17.962  16.584  26.650  1.00  0.00    -0.000 C 
ATOM      3  C   UNL     1      19.830  15.787  28.110  1.00  0.00     0.039 C 
ENDROOT
BRANCH   1   4
ATOM      4  C   UNL     1      18.682  14.238  26.352  1.00  0.00     0.034 C 
BRANCH   4   5
ATOM      5  C   UNL     1      19.569  13.201  27.051  1.00  0.00     0.032 C 
BRANCH   5   6
ATOM      6  C   UNL     1      19.004  11.813  26.884  1.00  0.00    -0.028 C 
ATOM      7  C   UNL     1      21.090  10.919  25.824  1.00  0.00     0.039 C 
ATOM      8  C   UNL     1      19.665  10.786  26.304  1.00  0.00    -0.080 C 
ATOM      9  C   UNL     1      18.994   9.444  26.166  1.00  0.00     0.039 C 
ENDBRANCH   5   6
ENDBRANCH   4   5
ENDBRANCH   1   4
BRANCH   2  10
ATOM     10  C   UNL     1      17.983  17.965  27.245  1.00  0.00     0.183 C 
BRANCH  10  11
ATOM     11  O   UNL     1      18.320  18.901  26.259  1.00  0.00    -0.392 OA
ATOM     12  H   UNL     1      19.126  19.374  26.593  1.00  0.00     0.210 HD
ENDBRANCH  10  11
ENDBRANCH   2  10
TORSDOF 5
ENDMDL
MODEL 6
REMARK VINA RESULT:    -4.468      9.950     11.561
REMARK INTER + INTRA:          -6.246
REMARK INTER:                  -5.766
REMARK INTRA:                  -0.480
REMARK UNBOUND:                -0.603
REMARK SMILES CC(C)=CCCC(C)=CCO
REMARK SMILES IDX 7 1 9 2 8 3 6 4 5 5 4 6 1 7 2 8 3 9 10 10 11 11
REMARK H PARENT 11 12
REMARK Flexibility Score: inf
ROOT
ATOM      1  C   UNL     1      13.925   9.361  16.314  1.00  0.00    -0.075 C 
ATOM      2  C   UNL     1      14.998   9.657  17.081  1.00  0.00    -0.000 C 
ATOM      3  C   UNL     1      12.947  10.426  15.875  1.00  0.00     0.039 C 
ENDROOT
BRANCH   1   4
ATOM      4  C   UNL     1      13.699   7.927  15.886  1.00  0.00     0.034 C 
BRANCH   4   5
ATOM      5  C   UNL     1      14.868   7.036  16.324  1.00  0.00     0.032 C 
BRANCH   5   6
ATOM      6  C   UNL     1      14.365   5.787  17.003  1.00  0.00    -0.028 C 
ATOM      7  C   UNL     1      14.992   6.588  19.292  1.00  0.00     0.039 C 
ATOM      8  C   UNL     1      14.444   5.558  18.334  1.00  0.00    -0.080 C 
ATOM      9  C   UNL     1      13.933   4.261  18.903  1.00  0.00     0.039 C 
ENDBRANCH   5   6
ENDBRANCH   4   5
ENDBRANCH   1   4
BRANCH   2  10
ATOM     10  C   UNL     1      15.322  11.041  17.573  1.00  0.00     0.183 C 
BRANCH  10  11
ATOM     11  O   UNL     1      15.714  10.988  18.917  1.00  0.00    -0.392 OA
ATOM     12  H   UNL     1      15.774  11.930  19.223  1.00  0.00     0.210 HD
ENDBRANCH  10  11
ENDBRANCH   2  10
TORSDOF 5
ENDMDL
MODEL 7
REMARK VINA RESULT:    -4.329      2.649      5.075
REMARK INTER + INTRA:          -6.070
REMARK INTER:                  -5.630
REMARK INTRA:                  -0.440
REMARK UNBOUND:                -0.603
REMARK SMILES CC(C)=CCCC(C)=CCO
REMARK SMILES IDX 7 1 9 2 8 3 6 4 5 5 4 6 1 7 2 8 3 9 10 10 11 11
REMARK H PARENT 11 12
REMARK Flexibility Score: inf
ROOT
ATOM      1  C   UNL     1      19.978  13.119  26.287  1.00  0.00    -0.075 C 
ATOM      2  C   UNL     1      21.279  12.899  25.992  1.00  0.00    -0.000 C 
ATOM      3  C   UNL     1      19.167  12.125  27.084  1.00  0.00     0.039 C 
ENDROOT
BRANCH   1   4
ATOM      4  C   UNL     1      19.321  14.395  25.806  1.00  0.00     0.034 C 
BRANCH   4   5
ATOM      5  C   UNL     1      18.921  15.283  26.991  1.00  0.00     0.032 C 
BRANCH   5   6
ATOM      6  C   UNL     1      17.676  16.072  26.673  1.00  0.00    -0.028 C 
ATOM      7  C   UNL     1      16.153  14.411  27.767  1.00  0.00     0.039 C 
ATOM      8  C   UNL     1      16.422  15.676  26.988  1.00  0.00    -0.080 C 
ATOM      9  C   UNL     1      15.245  16.531  26.599  1.00  0.00     0.039 C 
ENDBRANCH   5   6
ENDBRANCH   4   5
ENDBRANCH   1   4
BRANCH   2  10
ATOM     10  C   UNL     1      22.037  11.668  26.409  1.00  0.00     0.183 C 
BRANCH  10  11
ATOM     11  O   UNL     1      21.883  10.665  25.444  1.00  0.00    -0.392 OA
ATOM     12  H   UNL     1      20.964  10.310  25.560  1.00  0.00     0.210 HD
ENDBRANCH  10  11
ENDBRANCH   2  10
TORSDOF 5
ENDMDL
MODEL 8
REMARK VINA RESULT:    -4.314      2.299      3.906
REMARK INTER + INTRA:          -6.052
REMARK INTER:                  -5.773
REMARK INTRA:                  -0.279
REMARK UNBOUND:                -0.603
REMARK SMILES CC(C)=CCCC(C)=CCO
REMARK SMILES IDX 7 1 9 2 8 3 6 4 5 5 4 6 1 7 2 8 3 9 10 10 11 11
REMARK H PARENT 11 12
REMARK Flexibility Score: inf
ROOT
ATOM      1  C   UNL     1      17.271  16.705  26.704  1.00  0.00    -0.075 C 
ATOM      2  C   UNL     1      15.923  16.806  26.737  1.00  0.00    -0.000 C 
ATOM      3  C   UNL     1      18.161  17.863  27.087  1.00  0.00     0.039 C 
ENDROOT
BRANCH   1   4
ATOM      4  C   UNL     1      17.901  15.397  26.275  1.00  0.00     0.034 C 
BRANCH   4   5
ATOM      5  C   UNL     1      18.931  14.923  27.307  1.00  0.00     0.032 C 
BRANCH   5   6
ATOM      6  C   UNL     1      20.118  14.288  26.627  1.00  0.00    -0.028 C 
ATOM      7  C   UNL     1      19.284  11.956  26.999  1.00  0.00     0.039 C 
ATOM      8  C   UNL     1      20.306  12.954  26.510  1.00  0.00    -0.080 C 
ATOM      9  C   UNL     1      21.544  12.428  25.833  1.00  0.00     0.039 C 
ENDBRANCH   5   6
ENDBRANCH   4   5
ENDBRANCH   1   4
BRANCH   2  10
ATOM     10  C   UNL     1      15.184  18.052  27.139  1.00  0.00     0.183 C 
BRANCH  10  11
ATOM     11  O   UNL     1      14.396  18.503  26.073  1.00  0.00    -0.392 OA
ATOM     12  H   UNL     1      13.785  17.755  25.845  1.00  0.00     0.210 HD
ENDBRANCH  10  11
ENDBRANCH   2  10
TORSDOF 5
ENDMDL
MODEL 9
REMARK VINA RESULT:    -4.057      6.221      9.640
REMARK INTER + INTRA:          -5.727
REMARK INTER:                  -5.356
REMARK INTRA:                  -0.371
REMARK UNBOUND:                -0.603
REMARK SMILES CC(C)=CCCC(C)=CCO
REMARK SMILES IDX 7 1 9 2 8 3 6 4 5 5 4 6 1 7 2 8 3 9 10 10 11 11
REMARK H PARENT 11 12
REMARK Flexibility Score: inf
ROOT
ATOM      1  C   UNL     1      16.717  19.592  27.405  1.00  0.00    -0.075 C 
ATOM      2  C   UNL     1      17.901  18.959  27.242  1.00  0.00    -0.000 C 
ATOM      3  C   UNL     1      15.415  18.831  27.481  1.00  0.00     0.039 C 
ENDROOT
BRANCH   1   4
ATOM      4  C   UNL     1      16.700  21.102  27.515  1.00  0.00     0.034 C 
BRANCH   4   5
ATOM      5  C   UNL     1      15.649  21.563  28.531  1.00  0.00     0.032 C 
BRANCH   5   6
ATOM      6  C   UNL     1      16.115  21.301  29.941  1.00  0.00    -0.028 C 
ATOM      7  C   UNL     1      13.806  21.451  30.902  1.00  0.00     0.039 C 
ATOM      8  C   UNL     1      15.301  21.280  31.022  1.00  0.00    -0.080 C 
ATOM      9  C   UNL     1      15.879  21.034  32.391  1.00  0.00     0.039 C 
ENDBRANCH   5   6
ENDBRANCH   4   5
ENDBRANCH   1   4
BRANCH   2  10
ATOM     10  C   UNL     1      18.044  17.467  27.114  1.00  0.00     0.183 C 
BRANCH  10  11
ATOM     11  O   UNL     1      18.775  16.965  28.198  1.00  0.00    -0.392 OA
ATOM     12  H   UNL     1      19.525  17.599  28.342  1.00  0.00     0.210 HD
ENDBRANCH  10  11
ENDBRANCH   2  10
TORSDOF 5
ENDMDL
