MODEL 1
REMARK VINA RESULT:    -4.762      0.000      0.000
REMARK INTER + INTRA:          -8.181
REMARK INTER:                  -7.546
REMARK INTRA:                  -0.635
REMARK UNBOUND:                -0.635
REMARK SMILES CCCCCCCCCCCC(=O)[O-]
REMARK SMILES IDX 7 1 8 2 9 3 10 4 11 5 12 6 13 7 14 8 6 9 5 10 4 11 3 12 2 13
REMARK SMILES IDX 1 14
REMARK H PARENT
REMARK Flexibility Score: inf
ROOT
ATOM      1  C   UNL     1     254.123 259.212 245.386  1.00  0.00     0.000 C 
ENDROOT
BRANCH   1   2
ATOM      2  C   UNL     1     253.884 258.848 246.855  1.00  0.00     0.000 C 
BRANCH   2   3
ATOM      3  C   UNL     1     252.394 258.608 247.128  1.00  0.00     0.000 C 
BRANCH   3   4
ATOM      4  C   UNL     1     251.574 259.881 246.871  1.00  0.00     0.006 C 
BRANCH   4   5
ATOM      5  C   UNL     1     250.091 259.698 247.221  1.00  0.00     0.053 C 
BRANCH   5   6
ATOM      6  C   UNL     1     249.221 260.660 246.472  1.00  0.00     0.041 C 
ATOM      7  O   UNL     1     248.322 260.233 245.702  1.00  0.00    -0.550 OA
ATOM      8  O   UNL     1     249.424 262.029 246.601  1.00  0.00    -0.550 OA
ENDBRANCH   5   6
ENDBRANCH   4   5
ENDBRANCH   3   4
ENDBRANCH   2   3
ENDBRANCH   1   2
BRANCH   1   9
ATOM      9  C   UNL     1     254.929 260.515 245.266  1.00  0.00     0.000 C 
BRANCH   9  10
ATOM     10  C   UNL     1     255.714 260.848 246.545  1.00  0.00    -0.000 C 
BRANCH  10  11
ATOM     11  C   UNL     1     257.141 261.338 246.249  1.00  0.00    -0.000 C 
BRANCH  11  12
ATOM     12  C   UNL     1     257.496 261.276 244.751  1.00  0.00    -0.000 C 
BRANCH  12  13
ATOM     13  C   UNL     1     258.491 262.348 244.274  1.00  0.00    -0.003 C 
ATOM     14  C   UNL     1     258.189 263.738 244.833  1.00  0.00     0.004 C 
ENDBRANCH  12  13
ENDBRANCH  11  12
ENDBRANCH  10  11
ENDBRANCH   9  10
ENDBRANCH   1   9
TORSDOF 10
ENDMDL
MODEL 2
REMARK VINA RESULT:    -4.729      5.327      6.810
REMARK INTER + INTRA:          -8.128
REMARK INTER:                  -7.407
REMARK INTRA:                  -0.722
REMARK UNBOUND:                -0.635
REMARK SMILES CCCCCCCCCCCC(=O)[O-]
REMARK SMILES IDX 7 1 8 2 9 3 10 4 11 5 12 6 13 7 14 8 6 9 5 10 4 11 3 12 2 13
REMARK SMILES IDX 1 14
REMARK H PARENT
REMARK Flexibility Score: inf
ROOT
ATOM      1  C   UNL     1     256.248 260.742 249.409  1.00  0.00     0.000 C 
ENDROOT
BRANCH   1   2
ATOM      2  C   UNL     1     255.228 260.831 250.550  1.00  0.00     0.000 C 
BRANCH   2   3
ATOM      3  C   UNL     1     255.579 261.968 251.517  1.00  0.00     0.000 C 
BRANCH   3   4
ATOM      4  C   UNL     1     254.418 262.248 252.483  1.00  0.00     0.006 C 
BRANCH   4   5
ATOM      5  C   UNL     1     254.792 261.955 253.942  1.00  0.00     0.053 C 
BRANCH   5   6
ATOM      6  C   UNL     1     254.134 260.706 254.444  1.00  0.00     0.041 C 
ATOM      7  O   UNL     1     253.385 260.037 253.685  1.00  0.00    -0.550 OA
ATOM      8  O   UNL     1     254.322 260.300 255.759  1.00  0.00    -0.550 OA
ENDBRANCH   5   6
ENDBRANCH   4   5
ENDBRANCH   3   4
ENDBRANCH   2   3
ENDBRANCH   1   2
BRANCH   1   9
ATOM      9  C   UNL     1     255.650 260.019 248.192  1.00  0.00     0.000 C 
BRANCH   9  10
ATOM     10  C   UNL     1     255.628 260.898 246.931  1.00  0.00    -0.000 C 
BRANCH  10  11
ATOM     11  C   UNL     1     254.274 260.848 246.203  1.00  0.00    -0.000 C 
BRANCH  11  12
ATOM     12  C   UNL     1     253.080 261.098 247.143  1.00  0.00    -0.000 C 
BRANCH  12  13
ATOM     13  C   UNL     1     251.990 260.013 247.112  1.00  0.00    -0.003 C 
ATOM     14  C   UNL     1     252.524 258.639 246.709  1.00  0.00     0.004 C 
ENDBRANCH  12  13
ENDBRANCH  11  12
ENDBRANCH  10  11
ENDBRANCH   9  10
ENDBRANCH   1   9
TORSDOF 10
ENDMDL
MODEL 3
REMARK VINA RESULT:    -4.691      5.516      6.358
REMARK INTER + INTRA:          -8.069
REMARK INTER:                  -7.662
REMARK INTRA:                  -0.407
REMARK UNBOUND:                -0.635
REMARK SMILES CCCCCCCCCCCC(=O)[O-]
REMARK SMILES IDX 7 1 8 2 9 3 10 4 11 5 12 6 13 7 14 8 6 9 5 10 4 11 3 12 2 13
REMARK SMILES IDX 1 14
REMARK H PARENT
REMARK Flexibility Score: inf
ROOT
ATOM      1  C   UNL     1     255.630 260.893 249.507  1.00  0.00     0.000 C 
ENDROOT
BRANCH   1   2
ATOM      2  C   UNL     1     255.268 260.703 250.983  1.00  0.00     0.000 C 
BRANCH   2   3
ATOM      3  C   UNL     1     255.636 261.943 251.806  1.00  0.00     0.000 C 
BRANCH   3   4
ATOM      4  C   UNL     1     254.493 262.335 252.754  1.00  0.00     0.006 C 
BRANCH   4   5
ATOM      5  C   UNL     1     254.817 262.016 254.220  1.00  0.00     0.053 C 
BRANCH   5   6
ATOM      6  C   UNL     1     254.135 260.764 254.680  1.00  0.00     0.041 C 
ATOM      7  O   UNL     1     253.237 260.237 253.974  1.00  0.00    -0.550 OA
ATOM      8  O   UNL     1     254.470 260.198 255.904  1.00  0.00    -0.550 OA
ENDBRANCH   5   6
ENDBRANCH   4   5
ENDBRANCH   3   4
ENDBRANCH   2   3
ENDBRANCH   1   2
BRANCH   1   9
ATOM      9  C   UNL     1     254.671 260.108 248.599  1.00  0.00     0.000 C 
BRANCH   9  10
ATOM     10  C   UNL     1     253.923 261.010 247.602  1.00  0.00    -0.000 C 
BRANCH  10  11
ATOM     11  C   UNL     1     253.708 260.329 246.240  1.00  0.00    -0.000 C 
BRANCH  11  12
ATOM     12  C   UNL     1     255.007 260.206 245.421  1.00  0.00    -0.000 C 
BRANCH  12  13
ATOM     13  C   UNL     1     256.076 261.267 245.735  1.00  0.00    -0.003 C 
ATOM     14  C   UNL     1     257.278 261.203 244.793  1.00  0.00     0.004 C 
ENDBRANCH  12  13
ENDBRANCH  11  12
ENDBRANCH  10  11
ENDBRANCH   9  10
ENDBRANCH   1   9
TORSDOF 10
ENDMDL
MODEL 4
REMARK VINA RESULT:    -4.636      4.607      6.699
REMARK INTER + INTRA:          -7.981
REMARK INTER:                  -6.518
REMARK INTRA:                  -1.463
REMARK UNBOUND:                -0.635
REMARK SMILES CCCCCCCCCCCC(=O)[O-]
REMARK SMILES IDX 7 1 8 2 9 3 10 4 11 5 12 6 13 7 14 8 6 9 5 10 4 11 3 12 2 13
REMARK SMILES IDX 1 14
REMARK H PARENT
REMARK Flexibility Score: inf
ROOT
ATOM      1  C   UNL     1     255.441 258.445 248.964  1.00  0.00     0.000 C 
ENDROOT
BRANCH   1   2
ATOM      2  C   UNL     1     255.263 259.721 249.794  1.00  0.00     0.000 C 
BRANCH   2   3
ATOM      3  C   UNL     1     256.110 260.868 249.231  1.00  0.00     0.000 C 
BRANCH   3   4
ATOM      4  C   UNL     1     257.189 260.339 248.275  1.00  0.00     0.006 C 
BRANCH   4   5
ATOM      5  C   UNL     1     257.656 261.407 247.276  1.00  0.00     0.053 C 
BRANCH   5   6
ATOM      6  C   UNL     1     259.124 261.302 246.996  1.00  0.00     0.041 C 
ATOM      7  O   UNL     1     259.951 261.915 247.719  1.00  0.00    -0.550 OA
ATOM      8  O   UNL     1     259.575 260.553 245.916  1.00  0.00    -0.550 OA
ENDBRANCH   5   6
ENDBRANCH   4   5
ENDBRANCH   3   4
ENDBRANCH   2   3
ENDBRANCH   1   2
BRANCH   1   9
ATOM      9  C   UNL     1     254.091 257.750 248.726  1.00  0.00     0.000 C 
BRANCH   9  10
ATOM     10  C   UNL     1     253.863 257.386 247.249  1.00  0.00    -0.000 C 
BRANCH  10  11
ATOM     11  C   UNL     1     253.183 258.518 246.462  1.00  0.00    -0.000 C 
BRANCH  11  12
ATOM     12  C   UNL     1     254.190 259.429 245.734  1.00  0.00    -0.000 C 
BRANCH  12  13
ATOM     13  C   UNL     1     254.125 260.915 246.129  1.00  0.00    -0.003 C 
ATOM     14  C   UNL     1     253.035 261.215 247.157  1.00  0.00     0.004 C 
ENDBRANCH  12  13
ENDBRANCH  11  12
ENDBRANCH  10  11
ENDBRANCH   9  10
ENDBRANCH   1   9
TORSDOF 10
ENDMDL
MODEL 5
REMARK VINA RESULT:    -4.635      5.009      6.601
REMARK INTER + INTRA:          -7.980
REMARK INTER:                  -6.776
REMARK INTRA:                  -1.204
REMARK UNBOUND:                -0.635
REMARK SMILES CCCCCCCCCCCC(=O)[O-]
REMARK SMILES IDX 7 1 8 2 9 3 10 4 11 5 12 6 13 7 14 8 6 9 5 10 4 11 3 12 2 13
REMARK SMILES IDX 1 14
REMARK H PARENT
REMARK Flexibility Score: inf
ROOT
ATOM      1  C   UNL     1     254.924 259.967 248.455  1.00  0.00     0.000 C 
ENDROOT
BRANCH   1   2
ATOM      2  C   UNL     1     256.426 259.865 248.741  1.00  0.00     0.000 C 
BRANCH   2   3
ATOM      3  C   UNL     1     257.004 261.226 249.147  1.00  0.00     0.000 C 
BRANCH   3   4
ATOM      4  C   UNL     1     258.493 261.323 248.782  1.00  0.00     0.006 C 
BRANCH   4   5
ATOM      5  C   UNL     1     258.981 260.097 247.999  1.00  0.00     0.053 C 
BRANCH   5   6
ATOM      6  C   UNL     1     260.137 260.431 247.106  1.00  0.00     0.041 C 
ATOM      7  O   UNL     1     260.535 261.620 247.005  1.00  0.00    -0.550 OA
ATOM      8  O   UNL     1     260.755 259.433 246.363  1.00  0.00    -0.550 OA
ENDBRANCH   5   6
ENDBRANCH   4   5
ENDBRANCH   3   4
ENDBRANCH   2   3
ENDBRANCH   1   2
BRANCH   1   9
ATOM      9  C   UNL     1     254.655 260.870 247.241  1.00  0.00     0.000 C 
BRANCH   9  10
ATOM     10  C   UNL     1     254.472 260.073 245.938  1.00  0.00    -0.000 C 
BRANCH  10  11
ATOM     11  C   UNL     1     255.490 260.473 244.856  1.00  0.00    -0.000 C 
BRANCH  11  12
ATOM     12  C   UNL     1     256.719 261.203 245.432  1.00  0.00    -0.000 C 
BRANCH  12  13
ATOM     13  C   UNL     1     257.862 261.440 244.430  1.00  0.00    -0.003 C 
ATOM     14  C   UNL     1     258.400 262.870 244.462  1.00  0.00     0.004 C 
ENDBRANCH  12  13
ENDBRANCH  11  12
ENDBRANCH  10  11
ENDBRANCH   9  10
ENDBRANCH   1   9
TORSDOF 10
ENDMDL
MODEL 6
REMARK VINA RESULT:    -4.634      3.549      4.573
REMARK INTER + INTRA:          -7.978
REMARK INTER:                  -7.186
REMARK INTRA:                  -0.792
REMARK UNBOUND:                -0.635
REMARK SMILES CCCCCCCCCCCC(=O)[O-]
REMARK SMILES IDX 7 1 8 2 9 3 10 4 11 5 12 6 13 7 14 8 6 9 5 10 4 11 3 12 2 13
REMARK SMILES IDX 1 14
REMARK H PARENT
REMARK Flexibility Score: inf
ROOT
ATOM      1  C   UNL     1     255.129 260.436 245.138  1.00  0.00     0.000 C 
ENDROOT
BRANCH   1   2
ATOM      2  C   UNL     1     254.363 259.871 246.340  1.00  0.00     0.000 C 
BRANCH   2   3
ATOM      3  C   UNL     1     253.731 260.994 247.170  1.00  0.00     0.000 C 
BRANCH   3   4
ATOM      4  C   UNL     1     254.211 260.939 248.628  1.00  0.00     0.006 C 
BRANCH   4   5
ATOM      5  C   UNL     1     255.301 259.880 248.842  1.00  0.00     0.053 C 
BRANCH   5   6
ATOM      6  C   UNL     1     254.907 258.879 249.885  1.00  0.00     0.041 C 
ATOM      7  O   UNL     1     255.318 259.004 251.068  1.00  0.00    -0.550 OA
ATOM      8  O   UNL     1     254.113 257.792 249.542  1.00  0.00    -0.550 OA
ENDBRANCH   5   6
ENDBRANCH   4   5
ENDBRANCH   3   4
ENDBRANCH   2   3
ENDBRANCH   1   2
BRANCH   1   9
ATOM      9  C   UNL     1     256.362 261.231 245.596  1.00  0.00     0.000 C 
BRANCH   9  10
ATOM     10  C   UNL     1     257.505 261.199 244.568  1.00  0.00    -0.000 C 
BRANCH  10  11
ATOM     11  C   UNL     1     258.892 261.159 245.231  1.00  0.00    -0.000 C 
BRANCH  11  12
ATOM     12  C   UNL     1     258.822 260.909 246.749  1.00  0.00    -0.000 C 
BRANCH  12  13
ATOM     13  C   UNL     1     260.065 260.235 247.355  1.00  0.00    -0.003 C 
ATOM     14  C   UNL     1     260.760 259.279 246.386  1.00  0.00     0.004 C 
ENDBRANCH  12  13
ENDBRANCH  11  12
ENDBRANCH  10  11
ENDBRANCH   9  10
ENDBRANCH   1   9
TORSDOF 10
ENDMDL
MODEL 7
REMARK VINA RESULT:    -4.632      3.884      5.865
REMARK INTER + INTRA:          -7.976
REMARK INTER:                  -6.808
REMARK INTRA:                  -1.167
REMARK UNBOUND:                -0.635
REMARK SMILES CCCCCCCCCCCC(=O)[O-]
REMARK SMILES IDX 7 1 8 2 9 3 10 4 11 5 12 6 13 7 14 8 6 9 5 10 4 11 3 12 2 13
REMARK SMILES IDX 1 14
REMARK H PARENT
REMARK Flexibility Score: inf
ROOT
ATOM      1  C   UNL     1     258.011 261.053 246.868  1.00  0.00     0.000 C 
ENDROOT
BRANCH   1   2
ATOM      2  C   UNL     1     257.493 261.308 248.287  1.00  0.00     0.000 C 
BRANCH   2   3
ATOM      3  C   UNL     1     256.489 260.230 248.711  1.00  0.00     0.000 C 
BRANCH   3   4
ATOM      4  C   UNL     1     255.271 260.855 249.407  1.00  0.00     0.006 C 
BRANCH   4   5
ATOM      5  C   UNL     1     255.283 260.620 250.923  1.00  0.00     0.053 C 
BRANCH   5   6
ATOM      6  C   UNL     1     255.500 261.894 251.682  1.00  0.00     0.041 C 
ATOM      7  O   UNL     1     254.520 262.517 252.166  1.00  0.00    -0.550 OA
ATOM      8  O   UNL     1     256.783 262.409 251.825  1.00  0.00    -0.550 OA
ENDBRANCH   5   6
ENDBRANCH   4   5
ENDBRANCH   3   4
ENDBRANCH   2   3
ENDBRANCH   1   2
BRANCH   1   9
ATOM      9  C   UNL     1     257.131 261.761 245.826  1.00  0.00     0.000 C 
BRANCH   9  10
ATOM     10  C   UNL     1     256.262 260.782 245.018  1.00  0.00    -0.000 C 
BRANCH  10  11
ATOM     11  C   UNL     1     254.778 260.843 245.421  1.00  0.00    -0.000 C 
BRANCH  11  12
ATOM     12  C   UNL     1     254.206 259.466 245.807  1.00  0.00    -0.000 C 
BRANCH  12  13
ATOM     13  C   UNL     1     252.998 259.508 246.758  1.00  0.00    -0.003 C 
ATOM     14  C   UNL     1     252.558 260.930 247.105  1.00  0.00     0.004 C 
ENDBRANCH  12  13
ENDBRANCH  11  12
ENDBRANCH  10  11
ENDBRANCH   9  10
ENDBRANCH   1   9
TORSDOF 10
ENDMDL
MODEL 8
REMARK VINA RESULT:    -4.628      4.295      6.318
REMARK INTER + INTRA:          -7.969
REMARK INTER:                  -6.840
REMARK INTRA:                  -1.129
REMARK UNBOUND:                -0.635
REMARK SMILES CCCCCCCCCCCC(=O)[O-]
REMARK SMILES IDX 7 1 8 2 9 3 10 4 11 5 12 6 13 7 14 8 6 9 5 10 4 11 3 12 2 13
REMARK SMILES IDX 1 14
REMARK H PARENT
REMARK Flexibility Score: inf
ROOT
ATOM      1  C   UNL     1     254.792 260.863 246.901  1.00  0.00     0.000 C 
ENDROOT
BRANCH   1   2
ATOM      2  C   UNL     1     255.693 260.698 248.130  1.00  0.00     0.000 C 
BRANCH   2   3
ATOM      3  C   UNL     1     254.879 260.779 249.426  1.00  0.00     0.000 C 
BRANCH   3   4
ATOM      4  C   UNL     1     255.751 261.260 250.595  1.00  0.00     0.006 C 
BRANCH   4   5
ATOM      5  C   UNL     1     255.234 260.761 251.951  1.00  0.00     0.053 C 
BRANCH   5   6
ATOM      6  C   UNL     1     254.556 261.852 252.723  1.00  0.00     0.041 C 
ATOM      7  O   UNL     1     253.996 262.802 252.117  1.00  0.00    -0.550 OA
ATOM      8  O   UNL     1     254.570 261.834 254.112  1.00  0.00    -0.550 OA
ENDBRANCH   5   6
ENDBRANCH   4   5
ENDBRANCH   3   4
ENDBRANCH   2   3
ENDBRANCH   1   2
BRANCH   1   9
ATOM      9  C   UNL     1     253.310 260.889 247.306  1.00  0.00     0.000 C 
BRANCH   9  10
ATOM     10  C   UNL     1     252.551 259.627 246.864  1.00  0.00    -0.000 C 
BRANCH  10  11
ATOM     11  C   UNL     1     253.489 258.537 246.318  1.00  0.00    -0.000 C 
BRANCH  11  12
ATOM     12  C   UNL     1     253.490 257.261 247.180  1.00  0.00    -0.000 C 
BRANCH  12  13
ATOM     13  C   UNL     1     254.733 257.077 248.067  1.00  0.00    -0.003 C 
ATOM     14  C   UNL     1     254.421 257.157 249.561  1.00  0.00     0.004 C 
ENDBRANCH  12  13
ENDBRANCH  11  12
ENDBRANCH  10  11
ENDBRANCH   9  10
ENDBRANCH   1   9
TORSDOF 10
ENDMDL
MODEL 9
REMARK VINA RESULT:    -4.613      4.161      6.923
REMARK INTER + INTRA:          -7.946
REMARK INTER:                  -6.968
REMARK INTRA:                  -0.978
REMARK UNBOUND:                -0.635
REMARK SMILES CCCCCCCCCCCC(=O)[O-]
REMARK SMILES IDX 7 1 8 2 9 3 10 4 11 5 12 6 13 7 14 8 6 9 5 10 4 11 3 12 2 13
REMARK SMILES IDX 1 14
REMARK H PARENT
REMARK Flexibility Score: inf
ROOT
ATOM      1  C   UNL     1     257.399 261.240 249.169  1.00  0.00     0.000 C 
ENDROOT
BRANCH   1   2
ATOM      2  C   UNL     1     258.736 261.292 248.421  1.00  0.00     0.000 C 
BRANCH   2   3
ATOM      3  C   UNL     1     258.703 262.345 247.306  1.00  0.00     0.000 C 
BRANCH   3   4
ATOM      4  C   UNL     1     258.754 261.683 245.921  1.00  0.00     0.006 C 
BRANCH   4   5
ATOM      5  C   UNL     1     257.824 262.372 244.913  1.00  0.00     0.053 C 
BRANCH   5   6
ATOM      6  C   UNL     1     258.329 263.728 244.528  1.00  0.00     0.041 C 
ATOM      7  O   UNL     1     259.530 263.883 244.187  1.00  0.00    -0.550 OA
ATOM      8  O   UNL     1     257.480 264.827 244.577  1.00  0.00    -0.550 OA
ENDBRANCH   5   6
ENDBRANCH   4   5
ENDBRANCH   3   4
ENDBRANCH   2   3
ENDBRANCH   1   2
BRANCH   1   9
ATOM      9  C   UNL     1     256.350 260.455 248.366  1.00  0.00     0.000 C 
BRANCH   9  10
ATOM     10  C   UNL     1     254.908 260.819 248.758  1.00  0.00    -0.000 C 
BRANCH  10  11
ATOM     11  C   UNL     1     253.973 260.914 247.540  1.00  0.00    -0.000 C 
BRANCH  11  12
ATOM     12  C   UNL     1     254.725 260.804 246.199  1.00  0.00    -0.000 C 
BRANCH  12  13
ATOM     13  C   UNL     1     254.293 259.627 245.308  1.00  0.00    -0.003 C 
ATOM     14  C   UNL     1     253.897 258.385 246.105  1.00  0.00     0.004 C 
ENDBRANCH  12  13
ENDBRANCH  11  12
ENDBRANCH  10  11
ENDBRANCH   9  10
ENDBRANCH   1   9
TORSDOF 10
ENDMDL
