MODEL 1
REMARK VINA RESULT:    -3.241      0.000      0.000
REMARK INTER + INTRA:          -4.055
REMARK INTER:                  -4.946
REMARK INTRA:                   0.891
REMARK UNBOUND:                 0.891
REMARK SMILES CC1=CCC[C@@H](C)C(=O)C[C@H](C(C)C)C(=O)C1
REMARK SMILES IDX 8 1 9 2 6 3 7 4 5 5 4 6 3 7 2 8 1 9 10 11 11 12 15 13 16 14
REMARK SMILES IDX 17 15 12 17 13 18 14 19
REMARK H PARENT
REMARK Flexibility Score: 70.00
ROOT
ATOM      1  C   UNL     1     108.379  46.677  64.341  1.00  0.00     0.136 C 
ATOM      2  O   UNL     1     108.043  45.512  64.504  1.00  0.00    -0.299 OA
ENDROOT
BRANCH   1   3
ATOM      3  C   UNL     1     108.225  47.683  65.474  1.00  0.00     0.053 C 
ATOM      4  C   UNL     1     108.663  47.105  66.830  1.00  0.00     0.016 C 
BRANCH   3   5
ATOM      5  C   UNL     1     106.795  48.261  65.555  1.00  0.00     0.015 C 
BRANCH   5   6
ATOM      6  C   UNL     1     106.518  49.357  64.509  1.00  0.00     0.028 C 
BRANCH   6   7
ATOM      7  C   UNL     1     107.152  50.679  64.863  1.00  0.00    -0.028 C 
ATOM      8  C   UNL     1     108.403  51.081  64.517  1.00  0.00    -0.070 CG0
ATOM      9  C   UNL     1     108.798  52.492  64.880  1.00  0.00     0.039 C 
ATOM     10  G   UNL     1     109.442  50.185  63.851  1.00  0.00     0.000 G0
ENDBRANCH   6   7
ENDBRANCH   5   6
ENDBRANCH   3   5
ENDBRANCH   1   3
BRANCH   1  11
ATOM     11  C   UNL     1     108.977  47.083  63.014  1.00  0.00     0.087 C 
BRANCH  11  12
ATOM     12  C   UNL     1     108.266  48.315  62.384  1.00  0.00     0.066 C 
BRANCH  12  13
ATOM     13  C   UNL     1     109.055  49.615  62.519  1.00  0.00     0.140 C 
ATOM     14  O   UNL     1     109.486  50.143  61.503  1.00  0.00    -0.299 OA
BRANCH  13  15
ATOM     15  C   UNL     1     109.454  50.191  63.857  1.00  0.00     0.106 CG0
ATOM     16  G   UNL     1     108.383  51.059  64.512  1.00  0.00     0.000 G0
ENDBRANCH  13  15
ENDBRANCH  12  13
BRANCH  12  17
ATOM     17  C   UNL     1     107.801  48.086  60.909  1.00  0.00    -0.006 C 
ATOM     18  C   UNL     1     106.267  48.069  60.799  1.00  0.00     0.008 C 
ATOM     19  C   UNL     1     108.377  46.819  60.253  1.00  0.00     0.008 C 
ENDBRANCH  12  17
ENDBRANCH  11  12
ENDBRANCH   1  11
TORSDOF 1
ENDMDL
MODEL 2
REMARK VINA RESULT:    -2.905      7.233     10.076
REMARK INTER + INTRA:          -3.542
REMARK INTER:                  -4.601
REMARK INTRA:                   1.059
REMARK UNBOUND:                 0.891
REMARK SMILES CC1=CCC[C@@H](C)C(=O)C[C@H](C(C)C)C(=O)C1
REMARK SMILES IDX 8 1 9 2 6 3 7 4 5 5 4 6 3 7 2 8 1 9 10 11 11 12 15 13 16 14
REMARK SMILES IDX 17 15 12 17 13 18 14 19
REMARK H PARENT
REMARK Flexibility Score: 70.00
ROOT
ATOM      1  C   UNL     1     104.586  50.023  53.970  1.00  0.00     0.136 C 
ATOM      2  O   UNL     1     105.671  50.505  54.263  1.00  0.00    -0.299 OA
ENDROOT
BRANCH   1   3
ATOM      3  C   UNL     1     103.301  50.773  54.299  1.00  0.00     0.053 C 
ATOM      4  C   UNL     1     103.167  52.079  53.498  1.00  0.00     0.016 C 
BRANCH   3   5
ATOM      5  C   UNL     1     103.148  51.036  55.813  1.00  0.00     0.015 C 
BRANCH   5   6
ATOM      6  C   UNL     1     102.136  50.096  56.497  1.00  0.00     0.028 C 
BRANCH   6   7
ATOM      7  C   UNL     1     102.677  49.470  57.758  1.00  0.00    -0.028 C 
ATOM      8  C   UNL     1     103.302  48.267  57.846  1.00  0.00    -0.070 CG0
ATOM      9  C   UNL     1     103.866  47.880  59.192  1.00  0.00     0.039 C 
ATOM     10  G   UNL     1     103.412  47.268  56.699  1.00  0.00     0.000 G0
ENDBRANCH   6   7
ENDBRANCH   5   6
ENDBRANCH   3   5
ENDBRANCH   1   3
BRANCH   1  11
ATOM     11  C   UNL     1     104.549  48.696  53.248  1.00  0.00     0.087 C 
BRANCH  11  12
ATOM     12  C   UNL     1     103.984  47.546  54.129  1.00  0.00     0.066 C 
BRANCH  12  13
ATOM     13  C   UNL     1     104.353  47.664  55.605  1.00  0.00     0.140 C 
ATOM     14  O   UNL     1     105.499  47.975  55.897  1.00  0.00    -0.299 OA
BRANCH  13  15
ATOM     15  C   UNL     1     103.410  47.265  56.716  1.00  0.00     0.106 CG0
ATOM     16  G   UNL     1     103.309  48.281  57.850  1.00  0.00     0.000 G0
ENDBRANCH  13  15
ENDBRANCH  12  13
BRANCH  12  17
ATOM     17  C   UNL     1     102.448  47.311  53.947  1.00  0.00    -0.006 C 
ATOM     18  C   UNL     1     102.000  45.993  54.601  1.00  0.00     0.008 C 
ATOM     19  C   UNL     1     101.971  47.348  52.485  1.00  0.00     0.008 C 
ENDBRANCH  12  17
ENDBRANCH  11  12
ENDBRANCH   1  11
TORSDOF 1
ENDMDL
MODEL 3
REMARK VINA RESULT:    -2.802      7.615     10.385
REMARK INTER + INTRA:          -3.385
REMARK INTER:                  -4.219
REMARK INTRA:                   0.834
REMARK UNBOUND:                 0.891
REMARK SMILES CC1=CCC[C@@H](C)C(=O)C[C@H](C(C)C)C(=O)C1
REMARK SMILES IDX 8 1 9 2 6 3 7 4 5 5 4 6 3 7 2 8 1 9 10 11 11 12 15 13 16 14
REMARK SMILES IDX 17 15 12 17 13 18 14 19
REMARK H PARENT
REMARK Flexibility Score: 70.00
ROOT
ATOM      1  C   UNL     1     102.402  47.075  54.881  1.00  0.00     0.136 C 
ATOM      2  O   UNL     1     102.344  45.853  54.843  1.00  0.00    -0.299 OA
ENDROOT
BRANCH   1   3
ATOM      3  C   UNL     1     102.862  47.857  53.658  1.00  0.00     0.053 C 
ATOM      4  C   UNL     1     102.297  47.280  52.349  1.00  0.00     0.016 C 
BRANCH   3   5
ATOM      5  C   UNL     1     104.400  47.983  53.587  1.00  0.00     0.015 C 
BRANCH   5   6
ATOM      6  C   UNL     1     104.969  49.062  54.529  1.00  0.00     0.028 C 
BRANCH   6   7
ATOM      7  C   UNL     1     104.714  50.464  54.036  1.00  0.00    -0.028 C 
ATOM      8  C   UNL     1     103.668  51.256  54.388  1.00  0.00    -0.070 CG0
ATOM      9  C   UNL     1     103.666  52.670  53.862  1.00  0.00     0.039 C 
ATOM     10  G   UNL     1     102.476  50.788  55.219  1.00  0.00     0.000 G0
ENDBRANCH   6   7
ENDBRANCH   5   6
ENDBRANCH   3   5
ENDBRANCH   1   3
BRANCH   1  11
ATOM     11  C   UNL     1     101.975  47.784  56.144  1.00  0.00     0.087 C 
BRANCH  11  12
ATOM     12  C   UNL     1     103.088  48.702  56.726  1.00  0.00     0.066 C 
BRANCH  12  13
ATOM     13  C   UNL     1     102.810  50.193  56.550  1.00  0.00     0.140 C 
ATOM     14  O   UNL     1     102.739  50.894  57.549  1.00  0.00    -0.299 OA
BRANCH  13  15
ATOM     15  C   UNL     1     102.469  50.806  55.212  1.00  0.00     0.106 CG0
ATOM     16  G   UNL     1     103.680  51.253  54.398  1.00  0.00     0.000 G0
ENDBRANCH  13  15
ENDBRANCH  12  13
BRANCH  12  17
ATOM     17  C   UNL     1     103.468  48.369  58.206  1.00  0.00    -0.006 C 
ATOM     18  C   UNL     1     104.988  48.207  58.373  1.00  0.00     0.008 C 
ATOM     19  C   UNL     1     102.753  47.133  58.780  1.00  0.00     0.008 C 
ENDBRANCH  12  17
ENDBRANCH  11  12
ENDBRANCH   1  11
TORSDOF 1
ENDMDL
MODEL 4
REMARK VINA RESULT:    -2.793      1.844      4.912
REMARK INTER + INTRA:          -3.372
REMARK INTER:                  -4.500
REMARK INTRA:                   1.128
REMARK UNBOUND:                 0.891
REMARK SMILES CC1=CCC[C@@H](C)C(=O)C[C@H](C(C)C)C(=O)C1
REMARK SMILES IDX 8 1 9 2 6 3 7 4 5 5 4 6 3 7 2 8 1 9 10 11 11 12 15 13 16 14
REMARK SMILES IDX 17 15 12 17 13 18 14 19
REMARK H PARENT
REMARK Flexibility Score: 70.00
ROOT
ATOM      1  C   UNL     1     108.771  49.324  62.046  1.00  0.00     0.136 C 
ATOM      2  O   UNL     1     109.465  49.985  61.285  1.00  0.00    -0.299 OA
ENDROOT
BRANCH   1   3
ATOM      3  C   UNL     1     107.649  48.453  61.495  1.00  0.00     0.053 C 
ATOM      4  C   UNL     1     106.332  48.641  62.267  1.00  0.00     0.016 C 
BRANCH   3   5
ATOM      5  C   UNL     1     108.044  46.961  61.431  1.00  0.00     0.015 C 
BRANCH   5   6
ATOM      6  C   UNL     1     109.169  46.583  62.412  1.00  0.00     0.028 C 
BRANCH   6   7
ATOM      7  C   UNL     1     108.740  45.559  63.432  1.00  0.00    -0.028 C 
ATOM      8  C   UNL     1     108.489  45.798  64.745  1.00  0.00    -0.070 CG0
ATOM      9  C   UNL     1     107.961  44.647  65.567  1.00  0.00     0.039 C 
ATOM     10  G   UNL     1     108.767  47.124  65.447  1.00  0.00     0.000 G0
ENDBRANCH   6   7
ENDBRANCH   5   6
ENDBRANCH   3   5
ENDBRANCH   1   3
BRANCH   1  11
ATOM     11  C   UNL     1     109.073  49.361  63.525  1.00  0.00     0.087 C 
BRANCH  11  12
ATOM     12  C   UNL     1     107.789  49.373  64.403  1.00  0.00     0.066 C 
BRANCH  12  13
ATOM     13  C   UNL     1     107.661  48.160  65.321  1.00  0.00     0.140 C 
ATOM     14  O   UNL     1     106.688  48.088  66.058  1.00  0.00    -0.299 OA
BRANCH  13  15
ATOM     15  C   UNL     1     108.755  47.129  65.467  1.00  0.00     0.106 CG0
ATOM     16  G   UNL     1     108.478  45.812  64.748  1.00  0.00     0.000 G0
ENDBRANCH  13  15
ENDBRANCH  12  13
BRANCH  12  17
ATOM     17  C   UNL     1     107.579  50.706  65.194  1.00  0.00    -0.006 C 
ATOM     18  C   UNL     1     106.133  51.214  65.067  1.00  0.00     0.008 C 
ATOM     19  C   UNL     1     108.555  51.831  64.807  1.00  0.00     0.008 C 
ENDBRANCH  12  17
ENDBRANCH  11  12
ENDBRANCH   1  11
TORSDOF 1
ENDMDL
MODEL 5
REMARK VINA RESULT:    -2.395      8.347     10.628
REMARK INTER + INTRA:          -2.764
REMARK INTER:                  -3.240
REMARK INTRA:                   0.476
REMARK UNBOUND:                 0.891
REMARK SMILES CC1=CCC[C@@H](C)C(=O)C[C@H](C(C)C)C(=O)C1
REMARK SMILES IDX 8 1 9 2 6 3 7 4 5 5 4 6 3 7 2 8 1 9 10 11 11 12 15 13 16 14
REMARK SMILES IDX 17 15 12 17 13 18 14 19
REMARK H PARENT
REMARK Flexibility Score: 70.00
ROOT
ATOM      1  C   UNL     1     102.759  50.197  56.837  1.00  0.00     0.136 C 
ATOM      2  O   UNL     1     102.714  51.196  57.541  1.00  0.00    -0.299 OA
ENDROOT
BRANCH   1   3
ATOM      3  C   UNL     1     102.827  48.815  57.473  1.00  0.00     0.053 C 
ATOM      4  C   UNL     1     104.252  48.236  57.460  1.00  0.00     0.016 C 
BRANCH   3   5
ATOM      5  C   UNL     1     101.824  47.827  56.837  1.00  0.00     0.015 C 
BRANCH   5   6
ATOM      6  C   UNL     1     102.491  46.789  55.913  1.00  0.00     0.028 C 
BRANCH   6   7
ATOM      7  C   UNL     1     102.366  47.138  54.452  1.00  0.00    -0.028 C 
ATOM      8  C   UNL     1     103.320  47.735  53.691  1.00  0.00    -0.070 CG0
ATOM      9  C   UNL     1     103.028  47.893  52.218  1.00  0.00     0.039 C 
ATOM     10  G   UNL     1     104.624  48.308  54.238  1.00  0.00     0.000 G0
ENDBRANCH   6   7
ENDBRANCH   5   6
ENDBRANCH   3   5
ENDBRANCH   1   3
BRANCH   1  11
ATOM     11  C   UNL     1     102.708  50.362  55.336  1.00  0.00     0.087 C 
BRANCH  11  12
ATOM     12  C   UNL     1     104.054  50.865  54.739  1.00  0.00     0.066 C 
BRANCH  12  13
ATOM     13  C   UNL     1     104.824  49.794  53.970  1.00  0.00     0.140 C 
ATOM     14  O   UNL     1     105.522  50.141  53.028  1.00  0.00    -0.299 OA
BRANCH  13  15
ATOM     15  C   UNL     1     104.640  48.316  54.226  1.00  0.00     0.106 CG0
ATOM     16  G   UNL     1     103.331  47.744  53.692  1.00  0.00     0.000 G0
ENDBRANCH  13  15
ENDBRANCH  12  13
BRANCH  12  17
ATOM     17  C   UNL     1     103.918  52.176  53.898  1.00  0.00    -0.006 C 
ATOM     18  C   UNL     1     105.108  53.122  54.134  1.00  0.00     0.008 C 
ATOM     19  C   UNL     1     102.602  52.940  54.126  1.00  0.00     0.008 C 
ENDBRANCH  12  17
ENDBRANCH  11  12
ENDBRANCH   1  11
TORSDOF 1
ENDMDL
MODEL 6
REMARK VINA RESULT:    -2.389      1.545      4.114
REMARK INTER + INTRA:          -2.755
REMARK INTER:                  -3.115
REMARK INTRA:                   0.360
REMARK UNBOUND:                 0.891
REMARK SMILES CC1=CCC[C@@H](C)C(=O)C[C@H](C(C)C)C(=O)C1
REMARK SMILES IDX 8 1 9 2 6 3 7 4 5 5 4 6 3 7 2 8 1 9 10 11 11 12 15 13 16 14
REMARK SMILES IDX 17 15 12 17 13 18 14 19
REMARK H PARENT
REMARK Flexibility Score: 70.00
ROOT
ATOM      1  C   UNL     1     106.814  49.001  64.918  1.00  0.00     0.136 C 
ATOM      2  O   UNL     1     106.052  48.555  64.070  1.00  0.00    -0.299 OA
ENDROOT
BRANCH   1   3
ATOM      3  C   UNL     1     107.324  48.103  66.037  1.00  0.00     0.053 C 
ATOM      4  C   UNL     1     108.633  48.624  66.654  1.00  0.00     0.016 C 
BRANCH   3   5
ATOM      5  C   UNL     1     107.473  46.632  65.587  1.00  0.00     0.015 C 
BRANCH   5   6
ATOM      6  C   UNL     1     108.713  46.385  64.707  1.00  0.00     0.028 C 
BRANCH   6   7
ATOM      7  C   UNL     1     108.426  46.536  63.235  1.00  0.00    -0.028 C 
ATOM      8  C   UNL     1     108.954  47.479  62.412  1.00  0.00    -0.070 CG0
ATOM      9  C   UNL     1     108.618  47.380  60.944  1.00  0.00     0.039 C 
ATOM     10  G   UNL     1     109.802  48.657  62.885  1.00  0.00     0.000 G0
ENDBRANCH   6   7
ENDBRANCH   5   6
ENDBRANCH   3   5
ENDBRANCH   1   3
BRANCH   1  11
ATOM     11  C   UNL     1     107.264  50.439  64.807  1.00  0.00     0.087 C 
BRANCH  11  12
ATOM     12  C   UNL     1     108.760  50.574  64.405  1.00  0.00     0.066 C 
BRANCH  12  13
ATOM     13  C   UNL     1     109.086  49.971  63.041  1.00  0.00     0.140 C 
ATOM     14  O   UNL     1     108.632  50.510  62.042  1.00  0.00    -0.299 OA
BRANCH  13  15
ATOM     15  C   UNL     1     109.815  48.656  62.885  1.00  0.00     0.106 CG0
ATOM     16  G   UNL     1     108.935  47.503  62.411  1.00  0.00     0.000 G0
ENDBRANCH  13  15
ENDBRANCH  12  13
BRANCH  12  17
ATOM     17  C   UNL     1     109.315  52.031  64.526  1.00  0.00    -0.006 C 
ATOM     18  C   UNL     1     110.207  52.192  65.769  1.00  0.00     0.008 C 
ATOM     19  C   UNL     1     108.231  53.123  64.526  1.00  0.00     0.008 C 
ENDBRANCH  12  17
ENDBRANCH  11  12
ENDBRANCH   1  11
TORSDOF 1
ENDMDL
MODEL 7
REMARK VINA RESULT:    -2.284      7.681      9.859
REMARK INTER + INTRA:          -2.595
REMARK INTER:                  -3.846
REMARK INTRA:                   1.252
REMARK UNBOUND:                 0.891
REMARK SMILES CC1=CCC[C@@H](C)C(=O)C[C@H](C(C)C)C(=O)C1
REMARK SMILES IDX 8 1 9 2 6 3 7 4 5 5 4 6 3 7 2 8 1 9 10 11 11 12 15 13 16 14
REMARK SMILES IDX 17 15 12 17 13 18 14 19
REMARK H PARENT
REMARK Flexibility Score: 70.00
ROOT
ATOM      1  C   UNL     1     103.199  47.477  57.055  1.00  0.00     0.136 C 
ATOM      2  O   UNL     1     102.222  46.807  57.362  1.00  0.00    -0.299 OA
ENDROOT
BRANCH   1   3
ATOM      3  C   UNL     1     103.671  48.604  57.965  1.00  0.00     0.053 C 
ATOM      4  C   UNL     1     103.492  48.264  59.454  1.00  0.00     0.016 C 
BRANCH   3   5
ATOM      5  C   UNL     1     103.002  49.953  57.622  1.00  0.00     0.015 C 
BRANCH   5   6
ATOM      6  C   UNL     1     102.314  49.962  56.243  1.00  0.00     0.028 C 
BRANCH   6   7
ATOM      7  C   UNL     1     102.750  51.117  55.378  1.00  0.00    -0.028 C 
ATOM      8  C   UNL     1     103.784  51.108  54.497  1.00  0.00    -0.070 CG0
ATOM      9  C   UNL     1     103.978  52.341  53.648  1.00  0.00     0.039 C 
ATOM     10  G   UNL     1     104.790  49.968  54.362  1.00  0.00     0.000 G0
ENDBRANCH   6   7
ENDBRANCH   5   6
ENDBRANCH   3   5
ENDBRANCH   1   3
BRANCH   1  11
ATOM     11  C   UNL     1     103.942  47.141  55.783  1.00  0.00     0.087 C 
BRANCH  11  12
ATOM     12  C   UNL     1     103.286  47.765  54.518  1.00  0.00     0.066 C 
BRANCH  12  13
ATOM     13  C   UNL     1     104.211  48.700  53.744  1.00  0.00     0.140 C 
ATOM     14  O   UNL     1     104.606  48.348  52.642  1.00  0.00    -0.299 OA
BRANCH  13  15
ATOM     15  C   UNL     1     104.777  49.966  54.343  1.00  0.00     0.106 CG0
ATOM     16  G   UNL     1     103.770  51.105  54.473  1.00  0.00     0.000 G0
ENDBRANCH  13  15
ENDBRANCH  12  13
BRANCH  12  17
ATOM     17  C   UNL     1     102.623  46.713  53.570  1.00  0.00    -0.006 C 
ATOM     18  C   UNL     1     101.873  47.393  52.412  1.00  0.00     0.008 C 
ATOM     19  C   UNL     1     101.682  45.724  54.280  1.00  0.00     0.008 C 
ENDBRANCH  12  17
ENDBRANCH  11  12
ENDBRANCH   1  11
TORSDOF 1
ENDMDL
MODEL 8
REMARK VINA RESULT:    -2.003      7.701     10.346
REMARK INTER + INTRA:          -2.166
REMARK INTER:                  -4.229
REMARK INTRA:                   2.063
REMARK UNBOUND:                 0.891
REMARK SMILES CC1=CCC[C@@H](C)C(=O)C[C@H](C(C)C)C(=O)C1
REMARK SMILES IDX 8 1 9 2 6 3 7 4 5 5 4 6 3 7 2 8 1 9 10 11 11 12 15 13 16 14
REMARK SMILES IDX 17 15 12 17 13 18 14 19
REMARK H PARENT
REMARK Flexibility Score: 70.00
ROOT
ATOM      1  C   UNL     1     104.584  48.322  54.104  1.00  0.00     0.136 C 
ATOM      2  O   UNL     1     105.330  47.799  54.921  1.00  0.00    -0.299 OA
ENDROOT
BRANCH   1   3
ATOM      3  C   UNL     1     103.568  47.478  53.346  1.00  0.00     0.053 C 
ATOM      4  C   UNL     1     102.677  48.327  52.424  1.00  0.00     0.016 C 
BRANCH   3   5
ATOM      5  C   UNL     1     102.712  46.604  54.289  1.00  0.00     0.015 C 
BRANCH   5   6
ATOM      6  C   UNL     1     101.877  47.422  55.292  1.00  0.00     0.028 C 
BRANCH   6   7
ATOM      7  C   UNL     1     102.341  47.255  56.716  1.00  0.00    -0.028 C 
ATOM      8  C   UNL     1     103.199  48.075  57.377  1.00  0.00    -0.070 CG0
ATOM      9  C   UNL     1     103.444  47.785  58.838  1.00  0.00     0.039 C 
ATOM     10  G   UNL     1     103.973  49.217  56.724  1.00  0.00     0.000 G0
ENDBRANCH   6   7
ENDBRANCH   5   6
ENDBRANCH   3   5
ENDBRANCH   1   3
BRANCH   1  11
ATOM     11  C   UNL     1     104.668  49.816  53.895  1.00  0.00     0.087 C 
BRANCH  11  12
ATOM     12  C   UNL     1     103.452  50.577  54.496  1.00  0.00     0.066 C 
BRANCH  12  13
ATOM     13  C   UNL     1     103.141  50.196  55.941  1.00  0.00     0.140 C 
ATOM     14  O   UNL     1     102.255  50.803  56.526  1.00  0.00    -0.299 OA
BRANCH  13  15
ATOM     15  C   UNL     1     103.979  49.211  56.722  1.00  0.00     0.106 CG0
ATOM     16  G   UNL     1     103.182  48.082  57.369  1.00  0.00     0.000 G0
ENDBRANCH  13  15
ENDBRANCH  12  13
BRANCH  12  17
ATOM     17  C   UNL     1     103.537  52.130  54.327  1.00  0.00    -0.006 C 
ATOM     18  C   UNL     1     102.455  52.651  53.365  1.00  0.00     0.008 C 
ATOM     19  C   UNL     1     104.915  52.643  53.875  1.00  0.00     0.008 C 
ENDBRANCH  12  17
ENDBRANCH  11  12
ENDBRANCH   1  11
TORSDOF 1
ENDMDL
MODEL 9
REMARK VINA RESULT:    -1.996      8.628     10.236
REMARK INTER + INTRA:          -2.155
REMARK INTER:                  -4.735
REMARK INTRA:                   2.580
REMARK UNBOUND:                 0.891
REMARK SMILES CC1=CCC[C@@H](C)C(=O)C[C@H](C(C)C)C(=O)C1
REMARK SMILES IDX 8 1 9 2 6 3 7 4 5 5 4 6 3 7 2 8 1 9 10 11 11 12 15 13 16 14
REMARK SMILES IDX 17 15 12 17 13 18 14 19
REMARK H PARENT
REMARK Flexibility Score: 70.00
ROOT
ATOM      1  C   UNL     1     103.062  47.446  53.934  1.00  0.00     0.136 C 
ATOM      2  O   UNL     1     102.586  47.485  52.808  1.00  0.00    -0.299 OA
ENDROOT
BRANCH   1   3
ATOM      3  C   UNL     1     102.499  46.483  54.971  1.00  0.00     0.053 C 
ATOM      4  C   UNL     1     101.398  45.579  54.390  1.00  0.00     0.016 C 
BRANCH   3   5
ATOM      5  C   UNL     1     102.003  47.211  56.239  1.00  0.00     0.015 C 
BRANCH   5   6
ATOM      6  C   UNL     1     103.109  47.430  57.290  1.00  0.00     0.028 C 
BRANCH   6   7
ATOM      7  C   UNL     1     103.207  48.863  57.747  1.00  0.00    -0.028 C 
ATOM      8  C   UNL     1     102.731  49.948  57.081  1.00  0.00    -0.070 CG0
ATOM      9  C   UNL     1     102.838  51.284  57.774  1.00  0.00     0.039 C 
ATOM     10  G   UNL     1     102.160  49.907  55.667  1.00  0.00     0.000 G0
ENDBRANCH   6   7
ENDBRANCH   5   6
ENDBRANCH   3   5
ENDBRANCH   1   3
BRANCH   1  11
ATOM     11  C   UNL     1     104.236  48.340  54.259  1.00  0.00     0.087 C 
BRANCH  11  12
ATOM     12  C   UNL     1     104.029  49.805  53.780  1.00  0.00     0.066 C 
BRANCH  12  13
ATOM     13  C   UNL     1     103.015  50.586  54.611  1.00  0.00     0.140 C 
ATOM     14  O   UNL     1     102.991  51.805  54.508  1.00  0.00    -0.299 OA
BRANCH  13  15
ATOM     15  C   UNL     1     102.149  49.935  55.665  1.00  0.00     0.106 CG0
ATOM     16  G   UNL     1     102.741  49.966  57.071  1.00  0.00     0.000 G0
ENDBRANCH  13  15
ENDBRANCH  12  13
BRANCH  12  17
ATOM     17  C   UNL     1     105.361  50.607  53.613  1.00  0.00    -0.006 C 
ATOM     18  C   UNL     1     106.505  49.972  54.423  1.00  0.00     0.008 C 
ATOM     19  C   UNL     1     105.249  52.100  53.967  1.00  0.00     0.008 C 
ENDBRANCH  12  17
ENDBRANCH  11  12
ENDBRANCH   1  11
TORSDOF 1
ENDMDL
