MODEL 1
REMARK VINA RESULT:    -3.882      0.000      0.000
REMARK INTER + INTRA:          -8.929
REMARK INTER:                  -8.420
REMARK INTRA:                  -0.508
REMARK UNBOUND:                -0.508
REMARK SMILES CCCCCCCCCCCCCCCCCCCCCC(=O)[O-]
REMARK SMILES IDX 12 1 11 2 10 3 9 4 8 5 7 6 6 7 5 8 4 9 3 10 2 11 1 12 13 13
REMARK SMILES IDX 14 14 15 15 16 16 17 17 18 18 19 19 20 20 21 21 22 22 23 23
REMARK SMILES IDX 24 24
REMARK H PARENT
REMARK Flexibility Score: inf
ROOT
ATOM      1  C   UNL     1      16.950  22.289   4.941  1.00  0.00     0.000 C 
ENDROOT
BRANCH   1   2
ATOM      2  C   UNL     1      15.686  22.089   5.792  1.00  0.00     0.000 C 
BRANCH   2   3
ATOM      3  C   UNL     1      15.850  20.895   6.744  1.00  0.00     0.000 C 
BRANCH   3   4
ATOM      4  C   UNL     1      16.803  21.196   7.912  1.00  0.00    -0.000 C 
BRANCH   4   5
ATOM      5  C   UNL     1      16.175  20.887   9.282  1.00  0.00    -0.000 C 
BRANCH   5   6
ATOM      6  C   UNL     1      16.896  21.604  10.435  1.00  0.00    -0.000 C 
BRANCH   6   7
ATOM      7  C   UNL     1      15.929  22.386  11.340  1.00  0.00    -0.000 C 
BRANCH   7   8
ATOM      8  C   UNL     1      16.661  23.312  12.324  1.00  0.00    -0.000 C 
BRANCH   8   9
ATOM      9  C   UNL     1      17.440  24.432  11.611  1.00  0.00    -0.000 C 
BRANCH   9  10
ATOM     10  C   UNL     1      18.536  23.890  10.681  1.00  0.00    -0.000 C 
BRANCH  10  11
ATOM     11  C   UNL     1      19.667  24.904  10.451  1.00  0.00    -0.003 C 
ATOM     12  C   UNL     1      21.029  24.285  10.755  1.00  0.00     0.004 C 
ENDBRANCH  10  11
ENDBRANCH   9  10
ENDBRANCH   8   9
ENDBRANCH   7   8
ENDBRANCH   6   7
ENDBRANCH   5   6
ENDBRANCH   4   5
ENDBRANCH   3   4
ENDBRANCH   2   3
ENDBRANCH   1   2
BRANCH   1  13
ATOM     13  C   UNL     1      17.680  23.603   5.261  1.00  0.00     0.000 C 
BRANCH  13  14
ATOM     14  C   UNL     1      18.876  23.859   4.328  1.00  0.00     0.000 C 
BRANCH  14  15
ATOM     15  C   UNL     1      19.109  25.355   4.062  1.00  0.00     0.000 C 
BRANCH  15  16
ATOM     16  C   UNL     1      19.506  25.645   2.606  1.00  0.00     0.000 C 
BRANCH  16  17
ATOM     17  C   UNL     1      19.212  24.434   1.707  1.00  0.00     0.000 C 
BRANCH  17  18
ATOM     18  C   UNL     1      18.852  24.839   0.268  1.00  0.00     0.000 C 
BRANCH  18  19
ATOM     19  C   UNL     1      18.494  26.330   0.146  1.00  0.00     0.000 C 
BRANCH  19  20
ATOM     20  C   UNL     1      17.286  26.577  -0.776  1.00  0.00     0.006 C 
BRANCH  20  21
ATOM     21  C   UNL     1      17.041  25.463  -1.807  1.00  0.00     0.053 C 
BRANCH  21  22
ATOM     22  C   UNL     1      15.587  25.317  -2.136  1.00  0.00     0.041 C 
ATOM     23  O   UNL     1      14.755  25.052  -1.230  1.00  0.00    -0.550 OA
ATOM     24  O   UNL     1      15.157  25.438  -3.452  1.00  0.00    -0.550 OA
ENDBRANCH  21  22
ENDBRANCH  20  21
ENDBRANCH  19  20
ENDBRANCH  18  19
ENDBRANCH  17  18
ENDBRANCH  16  17
ENDBRANCH  15  16
ENDBRANCH  14  15
ENDBRANCH  13  14
ENDBRANCH   1  13
TORSDOF 20
ENDMDL
MODEL 2
REMARK VINA RESULT:    -3.706      4.249      6.753
REMARK INTER + INTRA:          -8.548
REMARK INTER:                  -7.206
REMARK INTRA:                  -1.342
REMARK UNBOUND:                -0.508
REMARK SMILES CCCCCCCCCCCCCCCCCCCCCC(=O)[O-]
REMARK SMILES IDX 12 1 11 2 10 3 9 4 8 5 7 6 6 7 5 8 4 9 3 10 2 11 1 12 13 13
REMARK SMILES IDX 14 14 15 15 16 16 17 17 18 18 19 19 20 20 21 21 22 22 23 23
REMARK SMILES IDX 24 24
REMARK H PARENT
REMARK Flexibility Score: inf
ROOT
ATOM      1  C   UNL     1      19.189  24.901   1.885  1.00  0.00     0.000 C 
ENDROOT
BRANCH   1   2
ATOM      2  C   UNL     1      19.868  24.880   3.263  1.00  0.00     0.000 C 
BRANCH   2   3
ATOM      3  C   UNL     1      19.272  23.777   4.150  1.00  0.00     0.000 C 
BRANCH   3   4
ATOM      4  C   UNL     1      18.246  24.319   5.158  1.00  0.00    -0.000 C 
BRANCH   4   5
ATOM      5  C   UNL     1      17.529  23.199   5.931  1.00  0.00    -0.000 C 
BRANCH   5   6
ATOM      6  C   UNL     1      16.580  22.383   5.039  1.00  0.00    -0.000 C 
BRANCH   6   7
ATOM      7  C   UNL     1      15.462  21.697   5.842  1.00  0.00    -0.000 C 
BRANCH   7   8
ATOM      8  C   UNL     1      14.085  21.839   5.174  1.00  0.00    -0.000 C 
BRANCH   8   9
ATOM      9  C   UNL     1      13.585  23.295   5.159  1.00  0.00    -0.000 C 
BRANCH   9  10
ATOM     10  C   UNL     1      12.524  23.545   4.077  1.00  0.00    -0.000 C 
BRANCH  10  11
ATOM     11  C   UNL     1      12.371  22.356   3.116  1.00  0.00    -0.003 C 
ATOM     12  C   UNL     1      11.001  22.367   2.444  1.00  0.00     0.004 C 
ENDBRANCH  10  11
ENDBRANCH   9  10
ENDBRANCH   8   9
ENDBRANCH   7   8
ENDBRANCH   6   7
ENDBRANCH   5   6
ENDBRANCH   4   5
ENDBRANCH   3   4
ENDBRANCH   2   3
ENDBRANCH   1   2
BRANCH   1  13
ATOM     13  C   UNL     1      19.885  23.986   0.864  1.00  0.00     0.000 C 
BRANCH  13  14
ATOM     14  C   UNL     1      19.139  23.921  -0.479  1.00  0.00     0.000 C 
BRANCH  14  15
ATOM     15  C   UNL     1      17.613  24.012  -0.312  1.00  0.00     0.000 C 
BRANCH  15  16
ATOM     16  C   UNL     1      16.980  25.080  -1.217  1.00  0.00     0.000 C 
BRANCH  16  17
ATOM     17  C   UNL     1      17.030  26.463  -0.549  1.00  0.00     0.000 C 
BRANCH  17  18
ATOM     18  C   UNL     1      18.392  27.154  -0.720  1.00  0.00     0.000 C 
BRANCH  18  19
ATOM     19  C   UNL     1      18.770  28.024   0.492  1.00  0.00     0.000 C 
BRANCH  19  20
ATOM     20  C   UNL     1      19.854  29.066   0.161  1.00  0.00     0.006 C 
BRANCH  20  21
ATOM     21  C   UNL     1      19.823  30.315   1.056  1.00  0.00     0.053 C 
BRANCH  21  22
ATOM     22  C   UNL     1      20.964  31.241   0.764  1.00  0.00     0.041 C 
ATOM     23  O   UNL     1      22.122  30.783   0.584  1.00  0.00    -0.550 OA
ATOM     24  O   UNL     1      20.752  32.613   0.727  1.00  0.00    -0.550 OA
ENDBRANCH  21  22
ENDBRANCH  20  21
ENDBRANCH  19  20
ENDBRANCH  18  19
ENDBRANCH  17  18
ENDBRANCH  16  17
ENDBRANCH  15  16
ENDBRANCH  14  15
ENDBRANCH  13  14
ENDBRANCH   1  13
TORSDOF 20
ENDMDL
MODEL 3
REMARK VINA RESULT:    -3.557      0.912      1.973
REMARK INTER + INTRA:          -8.223
REMARK INTER:                  -6.781
REMARK INTRA:                  -1.442
REMARK UNBOUND:                -0.508
REMARK SMILES CCCCCCCCCCCCCCCCCCCCCC(=O)[O-]
REMARK SMILES IDX 12 1 11 2 10 3 9 4 8 5 7 6 6 7 5 8 4 9 3 10 2 11 1 12 13 13
REMARK SMILES IDX 14 14 15 15 16 16 17 17 18 18 19 19 20 20 21 21 22 22 23 23
REMARK SMILES IDX 24 24
REMARK H PARENT
REMARK Flexibility Score: inf
ROOT
ATOM      1  C   UNL     1      16.776  22.513   4.787  1.00  0.00     0.000 C 
ENDROOT
BRANCH   1   2
ATOM      2  C   UNL     1      15.338  22.653   5.310  1.00  0.00     0.000 C 
BRANCH   2   3
ATOM      3  C   UNL     1      14.914  21.400   6.089  1.00  0.00     0.000 C 
BRANCH   3   4
ATOM      4  C   UNL     1      16.102  20.688   6.757  1.00  0.00    -0.000 C 
BRANCH   4   5
ATOM      5  C   UNL     1      16.382  21.211   8.177  1.00  0.00    -0.000 C 
BRANCH   5   6
ATOM      6  C   UNL     1      17.705  21.988   8.268  1.00  0.00    -0.000 C 
BRANCH   6   7
ATOM      7  C   UNL     1      18.108  22.296   9.720  1.00  0.00    -0.000 C 
BRANCH   7   8
ATOM      8  C   UNL     1      18.795  23.664   9.863  1.00  0.00    -0.000 C 
BRANCH   8   9
ATOM      9  C   UNL     1      18.266  24.466  11.066  1.00  0.00    -0.000 C 
BRANCH   9  10
ATOM     10  C   UNL     1      16.930  23.923  11.596  1.00  0.00    -0.000 C 
BRANCH  10  11
ATOM     11  C   UNL     1      16.992  23.558  13.087  1.00  0.00    -0.003 C 
ATOM     12  C   UNL     1      16.289  24.612  13.939  1.00  0.00     0.004 C 
ENDBRANCH  10  11
ENDBRANCH   9  10
ENDBRANCH   8   9
ENDBRANCH   7   8
ENDBRANCH   6   7
ENDBRANCH   5   6
ENDBRANCH   4   5
ENDBRANCH   3   4
ENDBRANCH   2   3
ENDBRANCH   1   2
BRANCH   1  13
ATOM     13  C   UNL     1      17.675  23.692   5.197  1.00  0.00     0.000 C 
BRANCH  13  14
ATOM     14  C   UNL     1      18.946  23.794   4.336  1.00  0.00     0.000 C 
BRANCH  14  15
ATOM     15  C   UNL     1      19.401  25.247   4.125  1.00  0.00     0.000 C 
BRANCH  15  16
ATOM     16  C   UNL     1      19.225  25.720   2.675  1.00  0.00     0.000 C 
BRANCH  16  17
ATOM     17  C   UNL     1      19.591  24.603   1.685  1.00  0.00     0.000 C 
BRANCH  17  18
ATOM     18  C   UNL     1      19.090  24.887   0.260  1.00  0.00     0.000 C 
BRANCH  18  19
ATOM     19  C   UNL     1      18.605  26.336   0.081  1.00  0.00     0.000 C 
BRANCH  19  20
ATOM     20  C   UNL     1      17.276  26.427  -0.690  1.00  0.00     0.006 C 
BRANCH  20  21
ATOM     21  C   UNL     1      16.889  25.138  -1.435  1.00  0.00     0.053 C 
BRANCH  21  22
ATOM     22  C   UNL     1      15.530  25.239  -2.058  1.00  0.00     0.041 C 
ATOM     23  O   UNL     1      15.409  25.592  -3.260  1.00  0.00    -0.550 OA
ATOM     24  O   UNL     1      14.397  24.976  -1.299  1.00  0.00    -0.550 OA
ENDBRANCH  21  22
ENDBRANCH  20  21
ENDBRANCH  19  20
ENDBRANCH  18  19
ENDBRANCH  17  18
ENDBRANCH  16  17
ENDBRANCH  15  16
ENDBRANCH  14  15
ENDBRANCH  13  14
ENDBRANCH   1  13
TORSDOF 20
ENDMDL
MODEL 4
REMARK VINA RESULT:    -3.470      4.703     10.610
REMARK INTER + INTRA:          -8.036
REMARK INTER:                  -6.639
REMARK INTRA:                  -1.397
REMARK UNBOUND:                -0.508
REMARK SMILES CCCCCCCCCCCCCCCCCCCCCC(=O)[O-]
REMARK SMILES IDX 12 1 11 2 10 3 9 4 8 5 7 6 6 7 5 8 4 9 3 10 2 11 1 12 13 13
REMARK SMILES IDX 14 14 15 15 16 16 17 17 18 18 19 19 20 20 21 21 22 22 23 23
REMARK SMILES IDX 24 24
REMARK H PARENT
REMARK Flexibility Score: inf
ROOT
ATOM      1  C   UNL     1      16.976  22.341   4.857  1.00  0.00     0.000 C 
ENDROOT
BRANCH   1   2
ATOM      2  C   UNL     1      17.759  23.595   5.275  1.00  0.00     0.000 C 
BRANCH   2   3
ATOM      3  C   UNL     1      18.905  23.877   4.293  1.00  0.00     0.000 C 
BRANCH   3   4
ATOM      4  C   UNL     1      19.162  25.381   4.100  1.00  0.00    -0.000 C 
BRANCH   4   5
ATOM      5  C   UNL     1      19.310  25.769   2.619  1.00  0.00    -0.000 C 
BRANCH   5   6
ATOM      6  C   UNL     1      19.637  24.563   1.724  1.00  0.00    -0.000 C 
BRANCH   6   7
ATOM      7  C   UNL     1      18.550  24.303   0.666  1.00  0.00    -0.000 C 
BRANCH   7   8
ATOM      8  C   UNL     1      19.011  24.670  -0.754  1.00  0.00    -0.000 C 
BRANCH   8   9
ATOM      9  C   UNL     1      18.505  26.055  -1.197  1.00  0.00    -0.000 C 
BRANCH   9  10
ATOM     10  C   UNL     1      16.987  26.214  -1.020  1.00  0.00    -0.000 C 
BRANCH  10  11
ATOM     11  C   UNL     1      16.188  25.507  -2.125  1.00  0.00    -0.003 C 
ATOM     12  C   UNL     1      14.929  24.856  -1.560  1.00  0.00     0.004 C 
ENDBRANCH  10  11
ENDBRANCH   9  10
ENDBRANCH   8   9
ENDBRANCH   7   8
ENDBRANCH   6   7
ENDBRANCH   5   6
ENDBRANCH   4   5
ENDBRANCH   3   4
ENDBRANCH   2   3
ENDBRANCH   1   2
BRANCH   1  13
ATOM     13  C   UNL     1      15.552  22.309   5.438  1.00  0.00     0.000 C 
BRANCH  13  14
ATOM     14  C   UNL     1      15.383  21.238   6.530  1.00  0.00     0.000 C 
BRANCH  14  15
ATOM     15  C   UNL     1      16.694  20.942   7.276  1.00  0.00     0.000 C 
BRANCH  15  16
ATOM     16  C   UNL     1      16.608  21.256   8.777  1.00  0.00     0.000 C 
BRANCH  16  17
ATOM     17  C   UNL     1      17.990  21.622   9.340  1.00  0.00     0.000 C 
BRANCH  17  18
ATOM     18  C   UNL     1      18.363  23.091   9.085  1.00  0.00     0.000 C 
BRANCH  18  19
ATOM     19  C   UNL     1      19.061  23.742  10.292  1.00  0.00     0.000 C 
BRANCH  19  20
ATOM     20  C   UNL     1      18.103  24.589  11.148  1.00  0.00     0.006 C 
BRANCH  20  21
ATOM     21  C   UNL     1      16.845  23.839  11.616  1.00  0.00     0.053 C 
BRANCH  21  22
ATOM     22  C   UNL     1      16.627  23.980  13.092  1.00  0.00     0.041 C 
ATOM     23  O   UNL     1      16.167  25.052  13.565  1.00  0.00    -0.550 OA
ATOM     24  O   UNL     1      16.964  22.939  13.947  1.00  0.00    -0.550 OA
ENDBRANCH  21  22
ENDBRANCH  20  21
ENDBRANCH  19  20
ENDBRANCH  18  19
ENDBRANCH  17  18
ENDBRANCH  16  17
ENDBRANCH  15  16
ENDBRANCH  14  15
ENDBRANCH  13  14
ENDBRANCH   1  13
TORSDOF 20
ENDMDL
MODEL 5
REMARK VINA RESULT:    -3.326      3.252      6.299
REMARK INTER + INTRA:          -7.724
REMARK INTER:                  -6.347
REMARK INTRA:                  -1.377
REMARK UNBOUND:                -0.508
REMARK SMILES CCCCCCCCCCCCCCCCCCCCCC(=O)[O-]
REMARK SMILES IDX 12 1 11 2 10 3 9 4 8 5 7 6 6 7 5 8 4 9 3 10 2 11 1 12 13 13
REMARK SMILES IDX 14 14 15 15 16 16 17 17 18 18 19 19 20 20 21 21 22 22 23 23
REMARK SMILES IDX 24 24
REMARK H PARENT
REMARK Flexibility Score: inf
ROOT
ATOM      1  C   UNL     1      18.522  23.875   4.882  1.00  0.00     0.000 C 
ENDROOT
BRANCH   1   2
ATOM      2  C   UNL     1      17.442  22.799   4.695  1.00  0.00     0.000 C 
BRANCH   2   3
ATOM      3  C   UNL     1      16.789  22.439   6.037  1.00  0.00     0.000 C 
BRANCH   3   4
ATOM      4  C   UNL     1      15.832  21.241   5.927  1.00  0.00    -0.000 C 
BRANCH   4   5
ATOM      5  C   UNL     1      14.353  21.662   5.949  1.00  0.00    -0.000 C 
BRANCH   5   6
ATOM      6  C   UNL     1      13.894  22.267   4.611  1.00  0.00    -0.000 C 
BRANCH   6   7
ATOM      7  C   UNL     1      13.150  23.600   4.793  1.00  0.00    -0.000 C 
BRANCH   7   8
ATOM      8  C   UNL     1      11.870  23.680   3.945  1.00  0.00    -0.000 C 
BRANCH   8   9
ATOM      9  C   UNL     1      11.857  22.653   2.799  1.00  0.00    -0.000 C 
BRANCH   9  10
ATOM     10  C   UNL     1      10.435  22.319   2.321  1.00  0.00    -0.000 C 
BRANCH  10  11
ATOM     11  C   UNL     1      10.390  21.922   0.838  1.00  0.00    -0.003 C 
ATOM     12  C   UNL     1       8.953  21.865   0.329  1.00  0.00     0.004 C 
ENDBRANCH  10  11
ENDBRANCH   9  10
ENDBRANCH   8   9
ENDBRANCH   7   8
ENDBRANCH   6   7
ENDBRANCH   5   6
ENDBRANCH   4   5
ENDBRANCH   3   4
ENDBRANCH   2   3
ENDBRANCH   1   2
BRANCH   1  13
ATOM     13  C   UNL     1      19.826  23.544   4.137  1.00  0.00     0.000 C 
BRANCH  13  14
ATOM     14  C   UNL     1      20.365  24.735   3.327  1.00  0.00     0.000 C 
BRANCH  14  15
ATOM     15  C   UNL     1      19.278  25.775   3.012  1.00  0.00     0.000 C 
BRANCH  15  16
ATOM     16  C   UNL     1      18.932  25.839   1.516  1.00  0.00     0.000 C 
BRANCH  16  17
ATOM     17  C   UNL     1      19.286  24.518   0.816  1.00  0.00     0.000 C 
BRANCH  17  18
ATOM     18  C   UNL     1      18.287  24.150  -0.293  1.00  0.00     0.000 C 
BRANCH  18  19
ATOM     19  C   UNL     1      18.454  25.019  -1.552  1.00  0.00     0.000 C 
BRANCH  19  20
ATOM     20  C   UNL     1      17.480  26.211  -1.585  1.00  0.00     0.006 C 
BRANCH  20  21
ATOM     21  C   UNL     1      16.093  25.908  -0.996  1.00  0.00     0.053 C 
BRANCH  21  22
ATOM     22  C   UNL     1      15.221  25.171  -1.968  1.00  0.00     0.041 C 
ATOM     23  O   UNL     1      15.245  25.467  -3.191  1.00  0.00    -0.550 OA
ATOM     24  O   UNL     1      14.358  24.182  -1.514  1.00  0.00    -0.550 OA
ENDBRANCH  21  22
ENDBRANCH  20  21
ENDBRANCH  19  20
ENDBRANCH  18  19
ENDBRANCH  17  18
ENDBRANCH  16  17
ENDBRANCH  15  16
ENDBRANCH  14  15
ENDBRANCH  13  14
ENDBRANCH   1  13
TORSDOF 20
ENDMDL
MODEL 6
REMARK VINA RESULT:    -3.272      3.665     10.453
REMARK INTER + INTRA:          -7.605
REMARK INTER:                  -6.374
REMARK INTRA:                  -1.231
REMARK UNBOUND:                -0.508
REMARK SMILES CCCCCCCCCCCCCCCCCCCCCC(=O)[O-]
REMARK SMILES IDX 12 1 11 2 10 3 9 4 8 5 7 6 6 7 5 8 4 9 3 10 2 11 1 12 13 13
REMARK SMILES IDX 14 14 15 15 16 16 17 17 18 18 19 19 20 20 21 21 22 22 23 23
REMARK SMILES IDX 24 24
REMARK H PARENT
REMARK Flexibility Score: inf
ROOT
ATOM      1  C   UNL     1      16.992  22.180   5.066  1.00  0.00     0.000 C 
ENDROOT
BRANCH   1   2
ATOM      2  C   UNL     1      17.690  23.504   5.415  1.00  0.00     0.000 C 
BRANCH   2   3
ATOM      3  C   UNL     1      18.794  23.826   4.397  1.00  0.00     0.000 C 
BRANCH   3   4
ATOM      4  C   UNL     1      18.905  25.331   4.101  1.00  0.00    -0.000 C 
BRANCH   4   5
ATOM      5  C   UNL     1      19.667  25.621   2.797  1.00  0.00    -0.000 C 
BRANCH   5   6
ATOM      6  C   UNL     1      19.616  24.443   1.810  1.00  0.00    -0.000 C 
BRANCH   6   7
ATOM      7  C   UNL     1      18.907  24.807   0.495  1.00  0.00    -0.000 C 
BRANCH   7   8
ATOM      8  C   UNL     1      18.528  26.296   0.423  1.00  0.00    -0.000 C 
BRANCH   8   9
ATOM      9  C   UNL     1      17.751  26.644  -0.860  1.00  0.00    -0.000 C 
BRANCH   9  10
ATOM     10  C   UNL     1      17.283  25.396  -1.625  1.00  0.00    -0.000 C 
BRANCH  10  11
ATOM     11  C   UNL     1      15.871  25.557  -2.206  1.00  0.00    -0.003 C 
ATOM     12  C   UNL     1      14.882  24.627  -1.509  1.00  0.00     0.004 C 
ENDBRANCH  10  11
ENDBRANCH   9  10
ENDBRANCH   8   9
ENDBRANCH   7   8
ENDBRANCH   6   7
ENDBRANCH   5   6
ENDBRANCH   4   5
ENDBRANCH   3   4
ENDBRANCH   2   3
ENDBRANCH   1   2
BRANCH   1  13
ATOM     13  C   UNL     1      15.635  22.021   5.771  1.00  0.00     0.000 C 
BRANCH  13  14
ATOM     14  C   UNL     1      15.659  20.936   6.862  1.00  0.00     0.000 C 
BRANCH  14  15
ATOM     15  C   UNL     1      16.623  21.274   8.011  1.00  0.00     0.000 C 
BRANCH  15  16
ATOM     16  C   UNL     1      16.241  20.583   9.329  1.00  0.00     0.000 C 
BRANCH  16  17
ATOM     17  C   UNL     1      16.770  21.375  10.535  1.00  0.00     0.000 C 
BRANCH  17  18
ATOM     18  C   UNL     1      15.784  22.452  11.015  1.00  0.00     0.000 C 
BRANCH  18  19
ATOM     19  C   UNL     1      16.208  23.092  12.348  1.00  0.00     0.000 C 
BRANCH  19  20
ATOM     20  C   UNL     1      17.662  23.598  12.328  1.00  0.00     0.006 C 
BRANCH  20  21
ATOM     21  C   UNL     1      17.960  24.615  11.214  1.00  0.00     0.053 C 
BRANCH  21  22
ATOM     22  C   UNL     1      19.134  24.202  10.379  1.00  0.00     0.041 C 
ATOM     23  O   UNL     1      18.966  23.473   9.367  1.00  0.00    -0.550 OA
ATOM     24  O   UNL     1      20.416  24.595  10.740  1.00  0.00    -0.550 OA
ENDBRANCH  21  22
ENDBRANCH  20  21
ENDBRANCH  19  20
ENDBRANCH  18  19
ENDBRANCH  17  18
ENDBRANCH  16  17
ENDBRANCH  15  16
ENDBRANCH  14  15
ENDBRANCH  13  14
ENDBRANCH   1  13
TORSDOF 20
ENDMDL
MODEL 7
REMARK VINA RESULT:    -3.178      3.961      8.980
REMARK INTER + INTRA:          -7.402
REMARK INTER:                  -6.062
REMARK INTRA:                  -1.340
REMARK UNBOUND:                -0.508
REMARK SMILES CCCCCCCCCCCCCCCCCCCCCC(=O)[O-]
REMARK SMILES IDX 12 1 11 2 10 3 9 4 8 5 7 6 6 7 5 8 4 9 3 10 2 11 1 12 13 13
REMARK SMILES IDX 14 14 15 15 16 16 17 17 18 18 19 19 20 20 21 21 22 22 23 23
REMARK SMILES IDX 24 24
REMARK H PARENT
REMARK Flexibility Score: inf
ROOT
ATOM      1  C   UNL     1      17.904  23.585   5.544  1.00  0.00     0.000 C 
ENDROOT
BRANCH   1   2
ATOM      2  C   UNL     1      18.557  24.592   4.585  1.00  0.00     0.000 C 
BRANCH   2   3
ATOM      3  C   UNL     1      19.911  24.070   4.082  1.00  0.00     0.000 C 
BRANCH   3   4
ATOM      4  C   UNL     1      20.137  24.354   2.588  1.00  0.00    -0.000 C 
BRANCH   4   5
ATOM      5  C   UNL     1      18.876  24.891   1.891  1.00  0.00    -0.000 C 
BRANCH   5   6
ATOM      6  C   UNL     1      18.991  26.381   1.531  1.00  0.00    -0.000 C 
BRANCH   6   7
ATOM      7  C   UNL     1      18.413  26.698   0.142  1.00  0.00    -0.000 C 
BRANCH   7   8
ATOM      8  C   UNL     1      18.855  25.683  -0.925  1.00  0.00    -0.000 C 
BRANCH   8   9
ATOM      9  C   UNL     1      17.667  25.103  -1.713  1.00  0.00    -0.000 C 
BRANCH   9  10
ATOM     10  C   UNL     1      16.419  24.904  -0.840  1.00  0.00    -0.000 C 
BRANCH  10  11
ATOM     11  C   UNL     1      15.116  24.970  -1.650  1.00  0.00    -0.003 C 
ATOM     12  C   UNL     1      15.365  25.538  -3.044  1.00  0.00     0.004 C 
ENDBRANCH  10  11
ENDBRANCH   9  10
ENDBRANCH   8   9
ENDBRANCH   7   8
ENDBRANCH   6   7
ENDBRANCH   5   6
ENDBRANCH   4   5
ENDBRANCH   3   4
ENDBRANCH   2   3
ENDBRANCH   1   2
BRANCH   1  13
ATOM     13  C   UNL     1      16.815  22.738   4.865  1.00  0.00     0.000 C 
BRANCH  13  14
ATOM     14  C   UNL     1      16.282  21.619   5.776  1.00  0.00     0.000 C 
BRANCH  14  15
ATOM     15  C   UNL     1      14.771  21.733   6.031  1.00  0.00     0.000 C 
BRANCH  15  16
ATOM     16  C   UNL     1      13.975  22.045   4.754  1.00  0.00     0.000 C 
BRANCH  16  17
ATOM     17  C   UNL     1      13.364  23.454   4.819  1.00  0.00     0.000 C 
BRANCH  17  18
ATOM     18  C   UNL     1      11.989  23.535   4.137  1.00  0.00     0.000 C 
BRANCH  18  19
ATOM     19  C   UNL     1      11.923  22.710   2.840  1.00  0.00     0.000 C 
BRANCH  19  20
ATOM     20  C   UNL     1      10.482  22.501   2.341  1.00  0.00     0.006 C 
BRANCH  20  21
ATOM     21  C   UNL     1      10.383  21.918   0.922  1.00  0.00     0.053 C 
BRANCH  21  22
ATOM     22  C   UNL     1       8.965  21.842   0.446  1.00  0.00     0.041 C 
ATOM     23  O   UNL     1       8.693  21.282  -0.648  1.00  0.00    -0.550 OA
ATOM     24  O   UNL     1       7.949  22.422   1.195  1.00  0.00    -0.550 OA
ENDBRANCH  21  22
ENDBRANCH  20  21
ENDBRANCH  19  20
ENDBRANCH  18  19
ENDBRANCH  17  18
ENDBRANCH  16  17
ENDBRANCH  15  16
ENDBRANCH  14  15
ENDBRANCH  13  14
ENDBRANCH   1  13
TORSDOF 20
ENDMDL
MODEL 8
REMARK VINA RESULT:    -3.037      4.640      9.072
REMARK INTER + INTRA:          -7.097
REMARK INTER:                  -6.081
REMARK INTRA:                  -1.015
REMARK UNBOUND:                -0.508
REMARK SMILES CCCCCCCCCCCCCCCCCCCCCC(=O)[O-]
REMARK SMILES IDX 12 1 11 2 10 3 9 4 8 5 7 6 6 7 5 8 4 9 3 10 2 11 1 12 13 13
REMARK SMILES IDX 14 14 15 15 16 16 17 17 18 18 19 19 20 20 21 21 22 22 23 23
REMARK SMILES IDX 24 24
REMARK H PARENT
REMARK Flexibility Score: inf
ROOT
ATOM      1  C   UNL     1      16.464  22.815   5.566  1.00  0.00     0.000 C 
ENDROOT
BRANCH   1   2
ATOM      2  C   UNL     1      17.595  22.658   4.537  1.00  0.00     0.000 C 
BRANCH   2   3
ATOM      3  C   UNL     1      18.460  23.925   4.478  1.00  0.00     0.000 C 
BRANCH   3   4
ATOM      4  C   UNL     1      19.899  23.638   4.019  1.00  0.00    -0.000 C 
BRANCH   4   5
ATOM      5  C   UNL     1      20.314  24.489   2.807  1.00  0.00    -0.000 C 
BRANCH   5   6
ATOM      6  C   UNL     1      19.167  25.373   2.289  1.00  0.00    -0.000 C 
BRANCH   6   7
ATOM      7  C   UNL     1      19.234  25.593   0.768  1.00  0.00    -0.000 C 
BRANCH   7   8
ATOM      8  C   UNL     1      18.604  26.928   0.338  1.00  0.00    -0.000 C 
BRANCH   8   9
ATOM      9  C   UNL     1      17.260  26.738  -0.387  1.00  0.00    -0.000 C 
BRANCH   9  10
ATOM     10  C   UNL     1      17.190  25.415  -1.165  1.00  0.00    -0.000 C 
BRANCH  10  11
ATOM     11  C   UNL     1      16.053  25.398  -2.198  1.00  0.00    -0.003 C 
ATOM     12  C   UNL     1      14.805  24.730  -1.627  1.00  0.00     0.004 C 
ENDBRANCH  10  11
ENDBRANCH   9  10
ENDBRANCH   8   9
ENDBRANCH   7   8
ENDBRANCH   6   7
ENDBRANCH   5   6
ENDBRANCH   4   5
ENDBRANCH   3   4
ENDBRANCH   2   3
ENDBRANCH   1   2
BRANCH   1  13
ATOM     13  C   UNL     1      15.241  21.941   5.241  1.00  0.00     0.000 C 
BRANCH  13  14
ATOM     14  C   UNL     1      13.963  22.769   5.025  1.00  0.00     0.000 C 
BRANCH  14  15
ATOM     15  C   UNL     1      13.177  22.328   3.779  1.00  0.00     0.000 C 
BRANCH  15  16
ATOM     16  C   UNL     1      12.017  23.277   3.442  1.00  0.00     0.000 C 
BRANCH  16  17
ATOM     17  C   UNL     1      10.774  22.488   3.002  1.00  0.00     0.000 C 
BRANCH  17  18
ATOM     18  C   UNL     1      10.829  22.074   1.522  1.00  0.00     0.000 C 
BRANCH  18  19
ATOM     19  C   UNL     1       9.442  22.071   0.857  1.00  0.00     0.000 C 
BRANCH  19  20
ATOM     20  C   UNL     1       9.440  21.368  -0.512  1.00  0.00     0.006 C 
BRANCH  20  21
ATOM     21  C   UNL     1       8.794  19.973  -0.503  1.00  0.00     0.053 C 
BRANCH  21  22
ATOM     22  C   UNL     1       9.754  18.909  -0.943  1.00  0.00     0.041 C 
ATOM     23  O   UNL     1       9.491  18.192  -1.943  1.00  0.00    -0.550 OA
ATOM     24  O   UNL     1      10.922  18.688  -0.225  1.00  0.00    -0.550 OA
ENDBRANCH  21  22
ENDBRANCH  20  21
ENDBRANCH  19  20
ENDBRANCH  18  19
ENDBRANCH  17  18
ENDBRANCH  16  17
ENDBRANCH  15  16
ENDBRANCH  14  15
ENDBRANCH  13  14
ENDBRANCH   1  13
TORSDOF 20
ENDMDL
MODEL 9
REMARK VINA RESULT:    -2.826      3.211      5.451
REMARK INTER + INTRA:          -6.638
REMARK INTER:                  -6.192
REMARK INTRA:                  -0.446
REMARK UNBOUND:                -0.508
REMARK SMILES CCCCCCCCCCCCCCCCCCCCCC(=O)[O-]
REMARK SMILES IDX 12 1 11 2 10 3 9 4 8 5 7 6 6 7 5 8 4 9 3 10 2 11 1 12 13 13
REMARK SMILES IDX 14 14 15 15 16 16 17 17 18 18 19 19 20 20 21 21 22 22 23 23
REMARK SMILES IDX 24 24
REMARK H PARENT
REMARK Flexibility Score: inf
ROOT
ATOM      1  C   UNL     1      19.282  25.024   4.339  1.00  0.00     0.000 C 
ENDROOT
BRANCH   1   2
ATOM      2  C   UNL     1      18.474  23.961   5.100  1.00  0.00     0.000 C 
BRANCH   2   3
ATOM      3  C   UNL     1      18.120  22.782   4.182  1.00  0.00     0.000 C 
BRANCH   3   4
ATOM      4  C   UNL     1      16.744  22.176   4.502  1.00  0.00    -0.000 C 
BRANCH   4   5
ATOM      5  C   UNL     1      16.425  22.194   6.006  1.00  0.00    -0.000 C 
BRANCH   5   6
ATOM      6  C   UNL     1      15.192  21.344   6.356  1.00  0.00    -0.000 C 
BRANCH   6   7
ATOM      7  C   UNL     1      14.004  21.616   5.419  1.00  0.00    -0.000 C 
BRANCH   7   8
ATOM      8  C   UNL     1      13.626  23.105   5.364  1.00  0.00    -0.000 C 
BRANCH   8   9
ATOM      9  C   UNL     1      12.764  23.449   4.136  1.00  0.00    -0.000 C 
BRANCH   9  10
ATOM     10  C   UNL     1      12.912  22.421   3.003  1.00  0.00    -0.000 C 
BRANCH  10  11
ATOM     11  C   UNL     1      11.557  21.920   2.482  1.00  0.00    -0.003 C 
ATOM     12  C   UNL     1      10.412  22.768   3.029  1.00  0.00     0.004 C 
ENDBRANCH  10  11
ENDBRANCH   9  10
ENDBRANCH   8   9
ENDBRANCH   7   8
ENDBRANCH   6   7
ENDBRANCH   5   6
ENDBRANCH   4   5
ENDBRANCH   3   4
ENDBRANCH   2   3
ENDBRANCH   1   2
BRANCH   1  13
ATOM     13  C   UNL     1      20.581  24.465   3.736  1.00  0.00     0.000 C 
BRANCH  13  14
ATOM     14  C   UNL     1      20.479  24.238   2.218  1.00  0.00     0.000 C 
BRANCH  14  15
ATOM     15  C   UNL     1      19.256  24.934   1.597  1.00  0.00     0.000 C 
BRANCH  15  16
ATOM     16  C   UNL     1      18.598  24.100   0.487  1.00  0.00     0.000 C 
BRANCH  16  17
ATOM     17  C   UNL     1      19.131  24.510  -0.895  1.00  0.00     0.000 C 
BRANCH  17  18
ATOM     18  C   UNL     1      19.047  26.026  -1.135  1.00  0.00     0.000 C 
BRANCH  18  19
ATOM     19  C   UNL     1      17.891  26.685  -0.363  1.00  0.00     0.000 C 
BRANCH  19  20
ATOM     20  C   UNL     1      16.511  26.163  -0.801  1.00  0.00     0.006 C 
BRANCH  20  21
ATOM     21  C   UNL     1      16.474  25.599  -2.231  1.00  0.00     0.053 C 
BRANCH  21  22
ATOM     22  C   UNL     1      15.084  25.228  -2.650  1.00  0.00     0.041 C 
ATOM     23  O   UNL     1      14.313  24.645  -1.844  1.00  0.00    -0.550 OA
ATOM     24  O   UNL     1      14.654  25.496  -3.944  1.00  0.00    -0.550 OA
ENDBRANCH  21  22
ENDBRANCH  20  21
ENDBRANCH  19  20
ENDBRANCH  18  19
ENDBRANCH  17  18
ENDBRANCH  16  17
ENDBRANCH  15  16
ENDBRANCH  14  15
ENDBRANCH  13  14
ENDBRANCH   1  13
TORSDOF 20
ENDMDL
