MODEL 1
REMARK VINA RESULT:    -3.992      0.000      0.000
REMARK INTER + INTRA:         -10.299
REMARK INTER:                  -7.725
REMARK INTRA:                  -2.574
REMARK UNBOUND:                -2.574
REMARK SMILES CCCCCCCCCCCCCCCCCC(=O)[O-]
REMARK SMILES IDX 10 1 11 2 12 3 13 4 14 5 15 6 16 7 17 8 18 9 19 10 20 11
REMARK SMILES IDX 9 12 8 13 7 14 6 15 5 16 4 17 3 18 2 19 1 20
REMARK H PARENT
REMARK Flexibility Score: inf
ROOT
ATOM      1  C   UNL     1     -36.511  82.168 -18.328  1.00  0.00     0.000 C 
ENDROOT
BRANCH   1   2
ATOM      2  C   UNL     1     -37.582  81.671 -19.311  1.00  0.00     0.000 C 
BRANCH   2   3
ATOM      3  C   UNL     1     -37.040  80.616 -20.291  1.00  0.00     0.000 C 
BRANCH   3   4
ATOM      4  C   UNL     1     -35.563  80.274 -20.034  1.00  0.00     0.000 C 
BRANCH   4   5
ATOM      5  C   UNL     1     -34.687  80.464 -21.284  1.00  0.00     0.000 C 
BRANCH   5   6
ATOM      6  C   UNL     1     -33.388  81.231 -20.985  1.00  0.00     0.000 C 
BRANCH   6   7
ATOM      7  C   UNL     1     -32.958  81.116 -19.511  1.00  0.00     0.006 C 
BRANCH   7   8
ATOM      8  C   UNL     1     -31.682  80.280 -19.345  1.00  0.00     0.053 C 
BRANCH   8   9
ATOM      9  C   UNL     1     -30.492  80.950 -19.958  1.00  0.00     0.041 C 
ATOM     10  O   UNL     1     -30.101  82.068 -19.529  1.00  0.00    -0.550 OA
ATOM     11  O   UNL     1     -29.795  80.326 -20.984  1.00  0.00    -0.550 OA
ENDBRANCH   8   9
ENDBRANCH   7   8
ENDBRANCH   6   7
ENDBRANCH   5   6
ENDBRANCH   4   5
ENDBRANCH   3   4
ENDBRANCH   2   3
ENDBRANCH   1   2
BRANCH   1  12
ATOM     12  C   UNL     1     -36.736  83.627 -17.892  1.00  0.00     0.000 C 
BRANCH  12  13
ATOM     13  C   UNL     1     -35.514  84.521 -18.156  1.00  0.00    -0.000 C 
BRANCH  13  14
ATOM     14  C   UNL     1     -34.832  84.205 -19.498  1.00  0.00    -0.000 C 
BRANCH  14  15
ATOM     15  C   UNL     1     -35.516  84.900 -20.686  1.00  0.00    -0.000 C 
BRANCH  15  16
ATOM     16  C   UNL     1     -35.917  83.919 -21.799  1.00  0.00    -0.000 C 
BRANCH  16  17
ATOM     17  C   UNL     1     -37.428  83.985 -22.067  1.00  0.00    -0.000 C 
BRANCH  17  18
ATOM     18  C   UNL     1     -37.855  85.284 -22.777  1.00  0.00    -0.000 C 
BRANCH  18  19
ATOM     19  C   UNL     1     -36.844  85.819 -23.807  1.00  0.00    -0.003 C 
ATOM     20  C   UNL     1     -36.361  87.233 -23.491  1.00  0.00     0.004 C 
ENDBRANCH  18  19
ENDBRANCH  17  18
ENDBRANCH  16  17
ENDBRANCH  15  16
ENDBRANCH  14  15
ENDBRANCH  13  14
ENDBRANCH  12  13
ENDBRANCH   1  12
TORSDOF 16
ENDMDL
MODEL 2
REMARK VINA RESULT:    -3.967      3.157      6.714
REMARK INTER + INTRA:         -10.252
REMARK INTER:                  -7.728
REMARK INTRA:                  -2.524
REMARK UNBOUND:                -2.574
REMARK SMILES CCCCCCCCCCCCCCCCCC(=O)[O-]
REMARK SMILES IDX 10 1 11 2 12 3 13 4 14 5 15 6 16 7 17 8 18 9 19 10 20 11
REMARK SMILES IDX 9 12 8 13 7 14 6 15 5 16 4 17 3 18 2 19 1 20
REMARK H PARENT
REMARK Flexibility Score: inf
ROOT
ATOM      1  C   UNL     1     -35.378  84.715 -17.728  1.00  0.00     0.000 C 
ENDROOT
BRANCH   1   2
ATOM      2  C   UNL     1     -34.519  84.665 -19.001  1.00  0.00     0.000 C 
BRANCH   2   3
ATOM      3  C   UNL     1     -35.347  84.881 -20.280  1.00  0.00     0.000 C 
BRANCH   3   4
ATOM      4  C   UNL     1     -34.949  83.919 -21.411  1.00  0.00     0.000 C 
BRANCH   4   5
ATOM      5  C   UNL     1     -36.170  83.313 -22.127  1.00  0.00     0.000 C 
BRANCH   5   6
ATOM      6  C   UNL     1     -37.487  84.004 -21.735  1.00  0.00     0.000 C 
BRANCH   6   7
ATOM      7  C   UNL     1     -38.191  84.662 -22.934  1.00  0.00     0.006 C 
BRANCH   7   8
ATOM      8  C   UNL     1     -37.199  85.092 -24.023  1.00  0.00     0.053 C 
BRANCH   8   9
ATOM      9  C   UNL     1     -36.912  86.561 -23.967  1.00  0.00     0.041 C 
ATOM     10  O   UNL     1     -37.414  87.339 -24.820  1.00  0.00    -0.550 OA
ATOM     11  O   UNL     1     -36.112  87.074 -22.954  1.00  0.00    -0.550 OA
ENDBRANCH   8   9
ENDBRANCH   7   8
ENDBRANCH   6   7
ENDBRANCH   5   6
ENDBRANCH   4   5
ENDBRANCH   3   4
ENDBRANCH   2   3
ENDBRANCH   1   2
BRANCH   1  12
ATOM     12  C   UNL     1     -36.651  83.856 -17.837  1.00  0.00     0.000 C 
BRANCH  12  13
ATOM     13  C   UNL     1     -36.379  82.360 -17.615  1.00  0.00    -0.000 C 
BRANCH  13  14
ATOM     14  C   UNL     1     -36.577  81.528 -18.894  1.00  0.00    -0.000 C 
BRANCH  14  15
ATOM     15  C   UNL     1     -35.260  80.946 -19.430  1.00  0.00    -0.000 C 
BRANCH  15  16
ATOM     16  C   UNL     1     -34.116  81.021 -18.406  1.00  0.00    -0.000 C 
BRANCH  16  17
ATOM     17  C   UNL     1     -32.805  81.449 -19.081  1.00  0.00    -0.000 C 
BRANCH  17  18
ATOM     18  C   UNL     1     -32.088  80.286 -19.791  1.00  0.00    -0.000 C 
BRANCH  18  19
ATOM     19  C   UNL     1     -31.328  79.328 -18.856  1.00  0.00    -0.003 C 
ATOM     20  C   UNL     1     -31.108  77.946 -19.468  1.00  0.00     0.004 C 
ENDBRANCH  18  19
ENDBRANCH  17  18
ENDBRANCH  16  17
ENDBRANCH  15  16
ENDBRANCH  14  15
ENDBRANCH  13  14
ENDBRANCH  12  13
ENDBRANCH   1  12
TORSDOF 16
ENDMDL
MODEL 3
REMARK VINA RESULT:    -3.933     14.151     16.803
REMARK INTER + INTRA:         -10.187
REMARK INTER:                  -7.697
REMARK INTRA:                  -2.490
REMARK UNBOUND:                -2.574
REMARK SMILES CCCCCCCCCCCCCCCCCC(=O)[O-]
REMARK SMILES IDX 10 1 11 2 12 3 13 4 14 5 15 6 16 7 17 8 18 9 19 10 20 11
REMARK SMILES IDX 9 12 8 13 7 14 6 15 5 16 4 17 3 18 2 19 1 20
REMARK H PARENT
REMARK Flexibility Score: inf
ROOT
ATOM      1  C   UNL     1     -24.237  92.637 -32.117  1.00  0.00     0.000 C 
ENDROOT
BRANCH   1   2
ATOM      2  C   UNL     1     -23.782  91.206 -31.790  1.00  0.00     0.000 C 
BRANCH   2   3
ATOM      3  C   UNL     1     -22.623  91.172 -30.778  1.00  0.00     0.000 C 
BRANCH   3   4
ATOM      4  C   UNL     1     -22.849  90.147 -29.655  1.00  0.00     0.000 C 
BRANCH   4   5
ATOM      5  C   UNL     1     -24.233  89.479 -29.736  1.00  0.00     0.000 C 
BRANCH   5   6
ATOM      6  C   UNL     1     -24.737  88.997 -28.366  1.00  0.00     0.000 C 
BRANCH   6   7
ATOM      7  C   UNL     1     -23.876  89.515 -27.201  1.00  0.00     0.006 C 
BRANCH   7   8
ATOM      8  C   UNL     1     -24.144  88.750 -25.898  1.00  0.00     0.053 C 
BRANCH   8   9
ATOM      9  C   UNL     1     -22.908  88.622 -25.062  1.00  0.00     0.041 C 
ATOM     10  O   UNL     1     -22.537  89.576 -24.327  1.00  0.00    -0.550 OA
ATOM     11  O   UNL     1     -22.183  87.438 -25.071  1.00  0.00    -0.550 OA
ENDBRANCH   8   9
ENDBRANCH   7   8
ENDBRANCH   6   7
ENDBRANCH   5   6
ENDBRANCH   4   5
ENDBRANCH   3   4
ENDBRANCH   2   3
ENDBRANCH   1   2
BRANCH   1  12
ATOM     12  C   UNL     1     -23.059  93.621 -32.241  1.00  0.00     0.000 C 
BRANCH  12  13
ATOM     13  C   UNL     1     -23.462  95.071 -31.932  1.00  0.00    -0.000 C 
BRANCH  13  14
ATOM     14  C   UNL     1     -24.659  95.158 -30.969  1.00  0.00    -0.000 C 
BRANCH  14  15
ATOM     15  C   UNL     1     -24.314  95.886 -29.660  1.00  0.00    -0.000 C 
BRANCH  15  16
ATOM     16  C   UNL     1     -24.793  95.126 -28.413  1.00  0.00    -0.000 C 
BRANCH  16  17
ATOM     17  C   UNL     1     -24.375  93.650 -28.478  1.00  0.00    -0.000 C 
BRANCH  17  18
ATOM     18  C   UNL     1     -25.571  92.684 -28.399  1.00  0.00    -0.000 C 
BRANCH  18  19
ATOM     19  C   UNL     1     -26.367  92.746 -27.083  1.00  0.00    -0.003 C 
ATOM     20  C   UNL     1     -27.111  91.448 -26.773  1.00  0.00     0.004 C 
ENDBRANCH  18  19
ENDBRANCH  17  18
ENDBRANCH  16  17
ENDBRANCH  15  16
ENDBRANCH  14  15
ENDBRANCH  13  14
ENDBRANCH  12  13
ENDBRANCH   1  12
TORSDOF 16
ENDMDL
MODEL 4
REMARK VINA RESULT:    -3.896      1.215      2.792
REMARK INTER + INTRA:         -10.114
REMARK INTER:                  -7.507
REMARK INTRA:                  -2.607
REMARK UNBOUND:                -2.574
REMARK SMILES CCCCCCCCCCCCCCCCCC(=O)[O-]
REMARK SMILES IDX 10 1 11 2 12 3 13 4 14 5 15 6 16 7 17 8 18 9 19 10 20 11
REMARK SMILES IDX 9 12 8 13 7 14 6 15 5 16 4 17 3 18 2 19 1 20
REMARK H PARENT
REMARK Flexibility Score: inf
ROOT
ATOM      1  C   UNL     1     -37.508  81.297 -19.205  1.00  0.00     0.000 C 
ENDROOT
BRANCH   1   2
ATOM      2  C   UNL     1     -36.693  82.129 -18.202  1.00  0.00     0.000 C 
BRANCH   2   3
ATOM      3  C   UNL     1     -36.923  83.641 -18.365  1.00  0.00     0.000 C 
BRANCH   3   4
ATOM      4  C   UNL     1     -35.614  84.446 -18.324  1.00  0.00     0.000 C 
BRANCH   4   5
ATOM      5  C   UNL     1     -34.750  84.232 -19.580  1.00  0.00     0.000 C 
BRANCH   5   6
ATOM      6  C   UNL     1     -33.429  83.508 -19.272  1.00  0.00     0.000 C 
BRANCH   6   7
ATOM      7  C   UNL     1     -33.324  82.142 -19.973  1.00  0.00     0.006 C 
BRANCH   7   8
ATOM      8  C   UNL     1     -33.205  80.986 -18.971  1.00  0.00     0.053 C 
BRANCH   8   9
ATOM      9  C   UNL     1     -31.846  80.357 -19.003  1.00  0.00     0.041 C 
ATOM     10  O   UNL     1     -31.609  79.322 -18.326  1.00  0.00    -0.550 OA
ATOM     11  O   UNL     1     -30.849  80.898 -19.805  1.00  0.00    -0.550 OA
ENDBRANCH   8   9
ENDBRANCH   7   8
ENDBRANCH   6   7
ENDBRANCH   5   6
ENDBRANCH   4   5
ENDBRANCH   3   4
ENDBRANCH   2   3
ENDBRANCH   1   2
BRANCH   1  12
ATOM     12  C   UNL     1     -36.674  80.844 -20.417  1.00  0.00     0.000 C 
BRANCH  12  13
ATOM     13  C   UNL     1     -37.179  81.439 -21.741  1.00  0.00    -0.000 C 
BRANCH  13  14
ATOM     14  C   UNL     1     -36.063  82.140 -22.536  1.00  0.00    -0.000 C 
BRANCH  14  15
ATOM     15  C   UNL     1     -36.418  83.591 -22.898  1.00  0.00    -0.000 C 
BRANCH  15  16
ATOM     16  C   UNL     1     -37.556  84.159 -22.034  1.00  0.00    -0.000 C 
BRANCH  16  17
ATOM     17  C   UNL     1     -38.317  85.260 -22.787  1.00  0.00    -0.000 C 
BRANCH  17  18
ATOM     18  C   UNL     1     -37.774  85.500 -24.208  1.00  0.00    -0.000 C 
BRANCH  18  19
ATOM     19  C   UNL     1     -37.121  86.876 -24.428  1.00  0.00    -0.003 C 
ATOM     20  C   UNL     1     -36.229  87.306 -23.264  1.00  0.00     0.004 C 
ENDBRANCH  18  19
ENDBRANCH  17  18
ENDBRANCH  16  17
ENDBRANCH  15  16
ENDBRANCH  14  15
ENDBRANCH  13  14
ENDBRANCH  12  13
ENDBRANCH   1  12
TORSDOF 16
ENDMDL
MODEL 5
REMARK VINA RESULT:    -3.887      1.241      2.032
REMARK INTER + INTRA:         -10.097
REMARK INTER:                  -7.287
REMARK INTRA:                  -2.811
REMARK UNBOUND:                -2.574
REMARK SMILES CCCCCCCCCCCCCCCCCC(=O)[O-]
REMARK SMILES IDX 10 1 11 2 12 3 13 4 14 5 15 6 16 7 17 8 18 9 19 10 20 11
REMARK SMILES IDX 9 12 8 13 7 14 6 15 5 16 4 17 3 18 2 19 1 20
REMARK H PARENT
REMARK Flexibility Score: inf
ROOT
ATOM      1  C   UNL     1     -37.431  81.740 -19.498  1.00  0.00     0.000 C 
ENDROOT
BRANCH   1   2
ATOM      2  C   UNL     1     -36.121  80.969 -19.273  1.00  0.00     0.000 C 
BRANCH   2   3
ATOM      3  C   UNL     1     -35.891  79.874 -20.329  1.00  0.00     0.000 C 
BRANCH   3   4
ATOM      4  C   UNL     1     -35.384  80.439 -21.666  1.00  0.00     0.000 C 
BRANCH   4   5
ATOM      5  C   UNL     1     -33.858  80.633 -21.683  1.00  0.00     0.000 C 
BRANCH   5   6
ATOM      6  C   UNL     1     -33.129  79.668 -20.734  1.00  0.00     0.000 C 
BRANCH   6   7
ATOM      7  C   UNL     1     -32.386  80.398 -19.600  1.00  0.00     0.006 C 
BRANCH   7   8
ATOM      8  C   UNL     1     -30.862  80.287 -19.742  1.00  0.00     0.053 C 
BRANCH   8   9
ATOM      9  C   UNL     1     -30.285  81.452 -20.485  1.00  0.00     0.041 C 
ATOM     10  O   UNL     1     -30.742  82.611 -20.303  1.00  0.00    -0.550 OA
ATOM     11  O   UNL     1     -29.221  81.261 -21.356  1.00  0.00    -0.550 OA
ENDBRANCH   8   9
ENDBRANCH   7   8
ENDBRANCH   6   7
ENDBRANCH   5   6
ENDBRANCH   4   5
ENDBRANCH   3   4
ENDBRANCH   2   3
ENDBRANCH   1   2
BRANCH   1  12
ATOM     12  C   UNL     1     -37.477  83.071 -18.726  1.00  0.00     0.000 C 
BRANCH  12  13
ATOM     13  C   UNL     1     -36.361  83.187 -17.675  1.00  0.00    -0.000 C 
BRANCH  13  14
ATOM     14  C   UNL     1     -35.902  84.639 -17.460  1.00  0.00    -0.000 C 
BRANCH  14  15
ATOM     15  C   UNL     1     -34.914  85.113 -18.537  1.00  0.00    -0.000 C 
BRANCH  15  16
ATOM     16  C   UNL     1     -34.054  83.970 -19.100  1.00  0.00    -0.000 C 
BRANCH  16  17
ATOM     17  C   UNL     1     -34.208  83.869 -20.624  1.00  0.00    -0.000 C 
BRANCH  17  18
ATOM     18  C   UNL     1     -35.370  84.722 -21.168  1.00  0.00    -0.000 C 
BRANCH  18  19
ATOM     19  C   UNL     1     -36.235  84.029 -22.235  1.00  0.00    -0.003 C 
ATOM     20  C   UNL     1     -37.708  84.428 -22.162  1.00  0.00     0.004 C 
ENDBRANCH  18  19
ENDBRANCH  17  18
ENDBRANCH  16  17
ENDBRANCH  15  16
ENDBRANCH  14  15
ENDBRANCH  13  14
ENDBRANCH  12  13
ENDBRANCH   1  12
TORSDOF 16
ENDMDL
MODEL 6
REMARK VINA RESULT:    -3.840      1.626      4.157
REMARK INTER + INTRA:         -10.006
REMARK INTER:                  -7.630
REMARK INTRA:                  -2.376
REMARK UNBOUND:                -2.574
REMARK SMILES CCCCCCCCCCCCCCCCCC(=O)[O-]
REMARK SMILES IDX 10 1 11 2 12 3 13 4 14 5 15 6 16 7 17 8 18 9 19 10 20 11
REMARK SMILES IDX 9 12 8 13 7 14 6 15 5 16 4 17 3 18 2 19 1 20
REMARK H PARENT
REMARK Flexibility Score: inf
ROOT
ATOM      1  C   UNL     1     -37.583  83.784 -21.789  1.00  0.00     0.000 C 
ENDROOT
BRANCH   1   2
ATOM      2  C   UNL     1     -36.478  84.677 -22.374  1.00  0.00     0.000 C 
BRANCH   2   3
ATOM      3  C   UNL     1     -35.226  84.727 -21.480  1.00  0.00     0.000 C 
BRANCH   3   4
ATOM      4  C   UNL     1     -34.271  83.549 -21.732  1.00  0.00     0.000 C 
BRANCH   4   5
ATOM      5  C   UNL     1     -33.483  83.148 -20.473  1.00  0.00     0.000 C 
BRANCH   5   6
ATOM      6  C   UNL     1     -32.423  82.072 -20.758  1.00  0.00     0.000 C 
BRANCH   6   7
ATOM      7  C   UNL     1     -31.518  81.795 -19.544  1.00  0.00     0.006 C 
BRANCH   7   8
ATOM      8  C   UNL     1     -30.339  80.879 -19.898  1.00  0.00     0.053 C 
BRANCH   8   9
ATOM      9  C   UNL     1     -30.715  79.431 -19.824  1.00  0.00     0.041 C 
ATOM     10  O   UNL     1     -30.873  78.873 -18.707  1.00  0.00    -0.550 OA
ATOM     11  O   UNL     1     -30.919  78.706 -20.991  1.00  0.00    -0.550 OA
ENDBRANCH   8   9
ENDBRANCH   7   8
ENDBRANCH   6   7
ENDBRANCH   5   6
ENDBRANCH   4   5
ENDBRANCH   3   4
ENDBRANCH   2   3
ENDBRANCH   1   2
BRANCH   1  12
ATOM     12  C   UNL     1     -37.783  82.485 -22.592  1.00  0.00     0.000 C 
BRANCH  12  13
ATOM     13  C   UNL     1     -37.095  81.274 -21.942  1.00  0.00    -0.000 C 
BRANCH  13  14
ATOM     14  C   UNL     1     -37.991  80.572 -20.906  1.00  0.00    -0.000 C 
BRANCH  14  15
ATOM     15  C   UNL     1     -37.719  81.049 -19.470  1.00  0.00    -0.000 C 
BRANCH  15  16
ATOM     16  C   UNL     1     -36.224  81.262 -19.187  1.00  0.00    -0.000 C 
BRANCH  16  17
ATOM     17  C   UNL     1     -36.021  82.268 -18.045  1.00  0.00    -0.000 C 
BRANCH  17  18
ATOM     18  C   UNL     1     -36.973  83.476 -18.134  1.00  0.00    -0.000 C 
BRANCH  18  19
ATOM     19  C   UNL     1     -36.441  84.767 -17.485  1.00  0.00    -0.003 C 
ATOM     20  C   UNL     1     -34.964  85.020 -17.781  1.00  0.00     0.004 C 
ENDBRANCH  18  19
ENDBRANCH  17  18
ENDBRANCH  16  17
ENDBRANCH  15  16
ENDBRANCH  14  15
ENDBRANCH  13  14
ENDBRANCH  12  13
ENDBRANCH   1  12
TORSDOF 16
ENDMDL
MODEL 7
REMARK VINA RESULT:    -3.839     13.469     16.726
REMARK INTER + INTRA:         -10.003
REMARK INTER:                  -7.689
REMARK INTRA:                  -2.314
REMARK UNBOUND:                -2.574
REMARK SMILES CCCCCCCCCCCCCCCCCC(=O)[O-]
REMARK SMILES IDX 10 1 11 2 12 3 13 4 14 5 15 6 16 7 17 8 18 9 19 10 20 11
REMARK SMILES IDX 9 12 8 13 7 14 6 15 5 16 4 17 3 18 2 19 1 20
REMARK H PARENT
REMARK Flexibility Score: inf
ROOT
ATOM      1  C   UNL     1     -24.427  96.340 -29.606  1.00  0.00     0.000 C 
ENDROOT
BRANCH   1   2
ATOM      2  C   UNL     1     -25.075  96.298 -28.214  1.00  0.00     0.000 C 
BRANCH   2   3
ATOM      3  C   UNL     1     -25.398  94.865 -27.756  1.00  0.00     0.000 C 
BRANCH   3   4
ATOM      4  C   UNL     1     -26.540  94.816 -26.727  1.00  0.00     0.000 C 
BRANCH   4   5
ATOM      5  C   UNL     1     -27.606  93.764 -27.079  1.00  0.00     0.000 C 
BRANCH   5   6
ATOM      6  C   UNL     1     -27.347  93.092 -28.438  1.00  0.00     0.000 C 
BRANCH   6   7
ATOM      7  C   UNL     1     -27.315  91.557 -28.343  1.00  0.00     0.006 C 
BRANCH   7   8
ATOM      8  C   UNL     1     -26.578  91.070 -27.088  1.00  0.00     0.053 C 
BRANCH   8   9
ATOM      9  C   UNL     1     -27.227  89.858 -26.494  1.00  0.00     0.041 C 
ATOM     10  O   UNL     1     -27.543  88.883 -27.227  1.00  0.00    -0.550 OA
ATOM     11  O   UNL     1     -27.457  89.794 -25.127  1.00  0.00    -0.550 OA
ENDBRANCH   8   9
ENDBRANCH   7   8
ENDBRANCH   6   7
ENDBRANCH   5   6
ENDBRANCH   4   5
ENDBRANCH   3   4
ENDBRANCH   2   3
ENDBRANCH   1   2
BRANCH   1  12
ATOM     12  C   UNL     1     -24.783  95.112 -30.464  1.00  0.00     0.000 C 
BRANCH  12  13
ATOM     13  C   UNL     1     -23.649  94.707 -31.420  1.00  0.00    -0.000 C 
BRANCH  13  14
ATOM     14  C   UNL     1     -23.380  93.192 -31.405  1.00  0.00    -0.000 C 
BRANCH  14  15
ATOM     15  C   UNL     1     -24.362  92.425 -30.504  1.00  0.00    -0.000 C 
BRANCH  15  16
ATOM     16  C   UNL     1     -23.662  91.699 -29.345  1.00  0.00    -0.000 C 
BRANCH  16  17
ATOM     17  C   UNL     1     -23.221  90.290 -29.769  1.00  0.00    -0.000 C 
BRANCH  17  18
ATOM     18  C   UNL     1     -24.109  89.180 -29.176  1.00  0.00    -0.000 C 
BRANCH  18  19
ATOM     19  C   UNL     1     -23.361  88.144 -28.318  1.00  0.00    -0.003 C 
ATOM     20  C   UNL     1     -24.177  87.659 -27.121  1.00  0.00     0.004 C 
ENDBRANCH  18  19
ENDBRANCH  17  18
ENDBRANCH  16  17
ENDBRANCH  15  16
ENDBRANCH  14  15
ENDBRANCH  13  14
ENDBRANCH  12  13
ENDBRANCH   1  12
TORSDOF 16
ENDMDL
MODEL 8
REMARK VINA RESULT:    -3.757     14.445     17.070
REMARK INTER + INTRA:          -9.845
REMARK INTER:                  -7.051
REMARK INTRA:                  -2.795
REMARK UNBOUND:                -2.574
REMARK SMILES CCCCCCCCCCCCCCCCCC(=O)[O-]
REMARK SMILES IDX 10 1 11 2 12 3 13 4 14 5 15 6 16 7 17 8 18 9 19 10 20 11
REMARK SMILES IDX 9 12 8 13 7 14 6 15 5 16 4 17 3 18 2 19 1 20
REMARK H PARENT
REMARK Flexibility Score: inf
ROOT
ATOM      1  C   UNL     1     -25.816  91.640 -31.495  1.00  0.00     0.000 C 
ENDROOT
BRANCH   1   2
ATOM      2  C   UNL     1     -24.479  91.555 -32.249  1.00  0.00     0.000 C 
BRANCH   2   3
ATOM      3  C   UNL     1     -23.290  92.036 -31.398  1.00  0.00     0.000 C 
BRANCH   3   4
ATOM      4  C   UNL     1     -22.496  90.873 -30.782  1.00  0.00     0.000 C 
BRANCH   4   5
ATOM      5  C   UNL     1     -22.887  90.601 -29.319  1.00  0.00     0.000 C 
BRANCH   5   6
ATOM      6  C   UNL     1     -23.570  89.236 -29.134  1.00  0.00     0.000 C 
BRANCH   6   7
ATOM      7  C   UNL     1     -24.878  89.332 -28.329  1.00  0.00     0.006 C 
BRANCH   7   8
ATOM      8  C   UNL     1     -24.639  89.815 -26.892  1.00  0.00     0.053 C 
BRANCH   8   9
ATOM      9  C   UNL     1     -24.467  88.672 -25.940  1.00  0.00     0.041 C 
ATOM     10  O   UNL     1     -24.707  87.493 -26.314  1.00  0.00    -0.550 OA
ATOM     11  O   UNL     1     -24.012  88.905 -24.649  1.00  0.00    -0.550 OA
ENDBRANCH   8   9
ENDBRANCH   7   8
ENDBRANCH   6   7
ENDBRANCH   5   6
ENDBRANCH   4   5
ENDBRANCH   3   4
ENDBRANCH   2   3
ENDBRANCH   1   2
BRANCH   1  12
ATOM     12  C   UNL     1     -26.165  93.077 -31.066  1.00  0.00     0.000 C 
BRANCH  12  13
ATOM     13  C   UNL     1     -26.727  93.149 -29.638  1.00  0.00    -0.000 C 
BRANCH  13  14
ATOM     14  C   UNL     1     -25.640  92.960 -28.565  1.00  0.00    -0.000 C 
BRANCH  14  15
ATOM     15  C   UNL     1     -24.531  94.021 -28.655  1.00  0.00    -0.000 C 
BRANCH  15  16
ATOM     16  C   UNL     1     -25.060  95.451 -28.468  1.00  0.00    -0.000 C 
BRANCH  16  17
ATOM     17  C   UNL     1     -24.505  96.386 -29.552  1.00  0.00    -0.000 C 
BRANCH  17  18
ATOM     18  C   UNL     1     -23.680  95.643 -30.619  1.00  0.00    -0.000 C 
BRANCH  18  19
ATOM     19  C   UNL     1     -23.700  96.287 -32.017  1.00  0.00    -0.003 C 
ATOM     20  C   UNL     1     -23.883  95.270 -33.142  1.00  0.00     0.004 C 
ENDBRANCH  18  19
ENDBRANCH  17  18
ENDBRANCH  16  17
ENDBRANCH  15  16
ENDBRANCH  14  15
ENDBRANCH  13  14
ENDBRANCH  12  13
ENDBRANCH   1  12
TORSDOF 16
ENDMDL
MODEL 9
REMARK VINA RESULT:    -3.741     14.252     16.982
REMARK INTER + INTRA:          -9.814
REMARK INTER:                  -7.067
REMARK INTRA:                  -2.748
REMARK UNBOUND:                -2.574
REMARK SMILES CCCCCCCCCCCCCCCCCC(=O)[O-]
REMARK SMILES IDX 10 1 11 2 12 3 13 4 14 5 15 6 16 7 17 8 18 9 19 10 20 11
REMARK SMILES IDX 9 12 8 13 7 14 6 15 5 16 4 17 3 18 2 19 1 20
REMARK H PARENT
REMARK Flexibility Score: inf
ROOT
ATOM      1  C   UNL     1     -23.248  95.126 -31.914  1.00  0.00     0.000 C 
ENDROOT
BRANCH   1   2
ATOM      2  C   UNL     1     -22.919  93.760 -32.535  1.00  0.00     0.000 C 
BRANCH   2   3
ATOM      3  C   UNL     1     -23.722  92.613 -31.895  1.00  0.00     0.000 C 
BRANCH   3   4
ATOM      4  C   UNL     1     -22.820  91.559 -31.231  1.00  0.00     0.000 C 
BRANCH   4   5
ATOM      5  C   UNL     1     -23.617  90.541 -30.397  1.00  0.00     0.000 C 
BRANCH   5   6
ATOM      6  C   UNL     1     -22.815  89.998 -29.204  1.00  0.00     0.000 C 
BRANCH   6   7
ATOM      7  C   UNL     1     -23.483  88.777 -28.547  1.00  0.00     0.006 C 
BRANCH   7   8
ATOM      8  C   UNL     1     -24.871  89.111 -27.984  1.00  0.00     0.053 C 
BRANCH   8   9
ATOM      9  C   UNL     1     -24.819  89.421 -26.519  1.00  0.00     0.041 C 
ATOM     10  O   UNL     1     -23.770  89.196 -25.859  1.00  0.00    -0.550 OA
ATOM     11  O   UNL     1     -25.919  89.987 -25.890  1.00  0.00    -0.550 OA
ENDBRANCH   8   9
ENDBRANCH   7   8
ENDBRANCH   6   7
ENDBRANCH   5   6
ENDBRANCH   4   5
ENDBRANCH   3   4
ENDBRANCH   2   3
ENDBRANCH   1   2
BRANCH   1  12
ATOM     12  C   UNL     1     -24.493  95.083 -31.008  1.00  0.00     0.000 C 
BRANCH  12  13
ATOM     13  C   UNL     1     -24.354  95.979 -29.767  1.00  0.00    -0.000 C 
BRANCH  13  14
ATOM     14  C   UNL     1     -24.723  95.246 -28.466  1.00  0.00    -0.000 C 
BRANCH  14  15
ATOM     15  C   UNL     1     -24.292  93.770 -28.477  1.00  0.00    -0.000 C 
BRANCH  15  16
ATOM     16  C   UNL     1     -25.388  92.827 -27.955  1.00  0.00    -0.000 C 
BRANCH  16  17
ATOM     17  C   UNL     1     -26.784  93.370 -28.294  1.00  0.00    -0.000 C 
BRANCH  17  18
ATOM     18  C   UNL     1     -27.649  92.357 -29.067  1.00  0.00    -0.000 C 
BRANCH  18  19
ATOM     19  C   UNL     1     -27.064  91.905 -30.417  1.00  0.00    -0.003 C 
ATOM     20  C   UNL     1     -27.386  92.866 -31.560  1.00  0.00     0.004 C 
ENDBRANCH  18  19
ENDBRANCH  17  18
ENDBRANCH  16  17
ENDBRANCH  15  16
ENDBRANCH  14  15
ENDBRANCH  13  14
ENDBRANCH  12  13
ENDBRANCH   1  12
TORSDOF 16
ENDMDL
