MODEL 1
REMARK VINA RESULT:    -3.918      0.000      0.000
REMARK INTER + INTRA:         -15.497
REMARK INTER:                 -10.216
REMARK INTRA:                  -5.281
REMARK UNBOUND:                -5.281
REMARK SMILES CCCCCCCCCCCCCCCCCCCCCCCCCCCCCO
REMARK SMILES IDX 16 1 15 2 14 3 13 4 12 5 11 6 10 7 9 8 8 9 7 10 6 11 5 12
REMARK SMILES IDX 4 13 3 14 2 15 1 16 17 17 18 18 19 19 20 20 21 21 22 22
REMARK SMILES IDX 23 23 24 24 25 25 26 26 27 27 28 28 29 29 30 30
REMARK H PARENT 30 31
REMARK Flexibility Score: inf
ROOT
ATOM      1  C   UNL     1     186.155 189.951 185.916  1.00  0.00     0.000 C 
ENDROOT
BRANCH   1   2
ATOM      2  C   UNL     1     186.863 189.779 184.564  1.00  0.00     0.000 C 
BRANCH   2   3
ATOM      3  C   UNL     1     187.686 191.027 184.212  1.00  0.00     0.000 C 
BRANCH   3   4
ATOM      4  C   UNL     1     189.189 190.726 184.088  1.00  0.00     0.000 C 
BRANCH   4   5
ATOM      5  C   UNL     1     189.470 189.262 183.708  1.00  0.00     0.000 C 
BRANCH   5   6
ATOM      6  C   UNL     1     190.295 188.524 184.785  1.00  0.00     0.000 C 
BRANCH   6   7
ATOM      7  C   UNL     1     190.285 189.213 186.161  1.00  0.00     0.000 C 
BRANCH   7   8
ATOM      8  C   UNL     1     189.265 188.599 187.134  1.00  0.00    -0.000 C 
BRANCH   8   9
ATOM      9  C   UNL     1     188.964 187.123 186.828  1.00  0.00    -0.000 C 
BRANCH   9  10
ATOM     10  C   UNL     1     188.840 186.266 188.100  1.00  0.00    -0.000 C 
BRANCH  10  11
ATOM     11  C   UNL     1     188.065 186.975 189.226  1.00  0.00    -0.000 C 
BRANCH  11  12
ATOM     12  C   UNL     1     186.562 186.633 189.308  1.00  0.00    -0.000 C 
BRANCH  12  13
ATOM     13  C   UNL     1     185.611 187.837 189.179  1.00  0.00    -0.000 C 
BRANCH  13  14
ATOM     14  C   UNL     1     184.176 187.483 188.744  1.00  0.00    -0.000 C 
BRANCH  14  15
ATOM     15  C   UNL     1     183.165 187.466 189.911  1.00  0.00    -0.003 C 
ATOM     16  C   UNL     1     183.752 188.026 191.207  1.00  0.00     0.004 C 
ENDBRANCH  14  15
ENDBRANCH  13  14
ENDBRANCH  12  13
ENDBRANCH  11  12
ENDBRANCH  10  11
ENDBRANCH   9  10
ENDBRANCH   8   9
ENDBRANCH   7   8
ENDBRANCH   6   7
ENDBRANCH   5   6
ENDBRANCH   4   5
ENDBRANCH   3   4
ENDBRANCH   2   3
ENDBRANCH   1   2
BRANCH   1  17
ATOM     17  C   UNL     1     186.590 191.221 186.671  1.00  0.00     0.000 C 
BRANCH  17  18
ATOM     18  C   UNL     1     185.451 192.008 187.345  1.00  0.00     0.000 C 
BRANCH  18  19
ATOM     19  C   UNL     1     184.307 191.107 187.840  1.00  0.00     0.000 C 
BRANCH  19  20
ATOM     20  C   UNL     1     184.089 191.201 189.360  1.00  0.00     0.000 C 
BRANCH  20  21
ATOM     21  C   UNL     1     185.196 191.941 190.137  1.00  0.00     0.000 C 
BRANCH  21  22
ATOM     22  C   UNL     1     185.709 191.219 191.400  1.00  0.00     0.000 C 
BRANCH  22  23
ATOM     23  C   UNL     1     187.223 190.935 191.422  1.00  0.00     0.000 C 
BRANCH  23  24
ATOM     24  C   UNL     1     187.790 190.601 190.032  1.00  0.00     0.000 C 
BRANCH  24  25
ATOM     25  C   UNL     1     188.813 191.643 189.549  1.00  0.00     0.000 C 
BRANCH  25  26
ATOM     26  C   UNL     1     188.850 192.894 190.440  1.00  0.00     0.000 C 
BRANCH  26  27
ATOM     27  C   UNL     1     189.122 194.153 189.604  1.00  0.00     0.002 C 
BRANCH  27  28
ATOM     28  C   UNL     1     188.443 195.407 190.180  1.00  0.00     0.028 C 
BRANCH  28  29
ATOM     29  C   UNL     1     187.148 195.786 189.453  1.00  0.00     0.156 C 
BRANCH  29  30
ATOM     30  O   UNL     1     187.156 197.148 189.129  1.00  0.00    -0.396 OA
ATOM     31  H   UNL     1     186.707 197.224 188.247  1.00  0.00     0.210 HD
ENDBRANCH  29  30
ENDBRANCH  28  29
ENDBRANCH  27  28
ENDBRANCH  26  27
ENDBRANCH  25  26
ENDBRANCH  24  25
ENDBRANCH  23  24
ENDBRANCH  22  23
ENDBRANCH  21  22
ENDBRANCH  20  21
ENDBRANCH  19  20
ENDBRANCH  18  19
ENDBRANCH  17  18
ENDBRANCH   1  17
TORSDOF 28
ENDMDL
MODEL 2
REMARK VINA RESULT:    -3.905      2.878      6.242
REMARK INTER + INTRA:         -15.464
REMARK INTER:                 -10.090
REMARK INTRA:                  -5.374
REMARK UNBOUND:                -5.281
REMARK SMILES CCCCCCCCCCCCCCCCCCCCCCCCCCCCCO
REMARK SMILES IDX 16 1 15 2 14 3 13 4 12 5 11 6 10 7 9 8 8 9 7 10 6 11 5 12
REMARK SMILES IDX 4 13 3 14 2 15 1 16 17 17 18 18 19 19 20 20 21 21 22 22
REMARK SMILES IDX 23 23 24 24 25 25 26 26 27 27 28 28 29 29 30 30
REMARK H PARENT 30 31
REMARK Flexibility Score: inf
ROOT
ATOM      1  C   UNL     1     185.934 189.623 186.392  1.00  0.00     0.000 C 
ENDROOT
BRANCH   1   2
ATOM      2  C   UNL     1     185.280 190.949 186.807  1.00  0.00     0.000 C 
BRANCH   2   3
ATOM      3  C   UNL     1     186.249 191.806 187.633  1.00  0.00     0.000 C 
BRANCH   3   4
ATOM      4  C   UNL     1     185.521 192.842 188.506  1.00  0.00     0.000 C 
BRANCH   4   5
ATOM      5  C   UNL     1     186.445 193.982 188.967  1.00  0.00     0.000 C 
BRANCH   5   6
ATOM      6  C   UNL     1     186.151 194.429 190.415  1.00  0.00     0.000 C 
BRANCH   6   7
ATOM      7  C   UNL     1     187.162 193.903 191.450  1.00  0.00     0.000 C 
BRANCH   7   8
ATOM      8  C   UNL     1     186.731 192.575 192.092  1.00  0.00    -0.000 C 
BRANCH   8   9
ATOM      9  C   UNL     1     187.353 191.350 191.402  1.00  0.00    -0.000 C 
BRANCH   9  10
ATOM     10  C   UNL     1     186.346 190.203 191.206  1.00  0.00    -0.000 C 
BRANCH  10  11
ATOM     11  C   UNL     1     184.881 190.671 191.296  1.00  0.00    -0.000 C 
BRANCH  11  12
ATOM     12  C   UNL     1     183.889 189.901 190.400  1.00  0.00    -0.000 C 
BRANCH  12  13
ATOM     13  C   UNL     1     184.489 188.704 189.640  1.00  0.00    -0.000 C 
BRANCH  13  14
ATOM     14  C   UNL     1     183.509 187.982 188.696  1.00  0.00    -0.000 C 
BRANCH  14  15
ATOM     15  C   UNL     1     183.324 186.485 189.026  1.00  0.00    -0.003 C 
ATOM     16  C   UNL     1     182.098 186.223 189.901  1.00  0.00     0.004 C 
ENDBRANCH  14  15
ENDBRANCH  13  14
ENDBRANCH  12  13
ENDBRANCH  11  12
ENDBRANCH  10  11
ENDBRANCH   9  10
ENDBRANCH   8   9
ENDBRANCH   7   8
ENDBRANCH   6   7
ENDBRANCH   5   6
ENDBRANCH   4   5
ENDBRANCH   3   4
ENDBRANCH   2   3
ENDBRANCH   1   2
BRANCH   1  17
ATOM     17  C   UNL     1     186.491 189.646 184.956  1.00  0.00     0.000 C 
BRANCH  17  18
ATOM     18  C   UNL     1     187.871 188.987 184.776  1.00  0.00     0.000 C 
BRANCH  18  19
ATOM     19  C   UNL     1     188.993 190.003 184.502  1.00  0.00     0.000 C 
BRANCH  19  20
ATOM     20  C   UNL     1     189.295 190.900 185.715  1.00  0.00     0.000 C 
BRANCH  20  21
ATOM     21  C   UNL     1     190.605 190.576 186.460  1.00  0.00     0.000 C 
BRANCH  21  22
ATOM     22  C   UNL     1     190.455 189.642 187.679  1.00  0.00     0.000 C 
BRANCH  22  23
ATOM     23  C   UNL     1     189.070 189.661 188.353  1.00  0.00     0.000 C 
BRANCH  23  24
ATOM     24  C   UNL     1     188.807 188.414 189.213  1.00  0.00     0.000 C 
BRANCH  24  25
ATOM     25  C   UNL     1     187.682 187.534 188.644  1.00  0.00     0.000 C 
BRANCH  25  26
ATOM     26  C   UNL     1     187.521 186.211 189.408  1.00  0.00     0.000 C 
BRANCH  26  27
ATOM     27  C   UNL     1     187.220 186.469 190.892  1.00  0.00     0.002 C 
BRANCH  27  28
ATOM     28  C   UNL     1     185.960 185.733 191.379  1.00  0.00     0.028 C 
BRANCH  28  29
ATOM     29  C   UNL     1     185.751 185.823 192.895  1.00  0.00     0.156 C 
BRANCH  29  30
ATOM     30  O   UNL     1     184.885 184.810 193.324  1.00  0.00    -0.396 OA
ATOM     31  H   UNL     1     185.205 184.538 194.224  1.00  0.00     0.210 HD
ENDBRANCH  29  30
ENDBRANCH  28  29
ENDBRANCH  27  28
ENDBRANCH  26  27
ENDBRANCH  25  26
ENDBRANCH  24  25
ENDBRANCH  23  24
ENDBRANCH  22  23
ENDBRANCH  21  22
ENDBRANCH  20  21
ENDBRANCH  19  20
ENDBRANCH  18  19
ENDBRANCH  17  18
ENDBRANCH   1  17
TORSDOF 28
ENDMDL
MODEL 3
REMARK VINA RESULT:    -3.898      2.629      4.857
REMARK INTER + INTRA:         -15.445
REMARK INTER:                  -9.555
REMARK INTRA:                  -5.891
REMARK UNBOUND:                -5.281
REMARK SMILES CCCCCCCCCCCCCCCCCCCCCCCCCCCCCO
REMARK SMILES IDX 16 1 15 2 14 3 13 4 12 5 11 6 10 7 9 8 8 9 7 10 6 11 5 12
REMARK SMILES IDX 4 13 3 14 2 15 1 16 17 17 18 18 19 19 20 20 21 21 22 22
REMARK SMILES IDX 23 23 24 24 25 25 26 26 27 27 28 28 29 29 30 30
REMARK H PARENT 30 31
REMARK Flexibility Score: inf
ROOT
ATOM      1  C   UNL     1     186.557 189.695 185.770  1.00  0.00     0.000 C 
ENDROOT
BRANCH   1   2
ATOM      2  C   UNL     1     187.065 191.100 185.417  1.00  0.00     0.000 C 
BRANCH   2   3
ATOM      3  C   UNL     1     187.871 191.081 184.110  1.00  0.00     0.000 C 
BRANCH   3   4
ATOM      4  C   UNL     1     188.766 189.837 183.988  1.00  0.00     0.000 C 
BRANCH   4   5
ATOM      5  C   UNL     1     190.229 190.189 183.668  1.00  0.00     0.000 C 
BRANCH   5   6
ATOM      6  C   UNL     1     191.066 188.945 183.300  1.00  0.00     0.000 C 
BRANCH   6   7
ATOM      7  C   UNL     1     192.251 188.687 184.247  1.00  0.00     0.000 C 
BRANCH   7   8
ATOM      8  C   UNL     1     192.278 187.254 184.802  1.00  0.00    -0.000 C 
BRANCH   8   9
ATOM      9  C   UNL     1     190.953 186.505 184.582  1.00  0.00    -0.000 C 
BRANCH   9  10
ATOM     10  C   UNL     1     190.269 186.108 185.901  1.00  0.00    -0.000 C 
BRANCH  10  11
ATOM     11  C   UNL     1     189.137 187.072 186.302  1.00  0.00    -0.000 C 
BRANCH  11  12
ATOM     12  C   UNL     1     189.010 187.346 187.815  1.00  0.00    -0.000 C 
BRANCH  12  13
ATOM     13  C   UNL     1     189.300 188.797 188.242  1.00  0.00    -0.000 C 
BRANCH  13  14
ATOM     14  C   UNL     1     190.288 189.552 187.334  1.00  0.00    -0.000 C 
BRANCH  14  15
ATOM     15  C   UNL     1     190.138 191.087 187.402  1.00  0.00    -0.003 C 
ATOM     16  C   UNL     1     189.045 191.529 188.376  1.00  0.00     0.004 C 
ENDBRANCH  14  15
ENDBRANCH  13  14
ENDBRANCH  12  13
ENDBRANCH  11  12
ENDBRANCH  10  11
ENDBRANCH   9  10
ENDBRANCH   8   9
ENDBRANCH   7   8
ENDBRANCH   6   7
ENDBRANCH   5   6
ENDBRANCH   4   5
ENDBRANCH   3   4
ENDBRANCH   2   3
ENDBRANCH   1   2
BRANCH   1  17
ATOM     17  C   UNL     1     185.836 189.637 187.130  1.00  0.00     0.000 C 
BRANCH  17  18
ATOM     18  C   UNL     1     184.434 190.274 187.159  1.00  0.00     0.000 C 
BRANCH  18  19
ATOM     19  C   UNL     1     184.240 191.248 188.333  1.00  0.00     0.000 C 
BRANCH  19  20
ATOM     20  C   UNL     1     185.343 192.318 188.409  1.00  0.00     0.000 C 
BRANCH  20  21
ATOM     21  C   UNL     1     185.715 192.776 189.833  1.00  0.00     0.000 C 
BRANCH  21  22
ATOM     22  C   UNL     1     185.601 191.691 190.924  1.00  0.00     0.000 C 
BRANCH  22  23
ATOM     23  C   UNL     1     186.943 191.166 191.469  1.00  0.00     0.000 C 
BRANCH  23  24
ATOM     24  C   UNL     1     187.126 189.654 191.251  1.00  0.00     0.000 C 
BRANCH  24  25
ATOM     25  C   UNL     1     185.837 188.969 190.769  1.00  0.00     0.000 C 
BRANCH  25  26
ATOM     26  C   UNL     1     186.108 187.649 190.031  1.00  0.00     0.000 C 
BRANCH  26  27
ATOM     27  C   UNL     1     184.792 186.952 189.654  1.00  0.00     0.002 C 
BRANCH  27  28
ATOM     28  C   UNL     1     183.555 187.679 190.210  1.00  0.00     0.028 C 
BRANCH  28  29
ATOM     29  C   UNL     1     182.323 186.776 190.333  1.00  0.00     0.156 C 
BRANCH  29  30
ATOM     30  O   UNL     1     181.588 187.113 191.476  1.00  0.00    -0.396 OA
ATOM     31  H   UNL     1     180.690 186.707 191.356  1.00  0.00     0.210 HD
ENDBRANCH  29  30
ENDBRANCH  28  29
ENDBRANCH  27  28
ENDBRANCH  26  27
ENDBRANCH  25  26
ENDBRANCH  24  25
ENDBRANCH  23  24
ENDBRANCH  22  23
ENDBRANCH  21  22
ENDBRANCH  20  21
ENDBRANCH  19  20
ENDBRANCH  18  19
ENDBRANCH  17  18
ENDBRANCH   1  17
TORSDOF 28
ENDMDL
MODEL 4
REMARK VINA RESULT:    -3.889      3.255      8.121
REMARK INTER + INTRA:         -15.422
REMARK INTER:                 -10.508
REMARK INTRA:                  -4.914
REMARK UNBOUND:                -5.281
REMARK SMILES CCCCCCCCCCCCCCCCCCCCCCCCCCCCCO
REMARK SMILES IDX 16 1 15 2 14 3 13 4 12 5 11 6 10 7 9 8 8 9 7 10 6 11 5 12
REMARK SMILES IDX 4 13 3 14 2 15 1 16 17 17 18 18 19 19 20 20 21 21 22 22
REMARK SMILES IDX 23 23 24 24 25 25 26 26 27 27 28 28 29 29 30 30
REMARK H PARENT 30 31
REMARK Flexibility Score: inf
ROOT
ATOM      1  C   UNL     1     184.842 190.440 187.291  1.00  0.00     0.000 C 
ENDROOT
BRANCH   1   2
ATOM      2  C   UNL     1     184.906 191.972 187.386  1.00  0.00     0.000 C 
BRANCH   2   3
ATOM      3  C   UNL     1     185.120 192.425 188.837  1.00  0.00     0.000 C 
BRANCH   3   4
ATOM      4  C   UNL     1     186.010 193.675 188.938  1.00  0.00     0.000 C 
BRANCH   4   5
ATOM      5  C   UNL     1     186.555 193.899 190.360  1.00  0.00     0.000 C 
BRANCH   5   6
ATOM      6  C   UNL     1     187.679 194.957 190.398  1.00  0.00     0.000 C 
BRANCH   6   7
ATOM      7  C   UNL     1     187.260 196.334 189.855  1.00  0.00     0.000 C 
BRANCH   7   8
ATOM      8  C   UNL     1     186.123 196.979 190.663  1.00  0.00    -0.000 C 
BRANCH   8   9
ATOM      9  C   UNL     1     186.634 197.946 191.744  1.00  0.00    -0.000 C 
BRANCH   9  10
ATOM     10  C   UNL     1     187.651 198.964 191.199  1.00  0.00    -0.000 C 
BRANCH  10  11
ATOM     11  C   UNL     1     189.045 198.817 191.837  1.00  0.00    -0.000 C 
BRANCH  11  12
ATOM     12  C   UNL     1     189.103 197.923 193.093  1.00  0.00    -0.000 C 
BRANCH  12  13
ATOM     13  C   UNL     1     189.805 196.566 192.896  1.00  0.00    -0.000 C 
BRANCH  13  14
ATOM     14  C   UNL     1     189.226 195.412 193.737  1.00  0.00    -0.000 C 
BRANCH  14  15
ATOM     15  C   UNL     1     187.730 195.587 194.077  1.00  0.00    -0.003 C 
ATOM     16  C   UNL     1     186.959 194.267 194.032  1.00  0.00     0.004 C 
ENDBRANCH  14  15
ENDBRANCH  13  14
ENDBRANCH  12  13
ENDBRANCH  11  12
ENDBRANCH  10  11
ENDBRANCH   9  10
ENDBRANCH   8   9
ENDBRANCH   7   8
ENDBRANCH   6   7
ENDBRANCH   5   6
ENDBRANCH   4   5
ENDBRANCH   3   4
ENDBRANCH   2   3
ENDBRANCH   1   2
BRANCH   1  17
ATOM     17  C   UNL     1     185.853 189.853 186.287  1.00  0.00     0.000 C 
BRANCH  17  18
ATOM     18  C   UNL     1     187.038 190.771 185.934  1.00  0.00     0.000 C 
BRANCH  18  19
ATOM     19  C   UNL     1     188.324 190.417 186.700  1.00  0.00     0.000 C 
BRANCH  19  20
ATOM     20  C   UNL     1     188.591 191.360 187.885  1.00  0.00     0.000 C 
BRANCH  20  21
ATOM     21  C   UNL     1     188.531 190.699 189.276  1.00  0.00     0.000 C 
BRANCH  21  22
ATOM     22  C   UNL     1     187.777 189.354 189.334  1.00  0.00     0.000 C 
BRANCH  22  23
ATOM     23  C   UNL     1     187.079 189.050 190.673  1.00  0.00     0.000 C 
BRANCH  23  24
ATOM     24  C   UNL     1     186.625 190.321 191.412  1.00  0.00     0.000 C 
BRANCH  24  25
ATOM     25  C   UNL     1     185.136 190.278 191.794  1.00  0.00     0.000 C 
BRANCH  25  26
ATOM     26  C   UNL     1     184.281 189.529 190.761  1.00  0.00     0.000 C 
BRANCH  26  27
ATOM     27  C   UNL     1     183.570 188.329 191.406  1.00  0.00     0.002 C 
BRANCH  27  28
ATOM     28  C   UNL     1     183.796 187.019 190.632  1.00  0.00     0.028 C 
BRANCH  28  29
ATOM     29  C   UNL     1     182.564 186.555 189.848  1.00  0.00     0.156 C 
BRANCH  29  30
ATOM     30  O   UNL     1     182.314 185.200 190.097  1.00  0.00    -0.396 OA
ATOM     31  H   UNL     1     181.417 185.011 189.716  1.00  0.00     0.210 HD
ENDBRANCH  29  30
ENDBRANCH  28  29
ENDBRANCH  27  28
ENDBRANCH  26  27
ENDBRANCH  25  26
ENDBRANCH  24  25
ENDBRANCH  23  24
ENDBRANCH  22  23
ENDBRANCH  21  22
ENDBRANCH  20  21
ENDBRANCH  19  20
ENDBRANCH  18  19
ENDBRANCH  17  18
ENDBRANCH   1  17
TORSDOF 28
ENDMDL
MODEL 5
REMARK VINA RESULT:    -3.803      1.924      5.397
REMARK INTER + INTRA:         -15.197
REMARK INTER:                  -9.352
REMARK INTRA:                  -5.845
REMARK UNBOUND:                -5.281
REMARK SMILES CCCCCCCCCCCCCCCCCCCCCCCCCCCCCO
REMARK SMILES IDX 16 1 15 2 14 3 13 4 12 5 11 6 10 7 9 8 8 9 7 10 6 11 5 12
REMARK SMILES IDX 4 13 3 14 2 15 1 16 17 17 18 18 19 19 20 20 21 21 22 22
REMARK SMILES IDX 23 23 24 24 25 25 26 26 27 27 28 28 29 29 30 30
REMARK H PARENT 30 31
REMARK Flexibility Score: inf
ROOT
ATOM      1  C   UNL     1     189.028 192.321 188.937  1.00  0.00     0.000 C 
ENDROOT
BRANCH   1   2
ATOM      2  C   UNL     1     189.658 191.278 189.871  1.00  0.00     0.000 C 
BRANCH   2   3
ATOM      3  C   UNL     1     188.581 190.403 190.527  1.00  0.00     0.000 C 
BRANCH   3   4
ATOM      4  C   UNL     1     188.450 189.026 189.856  1.00  0.00     0.000 C 
BRANCH   4   5
ATOM      5  C   UNL     1     186.985 188.614 189.629  1.00  0.00     0.000 C 
BRANCH   5   6
ATOM      6  C   UNL     1     186.003 189.441 190.487  1.00  0.00     0.000 C 
BRANCH   6   7
ATOM      7  C   UNL     1     184.556 189.430 189.964  1.00  0.00     0.000 C 
BRANCH   7   8
ATOM      8  C   UNL     1     184.014 190.836 189.663  1.00  0.00    -0.000 C 
BRANCH   8   9
ATOM      9  C   UNL     1     184.419 191.346 188.271  1.00  0.00    -0.000 C 
BRANCH   9  10
ATOM     10  C   UNL     1     183.857 190.477 187.133  1.00  0.00    -0.000 C 
BRANCH  10  11
ATOM     11  C   UNL     1     184.946 189.665 186.406  1.00  0.00    -0.000 C 
BRANCH  11  12
ATOM     12  C   UNL     1     186.329 190.344 186.325  1.00  0.00    -0.000 C 
BRANCH  12  13
ATOM     13  C   UNL     1     187.524 189.379 186.207  1.00  0.00    -0.000 C 
BRANCH  13  14
ATOM     14  C   UNL     1     188.907 190.056 186.250  1.00  0.00    -0.000 C 
BRANCH  14  15
ATOM     15  C   UNL     1     189.256 190.827 184.959  1.00  0.00    -0.003 C 
ATOM     16  C   UNL     1     189.049 189.987 183.698  1.00  0.00     0.004 C 
ENDBRANCH  14  15
ENDBRANCH  13  14
ENDBRANCH  12  13
ENDBRANCH  11  12
ENDBRANCH  10  11
ENDBRANCH   9  10
ENDBRANCH   8   9
ENDBRANCH   7   8
ENDBRANCH   6   7
ENDBRANCH   5   6
ENDBRANCH   4   5
ENDBRANCH   3   4
ENDBRANCH   2   3
ENDBRANCH   1   2
BRANCH   1  17
ATOM     17  C   UNL     1     187.499 192.429 189.094  1.00  0.00     0.000 C 
BRANCH  17  18
ATOM     18  C   UNL     1     186.936 193.862 189.081  1.00  0.00     0.000 C 
BRANCH  18  19
ATOM     19  C   UNL     1     186.268 194.258 190.408  1.00  0.00     0.000 C 
BRANCH  19  20
ATOM     20  C   UNL     1     186.257 193.113 191.436  1.00  0.00     0.000 C 
BRANCH  20  21
ATOM     21  C   UNL     1     186.962 193.424 192.771  1.00  0.00     0.000 C 
BRANCH  21  22
ATOM     22  C   UNL     1     188.030 194.536 192.708  1.00  0.00     0.000 C 
BRANCH  22  23
ATOM     23  C   UNL     1     189.459 194.054 192.393  1.00  0.00     0.000 C 
BRANCH  23  24
ATOM     24  C   UNL     1     190.176 194.941 191.360  1.00  0.00     0.000 C 
BRANCH  24  25
ATOM     25  C   UNL     1     189.483 196.301 191.172  1.00  0.00     0.000 C 
BRANCH  25  26
ATOM     26  C   UNL     1     189.129 196.587 189.705  1.00  0.00     0.000 C 
BRANCH  26  27
ATOM     27  C   UNL     1     188.107 197.729 189.601  1.00  0.00     0.002 C 
BRANCH  27  28
ATOM     28  C   UNL     1     187.150 197.780 190.804  1.00  0.00     0.028 C 
BRANCH  28  29
ATOM     29  C   UNL     1     187.314 199.042 191.658  1.00  0.00     0.156 C 
BRANCH  29  30
ATOM     30  O   UNL     1     186.225 199.901 191.465  1.00  0.00    -0.396 OA
ATOM     31  H   UNL     1     185.811 200.027 192.359  1.00  0.00     0.210 HD
ENDBRANCH  29  30
ENDBRANCH  28  29
ENDBRANCH  27  28
ENDBRANCH  26  27
ENDBRANCH  25  26
ENDBRANCH  24  25
ENDBRANCH  23  24
ENDBRANCH  22  23
ENDBRANCH  21  22
ENDBRANCH  20  21
ENDBRANCH  19  20
ENDBRANCH  18  19
ENDBRANCH  17  18
ENDBRANCH   1  17
TORSDOF 28
ENDMDL
MODEL 6
REMARK VINA RESULT:    -3.780      1.702      4.658
REMARK INTER + INTRA:         -15.138
REMARK INTER:                  -9.552
REMARK INTRA:                  -5.586
REMARK UNBOUND:                -5.281
REMARK SMILES CCCCCCCCCCCCCCCCCCCCCCCCCCCCCO
REMARK SMILES IDX 16 1 15 2 14 3 13 4 12 5 11 6 10 7 9 8 8 9 7 10 6 11 5 12
REMARK SMILES IDX 4 13 3 14 2 15 1 16 17 17 18 18 19 19 20 20 21 21 22 22
REMARK SMILES IDX 23 23 24 24 25 25 26 26 27 27 28 28 29 29 30 30
REMARK H PARENT 30 31
REMARK Flexibility Score: inf
ROOT
ATOM      1  C   UNL     1     189.353 187.713 185.704  1.00  0.00     0.000 C 
ENDROOT
BRANCH   1   2
ATOM      2  C   UNL     1     189.772 188.626 186.866  1.00  0.00     0.000 C 
BRANCH   2   3
ATOM      3  C   UNL     1     189.250 188.087 188.205  1.00  0.00     0.000 C 
BRANCH   3   4
ATOM      4  C   UNL     1     187.903 188.711 188.607  1.00  0.00     0.000 C 
BRANCH   4   5
ATOM      5  C   UNL     1     186.753 187.689 188.607  1.00  0.00     0.000 C 
BRANCH   5   6
ATOM      6  C   UNL     1     185.655 188.040 189.633  1.00  0.00     0.000 C 
BRANCH   6   7
ATOM      7  C   UNL     1     184.324 187.301 189.401  1.00  0.00     0.000 C 
BRANCH   7   8
ATOM      8  C   UNL     1     183.981 186.314 190.528  1.00  0.00    -0.000 C 
BRANCH   8   9
ATOM      9  C   UNL     1     184.622 186.696 191.872  1.00  0.00    -0.000 C 
BRANCH   9  10
ATOM     10  C   UNL     1     185.345 185.515 192.543  1.00  0.00    -0.000 C 
BRANCH  10  11
ATOM     11  C   UNL     1     186.039 184.585 191.530  1.00  0.00    -0.000 C 
BRANCH  11  12
ATOM     12  C   UNL     1     187.414 185.071 191.026  1.00  0.00    -0.000 C 
BRANCH  12  13
ATOM     13  C   UNL     1     188.319 185.698 192.102  1.00  0.00    -0.000 C 
BRANCH  13  14
ATOM     14  C   UNL     1     188.756 187.147 191.813  1.00  0.00    -0.000 C 
BRANCH  14  15
ATOM     15  C   UNL     1     187.906 188.206 192.549  1.00  0.00    -0.003 C 
ATOM     16  C   UNL     1     188.248 189.634 192.124  1.00  0.00     0.004 C 
ENDBRANCH  14  15
ENDBRANCH  13  14
ENDBRANCH  12  13
ENDBRANCH  11  12
ENDBRANCH  10  11
ENDBRANCH   9  10
ENDBRANCH   8   9
ENDBRANCH   7   8
ENDBRANCH   6   7
ENDBRANCH   5   6
ENDBRANCH   4   5
ENDBRANCH   3   4
ENDBRANCH   2   3
ENDBRANCH   1   2
BRANCH   1  17
ATOM     17  C   UNL     1     189.052 188.486 184.406  1.00  0.00     0.000 C 
BRANCH  17  18
ATOM     18  C   UNL     1     187.632 189.074 184.305  1.00  0.00     0.000 C 
BRANCH  18  19
ATOM     19  C   UNL     1     187.560 190.551 184.728  1.00  0.00     0.000 C 
BRANCH  19  20
ATOM     20  C   UNL     1     186.588 190.790 185.896  1.00  0.00     0.000 C 
BRANCH  20  21
ATOM     21  C   UNL     1     185.436 189.773 186.010  1.00  0.00     0.000 C 
BRANCH  21  22
ATOM     22  C   UNL     1     184.303 190.167 186.980  1.00  0.00     0.000 C 
BRANCH  22  23
ATOM     23  C   UNL     1     184.514 191.497 187.728  1.00  0.00     0.000 C 
BRANCH  23  24
ATOM     24  C   UNL     1     184.198 191.395 189.230  1.00  0.00     0.000 C 
BRANCH  24  25
ATOM     25  C   UNL     1     185.289 192.032 190.105  1.00  0.00     0.000 C 
BRANCH  25  26
ATOM     26  C   UNL     1     186.686 191.936 189.473  1.00  0.00     0.000 C 
BRANCH  26  27
ATOM     27  C   UNL     1     187.245 193.334 189.166  1.00  0.00     0.002 C 
BRANCH  27  28
ATOM     28  C   UNL     1     186.231 194.454 189.451  1.00  0.00     0.028 C 
BRANCH  28  29
ATOM     29  C   UNL     1     186.868 195.717 190.040  1.00  0.00     0.156 C 
BRANCH  29  30
ATOM     30  O   UNL     1     186.905 196.734 189.079  1.00  0.00    -0.396 OA
ATOM     31  H   UNL     1     187.853 197.026 189.022  1.00  0.00     0.210 HD
ENDBRANCH  29  30
ENDBRANCH  28  29
ENDBRANCH  27  28
ENDBRANCH  26  27
ENDBRANCH  25  26
ENDBRANCH  24  25
ENDBRANCH  23  24
ENDBRANCH  22  23
ENDBRANCH  21  22
ENDBRANCH  20  21
ENDBRANCH  19  20
ENDBRANCH  18  19
ENDBRANCH  17  18
ENDBRANCH   1  17
TORSDOF 28
ENDMDL
MODEL 7
REMARK VINA RESULT:    -3.752      2.814      6.953
REMARK INTER + INTRA:         -15.065
REMARK INTER:                  -9.584
REMARK INTRA:                  -5.480
REMARK UNBOUND:                -5.281
REMARK SMILES CCCCCCCCCCCCCCCCCCCCCCCCCCCCCO
REMARK SMILES IDX 16 1 15 2 14 3 13 4 12 5 11 6 10 7 9 8 8 9 7 10 6 11 5 12
REMARK SMILES IDX 4 13 3 14 2 15 1 16 17 17 18 18 19 19 20 20 21 21 22 22
REMARK SMILES IDX 23 23 24 24 25 25 26 26 27 27 28 28 29 29 30 30
REMARK H PARENT 30 31
REMARK Flexibility Score: inf
ROOT
ATOM      1  C   UNL     1     187.048 186.648 190.442  1.00  0.00     0.000 C 
ENDROOT
BRANCH   1   2
ATOM      2  C   UNL     1     185.704 185.959 190.717  1.00  0.00     0.000 C 
BRANCH   2   3
ATOM      3  C   UNL     1     184.958 186.647 191.869  1.00  0.00     0.000 C 
BRANCH   3   4
ATOM      4  C   UNL     1     185.719 187.864 192.420  1.00  0.00     0.000 C 
BRANCH   4   5
ATOM      5  C   UNL     1     184.972 189.188 192.178  1.00  0.00     0.000 C 
BRANCH   5   6
ATOM      6  C   UNL     1     183.770 189.018 191.224  1.00  0.00     0.000 C 
BRANCH   6   7
ATOM      7  C   UNL     1     183.983 189.643 189.834  1.00  0.00     0.000 C 
BRANCH   7   8
ATOM      8  C   UNL     1     183.960 188.607 188.699  1.00  0.00    -0.000 C 
BRANCH   8   9
ATOM      9  C   UNL     1     184.307 189.214 187.330  1.00  0.00    -0.000 C 
BRANCH   9  10
ATOM     10  C   UNL     1     184.337 190.752 187.352  1.00  0.00    -0.000 C 
BRANCH  10  11
ATOM     11  C   UNL     1     185.701 191.330 186.930  1.00  0.00    -0.000 C 
BRANCH  11  12
ATOM     12  C   UNL     1     186.464 192.089 188.034  1.00  0.00    -0.000 C 
BRANCH  12  13
ATOM     13  C   UNL     1     185.575 192.784 189.082  1.00  0.00    -0.000 C 
BRANCH  13  14
ATOM     14  C   UNL     1     186.141 194.105 189.635  1.00  0.00    -0.000 C 
BRANCH  14  15
ATOM     15  C   UNL     1     186.799 193.961 191.024  1.00  0.00    -0.003 C 
ATOM     16  C   UNL     1     186.461 192.633 191.701  1.00  0.00     0.004 C 
ENDBRANCH  14  15
ENDBRANCH  13  14
ENDBRANCH  12  13
ENDBRANCH  11  12
ENDBRANCH  10  11
ENDBRANCH   9  10
ENDBRANCH   8   9
ENDBRANCH   7   8
ENDBRANCH   6   7
ENDBRANCH   5   6
ENDBRANCH   4   5
ENDBRANCH   3   4
ENDBRANCH   2   3
ENDBRANCH   1   2
BRANCH   1  17
ATOM     17  C   UNL     1     187.254 187.005 188.958  1.00  0.00     0.000 C 
BRANCH  17  18
ATOM     18  C   UNL     1     187.587 188.483 188.676  1.00  0.00     0.000 C 
BRANCH  18  19
ATOM     19  C   UNL     1     187.816 189.303 189.957  1.00  0.00     0.000 C 
BRANCH  19  20
ATOM     20  C   UNL     1     189.307 189.501 190.280  1.00  0.00     0.000 C 
BRANCH  20  21
ATOM     21  C   UNL     1     189.814 190.953 190.172  1.00  0.00     0.000 C 
BRANCH  21  22
ATOM     22  C   UNL     1     190.743 191.238 188.974  1.00  0.00     0.000 C 
BRANCH  22  23
ATOM     23  C   UNL     1     190.041 191.772 187.712  1.00  0.00     0.000 C 
BRANCH  23  24
ATOM     24  C   UNL     1     190.816 191.463 186.419  1.00  0.00     0.000 C 
BRANCH  24  25
ATOM     25  C   UNL     1     190.268 190.228 185.686  1.00  0.00     0.000 C 
BRANCH  25  26
ATOM     26  C   UNL     1     188.794 190.384 185.283  1.00  0.00     0.000 C 
BRANCH  26  27
ATOM     27  C   UNL     1     188.133 189.012 185.081  1.00  0.00     0.002 C 
BRANCH  27  28
ATOM     28  C   UNL     1     189.126 187.847 185.231  1.00  0.00     0.028 C 
BRANCH  28  29
ATOM     29  C   UNL     1     189.631 187.301 183.891  1.00  0.00     0.156 C 
BRANCH  29  30
ATOM     30  O   UNL     1     189.365 185.929 183.796  1.00  0.00    -0.396 OA
ATOM     31  H   UNL     1     190.200 185.510 183.458  1.00  0.00     0.210 HD
ENDBRANCH  29  30
ENDBRANCH  28  29
ENDBRANCH  27  28
ENDBRANCH  26  27
ENDBRANCH  25  26
ENDBRANCH  24  25
ENDBRANCH  23  24
ENDBRANCH  22  23
ENDBRANCH  21  22
ENDBRANCH  20  21
ENDBRANCH  19  20
ENDBRANCH  18  19
ENDBRANCH  17  18
ENDBRANCH   1  17
TORSDOF 28
ENDMDL
MODEL 8
REMARK VINA RESULT:    -3.741      2.984      7.873
REMARK INTER + INTRA:         -15.037
REMARK INTER:                  -9.421
REMARK INTRA:                  -5.616
REMARK UNBOUND:                -5.281
REMARK SMILES CCCCCCCCCCCCCCCCCCCCCCCCCCCCCO
REMARK SMILES IDX 16 1 15 2 14 3 13 4 12 5 11 6 10 7 9 8 8 9 7 10 6 11 5 12
REMARK SMILES IDX 4 13 3 14 2 15 1 16 17 17 18 18 19 19 20 20 21 21 22 22
REMARK SMILES IDX 23 23 24 24 25 25 26 26 27 27 28 28 29 29 30 30
REMARK H PARENT 30 31
REMARK Flexibility Score: inf
ROOT
ATOM      1  C   UNL     1     186.125 194.251 189.467  1.00  0.00     0.000 C 
ENDROOT
BRANCH   1   2
ATOM      2  C   UNL     1     187.250 195.273 189.247  1.00  0.00     0.000 C 
BRANCH   2   3
ATOM      3  C   UNL     1     186.918 196.611 189.923  1.00  0.00     0.000 C 
BRANCH   3   4
ATOM      4  C   UNL     1     188.108 197.585 189.916  1.00  0.00     0.000 C 
BRANCH   4   5
ATOM      5  C   UNL     1     188.291 198.306 191.263  1.00  0.00     0.000 C 
BRANCH   5   6
ATOM      6  C   UNL     1     186.944 198.726 191.892  1.00  0.00     0.000 C 
BRANCH   6   7
ATOM      7  C   UNL     1     186.757 198.249 193.343  1.00  0.00     0.000 C 
BRANCH   7   8
ATOM      8  C   UNL     1     187.407 196.883 193.617  1.00  0.00    -0.000 C 
BRANCH   8   9
ATOM      9  C   UNL     1     186.384 195.738 193.682  1.00  0.00    -0.000 C 
BRANCH   9  10
ATOM     10  C   UNL     1     186.928 194.420 193.103  1.00  0.00    -0.000 C 
BRANCH  10  11
ATOM     11  C   UNL     1     188.403 194.521 192.672  1.00  0.00    -0.000 C 
BRANCH  11  12
ATOM     12  C   UNL     1     188.925 193.336 191.832  1.00  0.00    -0.000 C 
BRANCH  12  13
ATOM     13  C   UNL     1     190.192 193.629 191.008  1.00  0.00    -0.000 C 
BRANCH  13  14
ATOM     14  C   UNL     1     190.583 192.523 190.010  1.00  0.00    -0.000 C 
BRANCH  14  15
ATOM     15  C   UNL     1     189.895 192.662 188.635  1.00  0.00    -0.003 C 
ATOM     16  C   UNL     1     190.215 191.499 187.696  1.00  0.00     0.004 C 
ENDBRANCH  14  15
ENDBRANCH  13  14
ENDBRANCH  12  13
ENDBRANCH  11  12
ENDBRANCH  10  11
ENDBRANCH   9  10
ENDBRANCH   8   9
ENDBRANCH   7   8
ENDBRANCH   6   7
ENDBRANCH   5   6
ENDBRANCH   4   5
ENDBRANCH   3   4
ENDBRANCH   2   3
ENDBRANCH   1   2
BRANCH   1  17
ATOM     17  C   UNL     1     186.225 193.030 188.533  1.00  0.00     0.000 C 
BRANCH  17  18
ATOM     18  C   UNL     1     184.964 192.147 188.467  1.00  0.00     0.000 C 
BRANCH  18  19
ATOM     19  C   UNL     1     185.191 190.830 187.708  1.00  0.00     0.000 C 
BRANCH  19  20
ATOM     20  C   UNL     1     186.646 190.335 187.793  1.00  0.00     0.000 C 
BRANCH  20  21
ATOM     21  C   UNL     1     186.948 189.386 188.969  1.00  0.00     0.000 C 
BRANCH  21  22
ATOM     22  C   UNL     1     187.787 189.999 190.110  1.00  0.00     0.000 C 
BRANCH  22  23
ATOM     23  C   UNL     1     187.130 189.956 191.503  1.00  0.00     0.000 C 
BRANCH  23  24
ATOM     24  C   UNL     1     186.044 191.030 191.685  1.00  0.00     0.000 C 
BRANCH  24  25
ATOM     25  C   UNL     1     184.623 190.453 191.578  1.00  0.00     0.000 C 
BRANCH  25  26
ATOM     26  C   UNL     1     184.568 188.951 191.897  1.00  0.00     0.000 C 
BRANCH  26  27
ATOM     27  C   UNL     1     183.564 188.233 190.982  1.00  0.00     0.002 C 
BRANCH  27  28
ATOM     28  C   UNL     1     184.214 187.121 190.143  1.00  0.00     0.028 C 
BRANCH  28  29
ATOM     29  C   UNL     1     183.520 186.889 188.797  1.00  0.00     0.156 C 
BRANCH  29  30
ATOM     30  O   UNL     1     183.209 188.114 188.195  1.00  0.00    -0.396 OA
ATOM     31  H   UNL     1     182.368 187.966 187.688  1.00  0.00     0.210 HD
ENDBRANCH  29  30
ENDBRANCH  28  29
ENDBRANCH  27  28
ENDBRANCH  26  27
ENDBRANCH  25  26
ENDBRANCH  24  25
ENDBRANCH  23  24
ENDBRANCH  22  23
ENDBRANCH  21  22
ENDBRANCH  20  21
ENDBRANCH  19  20
ENDBRANCH  18  19
ENDBRANCH  17  18
ENDBRANCH   1  17
TORSDOF 28
ENDMDL
MODEL 9
REMARK VINA RESULT:    -3.726      2.840      7.199
REMARK INTER + INTRA:         -14.997
REMARK INTER:                 -10.412
REMARK INTRA:                  -4.585
REMARK UNBOUND:                -5.281
REMARK SMILES CCCCCCCCCCCCCCCCCCCCCCCCCCCCCO
REMARK SMILES IDX 16 1 15 2 14 3 13 4 12 5 11 6 10 7 9 8 8 9 7 10 6 11 5 12
REMARK SMILES IDX 4 13 3 14 2 15 1 16 17 17 18 18 19 19 20 20 21 21 22 22
REMARK SMILES IDX 23 23 24 24 25 25 26 26 27 27 28 28 29 29 30 30
REMARK H PARENT 30 31
REMARK Flexibility Score: inf
ROOT
ATOM      1  C   UNL     1     186.713 190.722 186.268  1.00  0.00     0.000 C 
ENDROOT
BRANCH   1   2
ATOM      2  C   UNL     1     187.724 189.588 186.490  1.00  0.00     0.000 C 
BRANCH   2   3
ATOM      3  C   UNL     1     188.967 190.097 187.233  1.00  0.00     0.000 C 
BRANCH   3   4
ATOM      4  C   UNL     1     188.610 190.970 188.448  1.00  0.00     0.000 C 
BRANCH   4   5
ATOM      5  C   UNL     1     189.567 192.162 188.621  1.00  0.00     0.000 C 
BRANCH   5   6
ATOM      6  C   UNL     1     189.675 192.620 190.092  1.00  0.00     0.000 C 
BRANCH   6   7
ATOM      7  C   UNL     1     189.074 194.012 190.358  1.00  0.00     0.000 C 
BRANCH   7   8
ATOM      8  C   UNL     1     190.141 195.091 190.602  1.00  0.00    -0.000 C 
BRANCH   8   9
ATOM      9  C   UNL     1     190.061 196.247 189.592  1.00  0.00    -0.000 C 
BRANCH   9  10
ATOM     10  C   UNL     1     188.613 196.636 189.246  1.00  0.00    -0.000 C 
BRANCH  10  11
ATOM     11  C   UNL     1     188.122 197.870 190.027  1.00  0.00    -0.000 C 
BRANCH  11  12
ATOM     12  C   UNL     1     186.770 197.696 190.749  1.00  0.00    -0.000 C 
BRANCH  12  13
ATOM     13  C   UNL     1     186.418 196.248 191.136  1.00  0.00    -0.000 C 
BRANCH  13  14
ATOM     14  C   UNL     1     186.501 195.944 192.644  1.00  0.00    -0.000 C 
BRANCH  14  15
ATOM     15  C   UNL     1     187.685 196.641 193.349  1.00  0.00    -0.003 C 
ATOM     16  C   UNL     1     187.253 197.431 194.584  1.00  0.00     0.004 C 
ENDBRANCH  14  15
ENDBRANCH  13  14
ENDBRANCH  12  13
ENDBRANCH  11  12
ENDBRANCH  10  11
ENDBRANCH   9  10
ENDBRANCH   8   9
ENDBRANCH   7   8
ENDBRANCH   6   7
ENDBRANCH   5   6
ENDBRANCH   4   5
ENDBRANCH   3   4
ENDBRANCH   2   3
ENDBRANCH   1   2
BRANCH   1  17
ATOM     17  C   UNL     1     185.289 190.364 186.736  1.00  0.00     0.000 C 
BRANCH  17  18
ATOM     18  C   UNL     1     184.626 191.394 187.671  1.00  0.00     0.000 C 
BRANCH  18  19
ATOM     19  C   UNL     1     185.486 192.650 187.888  1.00  0.00     0.000 C 
BRANCH  19  20
ATOM     20  C   UNL     1     185.670 192.997 189.376  1.00  0.00     0.000 C 
BRANCH  20  21
ATOM     21  C   UNL     1     185.373 191.847 190.359  1.00  0.00     0.000 C 
BRANCH  21  22
ATOM     22  C   UNL     1     186.391 191.682 191.506  1.00  0.00     0.000 C 
BRANCH  22  23
ATOM     23  C   UNL     1     186.829 190.233 191.790  1.00  0.00     0.000 C 
BRANCH  23  24
ATOM     24  C   UNL     1     185.655 189.318 192.177  1.00  0.00     0.000 C 
BRANCH  24  25
ATOM     25  C   UNL     1     185.632 188.014 191.364  1.00  0.00     0.000 C 
BRANCH  25  26
ATOM     26  C   UNL     1     185.369 188.252 189.869  1.00  0.00     0.000 C 
BRANCH  26  27
ATOM     27  C   UNL     1     184.646 187.050 189.242  1.00  0.00     0.002 C 
BRANCH  27  28
ATOM     28  C   UNL     1     183.127 187.263 189.133  1.00  0.00     0.028 C 
BRANCH  28  29
ATOM     29  C   UNL     1     182.313 186.295 189.999  1.00  0.00     0.156 C 
BRANCH  29  30
ATOM     30  O   UNL     1     181.820 186.955 191.131  1.00  0.00    -0.396 OA
ATOM     31  H   UNL     1     182.416 186.698 191.882  1.00  0.00     0.210 HD
ENDBRANCH  29  30
ENDBRANCH  28  29
ENDBRANCH  27  28
ENDBRANCH  26  27
ENDBRANCH  25  26
ENDBRANCH  24  25
ENDBRANCH  23  24
ENDBRANCH  22  23
ENDBRANCH  21  22
ENDBRANCH  20  21
ENDBRANCH  19  20
ENDBRANCH  18  19
ENDBRANCH  17  18
ENDBRANCH   1  17
TORSDOF 28
ENDMDL
