MODEL 1
REMARK VINA RESULT:    -3.841      0.000      0.000
REMARK INTER + INTRA:          -4.839
REMARK INTER:                  -4.739
REMARK INTRA:                  -0.099
REMARK UNBOUND:                -0.099
REMARK SMILES CCCCCC(=O)[O-]
REMARK SMILES IDX 4 1 5 2 6 3 7 4 8 5 3 6 2 7 1 8
REMARK H PARENT
REMARK Flexibility Score: inf
ROOT
ATOM      1  C   UNL     1      36.760 105.749 260.747  1.00  0.00     0.006 C 
ENDROOT
BRANCH   1   2
ATOM      2  C   UNL     1      36.981 106.645 261.969  1.00  0.00     0.053 C 
BRANCH   2   3
ATOM      3  C   UNL     1      36.118 106.199 263.108  1.00  0.00     0.041 C 
ATOM      4  O   UNL     1      35.545 105.078 263.067  1.00  0.00    -0.550 OA
ATOM      5  O   UNL     1      35.986 106.998 264.236  1.00  0.00    -0.550 OA
ENDBRANCH   2   3
ENDBRANCH   1   2
BRANCH   1   6
ATOM      6  C   UNL     1      37.799 106.045 259.656  1.00  0.00     0.000 C 
BRANCH   6   7
ATOM      7  C   UNL     1      37.186 106.071 258.247  1.00  0.00    -0.003 C 
ATOM      8  C   UNL     1      36.126 107.159 258.082  1.00  0.00     0.004 C 
ENDBRANCH   6   7
ENDBRANCH   1   6
TORSDOF 4
ENDMDL
MODEL 2
REMARK VINA RESULT:    -3.656      0.977      1.747
REMARK INTER + INTRA:          -4.610
REMARK INTER:                  -4.540
REMARK INTRA:                  -0.070
REMARK UNBOUND:                -0.099
REMARK SMILES CCCCCC(=O)[O-]
REMARK SMILES IDX 4 1 5 2 6 3 7 4 8 5 3 6 2 7 1 8
REMARK H PARENT
REMARK Flexibility Score: inf
ROOT
ATOM      1  C   UNL     1      36.706 106.415 261.666  1.00  0.00     0.006 C 
ENDROOT
BRANCH   1   2
ATOM      2  C   UNL     1      36.769 106.499 263.194  1.00  0.00     0.053 C 
BRANCH   2   3
ATOM      3  C   UNL     1      35.638 105.735 263.808  1.00  0.00     0.041 C 
ATOM      4  O   UNL     1      35.145 106.108 264.906  1.00  0.00    -0.550 OA
ATOM      5  O   UNL     1      35.096 104.642 263.146  1.00  0.00    -0.550 OA
ENDBRANCH   2   3
ENDBRANCH   1   2
BRANCH   1   6
ATOM      6  C   UNL     1      38.113 106.484 261.054  1.00  0.00     0.000 C 
BRANCH   6   7
ATOM      7  C   UNL     1      38.233 105.671 259.756  1.00  0.00    -0.003 C 
ATOM      8  C   UNL     1      37.205 106.081 258.703  1.00  0.00     0.004 C 
ENDBRANCH   6   7
ENDBRANCH   1   6
TORSDOF 4
ENDMDL
MODEL 3
REMARK VINA RESULT:    -3.601      2.862      5.102
REMARK INTER + INTRA:          -4.542
REMARK INTER:                  -4.464
REMARK INTRA:                  -0.078
REMARK UNBOUND:                -0.099
REMARK SMILES CCCCCC(=O)[O-]
REMARK SMILES IDX 4 1 5 2 6 3 7 4 8 5 3 6 2 7 1 8
REMARK H PARENT
REMARK Flexibility Score: inf
ROOT
ATOM      1  C   UNL     1      36.392 106.145 263.535  1.00  0.00     0.006 C 
ENDROOT
BRANCH   1   2
ATOM      2  C   UNL     1      36.639 106.576 262.086  1.00  0.00     0.053 C 
BRANCH   2   3
ATOM      3  C   UNL     1      38.104 106.744 261.831  1.00  0.00     0.041 C 
ATOM      4  O   UNL     1      38.836 107.303 262.690  1.00  0.00    -0.550 OA
ATOM      5  O   UNL     1      38.669 106.240 260.667  1.00  0.00    -0.550 OA
ENDBRANCH   2   3
ENDBRANCH   1   2
BRANCH   1   6
ATOM      6  C   UNL     1      35.198 106.898 264.137  1.00  0.00     0.000 C 
BRANCH   6   7
ATOM      7  C   UNL     1      35.177 106.844 265.672  1.00  0.00    -0.003 C 
ATOM      8  C   UNL     1      35.013 105.423 266.212  1.00  0.00     0.004 C 
ENDBRANCH   6   7
ENDBRANCH   1   6
TORSDOF 4
ENDMDL
MODEL 4
REMARK VINA RESULT:    -3.592      1.771      2.553
REMARK INTER + INTRA:          -4.532
REMARK INTER:                  -4.484
REMARK INTRA:                  -0.048
REMARK UNBOUND:                -0.099
REMARK SMILES CCCCCC(=O)[O-]
REMARK SMILES IDX 4 1 5 2 6 3 7 4 8 5 3 6 2 7 1 8
REMARK H PARENT
REMARK Flexibility Score: inf
ROOT
ATOM      1  C   UNL     1      35.996 105.848 263.043  1.00  0.00     0.006 C 
ENDROOT
BRANCH   1   2
ATOM      2  C   UNL     1      35.223 106.871 263.880  1.00  0.00     0.053 C 
BRANCH   2   3
ATOM      3  C   UNL     1      35.230 106.480 265.325  1.00  0.00     0.041 C 
ATOM      4  O   UNL     1      35.244 105.263 265.651  1.00  0.00    -0.550 OA
ATOM      5  O   UNL     1      35.271 107.457 266.310  1.00  0.00    -0.550 OA
ENDBRANCH   2   3
ENDBRANCH   1   2
BRANCH   1   6
ATOM      6  C   UNL     1      36.842 106.545 261.968  1.00  0.00     0.000 C 
BRANCH   6   7
ATOM      7  C   UNL     1      36.837 105.790 260.630  1.00  0.00    -0.003 C 
ATOM      8  C   UNL     1      38.195 105.819 259.929  1.00  0.00     0.004 C 
ENDBRANCH   6   7
ENDBRANCH   1   6
TORSDOF 4
ENDMDL
MODEL 5
REMARK VINA RESULT:    -3.585      2.644      4.761
REMARK INTER + INTRA:          -4.523
REMARK INTER:                  -4.455
REMARK INTRA:                  -0.068
REMARK UNBOUND:                -0.099
REMARK SMILES CCCCCC(=O)[O-]
REMARK SMILES IDX 4 1 5 2 6 3 7 4 8 5 3 6 2 7 1 8
REMARK H PARENT
REMARK Flexibility Score: inf
ROOT
ATOM      1  C   UNL     1      36.787 106.559 262.703  1.00  0.00     0.006 C 
ENDROOT
BRANCH   1   2
ATOM      2  C   UNL     1      36.487 105.814 261.399  1.00  0.00     0.053 C 
BRANCH   2   3
ATOM      3  C   UNL     1      37.280 106.394 260.270  1.00  0.00     0.041 C 
ATOM      4  O   UNL     1      36.733 107.175 259.448  1.00  0.00    -0.550 OA
ATOM      5  O   UNL     1      38.634 106.109 260.154  1.00  0.00    -0.550 OA
ENDBRANCH   2   3
ENDBRANCH   1   2
BRANCH   1   6
ATOM      6  C   UNL     1      35.507 106.764 263.525  1.00  0.00     0.000 C 
BRANCH   6   7
ATOM      7  C   UNL     1      34.999 105.463 264.166  1.00  0.00    -0.003 C 
ATOM      8  C   UNL     1      35.053 105.494 265.693  1.00  0.00     0.004 C 
ENDBRANCH   6   7
ENDBRANCH   1   6
TORSDOF 4
ENDMDL
MODEL 6
REMARK VINA RESULT:    -3.353      3.080      5.906
REMARK INTER + INTRA:          -4.236
REMARK INTER:                  -4.133
REMARK INTRA:                  -0.103
REMARK UNBOUND:                -0.099
REMARK SMILES CCCCCC(=O)[O-]
REMARK SMILES IDX 4 1 5 2 6 3 7 4 8 5 3 6 2 7 1 8
REMARK H PARENT
REMARK Flexibility Score: inf
ROOT
ATOM      1  C   UNL     1      35.027 106.018 265.113  1.00  0.00     0.006 C 
ENDROOT
BRANCH   1   2
ATOM      2  C   UNL     1      35.616 105.212 263.952  1.00  0.00     0.053 C 
BRANCH   2   3
ATOM      3  C   UNL     1      36.434 106.095 263.063  1.00  0.00     0.041 C 
ATOM      4  O   UNL     1      37.137 107.016 263.558  1.00  0.00    -0.550 OA
ATOM      5  O   UNL     1      36.459 105.871 261.693  1.00  0.00    -0.550 OA
ENDBRANCH   2   3
ENDBRANCH   1   2
BRANCH   1   6
ATOM      6  C   UNL     1      35.046 105.202 266.414  1.00  0.00     0.000 C 
BRANCH   6   7
ATOM      7  C   UNL     1      35.020 106.089 267.669  1.00  0.00    -0.003 C 
ATOM      8  C   UNL     1      35.058 107.581 267.340  1.00  0.00     0.004 C 
ENDBRANCH   6   7
ENDBRANCH   1   6
TORSDOF 4
ENDMDL
MODEL 7
REMARK VINA RESULT:    -3.287      3.529      6.277
REMARK INTER + INTRA:          -4.155
REMARK INTER:                  -4.076
REMARK INTRA:                  -0.079
REMARK UNBOUND:                -0.099
REMARK SMILES CCCCCC(=O)[O-]
REMARK SMILES IDX 4 1 5 2 6 3 7 4 8 5 3 6 2 7 1 8
REMARK H PARENT
REMARK Flexibility Score: inf
ROOT
ATOM      1  C   UNL     1      35.190 107.051 265.719  1.00  0.00     0.006 C 
ENDROOT
BRANCH   1   2
ATOM      2  C   UNL     1      35.208 107.177 264.192  1.00  0.00     0.053 C 
BRANCH   2   3
ATOM      3  C   UNL     1      35.917 106.011 263.578  1.00  0.00     0.041 C 
ATOM      4  O   UNL     1      36.052 104.939 264.227  1.00  0.00    -0.550 OA
ATOM      5  O   UNL     1      36.386 106.090 262.274  1.00  0.00    -0.550 OA
ENDBRANCH   2   3
ENDBRANCH   1   2
BRANCH   1   6
ATOM      6  C   UNL     1      34.963 108.418 266.379  1.00  0.00     0.000 C 
BRANCH   6   7
ATOM      7  C   UNL     1      35.233 108.396 267.892  1.00  0.00    -0.003 C 
ATOM      8  C   UNL     1      35.017 107.016 268.512  1.00  0.00     0.004 C 
ENDBRANCH   6   7
ENDBRANCH   1   6
TORSDOF 4
ENDMDL
MODEL 8
REMARK VINA RESULT:    -3.168      3.657      5.104
REMARK INTER + INTRA:          -4.009
REMARK INTER:                  -3.907
REMARK INTRA:                  -0.102
REMARK UNBOUND:                -0.099
REMARK SMILES CCCCCC(=O)[O-]
REMARK SMILES IDX 4 1 5 2 6 3 7 4 8 5 3 6 2 7 1 8
REMARK H PARENT
REMARK Flexibility Score: inf
ROOT
ATOM      1  C   UNL     1      35.753 105.257 265.646  1.00  0.00     0.006 C 
ENDROOT
BRANCH   1   2
ATOM      2  C   UNL     1      34.875 105.224 266.900  1.00  0.00     0.053 C 
BRANCH   2   3
ATOM      3  C   UNL     1      35.069 106.469 267.708  1.00  0.00     0.041 C 
ATOM      4  O   UNL     1      35.200 106.398 268.959  1.00  0.00    -0.550 OA
ATOM      5  O   UNL     1      35.153 107.703 267.076  1.00  0.00    -0.550 OA
ENDBRANCH   2   3
ENDBRANCH   1   2
BRANCH   1   6
ATOM      6  C   UNL     1      34.895 105.377 264.379  1.00  0.00     0.000 C 
BRANCH   6   7
ATOM      7  C   UNL     1      35.741 105.490 263.100  1.00  0.00    -0.003 C 
ATOM      8  C   UNL     1      36.826 106.561 263.202  1.00  0.00     0.004 C 
ENDBRANCH   6   7
ENDBRANCH   1   6
TORSDOF 4
ENDMDL
MODEL 9
REMARK VINA RESULT:    -2.962      3.276      5.656
REMARK INTER + INTRA:          -3.755
REMARK INTER:                  -3.709
REMARK INTRA:                  -0.045
REMARK UNBOUND:                -0.099
REMARK SMILES CCCCCC(=O)[O-]
REMARK SMILES IDX 4 1 5 2 6 3 7 4 8 5 3 6 2 7 1 8
REMARK H PARENT
REMARK Flexibility Score: inf
ROOT
ATOM      1  C   UNL     1      35.824 106.356 264.740  1.00  0.00     0.006 C 
ENDROOT
BRANCH   1   2
ATOM      2  C   UNL     1      34.875 105.466 263.932  1.00  0.00     0.053 C 
BRANCH   2   3
ATOM      3  C   UNL     1      35.525 105.030 262.656  1.00  0.00     0.041 C 
ATOM      4  O   UNL     1      35.237 103.913 262.148  1.00  0.00    -0.550 OA
ATOM      5  O   UNL     1      36.412 105.875 262.003  1.00  0.00    -0.550 OA
ENDBRANCH   2   3
ENDBRANCH   1   2
BRANCH   1   6
ATOM      6  C   UNL     1      35.179 106.783 266.067  1.00  0.00     0.000 C 
BRANCH   6   7
ATOM      7  C   UNL     1      35.181 108.307 266.261  1.00  0.00    -0.003 C 
ATOM      8  C   UNL     1      34.993 108.718 267.721  1.00  0.00     0.004 C 
ENDBRANCH   6   7
ENDBRANCH   1   6
TORSDOF 4
ENDMDL
