MODEL 1
REMARK VINA RESULT:    -1.625      0.000      0.000
REMARK INTER + INTRA:          -2.582
REMARK INTER:                  -2.004
REMARK INTRA:                  -0.578
REMARK UNBOUND:                -0.578
REMARK SMILES C=C(CCC=C(C)C)[C@@H]1CC=C(C)CC1
REMARK SMILES IDX 3 1 2 2 1 3 9 4 13 5 12 6 11 7 14 8 10 9 15 10 4 11 5 12
REMARK SMILES IDX 6 13 7 14 8 15
REMARK H PARENT
REMARK Flexibility Score: inf
ROOT
ATOM      1  C   UNL     1     151.008 137.095 160.309  1.00  0.00     0.035 C 
ENDROOT
BRANCH   1   2
ATOM      2  C   UNL     1     151.882 136.191 161.157  1.00  0.00    -0.074 C 
ATOM      3  C   UNL     1     151.341 135.093 161.715  1.00  0.00     0.008 C 
BRANCH   2   4
ATOM      4  C   UNL     1     153.367 136.530 161.299  1.00  0.00     0.018 C 
ATOM      5  C   UNL     1     153.665 138.875 165.037  1.00  0.00     0.039 C 
ATOM      6  C   UNL     1     153.674 138.100 163.748  1.00  0.00    -0.077 C 
ATOM      7  C   UNL     1     153.948 136.779 163.781  1.00  0.00    -0.027 C 
ATOM      8  C   UNL     1     153.243 138.797 162.475  1.00  0.00     0.031 C 
ATOM      9  C   UNL     1     154.023 135.910 162.550  1.00  0.00     0.035 C 
ATOM     10  C   UNL     1     153.648 138.040 161.207  1.00  0.00     0.013 C 
ENDBRANCH   2   4
ENDBRANCH   1   2
BRANCH   1  11
ATOM     11  C   UNL     1     151.101 136.747 158.816  1.00  0.00     0.032 C 
BRANCH  11  12
ATOM     12  C   UNL     1     152.289 137.398 158.146  1.00  0.00    -0.028 C 
ATOM     13  C   UNL     1     152.390 137.546 156.808  1.00  0.00    -0.080 C 
ATOM     14  C   UNL     1     153.620 138.209 156.244  1.00  0.00     0.039 C 
ATOM     15  C   UNL     1     151.306 137.062 155.875  1.00  0.00     0.039 C 
ENDBRANCH  11  12
ENDBRANCH   1  11
TORSDOF 4
ENDMDL
MODEL 2
REMARK VINA RESULT:    -1.206     21.005     21.988
REMARK INTER + INTRA:          -2.066
REMARK INTER:                  -1.422
REMARK INTRA:                  -0.644
REMARK UNBOUND:                -0.578
REMARK SMILES C=C(CCC=C(C)C)[C@@H]1CC=C(C)CC1
REMARK SMILES IDX 3 1 2 2 1 3 9 4 13 5 12 6 11 7 14 8 10 9 15 10 4 11 5 12
REMARK SMILES IDX 6 13 7 14 8 15
REMARK H PARENT
REMARK Flexibility Score: inf
ROOT
ATOM      1  C   UNL     1     139.717 153.466 160.233  1.00  0.00     0.035 C 
ENDROOT
BRANCH   1   2
ATOM      2  C   UNL     1     138.844 154.161 161.260  1.00  0.00    -0.074 C 
ATOM      3  C   UNL     1     139.380 155.125 162.030  1.00  0.00     0.008 C 
BRANCH   2   4
ATOM      4  C   UNL     1     137.365 153.782 161.341  1.00  0.00     0.018 C 
ATOM      5  C   UNL     1     136.902 151.767 165.251  1.00  0.00     0.039 C 
ATOM      6  C   UNL     1     136.951 152.424 163.898  1.00  0.00    -0.077 C 
ATOM      7  C   UNL     1     136.634 153.732 163.796  1.00  0.00    -0.027 C 
ATOM      8  C   UNL     1     137.484 151.633 162.722  1.00  0.00     0.031 C 
ATOM      9  C   UNL     1     136.611 154.486 162.489  1.00  0.00     0.035 C 
ATOM     10  C   UNL     1     137.137 152.261 161.369  1.00  0.00     0.013 C 
ENDBRANCH   2   4
ENDBRANCH   1   2
BRANCH   1  11
ATOM     11  C   UNL     1     139.469 154.000 158.814  1.00  0.00     0.032 C 
BRANCH  11  12
ATOM     12  C   UNL     1     138.337 153.280 158.118  1.00  0.00    -0.028 C 
ATOM     13  C   UNL     1     138.289 153.100 156.781  1.00  0.00    -0.080 C 
ATOM     14  C   UNL     1     137.112 152.369 156.191  1.00  0.00     0.039 C 
ATOM     15  C   UNL     1     139.383 153.614 155.875  1.00  0.00     0.039 C 
ENDBRANCH  11  12
ENDBRANCH   1  11
TORSDOF 4
ENDMDL
MODEL 3
REMARK VINA RESULT:    -0.783      1.204      2.171
REMARK INTER + INTRA:          -1.544
REMARK INTER:                  -0.596
REMARK INTRA:                  -0.948
REMARK UNBOUND:                -0.578
REMARK SMILES C=C(CCC=C(C)C)[C@@H]1CC=C(C)CC1
REMARK SMILES IDX 3 1 2 2 1 3 9 4 13 5 12 6 11 7 14 8 10 9 15 10 4 11 5 12
REMARK SMILES IDX 6 13 7 14 8 15
REMARK H PARENT
REMARK Flexibility Score: inf
ROOT
ATOM      1  C   UNL     1     151.176 136.258 161.420  1.00  0.00     0.035 C 
ENDROOT
BRANCH   1   2
ATOM      2  C   UNL     1     152.513 135.658 161.808  1.00  0.00    -0.074 C 
ATOM      3  C   UNL     1     153.178 134.905 160.913  1.00  0.00     0.008 C 
BRANCH   2   4
ATOM      4  C   UNL     1     153.089 135.981 163.188  1.00  0.00     0.018 C 
ATOM      5  C   UNL     1     154.940 139.975 162.761  1.00  0.00     0.039 C 
ATOM      6  C   UNL     1     154.355 138.612 163.011  1.00  0.00    -0.077 C 
ATOM      7  C   UNL     1     153.111 138.520 163.527  1.00  0.00    -0.027 C 
ATOM      8  C   UNL     1     155.125 137.392 162.552  1.00  0.00     0.031 C 
ATOM      9  C   UNL     1     152.438 137.210 163.855  1.00  0.00     0.035 C 
ATOM     10  C   UNL     1     154.624 136.091 163.186  1.00  0.00     0.013 C 
ENDBRANCH   2   4
ENDBRANCH   1   2
BRANCH   1  11
ATOM     11  C   UNL     1     151.309 137.253 160.258  1.00  0.00     0.032 C 
BRANCH  11  12
ATOM     12  C   UNL     1     150.714 136.720 158.974  1.00  0.00    -0.028 C 
ATOM     13  C   UNL     1     151.329 136.829 157.777  1.00  0.00    -0.080 C 
ATOM     14  C   UNL     1     150.646 136.264 156.559  1.00  0.00     0.039 C 
ATOM     15  C   UNL     1     152.675 137.500 157.637  1.00  0.00     0.039 C 
ENDBRANCH  11  12
ENDBRANCH   1  11
TORSDOF 4
ENDMDL
MODEL 4
REMARK VINA RESULT:    -0.616      1.327      5.401
REMARK INTER + INTRA:          -1.338
REMARK INTER:                  -0.391
REMARK INTRA:                  -0.947
REMARK UNBOUND:                -0.578
REMARK SMILES C=C(CCC=C(C)C)[C@@H]1CC=C(C)CC1
REMARK SMILES IDX 3 1 2 2 1 3 9 4 13 5 12 6 11 7 14 8 10 9 15 10 4 11 5 12
REMARK SMILES IDX 6 13 7 14 8 15
REMARK H PARENT
REMARK Flexibility Score: inf
ROOT
ATOM      1  C   UNL     1     153.716 135.197 161.836  1.00  0.00     0.035 C 
ENDROOT
BRANCH   1   2
ATOM      2  C   UNL     1     152.296 135.692 161.637  1.00  0.00    -0.074 C 
ATOM      3  C   UNL     1     151.270 134.886 161.964  1.00  0.00     0.008 C 
BRANCH   2   4
ATOM      4  C   UNL     1     152.082 137.117 161.128  1.00  0.00     0.018 C 
ATOM      5  C   UNL     1     150.718 136.656 156.945  1.00  0.00     0.039 C 
ATOM      6  C   UNL     1     151.186 136.926 158.349  1.00  0.00    -0.077 C 
ATOM      7  C   UNL     1     150.266 137.109 159.320  1.00  0.00    -0.027 C 
ATOM      8  C   UNL     1     152.667 136.848 158.653  1.00  0.00     0.031 C 
ATOM      9  C   UNL     1     150.617 137.424 160.754  1.00  0.00     0.035 C 
ATOM     10  C   UNL     1     153.043 137.497 159.988  1.00  0.00     0.013 C 
ENDBRANCH   2   4
ENDBRANCH   1   2
BRANCH   1  11
ATOM     11  C   UNL     1     154.354 135.779 163.105  1.00  0.00     0.032 C 
BRANCH  11  12
ATOM     12  C   UNL     1     154.958 137.145 162.871  1.00  0.00    -0.028 C 
ATOM     13  C   UNL     1     154.444 138.277 163.396  1.00  0.00    -0.080 C 
ATOM     14  C   UNL     1     155.125 139.588 163.098  1.00  0.00     0.039 C 
ATOM     15  C   UNL     1     153.210 138.255 164.268  1.00  0.00     0.039 C 
ENDBRANCH  11  12
ENDBRANCH   1  11
TORSDOF 4
ENDMDL
MODEL 5
REMARK VINA RESULT:     0.487     13.785     16.167
REMARK INTER + INTRA:           0.023
REMARK INTER:                   0.104
REMARK INTRA:                  -0.081
REMARK UNBOUND:                -0.578
REMARK SMILES C=C(CCC=C(C)C)[C@@H]1CC=C(C)CC1
REMARK SMILES IDX 3 1 2 2 1 3 9 4 13 5 12 6 11 7 14 8 10 9 15 10 4 11 5 12
REMARK SMILES IDX 6 13 7 14 8 15
REMARK H PARENT
REMARK Flexibility Score: inf
ROOT
ATOM      1  C   UNL     1     139.017 137.176 162.721  1.00  0.00     0.035 C 
ENDROOT
BRANCH   1   2
ATOM      2  C   UNL     1     138.383 135.895 162.212  1.00  0.00    -0.074 C 
ATOM      3  C   UNL     1     139.161 134.970 161.620  1.00  0.00     0.008 C 
BRANCH   2   4
ATOM      4  C   UNL     1     136.888 135.674 162.445  1.00  0.00     0.018 C 
ATOM      5  C   UNL     1     134.875 137.805 159.134  1.00  0.00     0.039 C 
ATOM      6  C   UNL     1     135.456 137.062 160.305  1.00  0.00    -0.077 C 
ATOM      7  C   UNL     1     135.660 135.731 160.198  1.00  0.00    -0.027 C 
ATOM      8  C   UNL     1     135.919 137.848 161.513  1.00  0.00     0.031 C 
ATOM      9  C   UNL     1     136.200 134.876 161.318  1.00  0.00     0.035 C 
ATOM     10  C   UNL     1     136.131 136.977 162.754  1.00  0.00     0.013 C 
ENDBRANCH   2   4
ENDBRANCH   1   2
BRANCH   1  11
ATOM     11  C   UNL     1     138.585 137.496 164.160  1.00  0.00     0.032 C 
BRANCH  11  12
ATOM     12  C   UNL     1     139.029 136.437 165.143  1.00  0.00    -0.028 C 
ATOM     13  C   UNL     1     140.098 136.586 165.954  1.00  0.00    -0.080 C 
ATOM     14  C   UNL     1     140.454 135.467 166.897  1.00  0.00     0.039 C 
ATOM     15  C   UNL     1     140.937 137.843 165.933  1.00  0.00     0.039 C 
ENDBRANCH  11  12
ENDBRANCH   1  11
TORSDOF 4
ENDMDL
MODEL 6
REMARK VINA RESULT:     0.629      1.620      3.112
REMARK INTER + INTRA:           0.199
REMARK INTER:                   0.569
REMARK INTRA:                  -0.370
REMARK UNBOUND:                -0.578
REMARK SMILES C=C(CCC=C(C)C)[C@@H]1CC=C(C)CC1
REMARK SMILES IDX 3 1 2 2 1 3 9 4 13 5 12 6 11 7 14 8 10 9 15 10 4 11 5 12
REMARK SMILES IDX 6 13 7 14 8 15
REMARK H PARENT
REMARK Flexibility Score: inf
ROOT
ATOM      1  C   UNL     1     153.240 134.877 162.273  1.00  0.00     0.035 C 
ENDROOT
BRANCH   1   2
ATOM      2  C   UNL     1     153.905 136.071 162.930  1.00  0.00    -0.074 C 
ATOM      3  C   UNL     1     154.996 135.876 163.692  1.00  0.00     0.008 C 
BRANCH   2   4
ATOM      4  C   UNL     1     153.344 137.467 162.653  1.00  0.00     0.018 C 
ATOM      5  C   UNL     1     154.591 139.922 166.114  1.00  0.00     0.039 C 
ATOM      6  C   UNL     1     154.106 139.176 164.901  1.00  0.00    -0.077 C 
ATOM      7  C   UNL     1     154.840 139.221 163.770  1.00  0.00    -0.027 C 
ATOM      8  C   UNL     1     152.883 138.292 165.029  1.00  0.00     0.031 C 
ATOM      9  C   UNL     1     154.434 138.546 162.483  1.00  0.00     0.035 C 
ATOM     10  C   UNL     1     152.281 137.900 163.677  1.00  0.00     0.013 C 
ENDBRANCH   2   4
ENDBRANCH   1   2
BRANCH   1  11
ATOM     11  C   UNL     1     151.798 135.187 161.846  1.00  0.00     0.032 C 
BRANCH  11  12
ATOM     12  C   UNL     1     151.660 135.332 160.347  1.00  0.00    -0.028 C 
ATOM     13  C   UNL     1     151.178 136.446 159.756  1.00  0.00    -0.080 C 
ATOM     14  C   UNL     1     151.081 136.484 158.253  1.00  0.00     0.039 C 
ATOM     15  C   UNL     1     150.737 137.643 160.566  1.00  0.00     0.039 C 
ENDBRANCH  11  12
ENDBRANCH   1  11
TORSDOF 4
ENDMDL
