MODEL 1
REMARK VINA RESULT:    -2.992      0.000      0.000
REMARK INTER + INTRA:          -2.943
REMARK INTER:                  -3.692
REMARK INTRA:                   0.749
REMARK UNBOUND:                 0.749
REMARK SMILES CC1=CC=CC(C)(C)CC1=O
REMARK SMILES IDX 1 1 2 2 3 3 10 4 11 5 9 6 4 8 5 9 6 10 7 11 8 12
REMARK H PARENT
REMARK Flexibility Score: 80.00
ROOT
ATOM      1  C   UNL     1     -14.900  32.539  19.839  1.00  0.00     0.048 C 
ATOM      2  C   UNL     1     -14.672  31.269  19.053  1.00  0.00    -0.008 C 
ATOM      3  C   UNL     1     -13.575  30.538  19.352  1.00  0.00     0.007 C 
ENDROOT
BRANCH   2   4
ATOM      4  C   UNL     1     -15.713  30.888  18.066  1.00  0.00     0.159 C 
ATOM      5  O   UNL     1     -16.814  31.503  18.075  1.00  0.00    -0.295 OA
BRANCH   4   6
ATOM      6  C   UNL     1     -15.525  29.813  17.040  1.00  0.00     0.091 CG0
ATOM      7  G   UNL     1     -15.237  28.426  17.657  1.00  0.00     0.000 G0
ENDBRANCH   4   6
ENDBRANCH   2   4
BRANCH   3   8
ATOM      8  C   UNL     1     -13.105  29.253  18.782  1.00  0.00    -0.003 C 
ATOM      9  C   UNL     1     -13.788  28.342  18.077  1.00  0.00    -0.020 C 
BRANCH   9  10
ATOM     10  C   UNL     1     -15.238  28.429  17.664  1.00  0.00    -0.010 CG0
ATOM     11  C   UNL     1     -16.152  28.112  18.870  1.00  0.00     0.016 C 
ATOM     12  C   UNL     1     -15.498  27.361  16.576  1.00  0.00     0.016 C 
ATOM     13  G   UNL     1     -15.522  29.819  17.050  1.00  0.00     0.000 G0
ENDBRANCH   9  10
ENDBRANCH   3   8
TORSDOF 0
ENDMDL
MODEL 2
REMARK VINA RESULT:    -2.964      2.271      2.790
REMARK INTER + INTRA:          -2.908
REMARK INTER:                  -3.650
REMARK INTRA:                   0.742
REMARK UNBOUND:                 0.749
REMARK SMILES CC1=CC=CC(C)(C)CC1=O
REMARK SMILES IDX 1 1 2 2 3 3 10 4 11 5 9 6 4 8 5 9 6 10 7 11 8 12
REMARK H PARENT
REMARK Flexibility Score: 80.00
ROOT
ATOM      1  C   UNL     1     -12.875  30.174  18.631  1.00  0.00     0.048 C 
ATOM      2  C   UNL     1     -13.585  28.845  18.518  1.00  0.00    -0.008 C 
ATOM      3  C   UNL     1     -13.904  28.207  19.667  1.00  0.00     0.007 C 
ENDROOT
BRANCH   2   4
ATOM      4  C   UNL     1     -13.944  28.383  17.154  1.00  0.00     0.159 C 
ATOM      5  O   UNL     1     -13.845  29.193  16.192  1.00  0.00    -0.295 OA
BRANCH   4   6
ATOM      6  C   UNL     1     -14.409  26.993  16.848  1.00  0.00     0.091 CG0
ATOM      7  G   UNL     1     -15.706  26.606  17.593  1.00  0.00     0.000 G0
ENDBRANCH   4   6
ENDBRANCH   2   4
BRANCH   3   8
ATOM      8  C   UNL     1     -14.615  26.924  19.875  1.00  0.00    -0.003 C 
ATOM      9  C   UNL     1     -15.387  26.238  19.023  1.00  0.00    -0.020 C 
BRANCH   9  10
ATOM     10  C   UNL     1     -15.702  26.615  17.595  1.00  0.00    -0.010 CG0
ATOM     11  C   UNL     1     -16.771  27.731  17.566  1.00  0.00     0.016 C 
ATOM     12  C   UNL     1     -16.290  25.373  16.884  1.00  0.00     0.016 C 
ATOM     13  G   UNL     1     -14.401  27.016  16.863  1.00  0.00     0.000 G0
ENDBRANCH   9  10
ENDBRANCH   3   8
TORSDOF 0
ENDMDL
MODEL 3
REMARK VINA RESULT:    -2.946      2.016      2.825
REMARK INTER + INTRA:          -2.886
REMARK INTER:                  -3.640
REMARK INTRA:                   0.754
REMARK UNBOUND:                 0.749
REMARK SMILES CC1=CC=CC(C)(C)CC1=O
REMARK SMILES IDX 1 1 2 2 3 3 10 4 11 5 9 6 4 8 5 9 6 10 7 11 8 12
REMARK H PARENT
REMARK Flexibility Score: 80.00
ROOT
ATOM      1  C   UNL     1     -13.007  29.946  18.795  1.00  0.00     0.048 C 
ATOM      2  C   UNL     1     -14.029  28.940  18.319  1.00  0.00    -0.008 C 
ATOM      3  C   UNL     1     -13.720  28.203  17.229  1.00  0.00     0.007 C 
ENDROOT
BRANCH   2   4
ATOM      4  C   UNL     1     -15.261  28.790  19.133  1.00  0.00     0.159 C 
ATOM      5  O   UNL     1     -15.314  29.346  20.265  1.00  0.00    -0.295 OA
BRANCH   4   6
ATOM      6  C   UNL     1     -16.463  28.020  18.680  1.00  0.00     0.091 CG0
ATOM      7  G   UNL     1     -16.160  26.533  18.392  1.00  0.00     0.000 G0
ENDBRANCH   4   6
ENDBRANCH   2   4
BRANCH   3   8
ATOM      8  C   UNL     1     -14.495  27.136  16.553  1.00  0.00    -0.003 C 
ATOM      9  C   UNL     1     -15.518  26.410  17.020  1.00  0.00    -0.020 C 
BRANCH   9  10
ATOM     10  C   UNL     1     -16.159  26.534  18.382  1.00  0.00    -0.010 CG0
ATOM     11  C   UNL     1     -15.259  25.874  19.451  1.00  0.00     0.016 C 
ATOM     12  C   UNL     1     -17.505  25.773  18.357  1.00  0.00     0.016 C 
ATOM     13  G   UNL     1     -16.453  28.020  18.686  1.00  0.00     0.000 G0
ENDBRANCH   9  10
ENDBRANCH   3   8
TORSDOF 0
ENDMDL
MODEL 4
REMARK VINA RESULT:    -2.904      1.769      3.631
REMARK INTER + INTRA:          -2.833
REMARK INTER:                  -3.587
REMARK INTRA:                   0.753
REMARK UNBOUND:                 0.749
REMARK SMILES CC1=CC=CC(C)(C)CC1=O
REMARK SMILES IDX 1 1 2 2 3 3 10 4 11 5 9 6 4 8 5 9 6 10 7 11 8 12
REMARK H PARENT
REMARK Flexibility Score: 80.00
ROOT
ATOM      1  C   UNL     1     -13.579  26.716  15.741  1.00  0.00     0.048 C 
ATOM      2  C   UNL     1     -14.257  27.560  16.795  1.00  0.00    -0.008 C 
ATOM      3  C   UNL     1     -14.622  26.949  17.944  1.00  0.00     0.007 C 
ENDROOT
BRANCH   2   4
ATOM      4  C   UNL     1     -14.397  29.010  16.513  1.00  0.00     0.159 C 
ATOM      5  O   UNL     1     -13.800  29.497  15.514  1.00  0.00    -0.295 OA
BRANCH   4   6
ATOM      6  C   UNL     1     -15.227  29.937  17.347  1.00  0.00     0.091 CG0
ATOM      7  G   UNL     1     -14.791  29.977  18.830  1.00  0.00     0.000 G0
ENDBRANCH   4   6
ENDBRANCH   2   4
BRANCH   3   8
ATOM      8  C   UNL     1     -15.271  27.510  19.153  1.00  0.00    -0.003 C 
ATOM      9  C   UNL     1     -15.351  28.784  19.554  1.00  0.00    -0.020 C 
BRANCH   9  10
ATOM     10  C   UNL     1     -14.803  29.990  18.828  1.00  0.00    -0.010 CG0
ATOM     11  C   UNL     1     -13.272  30.073  19.023  1.00  0.00     0.016 C 
ATOM     12  C   UNL     1     -15.432  31.258  19.451  1.00  0.00     0.016 C 
ATOM     13  G   UNL     1     -15.213  29.932  17.340  1.00  0.00     0.000 G0
ENDBRANCH   9  10
ENDBRANCH   3   8
TORSDOF 0
ENDMDL
MODEL 5
REMARK VINA RESULT:    -2.897      1.638      2.541
REMARK INTER + INTRA:          -2.824
REMARK INTER:                  -3.566
REMARK INTRA:                   0.741
REMARK UNBOUND:                 0.749
REMARK SMILES CC1=CC=CC(C)(C)CC1=O
REMARK SMILES IDX 1 1 2 2 3 3 10 4 11 5 9 6 4 8 5 9 6 10 7 11 8 12
REMARK H PARENT
REMARK Flexibility Score: 80.00
ROOT
ATOM      1  C   UNL     1     -14.903  32.416  19.560  1.00  0.00     0.048 C 
ATOM      2  C   UNL     1     -15.229  30.947  19.432  1.00  0.00    -0.008 C 
ATOM      3  C   UNL     1     -16.534  30.594  19.429  1.00  0.00     0.007 C 
ENDROOT
BRANCH   2   4
ATOM      4  C   UNL     1     -14.090  30.015  19.243  1.00  0.00     0.159 C 
ATOM      5  O   UNL     1     -12.945  30.492  19.014  1.00  0.00    -0.295 OA
BRANCH   4   6
ATOM      6  C   UNL     1     -14.219  28.525  19.324  1.00  0.00     0.091 CG0
ATOM      7  G   UNL     1     -15.229  27.945  18.307  1.00  0.00     0.000 G0
ENDBRANCH   4   6
ENDBRANCH   2   4
BRANCH   3   8
ATOM      8  C   UNL     1     -17.157  29.256  19.293  1.00  0.00    -0.003 C 
ATOM      9  C   UNL     1     -16.627  28.123  18.816  1.00  0.00    -0.020 C 
BRANCH   9  10
ATOM     10  C   UNL     1     -15.216  27.934  18.314  1.00  0.00    -0.010 CG0
ATOM     11  C   UNL     1     -15.075  28.532  16.895  1.00  0.00     0.016 C 
ATOM     12  C   UNL     1     -14.933  26.416  18.220  1.00  0.00     0.016 C 
ATOM     13  G   UNL     1     -14.218  28.547  19.321  1.00  0.00     0.000 G0
ENDBRANCH   9  10
ENDBRANCH   3   8
TORSDOF 0
ENDMDL
MODEL 6
REMARK VINA RESULT:    -2.871      1.752      3.540
REMARK INTER + INTRA:          -2.793
REMARK INTER:                  -3.539
REMARK INTRA:                   0.746
REMARK UNBOUND:                 0.749
REMARK SMILES CC1=CC=CC(C)(C)CC1=O
REMARK SMILES IDX 1 1 2 2 3 3 10 4 11 5 9 6 4 8 5 9 6 10 7 11 8 12
REMARK H PARENT
REMARK Flexibility Score: 80.00
ROOT
ATOM      1  C   UNL     1     -15.224  26.104  18.652  1.00  0.00     0.048 C 
ATOM      2  C   UNL     1     -14.981  27.561  18.972  1.00  0.00    -0.008 C 
ATOM      3  C   UNL     1     -13.716  28.023  18.858  1.00  0.00     0.007 C 
ENDROOT
BRANCH   2   4
ATOM      4  C   UNL     1     -16.167  28.385  19.313  1.00  0.00     0.159 C 
ATOM      5  O   UNL     1     -17.317  27.906  19.121  1.00  0.00    -0.295 OA
BRANCH   4   6
ATOM      6  C   UNL     1     -16.076  29.764  19.890  1.00  0.00     0.091 CG0
ATOM      7  G   UNL     1     -15.323  30.759  18.977  1.00  0.00     0.000 G0
ENDBRANCH   4   6
ENDBRANCH   2   4
BRANCH   3   8
ATOM      8  C   UNL     1     -13.179  29.387  19.074  1.00  0.00    -0.003 C 
ATOM      9  C   UNL     1     -13.834  30.554  19.117  1.00  0.00    -0.020 C 
BRANCH   9  10
ATOM     10  C   UNL     1     -15.324  30.754  18.976  1.00  0.00    -0.010 CG0
ATOM     11  C   UNL     1     -15.735  30.637  17.491  1.00  0.00     0.016 C 
ATOM     12  C   UNL     1     -15.670  32.184  19.455  1.00  0.00     0.016 C 
ATOM     13  G   UNL     1     -16.072  29.750  19.883  1.00  0.00     0.000 G0
ENDBRANCH   9  10
ENDBRANCH   3   8
TORSDOF 0
ENDMDL
MODEL 7
REMARK VINA RESULT:    -2.772      1.885      3.490
REMARK INTER + INTRA:          -2.671
REMARK INTER:                  -3.418
REMARK INTRA:                   0.747
REMARK UNBOUND:                 0.749
REMARK SMILES CC1=CC=CC(C)(C)CC1=O
REMARK SMILES IDX 1 1 2 2 3 3 10 4 11 5 9 6 4 8 5 9 6 10 7 11 8 12
REMARK H PARENT
REMARK Flexibility Score: 80.00
ROOT
ATOM      1  C   UNL     1     -13.374  28.284  18.682  1.00  0.00     0.048 C 
ATOM      2  C   UNL     1     -14.340  29.416  18.946  1.00  0.00    -0.008 C 
ATOM      3  C   UNL     1     -13.817  30.629  19.230  1.00  0.00     0.007 C 
ENDROOT
BRANCH   2   4
ATOM      4  C   UNL     1     -15.786  29.120  18.796  1.00  0.00     0.159 C 
ATOM      5  O   UNL     1     -16.133  28.016  18.292  1.00  0.00    -0.295 OA
BRANCH   4   6
ATOM      6  C   UNL     1     -16.871  30.059  19.225  1.00  0.00     0.091 CG0
ATOM      7  G   UNL     1     -16.789  31.439  18.535  1.00  0.00     0.000 G0
ENDBRANCH   4   6
ENDBRANCH   2   4
BRANCH   3   8
ATOM      8  C   UNL     1     -14.498  31.917  19.504  1.00  0.00    -0.003 C 
ATOM      9  C   UNL     1     -15.751  32.288  19.212  1.00  0.00    -0.020 C 
BRANCH   9  10
ATOM     10  C   UNL     1     -16.804  31.441  18.539  1.00  0.00    -0.010 CG0
ATOM     11  C   UNL     1     -16.525  31.359  17.020  1.00  0.00     0.016 C 
ATOM     12  C   UNL     1     -18.177  32.126  18.734  1.00  0.00     0.016 C 
ATOM     13  G   UNL     1     -16.862  30.050  19.210  1.00  0.00     0.000 G0
ENDBRANCH   9  10
ENDBRANCH   3   8
TORSDOF 0
ENDMDL
MODEL 8
REMARK VINA RESULT:    -2.717      1.695      2.542
REMARK INTER + INTRA:          -2.603
REMARK INTER:                  -3.362
REMARK INTRA:                   0.759
REMARK UNBOUND:                 0.749
REMARK SMILES CC1=CC=CC(C)(C)CC1=O
REMARK SMILES IDX 1 1 2 2 3 3 10 4 11 5 9 6 4 8 5 9 6 10 7 11 8 12
REMARK H PARENT
REMARK Flexibility Score: 80.00
ROOT
ATOM      1  C   UNL     1     -14.105  28.381  20.626  1.00  0.00     0.048 C 
ATOM      2  C   UNL     1     -14.420  29.030  19.299  1.00  0.00    -0.008 C 
ATOM      3  C   UNL     1     -13.714  28.622  18.221  1.00  0.00     0.007 C 
ENDROOT
BRANCH   2   4
ATOM      4  C   UNL     1     -15.534  30.010  19.272  1.00  0.00     0.159 C 
ATOM      5  O   UNL     1     -16.287  30.102  20.280  1.00  0.00    -0.295 OA
BRANCH   4   6
ATOM      6  C   UNL     1     -15.811  30.915  18.111  1.00  0.00     0.091 CG0
ATOM      7  G   UNL     1     -16.096  30.151  16.798  1.00  0.00     0.000 G0
ENDBRANCH   4   6
ENDBRANCH   2   4
BRANCH   3   8
ATOM      8  C   UNL     1     -13.813  29.046  16.804  1.00  0.00    -0.003 C 
ATOM      9  C   UNL     1     -14.814  29.678  16.180  1.00  0.00    -0.020 C 
BRANCH   9  10
ATOM     10  C   UNL     1     -16.108  30.145  16.803  1.00  0.00    -0.010 CG0
ATOM     11  C   UNL     1     -17.056  28.943  17.018  1.00  0.00     0.016 C 
ATOM     12  C   UNL     1     -16.795  31.123  15.822  1.00  0.00     0.016 C 
ATOM     13  G   UNL     1     -15.809  30.910  18.113  1.00  0.00     0.000 G0
ENDBRANCH   9  10
ENDBRANCH   3   8
TORSDOF 0
ENDMDL
MODEL 9
REMARK VINA RESULT:    -2.676      2.776      3.664
REMARK INTER + INTRA:          -2.552
REMARK INTER:                  -3.324
REMARK INTRA:                   0.772
REMARK UNBOUND:                 0.749
REMARK SMILES CC1=CC=CC(C)(C)CC1=O
REMARK SMILES IDX 1 1 2 2 3 3 10 4 11 5 9 6 4 8 5 9 6 10 7 11 8 12
REMARK H PARENT
REMARK Flexibility Score: 80.00
ROOT
ATOM      1  C   UNL     1     -13.749  29.125  14.660  1.00  0.00     0.048 C 
ATOM      2  C   UNL     1     -13.999  28.423  15.974  1.00  0.00    -0.008 C 
ATOM      3  C   UNL     1     -13.761  29.117  17.109  1.00  0.00     0.007 C 
ENDROOT
BRANCH   2   4
ATOM      4  C   UNL     1     -14.560  27.050  15.912  1.00  0.00     0.159 C 
ATOM      5  O   UNL     1     -14.976  26.613  14.804  1.00  0.00    -0.295 OA
BRANCH   4   6
ATOM      6  C   UNL     1     -14.649  26.139  17.097  1.00  0.00     0.091 CG0
ATOM      7  G   UNL     1     -15.505  26.717  18.247  1.00  0.00     0.000 G0
ENDBRANCH   4   6
ENDBRANCH   2   4
BRANCH   3   8
ATOM      8  C   UNL     1     -13.934  28.713  18.524  1.00  0.00    -0.003 C 
ATOM      9  C   UNL     1     -14.667  27.715  19.034  1.00  0.00    -0.020 C 
BRANCH   9  10
ATOM     10  C   UNL     1     -15.493  26.719  18.254  1.00  0.00    -0.010 CG0
ATOM     11  C   UNL     1     -16.796  27.386  17.758  1.00  0.00     0.016 C 
ATOM     12  C   UNL     1     -15.882  25.562  19.204  1.00  0.00     0.016 C 
ATOM     13  G   UNL     1     -14.648  26.130  17.102  1.00  0.00     0.000 G0
ENDBRANCH   9  10
ENDBRANCH   3   8
TORSDOF 0
ENDMDL
