MODEL 1
REMARK VINA RESULT:    -3.814      0.000      0.000
REMARK INTER + INTRA:          -4.967
REMARK INTER:                  -4.706
REMARK INTRA:                  -0.261
REMARK UNBOUND:                -0.261
REMARK SMILES CCCCCC(=O)[O-]
REMARK SMILES IDX 4 1 5 2 6 3 7 4 8 5 3 6 2 7 1 8
REMARK H PARENT
REMARK Flexibility Score: inf
ROOT
ATOM      1  C   UNL     1       8.039   6.141  12.433  1.00  0.00     0.006 C 
ENDROOT
BRANCH   1   2
ATOM      2  C   UNL     1       6.724   5.357  12.431  1.00  0.00     0.053 C 
BRANCH   2   3
ATOM      3  C   UNL     1       5.572   6.266  12.140  1.00  0.00     0.041 C 
ATOM      4  O   UNL     1       5.443   6.782  10.998  1.00  0.00    -0.550 OA
ATOM      5  O   UNL     1       4.665   6.583  13.144  1.00  0.00    -0.550 OA
ENDBRANCH   2   3
ENDBRANCH   1   2
BRANCH   1   6
ATOM      6  C   UNL     1       8.221   6.904  13.753  1.00  0.00     0.000 C 
BRANCH   6   7
ATOM      7  C   UNL     1       8.243   8.428  13.556  1.00  0.00    -0.003 C 
ATOM      8  C   UNL     1       8.260   8.834  12.083  1.00  0.00     0.004 C 
ENDBRANCH   6   7
ENDBRANCH   1   6
TORSDOF 4
ENDMDL
MODEL 2
REMARK VINA RESULT:    -3.655     16.187     17.174
REMARK INTER + INTRA:          -4.772
REMARK INTER:                  -4.537
REMARK INTRA:                  -0.235
REMARK UNBOUND:                -0.261
REMARK SMILES CCCCCC(=O)[O-]
REMARK SMILES IDX 4 1 5 2 6 3 7 4 8 5 3 6 2 7 1 8
REMARK H PARENT
REMARK Flexibility Score: inf
ROOT
ATOM      1  C   UNL     1       9.771   5.436  27.586  1.00  0.00     0.006 C 
ENDROOT
BRANCH   1   2
ATOM      2  C   UNL     1       9.723   4.122  28.371  1.00  0.00     0.053 C 
BRANCH   2   3
ATOM      3  C   UNL     1      10.602   4.201  29.578  1.00  0.00     0.041 C 
ATOM      4  O   UNL     1      10.207   3.743  30.683  1.00  0.00    -0.550 OA
ATOM      5  O   UNL     1      11.842   4.824  29.496  1.00  0.00    -0.550 OA
ENDBRANCH   2   3
ENDBRANCH   1   2
BRANCH   1   6
ATOM      6  C   UNL     1       8.713   6.422  28.101  1.00  0.00     0.000 C 
BRANCH   6   7
ATOM      7  C   UNL     1       9.313   7.515  29.000  1.00  0.00    -0.003 C 
ATOM      8  C   UNL     1       8.858   7.399  30.454  1.00  0.00     0.004 C 
ENDBRANCH   6   7
ENDBRANCH   1   6
TORSDOF 4
ENDMDL
MODEL 3
REMARK VINA RESULT:    -3.551     15.913     16.950
REMARK INTER + INTRA:          -4.643
REMARK INTER:                  -4.466
REMARK INTRA:                  -0.177
REMARK UNBOUND:                -0.261
REMARK SMILES CCCCCC(=O)[O-]
REMARK SMILES IDX 4 1 5 2 6 3 7 4 8 5 3 6 2 7 1 8
REMARK H PARENT
REMARK Flexibility Score: inf
ROOT
ATOM      1  C   UNL     1       9.347   4.852  30.038  1.00  0.00     0.006 C 
ENDROOT
BRANCH   1   2
ATOM      2  C   UNL     1      10.481   4.183  29.256  1.00  0.00     0.053 C 
BRANCH   2   3
ATOM      3  C   UNL     1      10.172   4.171  27.792  1.00  0.00     0.041 C 
ATOM      4  O   UNL     1       9.787   3.109  27.234  1.00  0.00    -0.550 OA
ATOM      5  O   UNL     1      10.357   5.320  27.032  1.00  0.00    -0.550 OA
ENDBRANCH   2   3
ENDBRANCH   1   2
BRANCH   1   6
ATOM      6  C   UNL     1       9.887   5.976  30.934  1.00  0.00     0.000 C 
BRANCH   6   7
ATOM      7  C   UNL     1       9.135   7.301  30.735  1.00  0.00    -0.003 C 
ATOM      8  C   UNL     1       9.019   7.701  29.265  1.00  0.00     0.004 C 
ENDBRANCH   6   7
ENDBRANCH   1   6
TORSDOF 4
ENDMDL
MODEL 4
REMARK VINA RESULT:    -3.530      1.430      1.888
REMARK INTER + INTRA:          -4.617
REMARK INTER:                  -4.422
REMARK INTRA:                  -0.195
REMARK UNBOUND:                -0.261
REMARK SMILES CCCCCC(=O)[O-]
REMARK SMILES IDX 4 1 5 2 6 3 7 4 8 5 3 6 2 7 1 8
REMARK H PARENT
REMARK Flexibility Score: inf
ROOT
ATOM      1  C   UNL     1       6.713   5.599  12.729  1.00  0.00     0.006 C 
ENDROOT
BRANCH   1   2
ATOM      2  C   UNL     1       5.395   6.347  12.514  1.00  0.00     0.053 C 
BRANCH   2   3
ATOM      3  C   UNL     1       4.754   6.671  13.826  1.00  0.00     0.041 C 
ATOM      4  O   UNL     1       3.581   7.129  13.865  1.00  0.00    -0.550 OA
ATOM      5  O   UNL     1       5.470   6.514  15.007  1.00  0.00    -0.550 OA
ENDBRANCH   2   3
ENDBRANCH   1   2
BRANCH   1   6
ATOM      6  C   UNL     1       7.894   6.389  12.145  1.00  0.00     0.000 C 
BRANCH   6   7
ATOM      7  C   UNL     1       8.292   7.589  13.018  1.00  0.00    -0.003 C 
ATOM      8  C   UNL     1       8.166   8.923  12.283  1.00  0.00     0.004 C 
ENDBRANCH   6   7
ENDBRANCH   1   6
TORSDOF 4
ENDMDL
MODEL 5
REMARK VINA RESULT:    -3.528     16.556     17.715
REMARK INTER + INTRA:          -4.614
REMARK INTER:                  -4.541
REMARK INTRA:                  -0.074
REMARK UNBOUND:                -0.261
REMARK SMILES CCCCCC(=O)[O-]
REMARK SMILES IDX 4 1 5 2 6 3 7 4 8 5 3 6 2 7 1 8
REMARK H PARENT
REMARK Flexibility Score: inf
ROOT
ATOM      1  C   UNL     1       9.110   6.334  29.633  1.00  0.00     0.006 C 
ENDROOT
BRANCH   1   2
ATOM      2  C   UNL     1       9.117   7.387  30.744  1.00  0.00     0.053 C 
BRANCH   2   3
ATOM      3  C   UNL     1       9.632   8.693  30.226  1.00  0.00     0.041 C 
ATOM      4  O   UNL     1       9.701   8.900  28.985  1.00  0.00    -0.550 OA
ATOM      5  O   UNL     1      10.083   9.664  31.112  1.00  0.00    -0.550 OA
ENDBRANCH   2   3
ENDBRANCH   1   2
BRANCH   1   6
ATOM      6  C   UNL     1       9.477   4.950  30.187  1.00  0.00     0.000 C 
BRANCH   6   7
ATOM      7  C   UNL     1      10.112   4.038  29.125  1.00  0.00    -0.003 C 
ATOM      8  C   UNL     1       9.374   4.085  27.787  1.00  0.00     0.004 C 
ENDBRANCH   6   7
ENDBRANCH   1   6
TORSDOF 4
ENDMDL
MODEL 6
REMARK VINA RESULT:    -3.519     15.933     17.054
REMARK INTER + INTRA:          -4.603
REMARK INTER:                  -4.379
REMARK INTRA:                  -0.224
REMARK UNBOUND:                -0.261
REMARK SMILES CCCCCC(=O)[O-]
REMARK SMILES IDX 4 1 5 2 6 3 7 4 8 5 3 6 2 7 1 8
REMARK H PARENT
REMARK Flexibility Score: inf
ROOT
ATOM      1  C   UNL     1       9.811   5.993  29.504  1.00  0.00     0.006 C 
ENDROOT
BRANCH   1   2
ATOM      2  C   UNL     1       9.130   5.533  28.211  1.00  0.00     0.053 C 
BRANCH   2   3
ATOM      3  C   UNL     1      10.059   4.682  27.405  1.00  0.00     0.041 C 
ATOM      4  O   UNL     1       9.773   3.477  27.170  1.00  0.00    -0.550 OA
ATOM      5  O   UNL     1      11.265   5.203  26.952  1.00  0.00    -0.550 OA
ENDBRANCH   2   3
ENDBRANCH   1   2
BRANCH   1   6
ATOM      6  C   UNL     1       9.468   5.053  30.669  1.00  0.00     0.000 C 
BRANCH   6   7
ATOM      7  C   UNL     1      10.557   3.997  30.915  1.00  0.00    -0.003 C 
ATOM      8  C   UNL     1      11.965   4.525  30.642  1.00  0.00     0.004 C 
ENDBRANCH   6   7
ENDBRANCH   1   6
TORSDOF 4
ENDMDL
MODEL 7
REMARK VINA RESULT:    -3.501     16.782     17.661
REMARK INTER + INTRA:          -4.581
REMARK INTER:                  -4.465
REMARK INTRA:                  -0.116
REMARK UNBOUND:                -0.261
REMARK SMILES CCCCCC(=O)[O-]
REMARK SMILES IDX 4 1 5 2 6 3 7 4 8 5 3 6 2 7 1 8
REMARK H PARENT
REMARK Flexibility Score: inf
ROOT
ATOM      1  C   UNL     1       8.966   6.404  29.089  1.00  0.00     0.006 C 
ENDROOT
BRANCH   1   2
ATOM      2  C   UNL     1       9.452   5.052  29.620  1.00  0.00     0.053 C 
BRANCH   2   3
ATOM      3  C   UNL     1      10.934   4.926  29.457  1.00  0.00     0.041 C 
ATOM      4  O   UNL     1      11.646   4.520  30.413  1.00  0.00    -0.550 OA
ATOM      5  O   UNL     1      11.537   5.305  28.263  1.00  0.00    -0.550 OA
ENDBRANCH   2   3
ENDBRANCH   1   2
BRANCH   1   6
ATOM      6  C   UNL     1       9.047   7.483  30.178  1.00  0.00     0.000 C 
BRANCH   6   7
ATOM      7  C   UNL     1       9.617   8.810  29.653  1.00  0.00    -0.003 C 
ATOM      8  C   UNL     1      10.061   9.748  30.775  1.00  0.00     0.004 C 
ENDBRANCH   6   7
ENDBRANCH   1   6
TORSDOF 4
ENDMDL
MODEL 8
REMARK VINA RESULT:    -3.494     16.162     17.273
REMARK INTER + INTRA:          -4.573
REMARK INTER:                  -4.357
REMARK INTRA:                  -0.216
REMARK UNBOUND:                -0.261
REMARK SMILES CCCCCC(=O)[O-]
REMARK SMILES IDX 4 1 5 2 6 3 7 4 8 5 3 6 2 7 1 8
REMARK H PARENT
REMARK Flexibility Score: inf
ROOT
ATOM      1  C   UNL     1      10.069   5.396  28.188  1.00  0.00     0.006 C 
ENDROOT
BRANCH   1   2
ATOM      2  C   UNL     1       8.874   6.354  28.217  1.00  0.00     0.053 C 
BRANCH   2   3
ATOM      3  C   UNL     1       9.090   7.431  29.233  1.00  0.00     0.041 C 
ATOM      4  O   UNL     1       9.675   8.499  28.911  1.00  0.00    -0.550 OA
ATOM      5  O   UNL     1       8.688   7.236  30.549  1.00  0.00    -0.550 OA
ENDBRANCH   2   3
ENDBRANCH   1   2
BRANCH   1   6
ATOM      6  C   UNL     1       9.726   4.072  28.887  1.00  0.00     0.000 C 
BRANCH   6   7
ATOM      7  C   UNL     1      10.265   4.008  30.325  1.00  0.00    -0.003 C 
ATOM      8  C   UNL     1      11.714   4.481  30.435  1.00  0.00     0.004 C 
ENDBRANCH   6   7
ENDBRANCH   1   6
TORSDOF 4
ENDMDL
MODEL 9
REMARK VINA RESULT:    -3.467     15.705     16.797
REMARK INTER + INTRA:          -4.540
REMARK INTER:                  -4.281
REMARK INTRA:                  -0.258
REMARK UNBOUND:                -0.261
REMARK SMILES CCCCCC(=O)[O-]
REMARK SMILES IDX 4 1 5 2 6 3 7 4 8 5 3 6 2 7 1 8
REMARK H PARENT
REMARK Flexibility Score: inf
ROOT
ATOM      1  C   UNL     1       9.797   4.046  28.902  1.00  0.00     0.006 C 
ENDROOT
BRANCH   1   2
ATOM      2  C   UNL     1       9.566   4.578  27.485  1.00  0.00     0.053 C 
BRANCH   2   3
ATOM      3  C   UNL     1      10.580   5.625  27.146  1.00  0.00     0.041 C 
ATOM      4  O   UNL     1      10.211   6.763  26.752  1.00  0.00    -0.550 OA
ATOM      5  O   UNL     1      11.937   5.329  27.218  1.00  0.00    -0.550 OA
ENDBRANCH   2   3
ENDBRANCH   1   2
BRANCH   1   6
ATOM      6  C   UNL     1       9.424   5.103  29.952  1.00  0.00     0.000 C 
BRANCH   6   7
ATOM      7  C   UNL     1      10.477   5.227  31.065  1.00  0.00    -0.003 C 
ATOM      8  C   UNL     1      11.760   4.459  30.753  1.00  0.00     0.004 C 
ENDBRANCH   6   7
ENDBRANCH   1   6
TORSDOF 4
ENDMDL
