MODEL 1
REMARK VINA RESULT:    -4.238      0.000      0.000
REMARK INTER + INTRA:          -6.039
REMARK INTER:                  -5.725
REMARK INTRA:                  -0.315
REMARK UNBOUND:                -0.315
REMARK SMILES [NH3+]CCCC[C@H]([NH3+])C(=O)[O-]
REMARK SMILES IDX 4 1 3 2 2 3 1 4 5 8 6 9 7 10 8 14 9 15 10 16
REMARK H PARENT 1 5 1 6 1 7 7 11 7 12 7 13
REMARK Flexibility Score: inf
ROOT
ATOM      1  C   UNL     1       9.371 -14.846 -23.182  1.00  0.00     0.012 C 
ENDROOT
BRANCH   1   2
ATOM      2  C   UNL     1      10.394 -13.866 -23.775  1.00  0.00     0.061 C 
BRANCH   2   3
ATOM      3  C   UNL     1      10.179 -12.422 -23.294  1.00  0.00     0.258 C 
BRANCH   3   4
ATOM      4  N   UNL     1      11.285 -11.948 -22.458  1.00  0.00    -0.358 N 
ATOM      5  H   UNL     1      11.764 -11.138 -22.914  1.00  0.00     0.344 HD
ATOM      6  H   UNL     1      11.970 -12.719 -22.287  1.00  0.00     0.344 HD
ATOM      7  H   UNL     1      10.903 -11.629 -21.539  1.00  0.00     0.344 HD
ENDBRANCH   3   4
ENDBRANCH   2   3
ENDBRANCH   1   2
BRANCH   1   8
ATOM      8  C   UNL     1       9.354 -14.760 -21.648  1.00  0.00     0.072 C 
BRANCH   8   9
ATOM      9  C   UNL     1      10.608 -15.386 -21.001  1.00  0.00     0.227 C 
BRANCH   9  10
ATOM     10  N   UNL     1      10.483 -16.845 -20.871  1.00  0.00    -0.350 N 
ATOM     11  H   UNL     1      10.078 -17.251 -21.744  1.00  0.00     0.345 HD
ATOM     12  H   UNL     1      11.428 -17.273 -20.734  1.00  0.00     0.345 HD
ATOM     13  H   UNL     1       9.875 -17.095 -20.057  1.00  0.00     0.345 HD
ENDBRANCH   9  10
BRANCH   9  14
ATOM     14  C   UNL     1      10.838 -14.767 -19.649  1.00  0.00     0.099 C 
ATOM     15  O   UNL     1      11.215 -15.479 -18.680  1.00  0.00    -0.544 OA
ATOM     16  O   UNL     1      10.658 -13.401 -19.465  1.00  0.00    -0.544 OA
ENDBRANCH   9  14
ENDBRANCH   8   9
ENDBRANCH   1   8
TORSDOF 7
ENDMDL
MODEL 2
REMARK VINA RESULT:    -4.197      0.235      1.042
REMARK INTER + INTRA:          -5.983
REMARK INTER:                  -5.499
REMARK INTRA:                  -0.485
REMARK UNBOUND:                -0.315
REMARK SMILES [NH3+]CCCC[C@H]([NH3+])C(=O)[O-]
REMARK SMILES IDX 4 1 3 2 2 3 1 4 5 8 6 9 7 10 8 14 9 15 10 16
REMARK H PARENT 1 5 1 6 1 7 7 11 7 12 7 13
REMARK Flexibility Score: inf
ROOT
ATOM      1  C   UNL     1       9.374 -14.921 -23.358  1.00  0.00     0.012 C 
ENDROOT
BRANCH   1   2
ATOM      2  C   UNL     1      10.537 -14.013 -23.784  1.00  0.00     0.061 C 
BRANCH   2   3
ATOM      3  C   UNL     1      10.270 -12.529 -23.486  1.00  0.00     0.258 C 
BRANCH   3   4
ATOM      4  N   UNL     1      11.258 -11.965 -22.563  1.00  0.00    -0.358 N 
ATOM      5  H   UNL     1      10.801 -11.287 -21.911  1.00  0.00     0.344 HD
ATOM      6  H   UNL     1      12.024 -11.491 -23.094  1.00  0.00     0.344 HD
ATOM      7  H   UNL     1      11.672 -12.738 -21.995  1.00  0.00     0.344 HD
ENDBRANCH   3   4
ENDBRANCH   2   3
ENDBRANCH   1   2
BRANCH   1   8
ATOM      8  C   UNL     1       9.218 -14.932 -21.830  1.00  0.00     0.072 C 
BRANCH   8   9
ATOM      9  C   UNL     1      10.478 -15.455 -21.105  1.00  0.00     0.227 C 
BRANCH   9  10
ATOM     10  N   UNL     1      10.373 -16.887 -20.795  1.00  0.00    -0.350 N 
ATOM     11  H   UNL     1      10.721 -17.456 -21.598  1.00  0.00     0.345 HD
ATOM     12  H   UNL     1      10.967 -17.116 -19.965  1.00  0.00     0.345 HD
ATOM     13  H   UNL     1       9.382 -17.151 -20.587  1.00  0.00     0.345 HD
ENDBRANCH   9  10
BRANCH   9  14
ATOM     14  C   UNL     1      10.692 -14.668 -19.840  1.00  0.00     0.099 C 
ATOM     15  O   UNL     1      10.441 -13.434 -19.810  1.00  0.00    -0.544 OA
ATOM     16  O   UNL     1      11.147 -15.302 -18.690  1.00  0.00    -0.544 OA
ENDBRANCH   9  14
ENDBRANCH   8   9
ENDBRANCH   1   8
TORSDOF 7
ENDMDL
MODEL 3
REMARK VINA RESULT:    -4.108      1.876      2.390
REMARK INTER + INTRA:          -5.863
REMARK INTER:                  -5.751
REMARK INTRA:                  -0.111
REMARK UNBOUND:                -0.315
REMARK SMILES [NH3+]CCCC[C@H]([NH3+])C(=O)[O-]
REMARK SMILES IDX 4 1 3 2 2 3 1 4 5 8 6 9 7 10 8 14 9 15 10 16
REMARK H PARENT 1 5 1 6 1 7 7 11 7 12 7 13
REMARK Flexibility Score: inf
ROOT
ATOM      1  C   UNL     1      10.133 -13.298 -23.811  1.00  0.00     0.012 C 
ENDROOT
BRANCH   1   2
ATOM      2  C   UNL     1      10.311 -11.778 -23.676  1.00  0.00     0.061 C 
BRANCH   2   3
ATOM      3  C   UNL     1       9.821 -11.012 -24.916  1.00  0.00     0.258 C 
BRANCH   3   4
ATOM      4  N   UNL     1      10.199  -9.598 -24.876  1.00  0.00    -0.358 N 
ATOM      5  H   UNL     1      11.093  -9.446 -25.396  1.00  0.00     0.344 HD
ATOM      6  H   UNL     1      10.301  -9.274 -23.887  1.00  0.00     0.344 HD
ATOM      7  H   UNL     1       9.450  -9.034 -25.338  1.00  0.00     0.344 HD
ENDBRANCH   3   4
ENDBRANCH   2   3
ENDBRANCH   1   2
BRANCH   1   8
ATOM      8  C   UNL     1      10.934 -14.043 -22.732  1.00  0.00     0.072 C 
BRANCH   8   9
ATOM      9  C   UNL     1      10.049 -14.532 -21.564  1.00  0.00     0.227 C 
BRANCH   9  10
ATOM     10  N   UNL     1       8.626 -14.544 -21.928  1.00  0.00    -0.350 N 
ATOM     11  H   UNL     1       8.183 -15.438 -21.618  1.00  0.00     0.345 HD
ATOM     12  H   UNL     1       8.128 -13.761 -21.443  1.00  0.00     0.345 HD
ATOM     13  H   UNL     1       8.505 -14.436 -22.961  1.00  0.00     0.345 HD
ENDBRANCH   9  10
BRANCH   9  14
ATOM     14  C   UNL     1      10.268 -13.648 -20.366  1.00  0.00     0.099 C 
ATOM     15  O   UNL     1       9.982 -12.422 -20.420  1.00  0.00    -0.544 OA
ATOM     16  O   UNL     1      10.766 -14.183 -19.183  1.00  0.00    -0.544 OA
ENDBRANCH   9  14
ENDBRANCH   8   9
ENDBRANCH   1   8
TORSDOF 7
ENDMDL
MODEL 4
REMARK VINA RESULT:    -4.024      1.622      3.297
REMARK INTER + INTRA:          -5.749
REMARK INTER:                  -5.279
REMARK INTRA:                  -0.471
REMARK UNBOUND:                -0.315
REMARK SMILES [NH3+]CCCC[C@H]([NH3+])C(=O)[O-]
REMARK SMILES IDX 4 1 3 2 2 3 1 4 5 8 6 9 7 10 8 14 9 15 10 16
REMARK H PARENT 1 5 1 6 1 7 7 11 7 12 7 13
REMARK Flexibility Score: inf
ROOT
ATOM      1  C   UNL     1      10.626 -15.273 -23.693  1.00  0.00     0.012 C 
ENDROOT
BRANCH   1   2
ATOM      2  C   UNL     1      10.212 -16.746 -23.576  1.00  0.00     0.061 C 
BRANCH   2   3
ATOM      3  C   UNL     1      10.754 -17.415 -22.302  1.00  0.00     0.258 C 
BRANCH   3   4
ATOM      4  N   UNL     1       9.681 -17.857 -21.410  1.00  0.00    -0.358 N 
ATOM      5  H   UNL     1      10.034 -17.943 -20.430  1.00  0.00     0.344 HD
ATOM      6  H   UNL     1       9.292 -18.773 -21.732  1.00  0.00     0.344 HD
ATOM      7  H   UNL     1       8.915 -17.146 -21.422  1.00  0.00     0.344 HD
ENDBRANCH   3   4
ENDBRANCH   2   3
ENDBRANCH   1   2
BRANCH   1   8
ATOM      8  C   UNL     1      11.183 -14.751 -22.359  1.00  0.00     0.072 C 
BRANCH   8   9
ATOM      9  C   UNL     1      10.187 -13.836 -21.614  1.00  0.00     0.227 C 
BRANCH   9  10
ATOM     10  N   UNL     1      10.609 -12.429 -21.648  1.00  0.00    -0.350 N 
ATOM     11  H   UNL     1       9.930 -11.837 -21.120  1.00  0.00     0.345 HD
ATOM     12  H   UNL     1      11.542 -12.326 -21.186  1.00  0.00     0.345 HD
ATOM     13  H   UNL     1      10.677 -12.086 -22.634  1.00  0.00     0.345 HD
ENDBRANCH   9  10
BRANCH   9  14
ATOM     14  C   UNL     1      10.051 -14.299 -20.188  1.00  0.00     0.099 C 
ATOM     15  O   UNL     1       9.290 -15.261 -19.902  1.00  0.00    -0.544 OA
ATOM     16  O   UNL     1      10.781 -13.681 -19.179  1.00  0.00    -0.544 OA
ENDBRANCH   9  14
ENDBRANCH   8   9
ENDBRANCH   1   8
TORSDOF 7
ENDMDL
MODEL 5
REMARK VINA RESULT:    -3.865      1.862      2.099
REMARK INTER + INTRA:          -5.536
REMARK INTER:                  -5.302
REMARK INTRA:                  -0.234
REMARK UNBOUND:                -0.315
REMARK SMILES [NH3+]CCCC[C@H]([NH3+])C(=O)[O-]
REMARK SMILES IDX 4 1 3 2 2 3 1 4 5 8 6 9 7 10 8 14 9 15 10 16
REMARK H PARENT 1 5 1 6 1 7 7 11 7 12 7 13
REMARK Flexibility Score: inf
ROOT
ATOM      1  C   UNL     1       9.068 -15.509 -22.931  1.00  0.00     0.012 C 
ENDROOT
BRANCH   1   2
ATOM      2  C   UNL     1       9.973 -15.053 -24.084  1.00  0.00     0.061 C 
BRANCH   2   3
ATOM      3  C   UNL     1      10.662 -16.228 -24.796  1.00  0.00     0.258 C 
BRANCH   3   4
ATOM      4  N   UNL     1      11.953 -16.561 -24.189  1.00  0.00    -0.358 N 
ATOM      5  H   UNL     1      12.692 -15.901 -24.522  1.00  0.00     0.344 HD
ATOM      6  H   UNL     1      12.222 -17.545 -24.419  1.00  0.00     0.344 HD
ATOM      7  H   UNL     1      11.874 -16.469 -23.151  1.00  0.00     0.344 HD
ENDBRANCH   3   4
ENDBRANCH   2   3
ENDBRANCH   1   2
BRANCH   1   8
ATOM      8  C   UNL     1       9.454 -14.808 -21.619  1.00  0.00     0.072 C 
BRANCH   8   9
ATOM      9  C   UNL     1      10.684 -15.449 -20.940  1.00  0.00     0.227 C 
BRANCH   9  10
ATOM     10  N   UNL     1      10.557 -16.910 -20.852  1.00  0.00    -0.350 N 
ATOM     11  H   UNL     1       9.938 -17.265 -21.615  1.00  0.00     0.345 HD
ATOM     12  H   UNL     1      11.496 -17.357 -20.974  1.00  0.00     0.345 HD
ATOM     13  H   UNL     1      10.164 -17.194 -19.925  1.00  0.00     0.345 HD
ENDBRANCH   9  10
BRANCH   9  14
ATOM     14  C   UNL     1      10.860 -14.863 -19.565  1.00  0.00     0.099 C 
ATOM     15  O   UNL     1      11.244 -15.590 -18.611  1.00  0.00    -0.544 OA
ATOM     16  O   UNL     1      10.622 -13.512 -19.344  1.00  0.00    -0.544 OA
ENDBRANCH   9  14
ENDBRANCH   8   9
ENDBRANCH   1   8
TORSDOF 7
ENDMDL
MODEL 6
REMARK VINA RESULT:    -3.739      2.542      3.757
REMARK INTER + INTRA:          -5.365
REMARK INTER:                  -5.164
REMARK INTRA:                  -0.201
REMARK UNBOUND:                -0.315
REMARK SMILES [NH3+]CCCC[C@H]([NH3+])C(=O)[O-]
REMARK SMILES IDX 4 1 3 2 2 3 1 4 5 8 6 9 7 10 8 14 9 15 10 16
REMARK H PARENT 1 5 1 6 1 7 7 11 7 12 7 13
REMARK Flexibility Score: inf
ROOT
ATOM      1  C   UNL     1      10.528 -16.433 -21.536  1.00  0.00     0.012 C 
ENDROOT
BRANCH   1   2
ATOM      2  C   UNL     1      10.217 -17.452 -22.641  1.00  0.00     0.061 C 
BRANCH   2   3
ATOM      3  C   UNL     1      11.478 -17.932 -23.377  1.00  0.00     0.258 C 
BRANCH   3   4
ATOM      4  N   UNL     1      11.856 -17.032 -24.469  1.00  0.00    -0.358 N 
ATOM      5  H   UNL     1      11.138 -17.059 -25.228  1.00  0.00     0.344 HD
ATOM      6  H   UNL     1      12.792 -17.297 -24.853  1.00  0.00     0.344 HD
ATOM      7  H   UNL     1      11.909 -16.055 -24.101  1.00  0.00     0.344 HD
ENDBRANCH   3   4
ENDBRANCH   2   3
ENDBRANCH   1   2
BRANCH   1   8
ATOM      8  C   UNL     1       9.679 -15.164 -21.704  1.00  0.00     0.072 C 
BRANCH   8   9
ATOM      9  C   UNL     1      10.376 -14.089 -22.566  1.00  0.00     0.227 C 
BRANCH   9  10
ATOM     10  N   UNL     1      11.838 -14.234 -22.540  1.00  0.00    -0.350 N 
ATOM     11  H   UNL     1      12.137 -14.712 -21.660  1.00  0.00     0.345 HD
ATOM     12  H   UNL     1      12.152 -14.828 -23.342  1.00  0.00     0.345 HD
ATOM     13  H   UNL     1      12.306 -13.300 -22.604  1.00  0.00     0.345 HD
ENDBRANCH   9  10
BRANCH   9  14
ATOM     14  C   UNL     1       9.986 -12.721 -22.074  1.00  0.00     0.099 C 
ATOM     15  O   UNL     1      10.023 -12.454 -20.844  1.00  0.00    -0.544 OA
ATOM     16  O   UNL     1       9.602 -11.736 -22.977  1.00  0.00    -0.544 OA
ENDBRANCH   9  14
ENDBRANCH   8   9
ENDBRANCH   1   8
TORSDOF 7
ENDMDL
MODEL 7
REMARK VINA RESULT:    -3.736      2.259      3.449
REMARK INTER + INTRA:          -5.362
REMARK INTER:                  -5.217
REMARK INTRA:                  -0.145
REMARK UNBOUND:                -0.315
REMARK SMILES [NH3+]CCCC[C@H]([NH3+])C(=O)[O-]
REMARK SMILES IDX 4 1 3 2 2 3 1 4 5 8 6 9 7 10 8 14 9 15 10 16
REMARK H PARENT 1 5 1 6 1 7 7 11 7 12 7 13
REMARK Flexibility Score: inf
ROOT
ATOM      1  C   UNL     1      10.574 -15.188 -23.817  1.00  0.00     0.012 C 
ENDROOT
BRANCH   1   2
ATOM      2  C   UNL     1      11.165 -16.481 -24.396  1.00  0.00     0.061 C 
BRANCH   2   3
ATOM      3  C   UNL     1      11.674 -17.439 -23.307  1.00  0.00     0.258 C 
BRANCH   3   4
ATOM      4  N   UNL     1      11.371 -18.838 -23.616  1.00  0.00    -0.358 N 
ATOM      5  H   UNL     1      11.437 -19.006 -24.645  1.00  0.00     0.344 HD
ATOM      6  H   UNL     1      10.415 -19.089 -23.273  1.00  0.00     0.344 HD
ATOM      7  H   UNL     1      12.070 -19.451 -23.137  1.00  0.00     0.344 HD
ENDBRANCH   3   4
ENDBRANCH   2   3
ENDBRANCH   1   2
BRANCH   1   8
ATOM      8  C   UNL     1      11.038 -14.972 -22.368  1.00  0.00     0.072 C 
BRANCH   8   9
ATOM      9  C   UNL     1       9.861 -14.777 -21.388  1.00  0.00     0.227 C 
BRANCH   9  10
ATOM     10  N   UNL     1       8.599 -14.520 -22.096  1.00  0.00    -0.350 N 
ATOM     11  H   UNL     1       8.691 -14.786 -23.102  1.00  0.00     0.345 HD
ATOM     12  H   UNL     1       7.834 -15.104 -21.685  1.00  0.00     0.345 HD
ATOM     13  H   UNL     1       8.332 -13.511 -22.026  1.00  0.00     0.345 HD
ENDBRANCH   9  10
BRANCH   9  14
ATOM     14  C   UNL     1      10.168 -13.636 -20.455  1.00  0.00     0.099 C 
ATOM     15  O   UNL     1       9.897 -12.452 -20.790  1.00  0.00    -0.544 OA
ATOM     16  O   UNL     1      10.735 -13.883 -19.210  1.00  0.00    -0.544 OA
ENDBRANCH   9  14
ENDBRANCH   8   9
ENDBRANCH   1   8
TORSDOF 7
ENDMDL
MODEL 8
REMARK VINA RESULT:    -3.679      2.563      4.015
REMARK INTER + INTRA:          -5.284
REMARK INTER:                  -5.184
REMARK INTRA:                  -0.101
REMARK UNBOUND:                -0.315
REMARK SMILES [NH3+]CCCC[C@H]([NH3+])C(=O)[O-]
REMARK SMILES IDX 4 1 3 2 2 3 1 4 5 8 6 9 7 10 8 14 9 15 10 16
REMARK H PARENT 1 5 1 6 1 7 7 11 7 12 7 13
REMARK Flexibility Score: inf
ROOT
ATOM      1  C   UNL     1      11.029 -16.969 -22.448  1.00  0.00     0.012 C 
ENDROOT
BRANCH   1   2
ATOM      2  C   UNL     1      10.222 -18.078 -23.138  1.00  0.00     0.061 C 
BRANCH   2   3
ATOM      3  C   UNL     1      11.109 -19.225 -23.649  1.00  0.00     0.258 C 
BRANCH   3   4
ATOM      4  N   UNL     1      10.509 -20.539 -23.404  1.00  0.00    -0.358 N 
ATOM      5  H   UNL     1      11.241 -21.225 -23.113  1.00  0.00     0.344 HD
ATOM      6  H   UNL     1      10.017 -20.882 -24.261  1.00  0.00     0.344 HD
ATOM      7  H   UNL     1       9.812 -20.454 -22.629  1.00  0.00     0.344 HD
ENDBRANCH   3   4
ENDBRANCH   2   3
ENDBRANCH   1   2
BRANCH   1   8
ATOM      8  C   UNL     1      10.307 -16.468 -21.188  1.00  0.00     0.072 C 
BRANCH   8   9
ATOM      9  C   UNL     1      10.391 -14.935 -21.023  1.00  0.00     0.227 C 
BRANCH   9  10
ATOM     10  N   UNL     1      11.358 -14.339 -21.955  1.00  0.00    -0.350 N 
ATOM     11  H   UNL     1      12.222 -14.924 -22.000  1.00  0.00     0.345 HD
ATOM     12  H   UNL     1      10.950 -14.303 -22.917  1.00  0.00     0.345 HD
ATOM     13  H   UNL     1      11.612 -13.368 -21.657  1.00  0.00     0.345 HD
ENDBRANCH   9  10
BRANCH   9  14
ATOM     14  C   UNL     1      10.770 -14.602 -19.605  1.00  0.00     0.099 C 
ATOM     15  O   UNL     1      11.188 -15.505 -18.831  1.00  0.00    -0.544 OA
ATOM     16  O   UNL     1      10.681 -13.294 -19.145  1.00  0.00    -0.544 OA
ENDBRANCH   9  14
ENDBRANCH   8   9
ENDBRANCH   1   8
TORSDOF 7
ENDMDL
MODEL 9
REMARK VINA RESULT:    -3.616      2.564      3.939
REMARK INTER + INTRA:          -5.198
REMARK INTER:                  -4.662
REMARK INTRA:                  -0.536
REMARK UNBOUND:                -0.315
REMARK SMILES [NH3+]CCCC[C@H]([NH3+])C(=O)[O-]
REMARK SMILES IDX 4 1 3 2 2 3 1 4 5 8 6 9 7 10 8 14 9 15 10 16
REMARK H PARENT 1 5 1 6 1 7 7 11 7 12 7 13
REMARK Flexibility Score: inf
ROOT
ATOM      1  C   UNL     1      10.896 -15.510 -22.369  1.00  0.00     0.012 C 
ENDROOT
BRANCH   1   2
ATOM      2  C   UNL     1       9.909 -15.262 -21.220  1.00  0.00     0.061 C 
BRANCH   2   3
ATOM      3  C   UNL     1      10.609 -14.839 -19.919  1.00  0.00     0.258 C 
BRANCH   3   4
ATOM      4  N   UNL     1      10.684 -13.383 -19.781  1.00  0.00    -0.358 N 
ATOM      5  H   UNL     1      10.272 -12.916 -20.620  1.00  0.00     0.344 HD
ATOM      6  H   UNL     1      11.676 -13.078 -19.653  1.00  0.00     0.344 HD
ATOM      7  H   UNL     1      10.133 -13.093 -18.941  1.00  0.00     0.344 HD
ENDBRANCH   3   4
ENDBRANCH   2   3
ENDBRANCH   1   2
BRANCH   1   8
ATOM      8  C   UNL     1      10.909 -14.325 -23.347  1.00  0.00     0.072 C 
BRANCH   8   9
ATOM      9  C   UNL     1       9.559 -13.579 -23.398  1.00  0.00     0.227 C 
BRANCH   9  10
ATOM     10  N   UNL     1       8.895 -13.741 -24.699  1.00  0.00    -0.350 N 
ATOM     11  H   UNL     1       9.586 -14.047 -25.420  1.00  0.00     0.345 HD
ATOM     12  H   UNL     1       8.160 -14.483 -24.634  1.00  0.00     0.345 HD
ATOM     13  H   UNL     1       8.449 -12.845 -25.003  1.00  0.00     0.345 HD
ENDBRANCH   9  10
BRANCH   9  14
ATOM     14  C   UNL     1       9.781 -12.117 -23.113  1.00  0.00     0.099 C 
ATOM     15  O   UNL     1      10.732 -11.754 -22.371  1.00  0.00    -0.544 OA
ATOM     16  O   UNL     1       8.953 -11.159 -23.684  1.00  0.00    -0.544 OA
ENDBRANCH   9  14
ENDBRANCH   8   9
ENDBRANCH   1   8
TORSDOF 7
ENDMDL
