MODEL 1
REMARK VINA RESULT:    -3.722      0.000      0.000
REMARK INTER + INTRA:          -3.722
REMARK INTER:                  -3.722
REMARK INTRA:                   0.000
REMARK UNBOUND:                 0.000
REMARK SMILES c1ccc2ccccc2c1
REMARK SMILES IDX 2 1 1 2 10 3 9 4 8 5 7 6 6 7 5 8 4 9 3 10
REMARK H PARENT
REMARK Flexibility Score: inf
ROOT
ATOM      1  C   UNL     1       2.591 108.293 181.419  1.00  0.00     0.001 A 
ATOM      2  C   UNL     1       3.559 107.325 181.695  1.00  0.00     0.001 A 
ATOM      3  C   UNL     1       3.666 106.187 180.890  1.00  0.00     0.009 A 
ATOM      4  C   UNL     1       2.802 106.012 179.798  1.00  0.00    -0.018 A 
ATOM      5  C   UNL     1       2.899 104.875 178.982  1.00  0.00     0.009 A 
ATOM      6  C   UNL     1       2.030 104.714 177.898  1.00  0.00     0.001 A 
ATOM      7  C   UNL     1       1.062 105.683 177.622  1.00  0.00     0.001 A 
ATOM      8  C   UNL     1       0.956 106.821 178.427  1.00  0.00     0.009 A 
ATOM      9  C   UNL     1       1.820 106.995 179.519  1.00  0.00    -0.018 A 
ATOM     10  C   UNL     1       1.723 108.132 180.335  1.00  0.00     0.009 A 
ENDROOT
TORSDOF 0
ENDMDL
MODEL 2
REMARK VINA RESULT:    -3.717      0.083      2.082
REMARK INTER + INTRA:          -3.717
REMARK INTER:                  -3.717
REMARK INTRA:                   0.000
REMARK UNBOUND:                 0.000
REMARK SMILES c1ccc2ccccc2c1
REMARK SMILES IDX 2 1 1 2 10 3 9 4 8 5 7 6 6 7 5 8 4 9 3 10
REMARK H PARENT
REMARK Flexibility Score: inf
ROOT
ATOM      1  C   UNL     1       3.570 107.380 181.750  1.00  0.00     0.001 A 
ATOM      2  C   UNL     1       2.611 108.348 181.440  1.00  0.00     0.001 A 
ATOM      3  C   UNL     1       1.766 108.174 180.339  1.00  0.00     0.009 A 
ATOM      4  C   UNL     1       1.876 107.025 179.541  1.00  0.00    -0.018 A 
ATOM      5  C   UNL     1       1.034 106.838 178.434  1.00  0.00     0.009 A 
ATOM      6  C   UNL     1       1.155 105.688 177.648  1.00  0.00     0.001 A 
ATOM      7  C   UNL     1       2.114 104.721 177.958  1.00  0.00     0.001 A 
ATOM      8  C   UNL     1       2.959 104.895 179.059  1.00  0.00     0.009 A 
ATOM      9  C   UNL     1       2.849 106.044 179.857  1.00  0.00    -0.018 A 
ATOM     10  C   UNL     1       3.691 106.231 180.963  1.00  0.00     0.009 A 
ENDROOT
TORSDOF 0
ENDMDL
MODEL 3
REMARK VINA RESULT:    -3.712      0.217      3.436
REMARK INTER + INTRA:          -3.712
REMARK INTER:                  -3.712
REMARK INTRA:                   0.000
REMARK UNBOUND:                 0.000
REMARK SMILES c1ccc2ccccc2c1
REMARK SMILES IDX 2 1 1 2 10 3 9 4 8 5 7 6 6 7 5 8 4 9 3 10
REMARK H PARENT
REMARK Flexibility Score: inf
ROOT
ATOM      1  C   UNL     1       1.313 105.559 177.662  1.00  0.00     0.001 A 
ATOM      2  C   UNL     1       2.298 104.649 178.054  1.00  0.00     0.001 A 
ATOM      3  C   UNL     1       3.086 104.906 179.179  1.00  0.00     0.009 A 
ATOM      4  C   UNL     1       2.891 106.080 179.924  1.00  0.00    -0.018 A 
ATOM      5  C   UNL     1       3.675 106.350 181.055  1.00  0.00     0.009 A 
ATOM      6  C   UNL     1       3.469 107.523 181.787  1.00  0.00     0.001 A 
ATOM      7  C   UNL     1       2.484 108.433 181.395  1.00  0.00     0.001 A 
ATOM      8  C   UNL     1       1.696 108.176 180.270  1.00  0.00     0.009 A 
ATOM      9  C   UNL     1       1.891 107.002 179.525  1.00  0.00    -0.018 A 
ATOM     10  C   UNL     1       1.108 106.732 178.394  1.00  0.00     0.009 A 
ENDROOT
TORSDOF 0
ENDMDL
MODEL 4
REMARK VINA RESULT:    -3.701      1.040      4.327
REMARK INTER + INTRA:          -3.701
REMARK INTER:                  -3.701
REMARK INTRA:                   0.000
REMARK UNBOUND:                 0.000
REMARK SMILES c1ccc2ccccc2c1
REMARK SMILES IDX 2 1 1 2 10 3 9 4 8 5 7 6 6 7 5 8 4 9 3 10
REMARK H PARENT
REMARK Flexibility Score: inf
ROOT
ATOM      1  C   UNL     1       2.228 105.520 179.274  1.00  0.00     0.001 A 
ATOM      2  C   UNL     1       1.400 106.631 179.101  1.00  0.00     0.001 A 
ATOM      3  C   UNL     1       1.565 107.765 179.902  1.00  0.00     0.009 A 
ATOM      4  C   UNL     1       2.567 107.792 180.885  1.00  0.00    -0.018 A 
ATOM      5  C   UNL     1       2.744 108.923 181.696  1.00  0.00     0.009 A 
ATOM      6  C   UNL     1       3.745 108.937 182.672  1.00  0.00     0.001 A 
ATOM      7  C   UNL     1       4.573 107.825 182.846  1.00  0.00     0.001 A 
ATOM      8  C   UNL     1       4.407 106.691 182.045  1.00  0.00     0.009 A 
ATOM      9  C   UNL     1       3.406 106.664 181.061  1.00  0.00    -0.018 A 
ATOM     10  C   UNL     1       3.229 105.533 180.251  1.00  0.00     0.009 A 
ENDROOT
TORSDOF 0
ENDMDL
MODEL 5
REMARK VINA RESULT:    -3.695      1.051      3.810
REMARK INTER + INTRA:          -3.695
REMARK INTER:                  -3.695
REMARK INTRA:                   0.000
REMARK UNBOUND:                 0.000
REMARK SMILES c1ccc2ccccc2c1
REMARK SMILES IDX 2 1 1 2 10 3 9 4 8 5 7 6 6 7 5 8 4 9 3 10
REMARK H PARENT
REMARK Flexibility Score: inf
ROOT
ATOM      1  C   UNL     1       1.416 106.630 179.125  1.00  0.00     0.001 A 
ATOM      2  C   UNL     1       2.235 105.511 179.292  1.00  0.00     0.001 A 
ATOM      3  C   UNL     1       3.233 105.509 180.271  1.00  0.00     0.009 A 
ATOM      4  C   UNL     1       3.416 106.631 181.093  1.00  0.00    -0.018 A 
ATOM      5  C   UNL     1       4.413 106.642 182.080  1.00  0.00     0.009 A 
ATOM      6  C   UNL     1       4.585 107.768 182.892  1.00  0.00     0.001 A 
ATOM      7  C   UNL     1       3.765 108.887 182.725  1.00  0.00     0.001 A 
ATOM      8  C   UNL     1       2.767 108.889 181.746  1.00  0.00     0.009 A 
ATOM      9  C   UNL     1       2.584 107.766 180.923  1.00  0.00    -0.018 A 
ATOM     10  C   UNL     1       1.587 107.755 179.937  1.00  0.00     0.009 A 
ENDROOT
TORSDOF 0
ENDMDL
MODEL 6
REMARK VINA RESULT:    -3.688      1.051      1.695
REMARK INTER + INTRA:          -3.688
REMARK INTER:                  -3.688
REMARK INTRA:                   0.000
REMARK UNBOUND:                 0.000
REMARK SMILES c1ccc2ccccc2c1
REMARK SMILES IDX 2 1 1 2 10 3 9 4 8 5 7 6 6 7 5 8 4 9 3 10
REMARK H PARENT
REMARK Flexibility Score: inf
ROOT
ATOM      1  C   UNL     1       3.777 108.860 182.722  1.00  0.00     0.001 A 
ATOM      2  C   UNL     1       4.604 107.744 182.874  1.00  0.00     0.001 A 
ATOM      3  C   UNL     1       4.436 106.626 182.051  1.00  0.00     0.009 A 
ATOM      4  C   UNL     1       3.436 106.620 181.066  1.00  0.00    -0.018 A 
ATOM      5  C   UNL     1       3.256 105.505 180.234  1.00  0.00     0.009 A 
ATOM      6  C   UNL     1       2.255 105.512 179.258  1.00  0.00     0.001 A 
ATOM      7  C   UNL     1       1.429 106.628 179.106  1.00  0.00     0.001 A 
ATOM      8  C   UNL     1       1.597 107.746 179.928  1.00  0.00     0.009 A 
ATOM      9  C   UNL     1       2.597 107.752 180.913  1.00  0.00    -0.018 A 
ATOM     10  C   UNL     1       2.776 108.867 181.746  1.00  0.00     0.009 A 
ENDROOT
TORSDOF 0
ENDMDL
MODEL 7
REMARK VINA RESULT:    -3.688      1.048      2.668
REMARK INTER + INTRA:          -3.688
REMARK INTER:                  -3.688
REMARK INTRA:                   0.000
REMARK UNBOUND:                 0.000
REMARK SMILES c1ccc2ccccc2c1
REMARK SMILES IDX 2 1 1 2 10 3 9 4 8 5 7 6 6 7 5 8 4 9 3 10
REMARK H PARENT
REMARK Flexibility Score: inf
ROOT
ATOM      1  C   UNL     1       4.587 107.761 182.872  1.00  0.00     0.001 A 
ATOM      2  C   UNL     1       3.758 108.873 182.710  1.00  0.00     0.001 A 
ATOM      3  C   UNL     1       2.759 108.870 181.732  1.00  0.00     0.009 A 
ATOM      4  C   UNL     1       2.583 107.749 180.907  1.00  0.00    -0.018 A 
ATOM      5  C   UNL     1       1.584 107.733 179.922  1.00  0.00     0.009 A 
ATOM      6  C   UNL     1       1.421 106.608 179.107  1.00  0.00     0.001 A 
ATOM      7  C   UNL     1       2.250 105.496 179.269  1.00  0.00     0.001 A 
ATOM      8  C   UNL     1       3.249 105.498 180.247  1.00  0.00     0.009 A 
ATOM      9  C   UNL     1       3.425 106.620 181.071  1.00  0.00    -0.018 A 
ATOM     10  C   UNL     1       4.424 106.636 182.057  1.00  0.00     0.009 A 
ENDROOT
TORSDOF 0
ENDMDL
MODEL 8
REMARK VINA RESULT:    -3.538      2.487      4.298
REMARK INTER + INTRA:          -3.538
REMARK INTER:                  -3.538
REMARK INTRA:                   0.000
REMARK UNBOUND:                 0.000
REMARK SMILES c1ccc2ccccc2c1
REMARK SMILES IDX 2 1 1 2 10 3 9 4 8 5 7 6 6 7 5 8 4 9 3 10
REMARK H PARENT
REMARK Flexibility Score: inf
ROOT
ATOM      1  C   UNL     1       6.541 106.054 181.977  1.00  0.00     0.001 A 
ATOM      2  C   UNL     1       6.549 106.656 183.238  1.00  0.00     0.001 A 
ATOM      3  C   UNL     1       5.498 107.494 183.624  1.00  0.00     0.009 A 
ATOM      4  C   UNL     1       4.428 107.732 182.747  1.00  0.00    -0.018 A 
ATOM      5  C   UNL     1       3.367 108.570 183.122  1.00  0.00     0.009 A 
ATOM      6  C   UNL     1       2.308 108.799 182.238  1.00  0.00     0.001 A 
ATOM      7  C   UNL     1       2.301 108.197 180.977  1.00  0.00     0.001 A 
ATOM      8  C   UNL     1       3.352 107.359 180.591  1.00  0.00     0.009 A 
ATOM      9  C   UNL     1       4.422 107.121 181.468  1.00  0.00    -0.018 A 
ATOM     10  C   UNL     1       5.483 106.283 181.093  1.00  0.00     0.009 A 
ENDROOT
TORSDOF 0
ENDMDL
MODEL 9
REMARK VINA RESULT:    -3.529      2.533      4.267
REMARK INTER + INTRA:          -3.529
REMARK INTER:                  -3.529
REMARK INTRA:                   0.000
REMARK UNBOUND:                 0.000
REMARK SMILES c1ccc2ccccc2c1
REMARK SMILES IDX 2 1 1 2 10 3 9 4 8 5 7 6 6 7 5 8 4 9 3 10
REMARK H PARENT
REMARK Flexibility Score: inf
ROOT
ATOM      1  C   UNL     1       6.522 106.621 183.151  1.00  0.00     0.001 A 
ATOM      2  C   UNL     1       6.484 106.084 181.862  1.00  0.00     0.001 A 
ATOM      3  C   UNL     1       5.410 106.367 181.013  1.00  0.00     0.009 A 
ATOM      4  C   UNL     1       4.365 107.194 181.450  1.00  0.00    -0.018 A 
ATOM      5  C   UNL     1       3.281 107.486 180.608  1.00  0.00     0.009 A 
ATOM      6  C   UNL     1       2.246 108.312 181.058  1.00  0.00     0.001 A 
ATOM      7  C   UNL     1       2.284 108.849 182.347  1.00  0.00     0.001 A 
ATOM      8  C   UNL     1       3.358 108.566 183.196  1.00  0.00     0.009 A 
ATOM      9  C   UNL     1       4.404 107.739 182.758  1.00  0.00    -0.018 A 
ATOM     10  C   UNL     1       5.487 107.447 183.601  1.00  0.00     0.009 A 
ENDROOT
TORSDOF 0
ENDMDL
