MODEL 1
REMARK VINA RESULT:    -4.704      0.000      0.000
REMARK INTER + INTRA:          -7.068
REMARK INTER:                  -6.629
REMARK INTRA:                  -0.439
REMARK UNBOUND:                -0.439
REMARK SMILES CCCCCCCCC(=O)[O-]
REMARK SMILES IDX 6 1 7 2 8 3 9 4 10 5 11 6 5 7 4 8 3 9 2 10 1 11
REMARK H PARENT
REMARK Flexibility Score: inf
ROOT
ATOM      1  C   UNL     1      18.814  -2.760  -3.824  1.00  0.00     0.000 C 
ENDROOT
BRANCH   1   2
ATOM      2  C   UNL     1      18.445  -1.572  -2.921  1.00  0.00     0.006 C 
BRANCH   2   3
ATOM      3  C   UNL     1      16.927  -1.417  -2.760  1.00  0.00     0.053 C 
BRANCH   3   4
ATOM      4  C   UNL     1      16.336  -0.591  -3.860  1.00  0.00     0.041 C 
ATOM      5  O   UNL     1      17.061   0.198  -4.522  1.00  0.00    -0.550 OA
ATOM      6  O   UNL     1      14.988  -0.717  -4.178  1.00  0.00    -0.550 OA
ENDBRANCH   3   4
ENDBRANCH   2   3
ENDBRANCH   1   2
BRANCH   1   7
ATOM      7  C   UNL     1      19.793  -2.375  -4.947  1.00  0.00     0.000 C 
BRANCH   7   8
ATOM      8  C   UNL     1      19.146  -2.162  -6.330  1.00  0.00    -0.000 C 
BRANCH   8   9
ATOM      9  C   UNL     1      19.275  -0.736  -6.901  1.00  0.00    -0.000 C 
BRANCH   9  10
ATOM     10  C   UNL     1      20.714  -0.201  -6.984  1.00  0.00    -0.003 C 
ATOM     11  C   UNL     1      21.223  -0.083  -8.420  1.00  0.00     0.004 C 
ENDBRANCH   9  10
ENDBRANCH   8   9
ENDBRANCH   7   8
ENDBRANCH   1   7
TORSDOF 7
ENDMDL
MODEL 2
REMARK VINA RESULT:    -4.664      1.405      3.174
REMARK INTER + INTRA:          -7.012
REMARK INTER:                  -6.215
REMARK INTRA:                  -0.796
REMARK UNBOUND:                -0.439
REMARK SMILES CCCCCCCCC(=O)[O-]
REMARK SMILES IDX 6 1 7 2 8 3 9 4 10 5 11 6 5 7 4 8 3 9 2 10 1 11
REMARK H PARENT
REMARK Flexibility Score: inf
ROOT
ATOM      1  C   UNL     1      17.254  -0.111  -7.166  1.00  0.00     0.000 C 
ENDROOT
BRANCH   1   2
ATOM      2  C   UNL     1      16.365   0.618  -6.145  1.00  0.00     0.006 C 
BRANCH   2   3
ATOM      3  C   UNL     1      16.849   0.409  -4.704  1.00  0.00     0.053 C 
BRANCH   3   4
ATOM      4  C   UNL     1      15.933  -0.496  -3.939  1.00  0.00     0.041 C 
ATOM      5  O   UNL     1      14.778  -0.745  -4.374  1.00  0.00    -0.550 OA
ATOM      6  O   UNL     1      16.368  -1.092  -2.761  1.00  0.00    -0.550 OA
ENDBRANCH   3   4
ENDBRANCH   2   3
ENDBRANCH   1   2
BRANCH   1   7
ATOM      7  C   UNL     1      18.742   0.256  -7.030  1.00  0.00     0.000 C 
BRANCH   7   8
ATOM      8  C   UNL     1      19.688  -0.939  -6.792  1.00  0.00    -0.000 C 
BRANCH   8   9
ATOM      9  C   UNL     1      18.989  -2.271  -6.457  1.00  0.00    -0.000 C 
BRANCH   9  10
ATOM     10  C   UNL     1      18.970  -2.633  -4.962  1.00  0.00    -0.003 C 
ATOM     11  C   UNL     1      19.801  -1.677  -4.108  1.00  0.00     0.004 C 
ENDBRANCH   9  10
ENDBRANCH   8   9
ENDBRANCH   7   8
ENDBRANCH   1   7
TORSDOF 7
ENDMDL
MODEL 3
REMARK VINA RESULT:    -4.657      1.371      1.978
REMARK INTER + INTRA:          -7.002
REMARK INTER:                  -6.308
REMARK INTRA:                  -0.695
REMARK UNBOUND:                -0.439
REMARK SMILES CCCCCCCCC(=O)[O-]
REMARK SMILES IDX 6 1 7 2 8 3 9 4 10 5 11 6 5 7 4 8 3 9 2 10 1 11
REMARK H PARENT
REMARK Flexibility Score: inf
ROOT
ATOM      1  C   UNL     1      19.909  -1.828  -4.350  1.00  0.00     0.000 C 
ENDROOT
BRANCH   1   2
ATOM      2  C   UNL     1      18.906  -1.514  -3.227  1.00  0.00     0.006 C 
BRANCH   2   3
ATOM      3  C   UNL     1      17.498  -2.032  -3.548  1.00  0.00     0.053 C 
BRANCH   3   4
ATOM      4  C   UNL     1      16.437  -1.116  -3.019  1.00  0.00     0.041 C 
ATOM      5  O   UNL     1      16.358  -0.883  -1.784  1.00  0.00    -0.550 OA
ATOM      6  O   UNL     1      15.557  -0.491  -3.895  1.00  0.00    -0.550 OA
ENDBRANCH   3   4
ENDBRANCH   2   3
ENDBRANCH   1   2
BRANCH   1   7
ATOM      7  C   UNL     1      19.269  -2.587  -5.526  1.00  0.00     0.000 C 
BRANCH   7   8
ATOM      8  C   UNL     1      19.213  -1.803  -6.853  1.00  0.00    -0.000 C 
BRANCH   8   9
ATOM      9  C   UNL     1      19.501  -0.294  -6.735  1.00  0.00    -0.000 C 
BRANCH   9  10
ATOM     10  C   UNL     1      18.251   0.601  -6.695  1.00  0.00    -0.003 C 
ATOM     11  C   UNL     1      16.959  -0.169  -6.963  1.00  0.00     0.004 C 
ENDBRANCH   9  10
ENDBRANCH   8   9
ENDBRANCH   7   8
ENDBRANCH   1   7
TORSDOF 7
ENDMDL
MODEL 4
REMARK VINA RESULT:    -4.618      2.265      3.749
REMARK INTER + INTRA:          -6.947
REMARK INTER:                  -6.269
REMARK INTRA:                  -0.677
REMARK UNBOUND:                -0.439
REMARK SMILES CCCCCCCCC(=O)[O-]
REMARK SMILES IDX 6 1 7 2 8 3 9 4 10 5 11 6 5 7 4 8 3 9 2 10 1 11
REMARK H PARENT
REMARK Flexibility Score: inf
ROOT
ATOM      1  C   UNL     1      16.182  -1.027  -4.506  1.00  0.00     0.000 C 
ENDROOT
BRANCH   1   2
ATOM      2  C   UNL     1      15.916   0.406  -4.996  1.00  0.00     0.006 C 
BRANCH   2   3
ATOM      3  C   UNL     1      17.199   1.103  -5.468  1.00  0.00     0.053 C 
BRANCH   3   4
ATOM      4  C   UNL     1      17.501   0.794  -6.902  1.00  0.00     0.041 C 
ATOM      5  O   UNL     1      16.566   0.676  -7.737  1.00  0.00    -0.550 OA
ATOM      6  O   UNL     1      18.820   0.669  -7.324  1.00  0.00    -0.550 OA
ENDBRANCH   3   4
ENDBRANCH   2   3
ENDBRANCH   1   2
BRANCH   1   7
ATOM      7  C   UNL     1      16.699  -1.075  -3.057  1.00  0.00     0.000 C 
BRANCH   7   8
ATOM      8  C   UNL     1      18.187  -1.453  -2.909  1.00  0.00    -0.000 C 
BRANCH   8   9
ATOM      9  C   UNL     1      18.659  -2.618  -3.801  1.00  0.00    -0.000 C 
BRANCH   9  10
ATOM     10  C   UNL     1      19.626  -2.217  -4.928  1.00  0.00    -0.003 C 
ATOM     11  C   UNL     1      19.088  -2.548  -6.319  1.00  0.00     0.004 C 
ENDBRANCH   9  10
ENDBRANCH   8   9
ENDBRANCH   7   8
ENDBRANCH   1   7
TORSDOF 7
ENDMDL
MODEL 5
REMARK VINA RESULT:    -4.610      1.605      3.469
REMARK INTER + INTRA:          -6.937
REMARK INTER:                  -6.301
REMARK INTRA:                  -0.635
REMARK UNBOUND:                -0.439
REMARK SMILES CCCCCCCCC(=O)[O-]
REMARK SMILES IDX 6 1 7 2 8 3 9 4 10 5 11 6 5 7 4 8 3 9 2 10 1 11
REMARK H PARENT
REMARK Flexibility Score: inf
ROOT
ATOM      1  C   UNL     1      18.871  -2.015  -6.242  1.00  0.00     0.000 C 
ENDROOT
BRANCH   1   2
ATOM      2  C   UNL     1      19.692  -2.457  -5.018  1.00  0.00     0.006 C 
BRANCH   2   3
ATOM      3  C   UNL     1      18.801  -2.775  -3.810  1.00  0.00     0.053 C 
BRANCH   3   4
ATOM      4  C   UNL     1      18.339  -1.528  -3.120  1.00  0.00     0.041 C 
ATOM      5  O   UNL     1      18.947  -0.441  -3.300  1.00  0.00    -0.550 OA
ATOM      6  O   UNL     1      17.214  -1.561  -2.304  1.00  0.00    -0.550 OA
ENDBRANCH   3   4
ENDBRANCH   2   3
ENDBRANCH   1   2
BRANCH   1   7
ATOM      7  C   UNL     1      19.368  -0.689  -6.845  1.00  0.00     0.000 C 
BRANCH   7   8
ATOM      8  C   UNL     1      18.266   0.357  -7.113  1.00  0.00    -0.000 C 
BRANCH   8   9
ATOM      9  C   UNL     1      16.845  -0.065  -6.691  1.00  0.00    -0.000 C 
BRANCH   9  10
ATOM     10  C   UNL     1      16.302   0.653  -5.443  1.00  0.00    -0.003 C 
ATOM     11  C   UNL     1      15.278  -0.182  -4.676  1.00  0.00     0.004 C 
ENDBRANCH   9  10
ENDBRANCH   8   9
ENDBRANCH   7   8
ENDBRANCH   1   7
TORSDOF 7
ENDMDL
MODEL 6
REMARK VINA RESULT:    -4.551      2.612      4.681
REMARK INTER + INTRA:          -6.853
REMARK INTER:                  -6.132
REMARK INTRA:                  -0.721
REMARK UNBOUND:                -0.439
REMARK SMILES CCCCCCCCC(=O)[O-]
REMARK SMILES IDX 6 1 7 2 8 3 9 4 10 5 11 6 5 7 4 8 3 9 2 10 1 11
REMARK H PARENT
REMARK Flexibility Score: inf
ROOT
ATOM      1  C   UNL     1      19.372  -2.727  -5.057  1.00  0.00     0.000 C 
ENDROOT
BRANCH   1   2
ATOM      2  C   UNL     1      19.053  -2.065  -6.408  1.00  0.00     0.006 C 
BRANCH   2   3
ATOM      3  C   UNL     1      19.262  -0.546  -6.370  1.00  0.00     0.053 C 
BRANCH   3   4
ATOM      4  C   UNL     1      20.605  -0.159  -6.907  1.00  0.00     0.041 C 
ATOM      5  O   UNL     1      21.437   0.434  -6.171  1.00  0.00    -0.550 OA
ATOM      6  O   UNL     1      20.953  -0.484  -8.213  1.00  0.00    -0.550 OA
ENDBRANCH   3   4
ENDBRANCH   2   3
ENDBRANCH   1   2
BRANCH   1   7
ATOM      7  C   UNL     1      19.076  -1.809  -3.858  1.00  0.00     0.000 C 
BRANCH   7   8
ATOM      8  C   UNL     1      17.727  -2.070  -3.158  1.00  0.00    -0.000 C 
BRANCH   8   9
ATOM      9  C   UNL     1      16.746  -0.882  -3.164  1.00  0.00    -0.000 C 
BRANCH   9  10
ATOM     10  C   UNL     1      15.816  -0.818  -4.388  1.00  0.00    -0.003 C 
ATOM     11  C   UNL     1      15.867   0.531  -5.104  1.00  0.00     0.004 C 
ENDBRANCH   9  10
ENDBRANCH   8   9
ENDBRANCH   7   8
ENDBRANCH   1   7
TORSDOF 7
ENDMDL
MODEL 7
REMARK VINA RESULT:    -4.509     10.357     11.772
REMARK INTER + INTRA:          -6.794
REMARK INTER:                  -6.176
REMARK INTRA:                  -0.618
REMARK UNBOUND:                -0.439
REMARK SMILES CCCCCCCCC(=O)[O-]
REMARK SMILES IDX 6 1 7 2 8 3 9 4 10 5 11 6 5 7 4 8 3 9 2 10 1 11
REMARK H PARENT
REMARK Flexibility Score: inf
ROOT
ATOM      1  C   UNL     1      30.065  -6.482  -4.349  1.00  0.00     0.000 C 
ENDROOT
BRANCH   1   2
ATOM      2  C   UNL     1      28.949  -7.538  -4.428  1.00  0.00     0.006 C 
BRANCH   2   3
ATOM      3  C   UNL     1      29.069  -8.412  -5.683  1.00  0.00     0.053 C 
BRANCH   3   4
ATOM      4  C   UNL     1      28.113  -7.979  -6.751  1.00  0.00     0.041 C 
ATOM      5  O   UNL     1      28.440  -8.055  -7.965  1.00  0.00    -0.550 OA
ATOM      6  O   UNL     1      26.845  -7.523  -6.408  1.00  0.00    -0.550 OA
ENDBRANCH   3   4
ENDBRANCH   2   3
ENDBRANCH   1   2
BRANCH   1   7
ATOM      7  C   UNL     1      29.520  -5.047  -4.237  1.00  0.00     0.000 C 
BRANCH   7   8
ATOM      8  C   UNL     1      28.519  -4.643  -5.338  1.00  0.00    -0.000 C 
BRANCH   8   9
ATOM      9  C   UNL     1      27.130  -4.206  -4.833  1.00  0.00    -0.000 C 
BRANCH   9  10
ATOM     10  C   UNL     1      26.755  -4.732  -3.437  1.00  0.00    -0.003 C 
ATOM     11  C   UNL     1      25.983  -6.050  -3.486  1.00  0.00     0.004 C 
ENDBRANCH   9  10
ENDBRANCH   8   9
ENDBRANCH   7   8
ENDBRANCH   1   7
TORSDOF 7
ENDMDL
MODEL 8
REMARK VINA RESULT:    -4.464     10.366     11.749
REMARK INTER + INTRA:          -6.730
REMARK INTER:                  -5.941
REMARK INTRA:                  -0.789
REMARK UNBOUND:                -0.439
REMARK SMILES CCCCCCCCC(=O)[O-]
REMARK SMILES IDX 6 1 7 2 8 3 9 4 10 5 11 6 5 7 4 8 3 9 2 10 1 11
REMARK H PARENT
REMARK Flexibility Score: inf
ROOT
ATOM      1  C   UNL     1      28.945  -8.109  -4.919  1.00  0.00     0.000 C 
ENDROOT
BRANCH   1   2
ATOM      2  C   UNL     1      30.125  -7.161  -4.641  1.00  0.00     0.006 C 
BRANCH   2   3
ATOM      3  C   UNL     1      29.935  -6.368  -3.342  1.00  0.00     0.053 C 
BRANCH   3   4
ATOM      4  C   UNL     1      29.737  -4.907  -3.610  1.00  0.00     0.041 C 
ATOM      5  O   UNL     1      29.554  -4.106  -2.656  1.00  0.00    -0.550 OA
ATOM      6  O   UNL     1      29.788  -4.426  -4.913  1.00  0.00    -0.550 OA
ENDBRANCH   3   4
ENDBRANCH   2   3
ENDBRANCH   1   2
BRANCH   1   7
ATOM      7  C   UNL     1      28.271  -7.840  -6.275  1.00  0.00     0.000 C 
BRANCH   7   8
ATOM      8  C   UNL     1      26.792  -7.410  -6.193  1.00  0.00    -0.000 C 
BRANCH   8   9
ATOM      9  C   UNL     1      26.542  -5.895  -6.322  1.00  0.00    -0.000 C 
BRANCH   9  10
ATOM     10  C   UNL     1      26.347  -5.156  -4.987  1.00  0.00    -0.003 C 
ATOM     11  C   UNL     1      26.158  -6.105  -3.804  1.00  0.00     0.004 C 
ENDBRANCH   9  10
ENDBRANCH   8   9
ENDBRANCH   7   8
ENDBRANCH   1   7
TORSDOF 7
ENDMDL
MODEL 9
REMARK VINA RESULT:    -4.457      9.888     11.244
REMARK INTER + INTRA:          -6.720
REMARK INTER:                  -5.989
REMARK INTRA:                  -0.732
REMARK UNBOUND:                -0.439
REMARK SMILES CCCCCCCCC(=O)[O-]
REMARK SMILES IDX 6 1 7 2 8 3 9 4 10 5 11 6 5 7 4 8 3 9 2 10 1 11
REMARK H PARENT
REMARK Flexibility Score: inf
ROOT
ATOM      1  C   UNL     1      26.436  -6.209  -4.070  1.00  0.00     0.000 C 
ENDROOT
BRANCH   1   2
ATOM      2  C   UNL     1      27.827  -6.854  -3.949  1.00  0.00     0.006 C 
BRANCH   2   3
ATOM      3  C   UNL     1      28.660  -6.672  -5.224  1.00  0.00     0.053 C 
BRANCH   3   4
ATOM      4  C   UNL     1      28.544  -7.855  -6.135  1.00  0.00     0.041 C 
ATOM      5  O   UNL     1      27.806  -7.802  -7.154  1.00  0.00    -0.550 OA
ATOM      6  O   UNL     1      29.277  -9.007  -5.877  1.00  0.00    -0.550 OA
ENDBRANCH   3   4
ENDBRANCH   2   3
ENDBRANCH   1   2
BRANCH   1   7
ATOM      7  C   UNL     1      26.374  -5.123  -5.158  1.00  0.00     0.000 C 
BRANCH   7   8
ATOM      8  C   UNL     1      26.409  -3.673  -4.632  1.00  0.00    -0.000 C 
BRANCH   8   9
ATOM      9  C   UNL     1      27.818  -3.097  -4.391  1.00  0.00    -0.000 C 
BRANCH   9  10
ATOM     10  C   UNL     1      28.307  -3.174  -2.934  1.00  0.00    -0.003 C 
ATOM     11  C   UNL     1      27.171  -3.057  -1.919  1.00  0.00     0.004 C 
ENDBRANCH   9  10
ENDBRANCH   8   9
ENDBRANCH   7   8
ENDBRANCH   1   7
TORSDOF 7
ENDMDL
