MODEL 1
REMARK VINA RESULT:    -3.782      0.000      0.000
REMARK INTER + INTRA:          -4.647
REMARK INTER:                  -4.556
REMARK INTRA:                  -0.092
REMARK UNBOUND:                -0.092
REMARK SMILES CCCCCO
REMARK SMILES IDX 4 1 3 2 2 3 1 4 5 5 6 6
REMARK H PARENT 6 7
REMARK Flexibility Score: inf
ROOT
ATOM      1  C   UNL     1      20.642  -3.857  14.111  1.00  0.00     0.028 C 
ENDROOT
BRANCH   1   2
ATOM      2  C   UNL     1      20.084  -3.013  15.273  1.00  0.00     0.002 C 
BRANCH   2   3
ATOM      3  C   UNL     1      18.749  -3.511  15.854  1.00  0.00    -0.003 C 
ATOM      4  C   UNL     1      18.902  -4.165  17.227  1.00  0.00     0.004 C 
ENDBRANCH   2   3
ENDBRANCH   1   2
BRANCH   1   5
ATOM      5  C   UNL     1      21.373  -5.126  14.561  1.00  0.00     0.156 C 
BRANCH   5   6
ATOM      6  O   UNL     1      20.590  -6.257  14.299  1.00  0.00    -0.396 OA
ATOM      7  H   UNL     1      20.849  -6.565  13.391  1.00  0.00     0.210 HD
ENDBRANCH   5   6
ENDBRANCH   1   5
TORSDOF 4
ENDMDL
MODEL 2
REMARK VINA RESULT:    -3.781      1.757      2.999
REMARK INTER + INTRA:          -4.646
REMARK INTER:                  -4.570
REMARK INTRA:                  -0.076
REMARK UNBOUND:                -0.092
REMARK SMILES CCCCCO
REMARK SMILES IDX 4 1 3 2 2 3 1 4 5 5 6 6
REMARK H PARENT 6 7
REMARK Flexibility Score: inf
ROOT
ATOM      1  C   UNL     1      18.976  -4.184  17.133  1.00  0.00     0.028 C 
ENDROOT
BRANCH   1   2
ATOM      2  C   UNL     1      18.533  -3.797  15.708  1.00  0.00     0.002 C 
BRANCH   2   3
ATOM      3  C   UNL     1      19.302  -4.503  14.577  1.00  0.00    -0.003 C 
ATOM      4  C   UNL     1      20.503  -3.700  14.080  1.00  0.00     0.004 C 
ENDBRANCH   2   3
ENDBRANCH   1   2
BRANCH   1   5
ATOM      5  C   UNL     1      19.720  -5.521  17.209  1.00  0.00     0.156 C 
BRANCH   5   6
ATOM      6  O   UNL     1      20.979  -5.344  17.797  1.00  0.00    -0.396 OA
ATOM      7  H   UNL     1      21.643  -5.508  17.077  1.00  0.00     0.210 HD
ENDBRANCH   5   6
ENDBRANCH   1   5
TORSDOF 4
ENDMDL
MODEL 3
REMARK VINA RESULT:    -3.733      2.020      2.989
REMARK INTER + INTRA:          -4.588
REMARK INTER:                  -4.546
REMARK INTRA:                  -0.042
REMARK UNBOUND:                -0.092
REMARK SMILES CCCCCO
REMARK SMILES IDX 4 1 3 2 2 3 1 4 5 5 6 6
REMARK H PARENT 6 7
REMARK Flexibility Score: inf
ROOT
ATOM      1  C   UNL     1      19.877  -5.106  17.267  1.00  0.00     0.028 C 
ENDROOT
BRANCH   1   2
ATOM      2  C   UNL     1      19.079  -3.974  16.590  1.00  0.00     0.002 C 
BRANCH   2   3
ATOM      3  C   UNL     1      19.925  -2.996  15.756  1.00  0.00    -0.003 C 
ATOM      4  C   UNL     1      20.459  -3.617  14.466  1.00  0.00     0.004 C 
ENDBRANCH   2   3
ENDBRANCH   1   2
BRANCH   1   5
ATOM      5  C   UNL     1      19.517  -6.507  16.760  1.00  0.00     0.156 C 
BRANCH   5   6
ATOM      6  O   UNL     1      19.200  -7.346  17.835  1.00  0.00    -0.396 OA
ATOM      7  H   UNL     1      20.063  -7.574  18.270  1.00  0.00     0.210 HD
ENDBRANCH   5   6
ENDBRANCH   1   5
TORSDOF 4
ENDMDL
MODEL 4
REMARK VINA RESULT:    -3.706      1.717      3.197
REMARK INTER + INTRA:          -4.556
REMARK INTER:                  -4.459
REMARK INTRA:                  -0.096
REMARK UNBOUND:                -0.092
REMARK SMILES CCCCCO
REMARK SMILES IDX 4 1 3 2 2 3 1 4 5 5 6 6
REMARK H PARENT 6 7
REMARK Flexibility Score: inf
ROOT
ATOM      1  C   UNL     1      18.441  -3.903  15.644  1.00  0.00     0.028 C 
ENDROOT
BRANCH   1   2
ATOM      2  C   UNL     1      19.273  -4.826  14.732  1.00  0.00     0.002 C 
BRANCH   2   3
ATOM      3  C   UNL     1      20.608  -4.230  14.252  1.00  0.00    -0.003 C 
ATOM      4  C   UNL     1      21.822  -5.044  14.701  1.00  0.00     0.004 C 
ENDBRANCH   2   3
ENDBRANCH   1   2
BRANCH   1   5
ATOM      5  C   UNL     1      18.933  -3.857  17.094  1.00  0.00     0.156 C 
BRANCH   5   6
ATOM      6  O   UNL     1      19.219  -5.150  17.552  1.00  0.00    -0.396 OA
ATOM      7  H   UNL     1      19.690  -5.607  16.806  1.00  0.00     0.210 HD
ENDBRANCH   5   6
ENDBRANCH   1   5
TORSDOF 4
ENDMDL
MODEL 5
REMARK VINA RESULT:    -3.630      1.354      1.964
REMARK INTER + INTRA:          -4.464
REMARK INTER:                  -4.360
REMARK INTRA:                  -0.104
REMARK UNBOUND:                -0.092
REMARK SMILES CCCCCO
REMARK SMILES IDX 4 1 3 2 2 3 1 4 5 5 6 6
REMARK H PARENT 6 7
REMARK Flexibility Score: inf
ROOT
ATOM      1  C   UNL     1      19.008  -3.883  14.977  1.00  0.00     0.028 C 
ENDROOT
BRANCH   1   2
ATOM      2  C   UNL     1      18.908  -3.874  16.515  1.00  0.00     0.002 C 
BRANCH   2   3
ATOM      3  C   UNL     1      19.808  -4.898  17.229  1.00  0.00    -0.003 C 
ATOM      4  C   UNL     1      19.450  -6.345  16.893  1.00  0.00     0.004 C 
ENDBRANCH   2   3
ENDBRANCH   1   2
BRANCH   1   5
ATOM      5  C   UNL     1      20.416  -3.596  14.446  1.00  0.00     0.156 C 
BRANCH   5   6
ATOM      6  O   UNL     1      20.939  -4.732  13.816  1.00  0.00    -0.396 OA
ATOM      7  H   UNL     1      21.232  -4.435  12.914  1.00  0.00     0.210 HD
ENDBRANCH   5   6
ENDBRANCH   1   5
TORSDOF 4
ENDMDL
MODEL 6
REMARK VINA RESULT:    -3.627      1.892      2.429
REMARK INTER + INTRA:          -4.460
REMARK INTER:                  -4.422
REMARK INTRA:                  -0.039
REMARK UNBOUND:                -0.092
REMARK SMILES CCCCCO
REMARK SMILES IDX 4 1 3 2 2 3 1 4 5 5 6 6
REMARK H PARENT 6 7
REMARK Flexibility Score: inf
ROOT
ATOM      1  C   UNL     1      19.383  -6.302  16.431  1.00  0.00     0.028 C 
ENDROOT
BRANCH   1   2
ATOM      2  C   UNL     1      19.694  -4.994  17.186  1.00  0.00     0.002 C 
BRANCH   2   3
ATOM      3  C   UNL     1      18.776  -3.810  16.836  1.00  0.00    -0.003 C 
ATOM      4  C   UNL     1      18.309  -3.826  15.380  1.00  0.00     0.004 C 
ENDBRANCH   2   3
ENDBRANCH   1   2
BRANCH   1   5
ATOM      5  C   UNL     1      20.551  -6.824  15.588  1.00  0.00     0.156 C 
BRANCH   5   6
ATOM      6  O   UNL     1      20.466  -8.215  15.449  1.00  0.00    -0.396 OA
ATOM      7  H   UNL     1      19.763  -8.512  16.084  1.00  0.00     0.210 HD
ENDBRANCH   5   6
ENDBRANCH   1   5
TORSDOF 4
ENDMDL
MODEL 7
REMARK VINA RESULT:    -3.603      1.463      1.849
REMARK INTER + INTRA:          -4.432
REMARK INTER:                  -4.338
REMARK INTRA:                  -0.094
REMARK UNBOUND:                -0.092
REMARK SMILES CCCCCO
REMARK SMILES IDX 4 1 3 2 2 3 1 4 5 5 6 6
REMARK H PARENT 6 7
REMARK Flexibility Score: inf
ROOT
ATOM      1  C   UNL     1      21.545  -4.300  16.306  1.00  0.00     0.028 C 
ENDROOT
BRANCH   1   2
ATOM      2  C   UNL     1      20.224  -4.852  16.876  1.00  0.00     0.002 C 
BRANCH   2   3
ATOM      3  C   UNL     1      19.046  -3.862  16.858  1.00  0.00    -0.003 C 
ATOM      4  C   UNL     1      18.339  -3.801  15.504  1.00  0.00     0.004 C 
ENDBRANCH   2   3
ENDBRANCH   1   2
BRANCH   1   5
ATOM      5  C   UNL     1      22.062  -5.068  15.085  1.00  0.00     0.156 C 
BRANCH   5   6
ATOM      6  O   UNL     1      21.383  -4.661  13.930  1.00  0.00    -0.396 OA
ATOM      7  H   UNL     1      21.574  -5.351  13.242  1.00  0.00     0.210 HD
ENDBRANCH   5   6
ENDBRANCH   1   5
TORSDOF 4
ENDMDL
MODEL 8
REMARK VINA RESULT:    -3.416      1.389      1.939
REMARK INTER + INTRA:          -4.206
REMARK INTER:                  -4.151
REMARK INTRA:                  -0.055
REMARK UNBOUND:                -0.092
REMARK SMILES CCCCCO
REMARK SMILES IDX 4 1 3 2 2 3 1 4 5 5 6 6
REMARK H PARENT 6 7
REMARK Flexibility Score: inf
ROOT
ATOM      1  C   UNL     1      18.597  -5.487  14.997  1.00  0.00     0.028 C 
ENDROOT
BRANCH   1   2
ATOM      2  C   UNL     1      18.356  -4.028  15.431  1.00  0.00     0.002 C 
BRANCH   2   3
ATOM      3  C   UNL     1      19.342  -3.493  16.484  1.00  0.00    -0.003 C 
ATOM      4  C   UNL     1      20.294  -2.434  15.928  1.00  0.00     0.004 C 
ENDBRANCH   2   3
ENDBRANCH   1   2
BRANCH   1   5
ATOM      5  C   UNL     1      19.971  -6.033  15.398  1.00  0.00     0.156 C 
BRANCH   5   6
ATOM      6  O   UNL     1      20.762  -6.243  14.260  1.00  0.00    -0.396 OA
ATOM      7  H   UNL     1      21.633  -5.803  14.447  1.00  0.00     0.210 HD
ENDBRANCH   5   6
ENDBRANCH   1   5
TORSDOF 4
ENDMDL
MODEL 9
REMARK VINA RESULT:    -3.237      1.931      2.211
REMARK INTER + INTRA:          -3.990
REMARK INTER:                  -3.926
REMARK INTRA:                  -0.065
REMARK UNBOUND:                -0.092
REMARK SMILES CCCCCO
REMARK SMILES IDX 4 1 3 2 2 3 1 4 5 5 6 6
REMARK H PARENT 6 7
REMARK Flexibility Score: inf
ROOT
ATOM      1  C   UNL     1      21.659  -4.150  16.501  1.00  0.00     0.028 C 
ENDROOT
BRANCH   1   2
ATOM      2  C   UNL     1      20.801  -3.286  15.556  1.00  0.00     0.002 C 
BRANCH   2   3
ATOM      3  C   UNL     1      19.737  -4.060  14.758  1.00  0.00    -0.003 C 
ATOM      4  C   UNL     1      18.315  -3.807  15.255  1.00  0.00     0.004 C 
ENDBRANCH   2   3
ENDBRANCH   1   2
BRANCH   1   5
ATOM      5  C   UNL     1      21.409  -5.655  16.364  1.00  0.00     0.156 C 
BRANCH   5   6
ATOM      6  O   UNL     1      21.223  -6.234  17.626  1.00  0.00    -0.396 OA
ATOM      7  H   UNL     1      20.932  -7.168  17.458  1.00  0.00     0.210 HD
ENDBRANCH   5   6
ENDBRANCH   1   5
TORSDOF 4
ENDMDL
