MODEL 1
REMARK VINA RESULT:    -8.272      0.000      0.000
REMARK INTER + INTRA:         -10.040
REMARK INTER:                  -9.723
REMARK INTRA:                  -0.317
REMARK UNBOUND:                -0.317
REMARK SMILES O=c1cc(-c2ccc(O)c(O)c2)oc2cc(O)cc(O)c12
REMARK SMILES IDX 4 1 3 2 2 3 1 4 21 5 19 6 18 7 16 8 15 9 14 10 13 11 5 12
REMARK SMILES IDX 6 13 7 14 8 15 12 16 10 17 9 18 11 20 20 22 17 24
REMARK H PARENT 9 19 11 21 20 23 17 25
REMARK Flexibility Score: inf
ROOT
ATOM      1  C   UNL     1       9.459   1.650 -32.454  1.00  0.00     0.138 A 
ATOM      2  C   UNL     1       9.936   2.052 -31.199  1.00  0.00     0.100 A 
ATOM      3  C   UNL     1      11.280   2.396 -31.050  1.00  0.00     0.197 A 
ATOM      4  O   UNL     1      11.665   2.812 -29.927  1.00  0.00    -0.289 OA
ATOM      5  C   UNL     1      12.156   2.308 -32.158  1.00  0.00     0.107 A 
ATOM      6  C   UNL     1      13.554   2.595 -32.113  1.00  0.00     0.134 A 
ATOM      7  C   UNL     1      14.298   2.584 -33.300  1.00  0.00     0.093 A 
ATOM      8  C   UNL     1      13.707   2.239 -34.519  1.00  0.00     0.123 A 
ATOM      9  C   UNL     1      12.356   1.905 -34.563  1.00  0.00     0.094 A 
ATOM     10  C   UNL     1      11.579   1.939 -33.403  1.00  0.00     0.146 A 
ATOM     11  O   UNL     1      10.291   1.628 -33.491  1.00  0.00    -0.456 OA
ENDROOT
BRANCH   1  12
ATOM     12  C   UNL     1       8.039   1.271 -32.669  1.00  0.00     0.021 A 
ATOM     13  C   UNL     1       7.169   1.195 -31.568  1.00  0.00     0.016 A 
ATOM     14  C   UNL     1       5.827   0.850 -31.745  1.00  0.00     0.051 A 
ATOM     15  C   UNL     1       5.328   0.583 -33.026  1.00  0.00     0.157 A 
ATOM     16  C   UNL     1       7.528   1.015 -33.957  1.00  0.00     0.062 A 
ATOM     17  C   UNL     1       6.183   0.670 -34.137  1.00  0.00     0.158 A 
BRANCH  15  18
ATOM     18  O   UNL     1       3.989   0.237 -33.199  1.00  0.00    -0.504 OA
ATOM     19  H   UNL     1       3.335   0.245 -32.425  1.00  0.00     0.293 HD
ENDBRANCH  15  18
BRANCH  17  20
ATOM     20  O   UNL     1       5.715   0.422 -35.427  1.00  0.00    -0.504 OA
ATOM     21  H   UNL     1       5.916  -0.442 -35.916  1.00  0.00     0.293 HD
ENDBRANCH  17  20
ENDBRANCH   1  12
BRANCH   6  22
ATOM     22  O   UNL     1      14.258   2.868 -30.938  1.00  0.00    -0.507 OA
ATOM     23  H   UNL     1      14.782   2.187 -30.408  1.00  0.00     0.293 HD
ENDBRANCH   6  22
BRANCH   8  24
ATOM     24  O   UNL     1      14.459   2.217 -35.691  1.00  0.00    -0.508 OA
ATOM     25  H   UNL     1      15.467   2.319 -35.676  1.00  0.00     0.293 HD
ENDBRANCH   8  24
TORSDOF 5
ENDMDL
MODEL 2
REMARK VINA RESULT:    -7.923      2.934      5.735
REMARK INTER + INTRA:          -9.629
REMARK INTER:                  -9.314
REMARK INTRA:                  -0.316
REMARK UNBOUND:                -0.317
REMARK SMILES O=c1cc(-c2ccc(O)c(O)c2)oc2cc(O)cc(O)c12
REMARK SMILES IDX 4 1 3 2 2 3 1 4 21 5 19 6 18 7 16 8 15 9 14 10 13 11 5 12
REMARK SMILES IDX 6 13 7 14 8 15 12 16 10 17 9 18 11 20 20 22 17 24
REMARK H PARENT 9 19 11 21 20 23 17 25
REMARK Flexibility Score: inf
ROOT
ATOM      1  C   UNL     1       8.738   1.236 -30.502  1.00  0.00     0.138 A 
ATOM      2  C   UNL     1       7.448   1.159 -31.045  1.00  0.00     0.100 A 
ATOM      3  C   UNL     1       7.274   1.255 -32.426  1.00  0.00     0.197 A 
ATOM      4  O   UNL     1       6.112   1.121 -32.889  1.00  0.00    -0.289 OA
ATOM      5  C   UNL     1       8.397   1.458 -33.264  1.00  0.00     0.107 A 
ATOM      6  C   UNL     1       8.335   1.610 -34.682  1.00  0.00     0.134 A 
ATOM      7  C   UNL     1       9.524   1.689 -35.419  1.00  0.00     0.093 A 
ATOM      8  C   UNL     1      10.769   1.683 -34.783  1.00  0.00     0.123 A 
ATOM      9  C   UNL     1      10.836   1.589 -33.396  1.00  0.00     0.094 A 
ATOM     10  C   UNL     1       9.671   1.474 -32.635  1.00  0.00     0.146 A 
ATOM     11  O   UNL     1       9.780   1.372 -31.315  1.00  0.00    -0.456 OA
ENDROOT
BRANCH   1  12
ATOM     12  C   UNL     1       8.980   1.141 -29.039  1.00  0.00     0.021 A 
ATOM     13  C   UNL     1       7.895   1.238 -28.151  1.00  0.00     0.016 A 
ATOM     14  C   UNL     1       8.096   1.143 -26.772  1.00  0.00     0.051 A 
ATOM     15  C   UNL     1       9.383   0.942 -26.256  1.00  0.00     0.157 A 
ATOM     16  C   UNL     1      10.270   0.926 -28.515  1.00  0.00     0.062 A 
ATOM     17  C   UNL     1      10.473   0.830 -27.134  1.00  0.00     0.158 A 
BRANCH  15  18
ATOM     18  O   UNL     1       9.580   0.851 -24.880  1.00  0.00    -0.504 OA
ATOM     19  H   UNL     1       9.627   1.677 -24.294  1.00  0.00     0.293 HD
ENDBRANCH  15  18
BRANCH  17  20
ATOM     20  O   UNL     1      11.765   0.618 -26.652  1.00  0.00    -0.504 OA
ATOM     21  H   UNL     1      12.275   1.332 -26.145  1.00  0.00     0.293 HD
ENDBRANCH  17  20
ENDBRANCH   1  12
BRANCH   6  22
ATOM     22  O   UNL     1       7.144   1.713 -35.406  1.00  0.00    -0.507 OA
ATOM     23  H   UNL     1       6.778   0.999 -36.019  1.00  0.00     0.293 HD
ENDBRANCH   6  22
BRANCH   8  24
ATOM     24  O   UNL     1      11.944   1.777 -35.525  1.00  0.00    -0.508 OA
ATOM     25  H   UNL     1      12.540   2.594 -35.471  1.00  0.00     0.293 HD
ENDBRANCH   8  24
TORSDOF 5
ENDMDL
MODEL 3
REMARK VINA RESULT:    -7.831      2.462      6.802
REMARK INTER + INTRA:          -9.521
REMARK INTER:                  -9.204
REMARK INTRA:                  -0.317
REMARK UNBOUND:                -0.317
REMARK SMILES O=c1cc(-c2ccc(O)c(O)c2)oc2cc(O)cc(O)c12
REMARK SMILES IDX 4 1 3 2 2 3 1 4 21 5 19 6 18 7 16 8 15 9 14 10 13 11 5 12
REMARK SMILES IDX 6 13 7 14 8 15 12 16 10 17 9 18 11 20 20 22 17 24
REMARK H PARENT 9 19 11 21 20 23 17 25
REMARK Flexibility Score: inf
ROOT
ATOM      1  C   UNL     1       9.993   1.603 -31.965  1.00  0.00     0.138 A 
ATOM      2  C   UNL     1       8.633   1.516 -32.293  1.00  0.00     0.100 A 
ATOM      3  C   UNL     1       7.695   1.279 -31.288  1.00  0.00     0.197 A 
ATOM      4  O   UNL     1       6.477   1.267 -31.604  1.00  0.00    -0.289 OA
ATOM      5  C   UNL     1       8.125   1.099 -29.952  1.00  0.00     0.107 A 
ATOM      6  C   UNL     1       7.261   0.813 -28.852  1.00  0.00     0.134 A 
ATOM      7  C   UNL     1       7.789   0.770 -27.555  1.00  0.00     0.093 A 
ATOM      8  C   UNL     1       9.157   0.944 -27.326  1.00  0.00     0.123 A 
ATOM      9  C   UNL     1      10.014   1.170 -28.399  1.00  0.00     0.094 A 
ATOM     10  C   UNL     1       9.515   1.253 -29.701  1.00  0.00     0.146 A 
ATOM     11  O   UNL     1      10.365   1.485 -30.695  1.00  0.00    -0.456 OA
ENDROOT
BRANCH   1  12
ATOM     12  C   UNL     1      11.034   1.852 -32.995  1.00  0.00     0.021 A 
ATOM     13  C   UNL     1      10.679   1.840 -34.354  1.00  0.00     0.016 A 
ATOM     14  C   UNL     1      11.638   2.080 -35.341  1.00  0.00     0.051 A 
ATOM     15  C   UNL     1      12.967   2.345 -34.987  1.00  0.00     0.157 A 
ATOM     16  C   UNL     1      12.370   2.132 -32.645  1.00  0.00     0.062 A 
ATOM     17  C   UNL     1      13.332   2.374 -33.632  1.00  0.00     0.158 A 
BRANCH  15  18
ATOM     18  O   UNL     1      13.921   2.582 -35.974  1.00  0.00    -0.504 OA
ATOM     19  H   UNL     1      14.785   3.071 -35.771  1.00  0.00     0.293 HD
ENDBRANCH  15  18
BRANCH  17  20
ATOM     20  O   UNL     1      14.644   2.646 -33.245  1.00  0.00    -0.504 OA
ATOM     21  H   UNL     1      15.425   2.546 -33.883  1.00  0.00     0.293 HD
ENDBRANCH  17  20
ENDBRANCH   1  12
BRANCH   6  22
ATOM     22  O   UNL     1       5.897   0.540 -28.980  1.00  0.00    -0.507 OA
ATOM     23  H   UNL     1       5.394   0.512 -29.854  1.00  0.00     0.293 HD
ENDBRANCH   6  22
BRANCH   8  24
ATOM     24  O   UNL     1       9.672   0.885 -26.033  1.00  0.00    -0.508 OA
ATOM     25  H   UNL     1      10.226   1.641 -25.648  1.00  0.00     0.293 HD
ENDBRANCH   8  24
TORSDOF 5
ENDMDL
MODEL 4
REMARK VINA RESULT:    -7.685      1.627      7.176
REMARK INTER + INTRA:          -9.351
REMARK INTER:                  -9.036
REMARK INTRA:                  -0.314
REMARK UNBOUND:                -0.317
REMARK SMILES O=c1cc(-c2ccc(O)c(O)c2)oc2cc(O)cc(O)c12
REMARK SMILES IDX 4 1 3 2 2 3 1 4 21 5 19 6 18 7 16 8 15 9 14 10 13 11 5 12
REMARK SMILES IDX 6 13 7 14 8 15 12 16 10 17 9 18 11 20 20 22 17 24
REMARK H PARENT 9 19 11 21 20 23 17 25
REMARK Flexibility Score: inf
ROOT
ATOM      1  C   UNL     1      10.280   1.814 -33.548  1.00  0.00     0.138 A 
ATOM      2  C   UNL     1      10.434   1.705 -34.937  1.00  0.00     0.100 A 
ATOM      3  C   UNL     1       9.364   1.266 -35.717  1.00  0.00     0.197 A 
ATOM      4  O   UNL     1       9.512   1.238 -36.966  1.00  0.00    -0.289 OA
ATOM      5  C   UNL     1       8.143   0.906 -35.098  1.00  0.00     0.107 A 
ATOM      6  C   UNL     1       6.998   0.408 -35.790  1.00  0.00     0.134 A 
ATOM      7  C   UNL     1       5.806   0.195 -35.085  1.00  0.00     0.093 A 
ATOM      8  C   UNL     1       5.736   0.404 -33.705  1.00  0.00     0.123 A 
ATOM      9  C   UNL     1       6.864   0.839 -33.014  1.00  0.00     0.094 A 
ATOM     10  C   UNL     1       8.058   1.094 -33.692  1.00  0.00     0.146 A 
ATOM     11  O   UNL     1       9.106   1.521 -32.997  1.00  0.00    -0.456 OA
ENDROOT
BRANCH   1  12
ATOM     12  C   UNL     1      11.386   2.274 -32.669  1.00  0.00     0.021 A 
ATOM     13  C   UNL     1      12.702   2.280 -33.161  1.00  0.00     0.016 A 
ATOM     14  C   UNL     1      13.759   2.716 -32.357  1.00  0.00     0.051 A 
ATOM     15  C   UNL     1      13.517   3.163 -31.052  1.00  0.00     0.157 A 
ATOM     16  C   UNL     1      11.148   2.736 -31.360  1.00  0.00     0.062 A 
ATOM     17  C   UNL     1      12.204   3.175 -30.554  1.00  0.00     0.158 A 
BRANCH  15  18
ATOM     18  O   UNL     1      14.573   3.595 -30.252  1.00  0.00    -0.504 OA
ATOM     19  H   UNL     1      14.872   4.564 -30.245  1.00  0.00     0.293 HD
ENDBRANCH  15  18
BRANCH  17  20
ATOM     20  O   UNL     1      11.929   3.624 -29.262  1.00  0.00    -0.504 OA
ATOM     21  H   UNL     1      12.655   3.741 -28.566  1.00  0.00     0.293 HD
ENDBRANCH  17  20
ENDBRANCH   1  12
BRANCH   6  22
ATOM     22  O   UNL     1       6.985   0.085 -37.149  1.00  0.00    -0.507 OA
ATOM     23  H   UNL     1       7.720   0.311 -37.802  1.00  0.00     0.293 HD
ENDBRANCH   6  22
BRANCH   8  24
ATOM     24  O   UNL     1       4.550   0.174 -33.012  1.00  0.00    -0.508 OA
ATOM     25  H   UNL     1       3.740  -0.229 -33.466  1.00  0.00     0.293 HD
ENDBRANCH   8  24
TORSDOF 5
ENDMDL
MODEL 5
REMARK VINA RESULT:    -7.629     13.710     14.295
REMARK INTER + INTRA:          -9.285
REMARK INTER:                  -8.988
REMARK INTRA:                  -0.297
REMARK UNBOUND:                -0.317
REMARK SMILES O=c1cc(-c2ccc(O)c(O)c2)oc2cc(O)cc(O)c12
REMARK SMILES IDX 4 1 3 2 2 3 1 4 21 5 19 6 18 7 16 8 15 9 14 10 13 11 5 12
REMARK SMILES IDX 6 13 7 14 8 15 12 16 10 17 9 18 11 20 20 22 17 24
REMARK H PARENT 9 19 11 21 20 23 17 25
REMARK Flexibility Score: inf
ROOT
ATOM      1  C   UNL     1      11.413 -10.290 -25.019  1.00  0.00     0.138 A 
ATOM      2  C   UNL     1      11.699 -10.255 -23.647  1.00  0.00     0.100 A 
ATOM      3  C   UNL     1      12.610  -9.319 -23.157  1.00  0.00     0.197 A 
ATOM      4  O   UNL     1      12.800  -9.270 -21.914  1.00  0.00    -0.289 OA
ATOM      5  C   UNL     1      13.259  -8.434 -24.051  1.00  0.00     0.107 A 
ATOM      6  C   UNL     1      14.236  -7.465 -23.668  1.00  0.00     0.134 A 
ATOM      7  C   UNL     1      14.725  -6.565 -24.624  1.00  0.00     0.093 A 
ATOM      8  C   UNL     1      14.317  -6.639 -25.959  1.00  0.00     0.123 A 
ATOM      9  C   UNL     1      13.406  -7.615 -26.351  1.00  0.00     0.094 A 
ATOM     10  C   UNL     1      12.873  -8.505 -25.416  1.00  0.00     0.146 A 
ATOM     11  O   UNL     1      11.995  -9.412 -25.829  1.00  0.00    -0.456 OA
ENDROOT
BRANCH   1  12
ATOM     12  C   UNL     1      10.452 -11.267 -25.595  1.00  0.00     0.021 A 
ATOM     13  C   UNL     1      10.238 -11.289 -26.983  1.00  0.00     0.016 A 
ATOM     14  C   UNL     1       9.346 -12.203 -27.550  1.00  0.00     0.051 A 
ATOM     15  C   UNL     1       8.660 -13.117 -26.740  1.00  0.00     0.157 A 
ATOM     16  C   UNL     1       9.769 -12.197 -24.787  1.00  0.00     0.062 A 
ATOM     17  C   UNL     1       8.876 -13.115 -25.353  1.00  0.00     0.158 A 
BRANCH  15  18
ATOM     18  O   UNL     1       7.770 -14.026 -27.308  1.00  0.00    -0.504 OA
ATOM     19  H   UNL     1       7.713 -14.157 -28.311  1.00  0.00     0.293 HD
ENDBRANCH  15  18
BRANCH  17  20
ATOM     20  O   UNL     1       8.217 -14.019 -24.520  1.00  0.00    -0.504 OA
ATOM     21  H   UNL     1       8.507 -14.181 -23.563  1.00  0.00     0.293 HD
ENDBRANCH  17  20
ENDBRANCH   1  12
BRANCH   6  22
ATOM     22  O   UNL     1      14.773  -7.362 -22.382  1.00  0.00    -0.507 OA
ATOM     23  H   UNL     1      14.876  -8.132 -21.737  1.00  0.00     0.293 HD
ENDBRANCH   6  22
BRANCH   8  24
ATOM     24  O   UNL     1      14.821  -5.748 -26.904  1.00  0.00    -0.508 OA
ATOM     25  H   UNL     1      14.209  -5.210 -27.506  1.00  0.00     0.293 HD
ENDBRANCH   8  24
TORSDOF 5
ENDMDL
MODEL 6
REMARK VINA RESULT:    -7.564      3.005      6.413
REMARK INTER + INTRA:          -9.208
REMARK INTER:                  -8.890
REMARK INTRA:                  -0.318
REMARK UNBOUND:                -0.317
REMARK SMILES O=c1cc(-c2ccc(O)c(O)c2)oc2cc(O)cc(O)c12
REMARK SMILES IDX 4 1 3 2 2 3 1 4 21 5 19 6 18 7 16 8 15 9 14 10 13 11 5 12
REMARK SMILES IDX 6 13 7 14 8 15 12 16 10 17 9 18 11 20 20 22 17 24
REMARK H PARENT 9 19 11 21 20 23 17 25
REMARK Flexibility Score: inf
ROOT
ATOM      1  C   UNL     1      10.402   1.654 -30.570  1.00  0.00     0.138 A 
ATOM      2  C   UNL     1      11.156   2.041 -29.454  1.00  0.00     0.100 A 
ATOM      3  C   UNL     1      10.637   1.854 -28.173  1.00  0.00     0.197 A 
ATOM      4  O   UNL     1      11.362   2.154 -27.189  1.00  0.00    -0.289 OA
ATOM      5  C   UNL     1       9.343   1.303 -28.011  1.00  0.00     0.107 A 
ATOM      6  C   UNL     1       8.697   1.105 -26.753  1.00  0.00     0.134 A 
ATOM      7  C   UNL     1       7.462   0.444 -26.711  1.00  0.00     0.093 A 
ATOM      8  C   UNL     1       6.825   0.030 -27.883  1.00  0.00     0.123 A 
ATOM      9  C   UNL     1       7.423   0.268 -29.117  1.00  0.00     0.094 A 
ATOM     10  C   UNL     1       8.670   0.894 -29.193  1.00  0.00     0.146 A 
ATOM     11  O   UNL     1       9.213   1.089 -30.389  1.00  0.00    -0.456 OA
ENDROOT
BRANCH   1  12
ATOM     12  C   UNL     1      10.905   1.831 -31.957  1.00  0.00     0.021 A 
ATOM     13  C   UNL     1      12.159   2.430 -32.166  1.00  0.00     0.016 A 
ATOM     14  C   UNL     1      12.658   2.600 -33.460  1.00  0.00     0.051 A 
ATOM     15  C   UNL     1      11.917   2.166 -34.567  1.00  0.00     0.157 A 
ATOM     16  C   UNL     1      10.171   1.385 -33.073  1.00  0.00     0.062 A 
ATOM     17  C   UNL     1      10.669   1.553 -34.370  1.00  0.00     0.158 A 
BRANCH  15  18
ATOM     18  O   UNL     1      12.416   2.339 -35.856  1.00  0.00    -0.504 OA
ATOM     19  H   UNL     1      11.826   2.657 -36.616  1.00  0.00     0.293 HD
ENDBRANCH  15  18
BRANCH  17  20
ATOM     20  O   UNL     1       9.912   1.099 -35.450  1.00  0.00    -0.504 OA
ATOM     21  H   UNL     1      10.267   0.415 -36.107  1.00  0.00     0.293 HD
ENDBRANCH  17  20
ENDBRANCH   1  12
BRANCH   6  22
ATOM     22  O   UNL     1       9.207   1.554 -25.533  1.00  0.00    -0.507 OA
ATOM     23  H   UNL     1       9.114   2.495 -25.180  1.00  0.00     0.293 HD
ENDBRANCH   6  22
BRANCH   8  24
ATOM     24  O   UNL     1       5.590  -0.613 -27.830  1.00  0.00    -0.508 OA
ATOM     25  H   UNL     1       4.972  -0.642 -28.632  1.00  0.00     0.293 HD
ENDBRANCH   8  24
TORSDOF 5
ENDMDL
MODEL 7
REMARK VINA RESULT:    -7.529     13.105     14.953
REMARK INTER + INTRA:          -9.167
REMARK INTER:                  -8.902
REMARK INTRA:                  -0.264
REMARK UNBOUND:                -0.317
REMARK SMILES O=c1cc(-c2ccc(O)c(O)c2)oc2cc(O)cc(O)c12
REMARK SMILES IDX 4 1 3 2 2 3 1 4 21 5 19 6 18 7 16 8 15 9 14 10 13 11 5 12
REMARK SMILES IDX 6 13 7 14 8 15 12 16 10 17 9 18 11 20 20 22 17 24
REMARK H PARENT 9 19 11 21 20 23 17 25
REMARK Flexibility Score: inf
ROOT
ATOM      1  C   UNL     1       8.906 -11.354 -28.751  1.00  0.00     0.138 A 
ATOM      2  C   UNL     1       9.545 -11.998 -29.820  1.00  0.00     0.100 A 
ATOM      3  C   UNL     1       8.983 -11.942 -31.095  1.00  0.00     0.197 A 
ATOM      4  O   UNL     1       9.611 -12.478 -32.045  1.00  0.00    -0.289 OA
ATOM      5  C   UNL     1       7.759 -11.260 -31.295  1.00  0.00     0.107 A 
ATOM      6  C   UNL     1       7.073 -11.172 -32.544  1.00  0.00     0.134 A 
ATOM      7  C   UNL     1       5.927 -10.372 -32.646  1.00  0.00     0.093 A 
ATOM      8  C   UNL     1       5.410  -9.707 -31.531  1.00  0.00     0.123 A 
ATOM      9  C   UNL     1       6.042  -9.832 -30.297  1.00  0.00     0.094 A 
ATOM     10  C   UNL     1       7.206 -10.594 -30.169  1.00  0.00     0.146 A 
ATOM     11  O   UNL     1       7.786 -10.675 -28.977  1.00  0.00    -0.456 OA
ENDROOT
BRANCH   1  12
ATOM     12  C   UNL     1       9.460 -11.383 -27.373  1.00  0.00     0.021 A 
ATOM     13  C   UNL     1      10.393 -10.408 -26.982  1.00  0.00     0.016 A 
ATOM     14  C   UNL     1      10.921 -10.409 -25.689  1.00  0.00     0.051 A 
ATOM     15  C   UNL     1      10.520 -11.378 -24.761  1.00  0.00     0.157 A 
ATOM     16  C   UNL     1       9.050 -12.347 -26.431  1.00  0.00     0.062 A 
ATOM     17  C   UNL     1       9.577 -12.349 -25.135  1.00  0.00     0.158 A 
BRANCH  15  18
ATOM     18  O   UNL     1      11.050 -11.377 -23.472  1.00  0.00    -0.504 OA
ATOM     19  H   UNL     1      10.671 -11.968 -22.742  1.00  0.00     0.293 HD
ENDBRANCH  15  18
BRANCH  17  20
ATOM     20  O   UNL     1       9.148 -13.321 -24.231  1.00  0.00    -0.504 OA
ATOM     21  H   UNL     1       8.713 -14.184 -24.534  1.00  0.00     0.293 HD
ENDBRANCH  17  20
ENDBRANCH   1  12
BRANCH   6  22
ATOM     22  O   UNL     1       7.457 -11.862 -33.697  1.00  0.00    -0.507 OA
ATOM     23  H   UNL     1       6.889 -11.961 -34.525  1.00  0.00     0.293 HD
ENDBRANCH   6  22
BRANCH   8  24
ATOM     24  O   UNL     1       4.262  -8.927 -31.640  1.00  0.00    -0.508 OA
ATOM     25  H   UNL     1       3.413  -9.158 -31.137  1.00  0.00     0.293 HD
ENDBRANCH   8  24
TORSDOF 5
ENDMDL
MODEL 8
REMARK VINA RESULT:    -7.496     13.588     14.225
REMARK INTER + INTRA:          -9.128
REMARK INTER:                  -8.828
REMARK INTRA:                  -0.300
REMARK UNBOUND:                -0.317
REMARK SMILES O=c1cc(-c2ccc(O)c(O)c2)oc2cc(O)cc(O)c12
REMARK SMILES IDX 4 1 3 2 2 3 1 4 21 5 19 6 18 7 16 8 15 9 14 10 13 11 5 12
REMARK SMILES IDX 6 13 7 14 8 15 12 16 10 17 9 18 11 20 20 22 17 24
REMARK H PARENT 9 19 11 21 20 23 17 25
REMARK Flexibility Score: inf
ROOT
ATOM      1  C   UNL     1      11.711 -10.072 -26.260  1.00  0.00     0.138 A 
ATOM      2  C   UNL     1      11.794  -8.937 -27.078  1.00  0.00     0.100 A 
ATOM      3  C   UNL     1      12.788  -7.987 -26.842  1.00  0.00     0.197 A 
ATOM      4  O   UNL     1      12.876  -7.011 -27.630  1.00  0.00    -0.289 OA
ATOM      5  C   UNL     1      13.687  -8.163 -25.762  1.00  0.00     0.107 A 
ATOM      6  C   UNL     1      14.714  -7.240 -25.402  1.00  0.00     0.134 A 
ATOM      7  C   UNL     1      15.617  -7.576 -24.385  1.00  0.00     0.093 A 
ATOM      8  C   UNL     1      15.491  -8.773 -23.675  1.00  0.00     0.123 A 
ATOM      9  C   UNL     1      14.458  -9.654 -23.983  1.00  0.00     0.094 A 
ATOM     10  C   UNL     1      13.562  -9.365 -25.015  1.00  0.00     0.146 A 
ATOM     11  O   UNL     1      12.600 -10.240 -25.287  1.00  0.00    -0.456 OA
ENDROOT
BRANCH   1  12
ATOM     12  C   UNL     1      10.672 -11.113 -26.466  1.00  0.00     0.021 A 
ATOM     13  C   UNL     1      10.284 -11.455 -27.773  1.00  0.00     0.016 A 
ATOM     14  C   UNL     1       9.315 -12.437 -27.992  1.00  0.00     0.051 A 
ATOM     15  C   UNL     1       8.723 -13.101 -26.911  1.00  0.00     0.157 A 
ATOM     16  C   UNL     1      10.081 -11.794 -25.383  1.00  0.00     0.062 A 
ATOM     17  C   UNL     1       9.111 -12.779 -25.600  1.00  0.00     0.158 A 
BRANCH  15  18
ATOM     18  O   UNL     1       7.755 -14.078 -27.133  1.00  0.00    -0.504 OA
ATOM     19  H   UNL     1       7.798 -14.981 -26.675  1.00  0.00     0.293 HD
ENDBRANCH  15  18
BRANCH  17  20
ATOM     20  O   UNL     1       8.549 -13.430 -24.502  1.00  0.00    -0.504 OA
ATOM     21  H   UNL     1       8.980 -14.242 -24.079  1.00  0.00     0.293 HD
ENDBRANCH  17  20
ENDBRANCH   1  12
BRANCH   6  22
ATOM     22  O   UNL     1      14.876  -5.982 -25.989  1.00  0.00    -0.507 OA
ATOM     23  H   UNL     1      14.427  -5.136 -25.673  1.00  0.00     0.293 HD
ENDBRANCH   6  22
BRANCH   8  24
ATOM     24  O   UNL     1      16.385  -9.090 -22.655  1.00  0.00    -0.508 OA
ATOM     25  H   UNL     1      16.064  -9.350 -21.730  1.00  0.00     0.293 HD
ENDBRANCH   8  24
TORSDOF 5
ENDMDL
MODEL 9
REMARK VINA RESULT:    -7.245      8.717     10.987
REMARK INTER + INTRA:          -8.833
REMARK INTER:                  -8.519
REMARK INTRA:                  -0.314
REMARK UNBOUND:                -0.317
REMARK SMILES O=c1cc(-c2ccc(O)c(O)c2)oc2cc(O)cc(O)c12
REMARK SMILES IDX 4 1 3 2 2 3 1 4 21 5 19 6 18 7 16 8 15 9 14 10 13 11 5 12
REMARK SMILES IDX 6 13 7 14 8 15 12 16 10 17 9 18 11 20 20 22 17 24
REMARK H PARENT 9 19 11 21 20 23 17 25
REMARK Flexibility Score: inf
ROOT
ATOM      1  C   UNL     1       8.283  -5.949 -28.308  1.00  0.00     0.138 A 
ATOM      2  C   UNL     1       9.097  -7.004 -27.872  1.00  0.00     0.100 A 
ATOM      3  C   UNL     1       8.782  -8.313 -28.236  1.00  0.00     0.197 A 
ATOM      4  O   UNL     1       9.565  -9.232 -27.883  1.00  0.00    -0.289 OA
ATOM      5  C   UNL     1       7.629  -8.569 -29.016  1.00  0.00     0.107 A 
ATOM      6  C   UNL     1       7.188  -9.868 -29.413  1.00  0.00     0.134 A 
ATOM      7  C   UNL     1       6.096  -9.989 -30.282  1.00  0.00     0.093 A 
ATOM      8  C   UNL     1       5.393  -8.863 -30.719  1.00  0.00     0.123 A 
ATOM      9  C   UNL     1       5.783  -7.596 -30.294  1.00  0.00     0.094 A 
ATOM     10  C   UNL     1       6.889  -7.438 -29.455  1.00  0.00     0.146 A 
ATOM     11  O   UNL     1       7.237  -6.211 -29.084  1.00  0.00    -0.456 OA
ENDROOT
BRANCH   1  12
ATOM     12  C   UNL     1       8.571  -4.536 -27.949  1.00  0.00     0.021 A 
ATOM     13  C   UNL     1       9.460  -4.257 -26.897  1.00  0.00     0.016 A 
ATOM     14  C   UNL     1       9.753  -2.937 -26.546  1.00  0.00     0.051 A 
ATOM     15  C   UNL     1       9.170  -1.873 -27.246  1.00  0.00     0.157 A 
ATOM     16  C   UNL     1       7.998  -3.461 -28.657  1.00  0.00     0.062 A 
ATOM     17  C   UNL     1       8.291  -2.138 -28.308  1.00  0.00     0.158 A 
BRANCH  15  18
ATOM     18  O   UNL     1       9.463  -0.557 -26.892  1.00  0.00    -0.504 OA
ATOM     19  H   UNL     1       9.616   0.159 -27.592  1.00  0.00     0.293 HD
ENDBRANCH  15  18
BRANCH  17  20
ATOM     20  O   UNL     1       7.703  -1.101 -29.032  1.00  0.00    -0.504 OA
ATOM     21  H   UNL     1       8.068  -0.793 -29.925  1.00  0.00     0.293 HD
ENDBRANCH  17  20
ENDBRANCH   1  12
BRANCH   6  22
ATOM     22  O   UNL     1       7.766 -11.059 -28.966  1.00  0.00    -0.507 OA
ATOM     23  H   UNL     1       7.549 -11.513 -28.092  1.00  0.00     0.293 HD
ENDBRANCH   6  22
BRANCH   8  24
ATOM     24  O   UNL     1       4.300  -8.996 -31.571  1.00  0.00    -0.508 OA
ATOM     25  H   UNL     1       4.169  -8.383 -32.367  1.00  0.00     0.293 HD
ENDBRANCH   8  24
TORSDOF 5
ENDMDL
