MODEL 1
REMARK VINA RESULT:    -4.570      0.000      0.000
REMARK INTER + INTRA:          -8.267
REMARK INTER:                  -7.242
REMARK INTRA:                  -1.025
REMARK UNBOUND:                -1.025
REMARK SMILES CCCCCCCCCCCC(=O)[O-]
REMARK SMILES IDX 7 1 8 2 9 3 10 4 11 5 12 6 13 7 14 8 6 9 5 10 4 11 3 12 2 13
REMARK SMILES IDX 1 14
REMARK H PARENT
REMARK Flexibility Score: inf
ROOT
ATOM      1  C   UNL     1      48.859 -41.235  -4.807  1.00  0.00     0.000 C 
ENDROOT
BRANCH   1   2
ATOM      2  C   UNL     1      49.465 -41.882  -3.552  1.00  0.00     0.000 C 
BRANCH   2   3
ATOM      3  C   UNL     1      50.234 -40.874  -2.681  1.00  0.00     0.000 C 
BRANCH   3   4
ATOM      4  C   UNL     1      51.732 -40.805  -3.032  1.00  0.00     0.006 C 
BRANCH   4   5
ATOM      5  C   UNL     1      52.641 -41.625  -2.101  1.00  0.00     0.053 C 
BRANCH   5   6
ATOM      6  C   UNL     1      53.993 -41.000  -1.942  1.00  0.00     0.041 C 
ATOM      7  O   UNL     1      54.110 -39.747  -1.895  1.00  0.00    -0.550 OA
ATOM      8  O   UNL     1      55.119 -41.802  -1.812  1.00  0.00    -0.550 OA
ENDBRANCH   5   6
ENDBRANCH   4   5
ENDBRANCH   3   4
ENDBRANCH   2   3
ENDBRANCH   1   2
BRANCH   1   9
ATOM      9  C   UNL     1      48.247 -39.850  -4.526  1.00  0.00     0.000 C 
BRANCH   9  10
ATOM     10  C   UNL     1      46.711 -39.864  -4.556  1.00  0.00    -0.000 C 
BRANCH  10  11
ATOM     11  C   UNL     1      46.091 -39.408  -3.224  1.00  0.00    -0.000 C 
BRANCH  11  12
ATOM     12  C   UNL     1      46.446 -40.343  -2.057  1.00  0.00    -0.000 C 
BRANCH  12  13
ATOM     13  C   UNL     1      47.298 -39.652  -0.981  1.00  0.00    -0.003 C 
ATOM     14  C   UNL     1      47.454 -38.163  -1.276  1.00  0.00     0.004 C 
ENDBRANCH  12  13
ENDBRANCH  11  12
ENDBRANCH  10  11
ENDBRANCH   9  10
ENDBRANCH   1   9
TORSDOF 10
ENDMDL
MODEL 2
REMARK VINA RESULT:    -4.524      1.860      2.966
REMARK INTER + INTRA:          -8.194
REMARK INTER:                  -7.064
REMARK INTRA:                  -1.131
REMARK UNBOUND:                -1.025
REMARK SMILES CCCCCCCCCCCC(=O)[O-]
REMARK SMILES IDX 7 1 8 2 9 3 10 4 11 5 12 6 13 7 14 8 6 9 5 10 4 11 3 12 2 13
REMARK SMILES IDX 1 14
REMARK H PARENT
REMARK Flexibility Score: inf
ROOT
ATOM      1  C   UNL     1      48.373 -40.771  -4.604  1.00  0.00     0.000 C 
ENDROOT
BRANCH   1   2
ATOM      2  C   UNL     1      49.113 -41.135  -3.307  1.00  0.00     0.000 C 
BRANCH   2   3
ATOM      3  C   UNL     1      50.557 -41.599  -3.561  1.00  0.00     0.000 C 
BRANCH   3   4
ATOM      4  C   UNL     1      51.558 -41.014  -2.549  1.00  0.00     0.006 C 
BRANCH   4   5
ATOM      5  C   UNL     1      52.703 -41.965  -2.166  1.00  0.00     0.053 C 
BRANCH   5   6
ATOM      6  C   UNL     1      53.997 -41.236  -1.969  1.00  0.00     0.041 C 
ATOM      7  O   UNL     1      54.034 -39.979  -2.041  1.00  0.00    -0.550 OA
ATOM      8  O   UNL     1      55.156 -41.943  -1.672  1.00  0.00    -0.550 OA
ENDBRANCH   5   6
ENDBRANCH   4   5
ENDBRANCH   3   4
ENDBRANCH   2   3
ENDBRANCH   1   2
BRANCH   1   9
ATOM      9  C   UNL     1      47.515 -39.500  -4.463  1.00  0.00     0.000 C 
BRANCH   9  10
ATOM     10  C   UNL     1      48.278 -38.338  -3.808  1.00  0.00    -0.000 C 
BRANCH  10  11
ATOM     11  C   UNL     1      48.356 -37.099  -4.716  1.00  0.00    -0.000 C 
BRANCH  11  12
ATOM     12  C   UNL     1      49.718 -36.967  -5.417  1.00  0.00    -0.000 C 
BRANCH  12  13
ATOM     13  C   UNL     1      50.771 -37.935  -4.856  1.00  0.00    -0.003 C 
ATOM     14  C   UNL     1      51.381 -38.786  -5.966  1.00  0.00     0.004 C 
ENDBRANCH  12  13
ENDBRANCH  11  12
ENDBRANCH  10  11
ENDBRANCH   9  10
ENDBRANCH   1   9
TORSDOF 10
ENDMDL
MODEL 3
REMARK VINA RESULT:    -4.466      4.155      6.629
REMARK INTER + INTRA:          -8.102
REMARK INTER:                  -7.504
REMARK INTRA:                  -0.598
REMARK UNBOUND:                -1.025
REMARK SMILES CCCCCCCCCCCC(=O)[O-]
REMARK SMILES IDX 7 1 8 2 9 3 10 4 11 5 12 6 13 7 14 8 6 9 5 10 4 11 3 12 2 13
REMARK SMILES IDX 1 14
REMARK H PARENT
REMARK Flexibility Score: inf
ROOT
ATOM      1  C   UNL     1      49.318 -41.009  -4.876  1.00  0.00     0.000 C 
ENDROOT
BRANCH   1   2
ATOM      2  C   UNL     1      49.273 -39.477  -4.762  1.00  0.00     0.000 C 
BRANCH   2   3
ATOM      3  C   UNL     1      48.096 -38.983  -3.904  1.00  0.00     0.000 C 
BRANCH   3   4
ATOM      4  C   UNL     1      46.728 -39.416  -4.464  1.00  0.00     0.006 C 
BRANCH   4   5
ATOM      5  C   UNL     1      45.937 -40.362  -3.547  1.00  0.00     0.053 C 
BRANCH   5   6
ATOM      6  C   UNL     1      44.762 -39.681  -2.914  1.00  0.00     0.041 C 
ATOM      7  O   UNL     1      44.283 -40.116  -1.834  1.00  0.00    -0.550 OA
ATOM      8  O   UNL     1      44.218 -38.545  -3.500  1.00  0.00    -0.550 OA
ENDBRANCH   5   6
ENDBRANCH   4   5
ENDBRANCH   3   4
ENDBRANCH   2   3
ENDBRANCH   1   2
BRANCH   1   9
ATOM      9  C   UNL     1      49.530 -41.701  -3.517  1.00  0.00     0.000 C 
BRANCH   9  10
ATOM     10  C   UNL     1      50.993 -42.107  -3.281  1.00  0.00    -0.000 C 
BRANCH  10  11
ATOM     11  C   UNL     1      51.821 -40.982  -2.637  1.00  0.00    -0.000 C 
BRANCH  11  12
ATOM     12  C   UNL     1      53.079 -41.507  -1.928  1.00  0.00    -0.000 C 
BRANCH  12  13
ATOM     13  C   UNL     1      54.214 -40.473  -1.889  1.00  0.00    -0.003 C 
ATOM     14  C   UNL     1      53.755 -39.132  -2.455  1.00  0.00     0.004 C 
ENDBRANCH  12  13
ENDBRANCH  11  12
ENDBRANCH  10  11
ENDBRANCH   9  10
ENDBRANCH   1   9
TORSDOF 10
ENDMDL
MODEL 4
REMARK VINA RESULT:    -4.400      3.645      5.908
REMARK INTER + INTRA:          -7.996
REMARK INTER:                  -6.650
REMARK INTRA:                  -1.347
REMARK UNBOUND:                -1.025
REMARK SMILES CCCCCCCCCCCC(=O)[O-]
REMARK SMILES IDX 7 1 8 2 9 3 10 4 11 5 12 6 13 7 14 8 6 9 5 10 4 11 3 12 2 13
REMARK SMILES IDX 1 14
REMARK H PARENT
REMARK Flexibility Score: inf
ROOT
ATOM      1  C   UNL     1      50.070 -40.645  -2.706  1.00  0.00     0.000 C 
ENDROOT
BRANCH   1   2
ATOM      2  C   UNL     1      49.203 -41.539  -3.606  1.00  0.00     0.000 C 
BRANCH   2   3
ATOM      3  C   UNL     1      48.752 -40.824  -4.891  1.00  0.00     0.000 C 
BRANCH   3   4
ATOM      4  C   UNL     1      47.533 -39.912  -4.668  1.00  0.00     0.006 C 
BRANCH   4   5
ATOM      5  C   UNL     1      46.442 -40.517  -3.770  1.00  0.00     0.053 C 
BRANCH   5   6
ATOM      6  C   UNL     1      46.204 -39.694  -2.541  1.00  0.00     0.041 C 
ATOM      7  O   UNL     1      45.499 -38.652  -2.604  1.00  0.00    -0.550 OA
ATOM      8  O   UNL     1      46.732 -40.095  -1.321  1.00  0.00    -0.550 OA
ENDBRANCH   5   6
ENDBRANCH   4   5
ENDBRANCH   3   4
ENDBRANCH   2   3
ENDBRANCH   1   2
BRANCH   1   9
ATOM      9  C   UNL     1      51.540 -40.593  -3.158  1.00  0.00     0.000 C 
BRANCH   9  10
ATOM     10  C   UNL     1      52.067 -39.157  -3.303  1.00  0.00    -0.000 C 
BRANCH  10  11
ATOM     11  C   UNL     1      50.936 -38.131  -3.495  1.00  0.00    -0.000 C 
BRANCH  11  12
ATOM     12  C   UNL     1      50.757 -37.720  -4.965  1.00  0.00    -0.000 C 
BRANCH  12  13
ATOM     13  C   UNL     1      51.933 -38.156  -5.852  1.00  0.00    -0.003 C 
ATOM     14  C   UNL     1      51.482 -39.161  -6.908  1.00  0.00     0.004 C 
ENDBRANCH  12  13
ENDBRANCH  11  12
ENDBRANCH  10  11
ENDBRANCH   9  10
ENDBRANCH   1   9
TORSDOF 10
ENDMDL
MODEL 5
REMARK VINA RESULT:    -4.348      3.965      6.522
REMARK INTER + INTRA:          -7.915
REMARK INTER:                  -7.164
REMARK INTRA:                  -0.751
REMARK UNBOUND:                -1.025
REMARK SMILES CCCCCCCCCCCC(=O)[O-]
REMARK SMILES IDX 7 1 8 2 9 3 10 4 11 5 12 6 13 7 14 8 6 9 5 10 4 11 3 12 2 13
REMARK SMILES IDX 1 14
REMARK H PARENT
REMARK Flexibility Score: inf
ROOT
ATOM      1  C   UNL     1      50.338 -41.076  -4.016  1.00  0.00     0.000 C 
ENDROOT
BRANCH   1   2
ATOM      2  C   UNL     1      48.821 -41.300  -3.914  1.00  0.00     0.000 C 
BRANCH   2   3
ATOM      3  C   UNL     1      48.018 -40.291  -4.753  1.00  0.00     0.000 C 
BRANCH   3   4
ATOM      4  C   UNL     1      46.611 -40.032  -4.186  1.00  0.00     0.006 C 
BRANCH   4   5
ATOM      5  C   UNL     1      46.511 -40.149  -2.656  1.00  0.00     0.053 C 
BRANCH   5   6
ATOM      6  C   UNL     1      45.131 -39.848  -2.158  1.00  0.00     0.041 C 
ATOM      7  O   UNL     1      44.698 -40.407  -1.115  1.00  0.00    -0.550 OA
ATOM      8  O   UNL     1      44.335 -38.925  -2.825  1.00  0.00    -0.550 OA
ENDBRANCH   5   6
ENDBRANCH   4   5
ENDBRANCH   3   4
ENDBRANCH   2   3
ENDBRANCH   1   2
BRANCH   1   9
ATOM      9  C   UNL     1      50.705 -39.893  -4.930  1.00  0.00     0.000 C 
BRANCH   9  10
ATOM     10  C   UNL     1      51.588 -38.851  -4.226  1.00  0.00    -0.000 C 
BRANCH  10  11
ATOM     11  C   UNL     1      52.102 -39.339  -2.860  1.00  0.00    -0.000 C 
BRANCH  11  12
ATOM     12  C   UNL     1      53.591 -39.027  -2.644  1.00  0.00    -0.000 C 
BRANCH  12  13
ATOM     13  C   UNL     1      54.339 -40.165  -1.933  1.00  0.00    -0.003 C 
ATOM     14  C   UNL     1      53.500 -41.439  -1.904  1.00  0.00     0.004 C 
ENDBRANCH  12  13
ENDBRANCH  11  12
ENDBRANCH  10  11
ENDBRANCH   9  10
ENDBRANCH   1   9
TORSDOF 10
ENDMDL
MODEL 6
REMARK VINA RESULT:    -4.324     11.959     13.678
REMARK INTER + INTRA:          -7.876
REMARK INTER:                  -7.324
REMARK INTRA:                  -0.553
REMARK UNBOUND:                -1.025
REMARK SMILES CCCCCCCCCCCC(=O)[O-]
REMARK SMILES IDX 7 1 8 2 9 3 10 4 11 5 12 6 13 7 14 8 6 9 5 10 4 11 3 12 2 13
REMARK SMILES IDX 1 14
REMARK H PARENT
REMARK Flexibility Score: inf
ROOT
ATOM      1  C   UNL     1      50.746 -38.213   7.893  1.00  0.00     0.000 C 
ENDROOT
BRANCH   1   2
ATOM      2  C   UNL     1      51.405 -37.072   8.684  1.00  0.00     0.000 C 
BRANCH   2   3
ATOM      3  C   UNL     1      50.603 -35.761   8.609  1.00  0.00     0.000 C 
BRANCH   3   4
ATOM      4  C   UNL     1      50.214 -35.221   9.997  1.00  0.00     0.006 C 
BRANCH   4   5
ATOM      5  C   UNL     1      50.938 -33.926  10.400  1.00  0.00     0.053 C 
BRANCH   5   6
ATOM      6  C   UNL     1      50.803 -33.639  11.864  1.00  0.00     0.041 C 
ATOM      7  O   UNL     1      51.749 -33.094  12.493  1.00  0.00    -0.550 OA
ATOM      8  O   UNL     1      49.621 -33.943  12.527  1.00  0.00    -0.550 OA
ENDBRANCH   5   6
ENDBRANCH   4   5
ENDBRANCH   3   4
ENDBRANCH   2   3
ENDBRANCH   1   2
BRANCH   1   9
ATOM      9  C   UNL     1      49.429 -38.693   8.528  1.00  0.00     0.000 C 
BRANCH   9  10
ATOM     10  C   UNL     1      49.648 -39.454   9.845  1.00  0.00    -0.000 C 
BRANCH  10  11
ATOM     11  C   UNL     1      49.264 -40.939   9.739  1.00  0.00    -0.000 C 
BRANCH  11  12
ATOM     12  C   UNL     1      49.030 -41.386   8.287  1.00  0.00    -0.000 C 
BRANCH  12  13
ATOM     13  C   UNL     1      50.021 -42.470   7.833  1.00  0.00    -0.003 C 
ATOM     14  C   UNL     1      49.289 -43.668   7.237  1.00  0.00     0.004 C 
ENDBRANCH  12  13
ENDBRANCH  11  12
ENDBRANCH  10  11
ENDBRANCH   9  10
ENDBRANCH   1   9
TORSDOF 10
ENDMDL
MODEL 7
REMARK VINA RESULT:    -4.324     11.799     13.497
REMARK INTER + INTRA:          -7.876
REMARK INTER:                  -6.245
REMARK INTRA:                  -1.631
REMARK UNBOUND:                -1.025
REMARK SMILES CCCCCCCCCCCC(=O)[O-]
REMARK SMILES IDX 7 1 8 2 9 3 10 4 11 5 12 6 13 7 14 8 6 9 5 10 4 11 3 12 2 13
REMARK SMILES IDX 1 14
REMARK H PARENT
REMARK Flexibility Score: inf
ROOT
ATOM      1  C   UNL     1      50.975 -38.401   8.152  1.00  0.00     0.000 C 
ENDROOT
BRANCH   1   2
ATOM      2  C   UNL     1      51.744 -37.368   8.990  1.00  0.00     0.000 C 
BRANCH   2   3
ATOM      3  C   UNL     1      51.349 -37.401  10.476  1.00  0.00     0.000 C 
BRANCH   3   4
ATOM      4  C   UNL     1      50.387 -36.262  10.861  1.00  0.00     0.006 C 
BRANCH   4   5
ATOM      5  C   UNL     1      50.472 -35.024   9.954  1.00  0.00     0.053 C 
BRANCH   5   6
ATOM      6  C   UNL     1      51.109 -33.860  10.649  1.00  0.00     0.041 C 
ATOM      7  O   UNL     1      52.263 -33.970  11.142  1.00  0.00    -0.550 OA
ATOM      8  O   UNL     1      50.442 -32.643  10.723  1.00  0.00    -0.550 OA
ENDBRANCH   5   6
ENDBRANCH   4   5
ENDBRANCH   3   4
ENDBRANCH   2   3
ENDBRANCH   1   2
BRANCH   1   9
ATOM      9  C   UNL     1      49.706 -37.816   7.506  1.00  0.00     0.000 C 
BRANCH   9  10
ATOM     10  C   UNL     1      48.440 -38.615   7.856  1.00  0.00    -0.000 C 
BRANCH  10  11
ATOM     11  C   UNL     1      47.644 -37.982   9.010  1.00  0.00    -0.000 C 
BRANCH  11  12
ATOM     12  C   UNL     1      47.687 -38.830  10.291  1.00  0.00    -0.000 C 
BRANCH  12  13
ATOM     13  C   UNL     1      48.272 -40.230  10.056  1.00  0.00    -0.003 C 
ATOM     14  C   UNL     1      49.410 -40.521  11.031  1.00  0.00     0.004 C 
ENDBRANCH  12  13
ENDBRANCH  11  12
ENDBRANCH  10  11
ENDBRANCH   9  10
ENDBRANCH   1   9
TORSDOF 10
ENDMDL
MODEL 8
REMARK VINA RESULT:    -4.306      1.170      2.139
REMARK INTER + INTRA:          -7.848
REMARK INTER:                  -6.639
REMARK INTRA:                  -1.209
REMARK UNBOUND:                -1.025
REMARK SMILES CCCCCCCCCCCC(=O)[O-]
REMARK SMILES IDX 7 1 8 2 9 3 10 4 11 5 12 6 13 7 14 8 6 9 5 10 4 11 3 12 2 13
REMARK SMILES IDX 1 14
REMARK H PARENT
REMARK Flexibility Score: inf
ROOT
ATOM      1  C   UNL     1      47.432 -40.003  -4.635  1.00  0.00     0.000 C 
ENDROOT
BRANCH   1   2
ATOM      2  C   UNL     1      48.731 -40.809  -4.799  1.00  0.00     0.000 C 
BRANCH   2   3
ATOM      3  C   UNL     1      49.193 -41.458  -3.483  1.00  0.00     0.000 C 
BRANCH   3   4
ATOM      4  C   UNL     1      50.711 -41.708  -3.444  1.00  0.00     0.006 C 
BRANCH   4   5
ATOM      5  C   UNL     1      51.521 -40.596  -2.757  1.00  0.00     0.053 C 
BRANCH   5   6
ATOM      6  C   UNL     1      52.860 -41.079  -2.293  1.00  0.00     0.041 C 
ATOM      7  O   UNL     1      53.058 -42.309  -2.101  1.00  0.00    -0.550 OA
ATOM      8  O   UNL     1      53.899 -40.177  -2.105  1.00  0.00    -0.550 OA
ENDBRANCH   5   6
ENDBRANCH   4   5
ENDBRANCH   3   4
ENDBRANCH   2   3
ENDBRANCH   1   2
BRANCH   1   9
ATOM      9  C   UNL     1      46.545 -40.532  -3.493  1.00  0.00     0.000 C 
BRANCH   9  10
ATOM     10  C   UNL     1      46.213 -39.451  -2.451  1.00  0.00    -0.000 C 
BRANCH  10  11
ATOM     11  C   UNL     1      47.197 -39.451  -1.268  1.00  0.00    -0.000 C 
BRANCH  11  12
ATOM     12  C   UNL     1      47.759 -38.052  -0.969  1.00  0.00    -0.000 C 
BRANCH  12  13
ATOM     13  C   UNL     1      48.029 -37.236  -2.242  1.00  0.00    -0.003 C 
ATOM     14  C   UNL     1      49.442 -37.481  -2.762  1.00  0.00     0.004 C 
ENDBRANCH  12  13
ENDBRANCH  11  12
ENDBRANCH  10  11
ENDBRANCH   9  10
ENDBRANCH   1   9
TORSDOF 10
ENDMDL
MODEL 9
REMARK VINA RESULT:    -4.299     11.769     13.441
REMARK INTER + INTRA:          -7.837
REMARK INTER:                  -6.467
REMARK INTRA:                  -1.370
REMARK UNBOUND:                -1.025
REMARK SMILES CCCCCCCCCCCC(=O)[O-]
REMARK SMILES IDX 7 1 8 2 9 3 10 4 11 5 12 6 13 7 14 8 6 9 5 10 4 11 3 12 2 13
REMARK SMILES IDX 1 14
REMARK H PARENT
REMARK Flexibility Score: inf
ROOT
ATOM      1  C   UNL     1      49.304 -38.672   7.629  1.00  0.00     0.000 C 
ENDROOT
BRANCH   1   2
ATOM      2  C   UNL     1      50.825 -38.750   7.837  1.00  0.00     0.000 C 
BRANCH   2   3
ATOM      3  C   UNL     1      51.365 -37.585   8.683  1.00  0.00     0.000 C 
BRANCH   3   4
ATOM      4  C   UNL     1      50.258 -36.618   9.142  1.00  0.00     0.006 C 
BRANCH   4   5
ATOM      5  C   UNL     1      50.674 -35.138   9.156  1.00  0.00     0.053 C 
BRANCH   5   6
ATOM      6  C   UNL     1      50.898 -34.630  10.547  1.00  0.00     0.041 C 
ATOM      7  O   UNL     1      50.246 -35.114  11.511  1.00  0.00    -0.550 OA
ATOM      8  O   UNL     1      51.850 -33.647  10.785  1.00  0.00    -0.550 OA
ENDBRANCH   5   6
ENDBRANCH   4   5
ENDBRANCH   3   4
ENDBRANCH   2   3
ENDBRANCH   1   2
BRANCH   1   9
ATOM      9  C   UNL     1      48.560 -39.882   8.222  1.00  0.00     0.000 C 
BRANCH   9  10
ATOM     10  C   UNL     1      49.461 -40.758   9.106  1.00  0.00    -0.000 C 
BRANCH  10  11
ATOM     11  C   UNL     1      49.177 -40.572  10.606  1.00  0.00    -0.000 C 
BRANCH  11  12
ATOM     12  C   UNL     1      48.062 -39.548  10.872  1.00  0.00    -0.000 C 
BRANCH  12  13
ATOM     13  C   UNL     1      48.467 -38.486  11.906  1.00  0.00    -0.003 C 
ATOM     14  C   UNL     1      49.967 -38.534  12.184  1.00  0.00     0.004 C 
ENDBRANCH  12  13
ENDBRANCH  11  12
ENDBRANCH  10  11
ENDBRANCH   9  10
ENDBRANCH   1   9
TORSDOF 10
ENDMDL
