MODEL 1
REMARK VINA RESULT:    -3.788      0.000      0.000
REMARK INTER + INTRA:          -7.017
REMARK INTER:                  -6.667
REMARK INTRA:                  -0.350
REMARK UNBOUND:                -0.350
REMARK SMILES CCCCCCCCCCCCCCC(=O)[O-]
REMARK SMILES IDX 9 1 10 2 11 3 12 4 13 5 14 6 15 7 16 8 17 9 8 10 7 11 6 12
REMARK SMILES IDX 5 13 4 14 3 15 2 16 1 17
REMARK H PARENT
REMARK Flexibility Score: inf
ROOT
ATOM      1  C   UNL     1    -116.401 -98.960  42.132  1.00  0.00     0.000 C 
ENDROOT
BRANCH   1   2
ATOM      2  C   UNL     1    -117.502 -98.570  43.139  1.00  0.00     0.000 C 
BRANCH   2   3
ATOM      3  C   UNL     1    -117.462 -99.330  44.477  1.00  0.00     0.000 C 
BRANCH   3   4
ATOM      4  C   UNL     1    -118.708 -99.086  45.341  1.00  0.00     0.000 C 
BRANCH   4   5
ATOM      5  C   UNL     1    -118.390 -98.144  46.511  1.00  0.00     0.006 C 
BRANCH   5   6
ATOM      6  C   UNL     1    -118.451 -96.667  46.100  1.00  0.00     0.053 C 
BRANCH   6   7
ATOM      7  C   UNL     1    -118.166 -95.755  47.254  1.00  0.00     0.041 C 
ATOM      8  O   UNL     1    -118.076 -94.513  47.073  1.00  0.00    -0.550 OA
ATOM      9  O   UNL     1    -118.035 -96.275  48.535  1.00  0.00    -0.550 OA
ENDBRANCH   6   7
ENDBRANCH   5   6
ENDBRANCH   4   5
ENDBRANCH   3   4
ENDBRANCH   2   3
ENDBRANCH   1   2
BRANCH   1  10
ATOM     10  C   UNL     1    -116.828 -99.964  41.046  1.00  0.00     0.000 C 
BRANCH  10  11
ATOM     11  C   UNL     1    -117.561 -99.296  39.870  1.00  0.00    -0.000 C 
BRANCH  11  12
ATOM     12  C   UNL     1    -117.174 -99.898  38.507  1.00  0.00    -0.000 C 
BRANCH  12  13
ATOM     13  C   UNL     1    -116.479 -98.923  37.533  1.00  0.00    -0.000 C 
BRANCH  13  14
ATOM     14  C   UNL     1    -116.417 -99.393  36.066  1.00  0.00    -0.000 C 
BRANCH  14  15
ATOM     15  C   UNL     1    -115.678 -98.439  35.111  1.00  0.00    -0.000 C 
BRANCH  15  16
ATOM     16  C   UNL     1    -116.307 -98.396  33.710  1.00  0.00    -0.003 C 
ATOM     17  C   UNL     1    -116.060 -97.047  33.040  1.00  0.00     0.004 C 
ENDBRANCH  15  16
ENDBRANCH  14  15
ENDBRANCH  13  14
ENDBRANCH  12  13
ENDBRANCH  11  12
ENDBRANCH  10  11
ENDBRANCH   1  10
TORSDOF 13
ENDMDL
MODEL 2
REMARK VINA RESULT:    -3.581      5.928     10.764
REMARK INTER + INTRA:          -6.653
REMARK INTER:                  -6.104
REMARK INTRA:                  -0.548
REMARK UNBOUND:                -0.350
REMARK SMILES CCCCCCCCCCCCCCC(=O)[O-]
REMARK SMILES IDX 9 1 10 2 11 3 12 4 13 5 14 6 15 7 16 8 17 9 8 10 7 11 6 12
REMARK SMILES IDX 5 13 4 14 3 15 2 16 1 17
REMARK H PARENT
REMARK Flexibility Score: inf
ROOT
ATOM      1  C   UNL     1    -116.483-100.125  36.890  1.00  0.00     0.000 C 
ENDROOT
BRANCH   1   2
ATOM      2  C   UNL     1    -116.272 -98.814  36.106  1.00  0.00     0.000 C 
BRANCH   2   3
ATOM      3  C   UNL     1    -115.325 -98.921  34.896  1.00  0.00     0.000 C 
BRANCH   3   4
ATOM      4  C   UNL     1    -116.074 -99.052  33.562  1.00  0.00     0.000 C 
BRANCH   4   5
ATOM      5  C   UNL     1    -117.407 -98.290  33.602  1.00  0.00     0.006 C 
BRANCH   5   6
ATOM      6  C   UNL     1    -117.442 -97.129  32.601  1.00  0.00     0.053 C 
BRANCH   6   7
ATOM      7  C   UNL     1    -118.145 -97.507  31.333  1.00  0.00     0.041 C 
ATOM      8  O   UNL     1    -117.986 -96.821  30.290  1.00  0.00    -0.550 OA
ATOM      9  O   UNL     1    -118.948 -98.640  31.294  1.00  0.00    -0.550 OA
ENDBRANCH   6   7
ENDBRANCH   5   6
ENDBRANCH   4   5
ENDBRANCH   3   4
ENDBRANCH   2   3
ENDBRANCH   1   2
BRANCH   1  10
ATOM     10  C   UNL     1    -117.442-100.027  38.090  1.00  0.00     0.000 C 
BRANCH  10  11
ATOM     11  C   UNL     1    -116.930 -99.078  39.187  1.00  0.00    -0.000 C 
BRANCH  11  12
ATOM     12  C   UNL     1    -117.194 -99.610  40.607  1.00  0.00    -0.000 C 
BRANCH  12  13
ATOM     13  C   UNL     1    -116.314 -98.994  41.714  1.00  0.00    -0.000 C 
BRANCH  13  14
ATOM     14  C   UNL     1    -116.927 -99.011  43.128  1.00  0.00    -0.000 C 
BRANCH  14  15
ATOM     15  C   UNL     1    -118.212 -98.179  43.287  1.00  0.00    -0.000 C 
BRANCH  15  16
ATOM     16  C   UNL     1    -118.648 -98.033  44.753  1.00  0.00    -0.003 C 
ATOM     17  C   UNL     1    -117.883 -99.000  45.652  1.00  0.00     0.004 C 
ENDBRANCH  15  16
ENDBRANCH  14  15
ENDBRANCH  13  14
ENDBRANCH  12  13
ENDBRANCH  11  12
ENDBRANCH  10  11
ENDBRANCH   1  10
TORSDOF 13
ENDMDL
MODEL 3
REMARK VINA RESULT:    -3.522      6.394     11.093
REMARK INTER + INTRA:          -6.548
REMARK INTER:                  -5.843
REMARK INTRA:                  -0.705
REMARK UNBOUND:                -0.350
REMARK SMILES CCCCCCCCCCCCCCC(=O)[O-]
REMARK SMILES IDX 9 1 10 2 11 3 12 4 13 5 14 6 15 7 16 8 17 9 8 10 7 11 6 12
REMARK SMILES IDX 5 13 4 14 3 15 2 16 1 17
REMARK H PARENT
REMARK Flexibility Score: inf
ROOT
ATOM      1  C   UNL     1    -115.240 -98.578  35.270  1.00  0.00     0.000 C 
ENDROOT
BRANCH   1   2
ATOM      2  C   UNL     1    -115.547 -99.676  34.230  1.00  0.00     0.000 C 
BRANCH   2   3
ATOM      3  C   UNL     1    -116.166 -99.173  32.913  1.00  0.00     0.000 C 
BRANCH   3   4
ATOM      4  C   UNL     1    -117.336-100.044  32.433  1.00  0.00     0.000 C 
BRANCH   4   5
ATOM      5  C   UNL     1    -118.633 -99.225  32.350  1.00  0.00     0.006 C 
BRANCH   5   6
ATOM      6  C   UNL     1    -118.369 -97.755  32.003  1.00  0.00     0.053 C 
BRANCH   6   7
ATOM      7  C   UNL     1    -118.606 -97.474  30.551  1.00  0.00     0.041 C 
ATOM      8  O   UNL     1    -118.355 -96.335  30.076  1.00  0.00    -0.550 OA
ATOM      9  O   UNL     1    -119.070 -98.481  29.715  1.00  0.00    -0.550 OA
ENDBRANCH   6   7
ENDBRANCH   5   6
ENDBRANCH   4   5
ENDBRANCH   3   4
ENDBRANCH   2   3
ENDBRANCH   1   2
BRANCH   1  10
ATOM     10  C   UNL     1    -116.059 -98.658  36.571  1.00  0.00     0.000 C 
BRANCH  10  11
ATOM     11  C   UNL     1    -116.668-100.050  36.809  1.00  0.00    -0.000 C 
BRANCH  11  12
ATOM     12  C   UNL     1    -117.497-100.125  38.105  1.00  0.00    -0.000 C 
BRANCH  12  13
ATOM     13  C   UNL     1    -117.181 -99.035  39.150  1.00  0.00    -0.000 C 
BRANCH  13  14
ATOM     14  C   UNL     1    -117.257 -99.494  40.620  1.00  0.00    -0.000 C 
BRANCH  14  15
ATOM     15  C   UNL     1    -118.002 -98.531  41.561  1.00  0.00    -0.000 C 
BRANCH  15  16
ATOM     16  C   UNL     1    -118.350 -99.171  42.913  1.00  0.00    -0.003 C 
ATOM     17  C   UNL     1    -117.205 -99.008  43.909  1.00  0.00     0.004 C 
ENDBRANCH  15  16
ENDBRANCH  14  15
ENDBRANCH  13  14
ENDBRANCH  12  13
ENDBRANCH  11  12
ENDBRANCH  10  11
ENDBRANCH   1  10
TORSDOF 13
ENDMDL
MODEL 4
REMARK VINA RESULT:    -3.431      5.057     10.482
REMARK INTER + INTRA:          -6.389
REMARK INTER:                  -5.856
REMARK INTRA:                  -0.532
REMARK UNBOUND:                -0.350
REMARK SMILES CCCCCCCCCCCCCCC(=O)[O-]
REMARK SMILES IDX 9 1 10 2 11 3 12 4 13 5 14 6 15 7 16 8 17 9 8 10 7 11 6 12
REMARK SMILES IDX 5 13 4 14 3 15 2 16 1 17
REMARK H PARENT
REMARK Flexibility Score: inf
ROOT
ATOM      1  C   UNL     1    -116.654 -99.091  41.645  1.00  0.00     0.000 C 
ENDROOT
BRANCH   1   2
ATOM      2  C   UNL     1    -117.178 -99.830  40.396  1.00  0.00     0.000 C 
BRANCH   2   3
ATOM      3  C   UNL     1    -117.190 -98.997  39.102  1.00  0.00     0.000 C 
BRANCH   3   4
ATOM      4  C   UNL     1    -116.888 -99.834  37.850  1.00  0.00     0.000 C 
BRANCH   4   5
ATOM      5  C   UNL     1    -116.233 -98.974  36.759  1.00  0.00     0.006 C 
BRANCH   5   6
ATOM      6  C   UNL     1    -115.693 -99.821  35.600  1.00  0.00     0.053 C 
BRANCH   6   7
ATOM      7  C   UNL     1    -115.759 -99.087  34.296  1.00  0.00     0.041 C 
ATOM      8  O   UNL     1    -115.772 -97.828  34.276  1.00  0.00    -0.550 OA
ATOM      9  O   UNL     1    -115.770 -99.794  33.100  1.00  0.00    -0.550 OA
ENDBRANCH   6   7
ENDBRANCH   5   6
ENDBRANCH   4   5
ENDBRANCH   3   4
ENDBRANCH   2   3
ENDBRANCH   1   2
BRANCH   1  10
ATOM     10  C   UNL     1    -117.483 -99.294  42.926  1.00  0.00     0.000 C 
BRANCH  10  11
ATOM     11  C   UNL     1    -117.952 -97.969  43.550  1.00  0.00    -0.000 C 
BRANCH  11  12
ATOM     12  C   UNL     1    -118.348 -98.114  45.031  1.00  0.00    -0.000 C 
BRANCH  12  13
ATOM     13  C   UNL     1    -117.935 -99.444  45.693  1.00  0.00    -0.000 C 
BRANCH  13  14
ATOM     14  C   UNL     1    -118.460 -99.655  47.127  1.00  0.00    -0.000 C 
BRANCH  14  15
ATOM     15  C   UNL     1    -117.460 -99.303  48.242  1.00  0.00    -0.000 C 
BRANCH  15  16
ATOM     16  C   UNL     1    -117.933 -98.133  49.118  1.00  0.00    -0.003 C 
ATOM     17  C   UNL     1    -117.544 -96.793  48.500  1.00  0.00     0.004 C 
ENDBRANCH  15  16
ENDBRANCH  14  15
ENDBRANCH  13  14
ENDBRANCH  12  13
ENDBRANCH  11  12
ENDBRANCH  10  11
ENDBRANCH   1  10
TORSDOF 13
ENDMDL
MODEL 5
REMARK VINA RESULT:    -3.351      3.873      6.927
REMARK INTER + INTRA:          -6.249
REMARK INTER:                  -5.486
REMARK INTRA:                  -0.762
REMARK UNBOUND:                -0.350
REMARK SMILES CCCCCCCCCCCCCCC(=O)[O-]
REMARK SMILES IDX 9 1 10 2 11 3 12 4 13 5 14 6 15 7 16 8 17 9 8 10 7 11 6 12
REMARK SMILES IDX 5 13 4 14 3 15 2 16 1 17
REMARK H PARENT
REMARK Flexibility Score: inf
ROOT
ATOM      1  C   UNL     1    -115.247 -98.531  34.950  1.00  0.00     0.000 C 
ENDROOT
BRANCH   1   2
ATOM      2  C   UNL     1    -115.433 -99.931  35.570  1.00  0.00     0.000 C 
BRANCH   2   3
ATOM      3  C   UNL     1    -116.669-100.087  36.473  1.00  0.00     0.000 C 
BRANCH   3   4
ATOM      4  C   UNL     1    -116.542 -99.320  37.798  1.00  0.00     0.000 C 
BRANCH   4   5
ATOM      5  C   UNL     1    -117.344-100.010  38.911  1.00  0.00     0.006 C 
BRANCH   5   6
ATOM      6  C   UNL     1    -117.695 -99.049  40.054  1.00  0.00     0.053 C 
BRANCH   6   7
ATOM      7  C   UNL     1    -117.112 -99.499  41.359  1.00  0.00     0.041 C 
ATOM      8  O   UNL     1    -117.857 -99.972  42.256  1.00  0.00    -0.550 OA
ATOM      9  O   UNL     1    -115.741 -99.428  41.570  1.00  0.00    -0.550 OA
ENDBRANCH   6   7
ENDBRANCH   5   6
ENDBRANCH   4   5
ENDBRANCH   3   4
ENDBRANCH   2   3
ENDBRANCH   1   2
BRANCH   1  10
ATOM     10  C   UNL     1    -116.507 -97.923  34.308  1.00  0.00     0.000 C 
BRANCH  10  11
ATOM     11  C   UNL     1    -116.182 -96.882  33.224  1.00  0.00    -0.000 C 
BRANCH  11  12
ATOM     12  C   UNL     1    -117.441 -96.341  32.521  1.00  0.00    -0.000 C 
BRANCH  12  13
ATOM     13  C   UNL     1    -117.696 -96.904  31.108  1.00  0.00    -0.000 C 
BRANCH  13  14
ATOM     14  C   UNL     1    -119.061 -97.594  30.912  1.00  0.00    -0.000 C 
BRANCH  14  15
ATOM     15  C   UNL     1    -118.998 -98.978  30.242  1.00  0.00    -0.000 C 
BRANCH  15  16
ATOM     16  C   UNL     1    -118.820-100.120  31.253  1.00  0.00    -0.003 C 
ATOM     17  C   UNL     1    -119.125 -99.649  32.673  1.00  0.00     0.004 C 
ENDBRANCH  15  16
ENDBRANCH  14  15
ENDBRANCH  13  14
ENDBRANCH  12  13
ENDBRANCH  11  12
ENDBRANCH  10  11
ENDBRANCH   1  10
TORSDOF 13
ENDMDL
MODEL 6
REMARK VINA RESULT:    -3.348      2.555      5.186
REMARK INTER + INTRA:          -6.242
REMARK INTER:                  -5.563
REMARK INTRA:                  -0.679
REMARK UNBOUND:                -0.350
REMARK SMILES CCCCCCCCCCCCCCC(=O)[O-]
REMARK SMILES IDX 9 1 10 2 11 3 12 4 13 5 14 6 15 7 16 8 17 9 8 10 7 11 6 12
REMARK SMILES IDX 5 13 4 14 3 15 2 16 1 17
REMARK H PARENT
REMARK Flexibility Score: inf
ROOT
ATOM      1  C   UNL     1    -116.831 -99.452  36.524  1.00  0.00     0.000 C 
ENDROOT
BRANCH   1   2
ATOM      2  C   UNL     1    -116.571-100.125  37.887  1.00  0.00     0.000 C 
BRANCH   2   3
ATOM      3  C   UNL     1    -117.666 -99.902  38.945  1.00  0.00     0.000 C 
BRANCH   3   4
ATOM      4  C   UNL     1    -117.250 -98.900  40.033  1.00  0.00     0.000 C 
BRANCH   4   5
ATOM      5  C   UNL     1    -116.444 -99.595  41.141  1.00  0.00     0.006 C 
BRANCH   5   6
ATOM      6  C   UNL     1    -116.331 -98.733  42.404  1.00  0.00     0.053 C 
BRANCH   6   7
ATOM      7  C   UNL     1    -117.557 -98.834  43.259  1.00  0.00     0.041 C 
ATOM      8  O   UNL     1    -118.083 -99.955  43.484  1.00  0.00    -0.550 OA
ATOM      9  O   UNL     1    -118.099 -97.692  43.836  1.00  0.00    -0.550 OA
ENDBRANCH   6   7
ENDBRANCH   5   6
ENDBRANCH   4   5
ENDBRANCH   3   4
ENDBRANCH   2   3
ENDBRANCH   1   2
BRANCH   1  10
ATOM     10  C   UNL     1    -115.572 -99.003  35.760  1.00  0.00     0.000 C 
BRANCH  10  11
ATOM     11  C   UNL     1    -115.895 -98.130  34.536  1.00  0.00    -0.000 C 
BRANCH  11  12
ATOM     12  C   UNL     1    -115.816 -98.909  33.210  1.00  0.00    -0.000 C 
BRANCH  12  13
ATOM     13  C   UNL     1    -117.068 -99.740  32.863  1.00  0.00    -0.000 C 
BRANCH  13  14
ATOM     14  C   UNL     1    -118.316 -98.920  32.480  1.00  0.00    -0.000 C 
BRANCH  14  15
ATOM     15  C   UNL     1    -118.170 -98.076  31.201  1.00  0.00    -0.000 C 
BRANCH  15  16
ATOM     16  C   UNL     1    -118.159 -96.567  31.483  1.00  0.00    -0.003 C 
ATOM     17  C   UNL     1    -118.963 -95.806  30.432  1.00  0.00     0.004 C 
ENDBRANCH  15  16
ENDBRANCH  14  15
ENDBRANCH  13  14
ENDBRANCH  12  13
ENDBRANCH  11  12
ENDBRANCH  10  11
ENDBRANCH   1  10
TORSDOF 13
ENDMDL
MODEL 7
REMARK VINA RESULT:    -2.691      2.133      3.924
REMARK INTER + INTRA:          -5.086
REMARK INTER:                  -5.040
REMARK INTRA:                  -0.046
REMARK UNBOUND:                -0.350
REMARK SMILES CCCCCCCCCCCCCCC(=O)[O-]
REMARK SMILES IDX 9 1 10 2 11 3 12 4 13 5 14 6 15 7 16 8 17 9 8 10 7 11 6 12
REMARK SMILES IDX 5 13 4 14 3 15 2 16 1 17
REMARK H PARENT
REMARK Flexibility Score: inf
ROOT
ATOM      1  C   UNL     1    -118.344 -97.662  44.955  1.00  0.00     0.000 C 
ENDROOT
BRANCH   1   2
ATOM      2  C   UNL     1    -118.926 -97.756  46.380  1.00  0.00     0.000 C 
BRANCH   2   3
ATOM      3  C   UNL     1    -118.008 -98.426  47.418  1.00  0.00     0.000 C 
BRANCH   3   4
ATOM      4  C   UNL     1    -117.688 -97.514  48.611  1.00  0.00     0.000 C 
BRANCH   4   5
ATOM      5  C   UNL     1    -118.846 -96.543  48.885  1.00  0.00     0.006 C 
BRANCH   5   6
ATOM      6  C   UNL     1    -118.356 -95.109  49.125  1.00  0.00     0.053 C 
BRANCH   6   7
ATOM      7  C   UNL     1    -118.282 -94.325  47.851  1.00  0.00     0.041 C 
ATOM      8  O   UNL     1    -118.286 -94.918  46.740  1.00  0.00    -0.550 OA
ATOM      9  O   UNL     1    -118.245 -92.937  47.889  1.00  0.00    -0.550 OA
ENDBRANCH   6   7
ENDBRANCH   5   6
ENDBRANCH   4   5
ENDBRANCH   3   4
ENDBRANCH   2   3
ENDBRANCH   1   2
BRANCH   1  10
ATOM     10  C   UNL     1    -119.125 -98.432  43.874  1.00  0.00     0.000 C 
BRANCH  10  11
ATOM     11  C   UNL     1    -118.207 -99.204  42.911  1.00  0.00    -0.000 C 
BRANCH  11  12
ATOM     12  C   UNL     1    -116.712 -98.970  43.195  1.00  0.00    -0.000 C 
BRANCH  12  13
ATOM     13  C   UNL     1    -115.804 -98.944  41.949  1.00  0.00    -0.000 C 
BRANCH  13  14
ATOM     14  C   UNL     1    -116.541 -98.808  40.601  1.00  0.00    -0.000 C 
BRANCH  14  15
ATOM     15  C   UNL     1    -117.114-100.121  40.041  1.00  0.00    -0.000 C 
BRANCH  15  16
ATOM     16  C   UNL     1    -117.822 -99.933  38.691  1.00  0.00    -0.003 C 
ATOM     17  C   UNL     1    -116.816 -99.898  37.544  1.00  0.00     0.004 C 
ENDBRANCH  15  16
ENDBRANCH  14  15
ENDBRANCH  13  14
ENDBRANCH  12  13
ENDBRANCH  11  12
ENDBRANCH  10  11
ENDBRANCH   1  10
TORSDOF 13
ENDMDL
