MODEL 1
REMARK VINA RESULT:    -5.017      0.000      0.000
REMARK INTER + INTRA:          -9.845
REMARK INTER:                  -8.831
REMARK INTRA:                  -1.014
REMARK UNBOUND:                -1.014
REMARK SMILES CCCCCCCCCCCCCCC(=O)[O-]
REMARK SMILES IDX 9 1 10 2 11 3 12 4 13 5 14 6 15 7 16 8 17 9 8 10 7 11 6 12
REMARK SMILES IDX 5 13 4 14 3 15 2 16 1 17
REMARK H PARENT
REMARK Flexibility Score: inf
ROOT
ATOM      1  C   UNL     1      28.318   2.721  31.231  1.00  0.00     0.000 C 
ENDROOT
BRANCH   1   2
ATOM      2  C   UNL     1      28.565   4.101  31.857  1.00  0.00     0.000 C 
BRANCH   2   3
ATOM      3  C   UNL     1      27.567   5.135  31.321  1.00  0.00     0.000 C 
BRANCH   3   4
ATOM      4  C   UNL     1      28.293   6.273  30.589  1.00  0.00     0.000 C 
BRANCH   4   5
ATOM      5  C   UNL     1      27.336   7.375  30.099  1.00  0.00     0.006 C 
BRANCH   5   6
ATOM      6  C   UNL     1      27.632   8.770  30.672  1.00  0.00     0.053 C 
BRANCH   6   7
ATOM      7  C   UNL     1      26.434   9.366  31.347  1.00  0.00     0.041 C 
ATOM      8  O   UNL     1      25.999   8.869  32.418  1.00  0.00    -0.550 OA
ATOM      9  O   UNL     1      25.781  10.450  30.774  1.00  0.00    -0.550 OA
ENDBRANCH   6   7
ENDBRANCH   5   6
ENDBRANCH   4   5
ENDBRANCH   3   4
ENDBRANCH   2   3
ENDBRANCH   1   2
BRANCH   1  10
ATOM     10  C   UNL     1      29.356   1.674  31.667  1.00  0.00     0.000 C 
BRANCH  10  11
ATOM     11  C   UNL     1      29.895   0.849  30.486  1.00  0.00    -0.000 C 
BRANCH  11  12
ATOM     12  C   UNL     1      29.106   1.093  29.188  1.00  0.00    -0.000 C 
BRANCH  12  13
ATOM     13  C   UNL     1      28.331  -0.149  28.723  1.00  0.00    -0.000 C 
BRANCH  13  14
ATOM     14  C   UNL     1      26.846  -0.041  29.095  1.00  0.00    -0.000 C 
BRANCH  14  15
ATOM     15  C   UNL     1      26.485  -0.847  30.354  1.00  0.00    -0.000 C 
BRANCH  15  16
ATOM     16  C   UNL     1      27.500  -1.959  30.690  1.00  0.00    -0.003 C 
ATOM     17  C   UNL     1      26.836  -3.326  30.847  1.00  0.00     0.004 C 
ENDBRANCH  15  16
ENDBRANCH  14  15
ENDBRANCH  13  14
ENDBRANCH  12  13
ENDBRANCH  11  12
ENDBRANCH  10  11
ENDBRANCH   1  10
TORSDOF 13
ENDMDL
MODEL 2
REMARK VINA RESULT:    -4.892      1.821      2.608
REMARK INTER + INTRA:          -9.623
REMARK INTER:                  -8.564
REMARK INTRA:                  -1.060
REMARK UNBOUND:                -1.014
REMARK SMILES CCCCCCCCCCCCCCC(=O)[O-]
REMARK SMILES IDX 9 1 10 2 11 3 12 4 13 5 14 6 15 7 16 8 17 9 8 10 7 11 6 12
REMARK SMILES IDX 5 13 4 14 3 15 2 16 1 17
REMARK H PARENT
REMARK Flexibility Score: inf
ROOT
ATOM      1  C   UNL     1      27.211   3.855  28.693  1.00  0.00     0.000 C 
ENDROOT
BRANCH   1   2
ATOM      2  C   UNL     1      27.870   5.125  29.253  1.00  0.00     0.000 C 
BRANCH   2   3
ATOM      3  C   UNL     1      26.854   5.980  30.020  1.00  0.00     0.000 C 
BRANCH   3   4
ATOM      4  C   UNL     1      27.544   7.160  30.718  1.00  0.00     0.000 C 
BRANCH   4   5
ATOM      5  C   UNL     1      27.863   8.319  29.757  1.00  0.00     0.006 C 
BRANCH   5   6
ATOM      6  C   UNL     1      28.397   9.585  30.447  1.00  0.00     0.053 C 
BRANCH   6   7
ATOM      7  C   UNL     1      27.314  10.338  31.157  1.00  0.00     0.041 C 
ATOM      8  O   UNL     1      27.570  10.963  32.219  1.00  0.00    -0.550 OA
ATOM      9  O   UNL     1      26.016  10.321  30.663  1.00  0.00    -0.550 OA
ENDBRANCH   6   7
ENDBRANCH   5   6
ENDBRANCH   4   5
ENDBRANCH   3   4
ENDBRANCH   2   3
ENDBRANCH   1   2
BRANCH   1  10
ATOM     10  C   UNL     1      27.728   2.571  29.363  1.00  0.00     0.000 C 
BRANCH  10  11
ATOM     11  C   UNL     1      26.924   1.326  28.951  1.00  0.00    -0.000 C 
BRANCH  11  12
ATOM     12  C   UNL     1      26.242   0.642  30.148  1.00  0.00    -0.000 C 
BRANCH  12  13
ATOM     13  C   UNL     1      26.916   0.979  31.487  1.00  0.00    -0.000 C 
BRANCH  13  14
ATOM     14  C   UNL     1      27.925  -0.108  31.882  1.00  0.00    -0.000 C 
BRANCH  14  15
ATOM     15  C   UNL     1      29.385   0.366  31.780  1.00  0.00    -0.000 C 
BRANCH  15  16
ATOM     16  C   UNL     1      30.120  -0.158  30.529  1.00  0.00    -0.003 C 
ATOM     17  C   UNL     1      29.434  -1.379  29.919  1.00  0.00     0.004 C 
ENDBRANCH  15  16
ENDBRANCH  14  15
ENDBRANCH  13  14
ENDBRANCH  12  13
ENDBRANCH  11  12
ENDBRANCH  10  11
ENDBRANCH   1  10
TORSDOF 13
ENDMDL
MODEL 3
REMARK VINA RESULT:    -4.889      1.445      2.134
REMARK INTER + INTRA:          -9.618
REMARK INTER:                  -8.588
REMARK INTRA:                  -1.030
REMARK UNBOUND:                -1.014
REMARK SMILES CCCCCCCCCCCCCCC(=O)[O-]
REMARK SMILES IDX 9 1 10 2 11 3 12 4 13 5 14 6 15 7 16 8 17 9 8 10 7 11 6 12
REMARK SMILES IDX 5 13 4 14 3 15 2 16 1 17
REMARK H PARENT
REMARK Flexibility Score: inf
ROOT
ATOM      1  C   UNL     1      28.717   4.003  31.801  1.00  0.00     0.000 C 
ENDROOT
BRANCH   1   2
ATOM      2  C   UNL     1      27.698   5.112  31.502  1.00  0.00     0.000 C 
BRANCH   2   3
ATOM      3  C   UNL     1      27.770   5.543  30.032  1.00  0.00     0.000 C 
BRANCH   3   4
ATOM      4  C   UNL     1      28.057   7.046  29.911  1.00  0.00     0.000 C 
BRANCH   4   5
ATOM      5  C   UNL     1      27.074   7.908  30.722  1.00  0.00     0.006 C 
BRANCH   5   6
ATOM      6  C   UNL     1      26.886   9.334  30.179  1.00  0.00     0.053 C 
BRANCH   6   7
ATOM      7  C   UNL     1      28.065  10.209  30.476  1.00  0.00     0.041 C 
ATOM      8  O   UNL     1      28.191  10.737  31.612  1.00  0.00    -0.550 OA
ATOM      9  O   UNL     1      29.006  10.468  29.488  1.00  0.00    -0.550 OA
ENDBRANCH   6   7
ENDBRANCH   5   6
ENDBRANCH   4   5
ENDBRANCH   3   4
ENDBRANCH   2   3
ENDBRANCH   1   2
BRANCH   1  10
ATOM     10  C   UNL     1      28.236   2.615  31.347  1.00  0.00     0.000 C 
BRANCH  10  11
ATOM     11  C   UNL     1      29.223   1.496  31.723  1.00  0.00    -0.000 C 
BRANCH  11  12
ATOM     12  C   UNL     1      29.983   0.945  30.505  1.00  0.00    -0.000 C 
BRANCH  12  13
ATOM     13  C   UNL     1      29.863  -0.581  30.371  1.00  0.00    -0.000 C 
BRANCH  13  14
ATOM     14  C   UNL     1      28.448  -0.983  29.929  1.00  0.00    -0.000 C 
BRANCH  14  15
ATOM     15  C   UNL     1      27.942  -0.168  28.727  1.00  0.00    -0.000 C 
BRANCH  15  16
ATOM     16  C   UNL     1      26.506   0.365  28.901  1.00  0.00    -0.003 C 
ATOM     17  C   UNL     1      25.890  -0.045  30.239  1.00  0.00     0.004 C 
ENDBRANCH  15  16
ENDBRANCH  14  15
ENDBRANCH  13  14
ENDBRANCH  12  13
ENDBRANCH  11  12
ENDBRANCH  10  11
ENDBRANCH   1  10
TORSDOF 13
ENDMDL
MODEL 4
REMARK VINA RESULT:    -4.838      3.608      7.865
REMARK INTER + INTRA:          -9.528
REMARK INTER:                  -8.380
REMARK INTRA:                  -1.148
REMARK UNBOUND:                -1.014
REMARK SMILES CCCCCCCCCCCCCCC(=O)[O-]
REMARK SMILES IDX 9 1 10 2 11 3 12 4 13 5 14 6 15 7 16 8 17 9 8 10 7 11 6 12
REMARK SMILES IDX 5 13 4 14 3 15 2 16 1 17
REMARK H PARENT
REMARK Flexibility Score: inf
ROOT
ATOM      1  C   UNL     1      28.485   2.170  31.553  1.00  0.00     0.000 C 
ENDROOT
BRANCH   1   2
ATOM      2  C   UNL     1      29.503   1.033  31.728  1.00  0.00     0.000 C 
BRANCH   2   3
ATOM      3  C   UNL     1      30.166   0.678  30.391  1.00  0.00     0.000 C 
BRANCH   3   4
ATOM      4  C   UNL     1      29.284   1.103  29.209  1.00  0.00     0.000 C 
BRANCH   4   5
ATOM      5  C   UNL     1      28.420  -0.049  28.665  1.00  0.00     0.006 C 
BRANCH   5   6
ATOM      6  C   UNL     1      26.905   0.179  28.796  1.00  0.00     0.053 C 
BRANCH   6   7
ATOM      7  C   UNL     1      26.342  -0.473  30.021  1.00  0.00     0.041 C 
ATOM      8  O   UNL     1      27.040  -1.283  30.685  1.00  0.00    -0.550 OA
ATOM      9  O   UNL     1      25.034  -0.211  30.410  1.00  0.00    -0.550 OA
ENDBRANCH   6   7
ENDBRANCH   5   6
ENDBRANCH   4   5
ENDBRANCH   3   4
ENDBRANCH   2   3
ENDBRANCH   1   2
BRANCH   1  10
ATOM     10  C   UNL     1      29.000   3.518  32.085  1.00  0.00     0.000 C 
BRANCH  10  11
ATOM     11  C   UNL     1      28.110   4.699  31.659  1.00  0.00    -0.000 C 
BRANCH  11  12
ATOM     12  C   UNL     1      27.766   4.668  30.161  1.00  0.00    -0.000 C 
BRANCH  12  13
ATOM     13  C   UNL     1      26.968   5.901  29.710  1.00  0.00    -0.000 C 
BRANCH  13  14
ATOM     14  C   UNL     1      27.163   7.069  30.687  1.00  0.00    -0.000 C 
BRANCH  14  15
ATOM     15  C   UNL     1      27.907   8.258  30.057  1.00  0.00    -0.000 C 
BRANCH  15  16
ATOM     16  C   UNL     1      27.664   9.596  30.785  1.00  0.00    -0.003 C 
ATOM     17  C   UNL     1      26.186   9.986  30.809  1.00  0.00     0.004 C 
ENDBRANCH  15  16
ENDBRANCH  14  15
ENDBRANCH  13  14
ENDBRANCH  12  13
ENDBRANCH  11  12
ENDBRANCH  10  11
ENDBRANCH   1  10
TORSDOF 13
ENDMDL
MODEL 5
REMARK VINA RESULT:    -4.823      2.081      3.031
REMARK INTER + INTRA:          -9.502
REMARK INTER:                  -8.457
REMARK INTRA:                  -1.045
REMARK UNBOUND:                -1.014
REMARK SMILES CCCCCCCCCCCCCCC(=O)[O-]
REMARK SMILES IDX 9 1 10 2 11 3 12 4 13 5 14 6 15 7 16 8 17 9 8 10 7 11 6 12
REMARK SMILES IDX 5 13 4 14 3 15 2 16 1 17
REMARK H PARENT
REMARK Flexibility Score: inf
ROOT
ATOM      1  C   UNL     1      26.799   5.159  29.306  1.00  0.00     0.000 C 
ENDROOT
BRANCH   1   2
ATOM      2  C   UNL     1      28.189   5.795  29.456  1.00  0.00     0.000 C 
BRANCH   2   3
ATOM      3  C   UNL     1      28.257   6.677  30.709  1.00  0.00     0.000 C 
BRANCH   3   4
ATOM      4  C   UNL     1      26.898   7.330  30.997  1.00  0.00     0.000 C 
BRANCH   4   5
ATOM      5  C   UNL     1      26.870   8.830  30.652  1.00  0.00     0.006 C 
BRANCH   5   6
ATOM      6  C   UNL     1      28.244   9.423  30.299  1.00  0.00     0.053 C 
BRANCH   6   7
ATOM      7  C   UNL     1      28.293   9.928  28.889  1.00  0.00     0.041 C 
ATOM      8  O   UNL     1      29.005   9.342  28.032  1.00  0.00    -0.550 OA
ATOM      9  O   UNL     1      27.580  11.065  28.532  1.00  0.00    -0.550 OA
ENDBRANCH   6   7
ENDBRANCH   5   6
ENDBRANCH   4   5
ENDBRANCH   3   4
ENDBRANCH   2   3
ENDBRANCH   1   2
BRANCH   1  10
ATOM     10  C   UNL     1      26.829   3.845  28.508  1.00  0.00     0.000 C 
BRANCH  10  11
ATOM     11  C   UNL     1      27.547   2.713  29.261  1.00  0.00    -0.000 C 
BRANCH  11  12
ATOM     12  C   UNL     1      27.011   1.321  28.885  1.00  0.00    -0.000 C 
BRANCH  12  13
ATOM     13  C   UNL     1      26.287   0.629  30.050  1.00  0.00    -0.000 C 
BRANCH  13  14
ATOM     14  C   UNL     1      27.130  -0.523  30.614  1.00  0.00    -0.000 C 
BRANCH  14  15
ATOM     15  C   UNL     1      27.846  -0.154  31.925  1.00  0.00    -0.000 C 
BRANCH  15  16
ATOM     16  C   UNL     1      29.300   0.319  31.724  1.00  0.00    -0.003 C 
ATOM     17  C   UNL     1      29.958  -0.321  30.502  1.00  0.00     0.004 C 
ENDBRANCH  15  16
ENDBRANCH  14  15
ENDBRANCH  13  14
ENDBRANCH  12  13
ENDBRANCH  11  12
ENDBRANCH  10  11
ENDBRANCH   1  10
TORSDOF 13
ENDMDL
MODEL 6
REMARK VINA RESULT:    -4.814      7.081     10.581
REMARK INTER + INTRA:          -9.486
REMARK INTER:                  -8.109
REMARK INTRA:                  -1.377
REMARK UNBOUND:                -1.014
REMARK SMILES CCCCCCCCCCCCCCC(=O)[O-]
REMARK SMILES IDX 9 1 10 2 11 3 12 4 13 5 14 6 15 7 16 8 17 9 8 10 7 11 6 12
REMARK SMILES IDX 5 13 4 14 3 15 2 16 1 17
REMARK H PARENT
REMARK Flexibility Score: inf
ROOT
ATOM      1  C   UNL     1      26.266  -2.682  30.748  1.00  0.00     0.000 C 
ENDROOT
BRANCH   1   2
ATOM      2  C   UNL     1      27.148  -3.926  30.927  1.00  0.00     0.000 C 
BRANCH   2   3
ATOM      3  C   UNL     1      28.518  -3.729  30.266  1.00  0.00     0.000 C 
BRANCH   3   4
ATOM      4  C   UNL     1      29.116  -5.073  29.825  1.00  0.00     0.000 C 
BRANCH   4   5
ATOM      5  C   UNL     1      28.710  -6.237  30.746  1.00  0.00     0.006 C 
BRANCH   5   6
ATOM      6  C   UNL     1      28.086  -7.436  30.013  1.00  0.00     0.053 C 
BRANCH   6   7
ATOM      7  C   UNL     1      29.121  -8.292  29.350  1.00  0.00     0.041 C 
ATOM      8  O   UNL     1      29.780  -9.125  30.026  1.00  0.00    -0.550 OA
ATOM      9  O   UNL     1      29.380  -8.145  27.994  1.00  0.00    -0.550 OA
ENDBRANCH   6   7
ENDBRANCH   5   6
ENDBRANCH   4   5
ENDBRANCH   3   4
ENDBRANCH   2   3
ENDBRANCH   1   2
BRANCH   1  10
ATOM     10  C   UNL     1      27.060  -1.369  30.851  1.00  0.00     0.000 C 
BRANCH  10  11
ATOM     11  C   UNL     1      26.322  -0.181  30.210  1.00  0.00    -0.000 C 
BRANCH  11  12
ATOM     12  C   UNL     1      26.895   0.196  28.833  1.00  0.00    -0.000 C 
BRANCH  12  13
ATOM     13  C   UNL     1      28.378  -0.174  28.686  1.00  0.00    -0.000 C 
BRANCH  13  14
ATOM     14  C   UNL     1      29.280   0.964  29.186  1.00  0.00    -0.000 C 
BRANCH  14  15
ATOM     15  C   UNL     1      30.181   0.541  30.359  1.00  0.00    -0.000 C 
BRANCH  15  16
ATOM     16  C   UNL     1      29.683   1.038  31.731  1.00  0.00    -0.003 C 
ATOM     17  C   UNL     1      28.747   2.240  31.611  1.00  0.00     0.004 C 
ENDBRANCH  15  16
ENDBRANCH  14  15
ENDBRANCH  13  14
ENDBRANCH  12  13
ENDBRANCH  11  12
ENDBRANCH  10  11
ENDBRANCH   1  10
TORSDOF 13
ENDMDL
MODEL 7
REMARK VINA RESULT:    -4.755      1.308      2.314
REMARK INTER + INTRA:          -9.383
REMARK INTER:                  -8.294
REMARK INTRA:                  -1.088
REMARK UNBOUND:                -1.014
REMARK SMILES CCCCCCCCCCCCCCC(=O)[O-]
REMARK SMILES IDX 9 1 10 2 11 3 12 4 13 5 14 6 15 7 16 8 17 9 8 10 7 11 6 12
REMARK SMILES IDX 5 13 4 14 3 15 2 16 1 17
REMARK H PARENT
REMARK Flexibility Score: inf
ROOT
ATOM      1  C   UNL     1      27.621   4.201  29.049  1.00  0.00     0.000 C 
ENDROOT
BRANCH   1   2
ATOM      2  C   UNL     1      27.640   5.285  30.137  1.00  0.00     0.000 C 
BRANCH   2   3
ATOM      3  C   UNL     1      28.276   6.579  29.612  1.00  0.00     0.000 C 
BRANCH   3   4
ATOM      4  C   UNL     1      27.932   7.768  30.520  1.00  0.00     0.000 C 
BRANCH   4   5
ATOM      5  C   UNL     1      26.584   8.420  30.165  1.00  0.00     0.006 C 
BRANCH   5   6
ATOM      6  C   UNL     1      26.535   9.940  30.395  1.00  0.00     0.053 C 
BRANCH   6   7
ATOM      7  C   UNL     1      26.940  10.310  31.789  1.00  0.00     0.041 C 
ATOM      8  O   UNL     1      27.968  11.011  31.983  1.00  0.00    -0.550 OA
ATOM      9  O   UNL     1      26.202   9.854  32.873  1.00  0.00    -0.550 OA
ENDBRANCH   6   7
ENDBRANCH   5   6
ENDBRANCH   4   5
ENDBRANCH   3   4
ENDBRANCH   2   3
ENDBRANCH   1   2
BRANCH   1  10
ATOM     10  C   UNL     1      27.693   2.778  29.626  1.00  0.00     0.000 C 
BRANCH  10  11
ATOM     11  C   UNL     1      28.073   2.763  31.117  1.00  0.00    -0.000 C 
BRANCH  11  12
ATOM     12  C   UNL     1      29.145   1.710  31.443  1.00  0.00    -0.000 C 
BRANCH  12  13
ATOM     13  C   UNL     1      29.717   1.037  30.187  1.00  0.00    -0.000 C 
BRANCH  13  14
ATOM     14  C   UNL     1      29.866  -0.476  30.394  1.00  0.00    -0.000 C 
BRANCH  14  15
ATOM     15  C   UNL     1      28.696  -1.279  29.800  1.00  0.00    -0.000 C 
BRANCH  15  16
ATOM     16  C   UNL     1      27.497  -1.427  30.758  1.00  0.00    -0.003 C 
ATOM     17  C   UNL     1      26.301  -0.576  30.330  1.00  0.00     0.004 C 
ENDBRANCH  15  16
ENDBRANCH  14  15
ENDBRANCH  13  14
ENDBRANCH  12  13
ENDBRANCH  11  12
ENDBRANCH  10  11
ENDBRANCH   1  10
TORSDOF 13
ENDMDL
MODEL 8
REMARK VINA RESULT:    -4.741      1.990      2.915
REMARK INTER + INTRA:          -9.357
REMARK INTER:                  -8.184
REMARK INTRA:                  -1.174
REMARK UNBOUND:                -1.014
REMARK SMILES CCCCCCCCCCCCCCC(=O)[O-]
REMARK SMILES IDX 9 1 10 2 11 3 12 4 13 5 14 6 15 7 16 8 17 9 8 10 7 11 6 12
REMARK SMILES IDX 5 13 4 14 3 15 2 16 1 17
REMARK H PARENT
REMARK Flexibility Score: inf
ROOT
ATOM      1  C   UNL     1      26.381   0.572  30.093  1.00  0.00     0.000 C 
ENDROOT
BRANCH   1   2
ATOM      2  C   UNL     1      26.905   1.586  29.066  1.00  0.00     0.000 C 
BRANCH   2   3
ATOM      3  C   UNL     1      27.542   2.795  29.762  1.00  0.00     0.000 C 
BRANCH   3   4
ATOM      4  C   UNL     1      27.655   3.987  28.801  1.00  0.00     0.000 C 
BRANCH   4   5
ATOM      5  C   UNL     1      26.869   5.219  29.284  1.00  0.00     0.006 C 
BRANCH   5   6
ATOM      6  C   UNL     1      27.414   5.852  30.574  1.00  0.00     0.053 C 
BRANCH   6   7
ATOM      7  C   UNL     1      27.415   7.349  30.510  1.00  0.00     0.041 C 
ATOM      8  O   UNL     1      28.068   7.943  29.613  1.00  0.00    -0.550 OA
ATOM      9  O   UNL     1      26.722   8.086  31.461  1.00  0.00    -0.550 OA
ENDBRANCH   6   7
ENDBRANCH   5   6
ENDBRANCH   4   5
ENDBRANCH   3   4
ENDBRANCH   2   3
ENDBRANCH   1   2
BRANCH   1  10
ATOM     10  C   UNL     1      27.004   0.759  31.486  1.00  0.00     0.000 C 
BRANCH  10  11
ATOM     11  C   UNL     1      28.070  -0.304  31.804  1.00  0.00    -0.000 C 
BRANCH  11  12
ATOM     12  C   UNL     1      29.483   0.133  31.385  1.00  0.00    -0.000 C 
BRANCH  12  13
ATOM     13  C   UNL     1      30.060  -0.732  30.254  1.00  0.00    -0.000 C 
BRANCH  13  14
ATOM     14  C   UNL     1      29.113  -1.890  29.910  1.00  0.00    -0.000 C 
BRANCH  14  15
ATOM     15  C   UNL     1      29.851  -3.224  29.703  1.00  0.00    -0.000 C 
BRANCH  15  16
ATOM     16  C   UNL     1      28.963  -4.464  29.931  1.00  0.00    -0.003 C 
ATOM     17  C   UNL     1      27.712  -4.143  30.749  1.00  0.00     0.004 C 
ENDBRANCH  15  16
ENDBRANCH  14  15
ENDBRANCH  13  14
ENDBRANCH  12  13
ENDBRANCH  11  12
ENDBRANCH  10  11
ENDBRANCH   1  10
TORSDOF 13
ENDMDL
MODEL 9
REMARK VINA RESULT:    -4.718      3.966      8.555
REMARK INTER + INTRA:          -9.318
REMARK INTER:                  -8.382
REMARK INTRA:                  -0.936
REMARK UNBOUND:                -1.014
REMARK SMILES CCCCCCCCCCCCCCC(=O)[O-]
REMARK SMILES IDX 9 1 10 2 11 3 12 4 13 5 14 6 15 7 16 8 17 9 8 10 7 11 6 12
REMARK SMILES IDX 5 13 4 14 3 15 2 16 1 17
REMARK H PARENT
REMARK Flexibility Score: inf
ROOT
ATOM      1  C   UNL     1      27.835   2.821  29.643  1.00  0.00     0.000 C 
ENDROOT
BRANCH   1   2
ATOM      2  C   UNL     1      26.897   1.854  28.907  1.00  0.00     0.000 C 
BRANCH   2   3
ATOM      3  C   UNL     1      26.448   0.713  29.829  1.00  0.00     0.000 C 
BRANCH   3   4
ATOM      4  C   UNL     1      26.870   0.981  31.281  1.00  0.00     0.000 C 
BRANCH   4   5
ATOM      5  C   UNL     1      27.746  -0.141  31.865  1.00  0.00     0.006 C 
BRANCH   5   6
ATOM      6  C   UNL     1      29.247   0.190  31.915  1.00  0.00     0.053 C 
BRANCH   6   7
ATOM      7  C   UNL     1      29.955  -0.217  30.660  1.00  0.00     0.041 C 
ATOM      8  O   UNL     1      29.760  -1.359  30.164  1.00  0.00    -0.550 OA
ATOM      9  O   UNL     1      30.855   0.651  30.055  1.00  0.00    -0.550 OA
ENDBRANCH   6   7
ENDBRANCH   5   6
ENDBRANCH   4   5
ENDBRANCH   3   4
ENDBRANCH   2   3
ENDBRANCH   1   2
BRANCH   1  10
ATOM     10  C   UNL     1      27.577   4.293  29.282  1.00  0.00     0.000 C 
BRANCH  10  11
ATOM     11  C   UNL     1      28.032   5.261  30.388  1.00  0.00    -0.000 C 
BRANCH  11  12
ATOM     12  C   UNL     1      27.954   6.733  29.952  1.00  0.00    -0.000 C 
BRANCH  12  13
ATOM     13  C   UNL     1      26.865   7.517  30.701  1.00  0.00    -0.000 C 
BRANCH  13  14
ATOM     14  C   UNL     1      26.912   9.007  30.337  1.00  0.00    -0.000 C 
BRANCH  14  15
ATOM     15  C   UNL     1      28.347   9.550  30.226  1.00  0.00    -0.000 C 
BRANCH  15  16
ATOM     16  C   UNL     1      28.528  10.598  29.109  1.00  0.00    -0.003 C 
ATOM     17  C   UNL     1      28.684   9.959  27.730  1.00  0.00     0.004 C 
ENDBRANCH  15  16
ENDBRANCH  14  15
ENDBRANCH  13  14
ENDBRANCH  12  13
ENDBRANCH  11  12
ENDBRANCH  10  11
ENDBRANCH   1  10
TORSDOF 13
ENDMDL
