MODEL 1
REMARK VINA RESULT:    -2.920      0.000      0.000
REMARK INTER + INTRA:          -3.699
REMARK INTER:                  -3.603
REMARK INTRA:                  -0.096
REMARK UNBOUND:                -0.096
REMARK SMILES CCCCCC(=O)[O-]
REMARK SMILES IDX 4 1 5 2 6 3 7 4 8 5 3 6 2 7 1 8
REMARK H PARENT
REMARK Flexibility Score: inf
ROOT
ATOM      1  C   UNL     1      -2.363  -7.483  31.182  1.00  0.00     0.006 C 
ENDROOT
BRANCH   1   2
ATOM      2  C   UNL     1      -3.548  -7.745  30.245  1.00  0.00     0.053 C 
BRANCH   2   3
ATOM      3  C   UNL     1      -4.072  -9.133  30.442  1.00  0.00     0.041 C 
ATOM      4  O   UNL     1      -3.504  -9.916  31.248  1.00  0.00    -0.550 OA
ATOM      5  O   UNL     1      -5.216  -9.546  29.772  1.00  0.00    -0.550 OA
ENDBRANCH   2   3
ENDBRANCH   1   2
BRANCH   1   6
ATOM      6  C   UNL     1      -1.532  -6.262  30.758  1.00  0.00     0.000 C 
BRANCH   6   7
ATOM      7  C   UNL     1      -1.930  -4.985  31.515  1.00  0.00    -0.003 C 
ATOM      8  C   UNL     1      -1.925  -5.217  33.022  1.00  0.00     0.004 C 
ENDBRANCH   6   7
ENDBRANCH   1   6
TORSDOF 4
ENDMDL
MODEL 2
REMARK VINA RESULT:    -2.842      1.691      2.383
REMARK INTER + INTRA:          -3.602
REMARK INTER:                  -3.412
REMARK INTRA:                  -0.191
REMARK UNBOUND:                -0.096
REMARK SMILES CCCCCC(=O)[O-]
REMARK SMILES IDX 4 1 5 2 6 3 7 4 8 5 3 6 2 7 1 8
REMARK H PARENT
REMARK Flexibility Score: inf
ROOT
ATOM      1  C   UNL     1      -1.632  -5.358  31.448  1.00  0.00     0.006 C 
ENDROOT
BRANCH   1   2
ATOM      2  C   UNL     1      -1.486  -6.859  31.167  1.00  0.00     0.053 C 
BRANCH   2   3
ATOM      3  C   UNL     1      -2.828  -7.482  30.946  1.00  0.00     0.041 C 
ATOM      4  O   UNL     1      -3.026  -8.687  31.255  1.00  0.00    -0.550 OA
ATOM      5  O   UNL     1      -3.875  -6.719  30.445  1.00  0.00    -0.550 OA
ENDBRANCH   2   3
ENDBRANCH   1   2
BRANCH   1   6
ATOM      6  C   UNL     1      -1.987  -5.063  32.914  1.00  0.00     0.000 C 
BRANCH   6   7
ATOM      7  C   UNL     1      -2.919  -3.851  33.063  1.00  0.00    -0.003 C 
ATOM      8  C   UNL     1      -4.375  -4.248  32.841  1.00  0.00     0.004 C 
ENDBRANCH   6   7
ENDBRANCH   1   6
TORSDOF 4
ENDMDL
MODEL 3
REMARK VINA RESULT:    -2.841      3.217      4.454
REMARK INTER + INTRA:          -3.602
REMARK INTER:                  -3.376
REMARK INTRA:                  -0.225
REMARK UNBOUND:                -0.096
REMARK SMILES CCCCCC(=O)[O-]
REMARK SMILES IDX 4 1 5 2 6 3 7 4 8 5 3 6 2 7 1 8
REMARK H PARENT
REMARK Flexibility Score: inf
ROOT
ATOM      1  C   UNL     1      -1.499  -5.348  31.438  1.00  0.00     0.006 C 
ENDROOT
BRANCH   1   2
ATOM      2  C   UNL     1      -1.883  -5.104  32.903  1.00  0.00     0.053 C 
BRANCH   2   3
ATOM      3  C   UNL     1      -3.141  -4.299  32.985  1.00  0.00     0.041 C 
ATOM      4  O   UNL     1      -3.089  -3.066  33.237  1.00  0.00    -0.550 OA
ATOM      5  O   UNL     1      -4.369  -4.900  32.736  1.00  0.00    -0.550 OA
ENDBRANCH   2   3
ENDBRANCH   1   2
BRANCH   1   6
ATOM      6  C   UNL     1      -1.267  -6.835  31.127  1.00  0.00     0.000 C 
BRANCH   6   7
ATOM      7  C   UNL     1      -2.570  -7.649  31.131  1.00  0.00    -0.003 C 
ATOM      8  C   UNL     1      -3.499  -7.204  30.006  1.00  0.00     0.004 C 
ENDBRANCH   6   7
ENDBRANCH   1   6
TORSDOF 4
ENDMDL
MODEL 4
REMARK VINA RESULT:    -2.824     15.957     16.885
REMARK INTER + INTRA:          -3.580
REMARK INTER:                  -3.397
REMARK INTRA:                  -0.182
REMARK UNBOUND:                -0.096
REMARK SMILES CCCCCC(=O)[O-]
REMARK SMILES IDX 4 1 5 2 6 3 7 4 8 5 3 6 2 7 1 8
REMARK H PARENT
REMARK Flexibility Score: inf
ROOT
ATOM      1  C   UNL     1     -12.487   6.461  28.536  1.00  0.00     0.006 C 
ENDROOT
BRANCH   1   2
ATOM      2  C   UNL     1     -13.038   6.329  29.961  1.00  0.00     0.053 C 
BRANCH   2   3
ATOM      3  C   UNL     1     -12.031   5.671  30.851  1.00  0.00     0.041 C 
ATOM      4  O   UNL     1     -12.224   5.617  32.095  1.00  0.00    -0.550 OA
ATOM      5  O   UNL     1     -10.903   5.074  30.303  1.00  0.00    -0.550 OA
ENDBRANCH   2   3
ENDBRANCH   1   2
BRANCH   1   6
ATOM      6  C   UNL     1     -12.155   7.914  28.162  1.00  0.00     0.000 C 
BRANCH   6   7
ATOM      7  C   UNL     1     -10.830   8.040  27.396  1.00  0.00    -0.003 C 
ATOM      8  C   UNL     1      -9.638   7.965  28.345  1.00  0.00     0.004 C 
ENDBRANCH   6   7
ENDBRANCH   1   6
TORSDOF 4
ENDMDL
MODEL 5
REMARK VINA RESULT:    -2.776     15.941     16.711
REMARK INTER + INTRA:          -3.520
REMARK INTER:                  -3.453
REMARK INTRA:                  -0.068
REMARK UNBOUND:                -0.096
REMARK SMILES CCCCCC(=O)[O-]
REMARK SMILES IDX 4 1 5 2 6 3 7 4 8 5 3 6 2 7 1 8
REMARK H PARENT
REMARK Flexibility Score: inf
ROOT
ATOM      1  C   UNL     1     -12.555   6.294  30.400  1.00  0.00     0.006 C 
ENDROOT
BRANCH   1   2
ATOM      2  C   UNL     1     -12.937   4.895  30.897  1.00  0.00     0.053 C 
BRANCH   2   3
ATOM      3  C   UNL     1     -12.757   4.800  32.379  1.00  0.00     0.041 C 
ATOM      4  O   UNL     1     -13.567   4.131  33.074  1.00  0.00    -0.550 OA
ATOM      5  O   UNL     1     -11.667   5.409  32.988  1.00  0.00    -0.550 OA
ENDBRANCH   2   3
ENDBRANCH   1   2
BRANCH   1   6
ATOM      6  C   UNL     1     -12.773   6.465  28.888  1.00  0.00     0.000 C 
BRANCH   6   7
ATOM      7  C   UNL     1     -12.234   7.804  28.361  1.00  0.00    -0.003 C 
ATOM      8  C   UNL     1     -10.712   7.856  28.448  1.00  0.00     0.004 C 
ENDBRANCH   6   7
ENDBRANCH   1   6
TORSDOF 4
ENDMDL
MODEL 6
REMARK VINA RESULT:    -2.765     16.653     17.556
REMARK INTER + INTRA:          -3.507
REMARK INTER:                  -3.315
REMARK INTRA:                  -0.193
REMARK UNBOUND:                -0.096
REMARK SMILES CCCCCC(=O)[O-]
REMARK SMILES IDX 4 1 5 2 6 3 7 4 8 5 3 6 2 7 1 8
REMARK H PARENT
REMARK Flexibility Score: inf
ROOT
ATOM      1  C   UNL     1     -10.954   7.883  27.652  1.00  0.00     0.006 C 
ENDROOT
BRANCH   1   2
ATOM      2  C   UNL     1     -11.778   7.945  28.944  1.00  0.00     0.053 C 
BRANCH   2   3
ATOM      3  C   UNL     1     -11.968   6.572  29.509  1.00  0.00     0.041 C 
ATOM      4  O   UNL     1     -10.985   5.791  29.618  1.00  0.00    -0.550 OA
ATOM      5  O   UNL     1     -13.219   6.172  29.960  1.00  0.00    -0.550 OA
ENDBRANCH   2   3
ENDBRANCH   1   2
BRANCH   1   6
ATOM      6  C   UNL     1     -11.818   8.042  26.391  1.00  0.00     0.000 C 
BRANCH   6   7
ATOM      7  C   UNL     1     -11.990   6.723  25.623  1.00  0.00    -0.003 C 
ATOM      8  C   UNL     1     -13.194   5.941  26.139  1.00  0.00     0.004 C 
ENDBRANCH   6   7
ENDBRANCH   1   6
TORSDOF 4
ENDMDL
MODEL 7
REMARK VINA RESULT:    -2.756      3.050      4.329
REMARK INTER + INTRA:          -3.496
REMARK INTER:                  -3.244
REMARK INTRA:                  -0.252
REMARK UNBOUND:                -0.096
REMARK SMILES CCCCCC(=O)[O-]
REMARK SMILES IDX 4 1 5 2 6 3 7 4 8 5 3 6 2 7 1 8
REMARK H PARENT
REMARK Flexibility Score: inf
ROOT
ATOM      1  C   UNL     1      -1.280  -6.513  31.012  1.00  0.00     0.006 C 
ENDROOT
BRANCH   1   2
ATOM      2  C   UNL     1      -1.782  -5.089  31.285  1.00  0.00     0.053 C 
BRANCH   2   3
ATOM      3  C   UNL     1      -2.232  -4.958  32.706  1.00  0.00     0.041 C 
ATOM      4  O   UNL     1      -3.371  -4.490  32.969  1.00  0.00    -0.550 OA
ATOM      5  O   UNL     1      -1.414  -5.399  33.738  1.00  0.00    -0.550 OA
ENDBRANCH   2   3
ENDBRANCH   1   2
BRANCH   1   6
ATOM      6  C   UNL     1      -2.397  -7.564  31.120  1.00  0.00     0.000 C 
BRANCH   6   7
ATOM      7  C   UNL     1      -3.483  -7.384  30.049  1.00  0.00    -0.003 C 
ATOM      8  C   UNL     1      -4.854  -7.183  30.686  1.00  0.00     0.004 C 
ENDBRANCH   6   7
ENDBRANCH   1   6
TORSDOF 4
ENDMDL
MODEL 8
REMARK VINA RESULT:    -2.750      2.973      4.033
REMARK INTER + INTRA:          -3.489
REMARK INTER:                  -3.403
REMARK INTRA:                  -0.086
REMARK UNBOUND:                -0.096
REMARK SMILES CCCCCC(=O)[O-]
REMARK SMILES IDX 4 1 5 2 6 3 7 4 8 5 3 6 2 7 1 8
REMARK H PARENT
REMARK Flexibility Score: inf
ROOT
ATOM      1  C   UNL     1      -2.975  -4.646  33.025  1.00  0.00     0.006 C 
ENDROOT
BRANCH   1   2
ATOM      2  C   UNL     1      -1.671  -5.415  32.777  1.00  0.00     0.053 C 
BRANCH   2   3
ATOM      3  C   UNL     1      -1.749  -6.172  31.488  1.00  0.00     0.041 C 
ATOM      4  O   UNL     1      -1.242  -5.691  30.440  1.00  0.00    -0.550 OA
ATOM      5  O   UNL     1      -2.339  -7.428  31.453  1.00  0.00    -0.550 OA
ENDBRANCH   2   3
ENDBRANCH   1   2
BRANCH   1   6
ATOM      6  C   UNL     1      -2.909  -3.195  32.524  1.00  0.00     0.000 C 
BRANCH   6   7
ATOM      7  C   UNL     1      -3.785  -2.243  33.353  1.00  0.00    -0.003 C 
ATOM      8  C   UNL     1      -3.024  -0.970  33.712  1.00  0.00     0.004 C 
ENDBRANCH   6   7
ENDBRANCH   1   6
TORSDOF 4
ENDMDL
MODEL 9
REMARK VINA RESULT:    -2.609     15.904     16.884
REMARK INTER + INTRA:          -3.315
REMARK INTER:                  -3.149
REMARK INTRA:                  -0.167
REMARK UNBOUND:                -0.096
REMARK SMILES CCCCCC(=O)[O-]
REMARK SMILES IDX 4 1 5 2 6 3 7 4 8 5 3 6 2 7 1 8
REMARK H PARENT
REMARK Flexibility Score: inf
ROOT
ATOM      1  C   UNL     1     -10.757   6.098  28.506  1.00  0.00     0.006 C 
ENDROOT
BRANCH   1   2
ATOM      2  C   UNL     1     -10.825   5.411  29.876  1.00  0.00     0.053 C 
BRANCH   2   3
ATOM      3  C   UNL     1     -12.216   5.476  30.423  1.00  0.00     0.041 C 
ATOM      4  O   UNL     1     -13.194   5.129  29.708  1.00  0.00    -0.550 OA
ATOM      5  O   UNL     1     -12.430   5.872  31.736  1.00  0.00    -0.550 OA
ENDBRANCH   2   3
ENDBRANCH   1   2
BRANCH   1   6
ATOM      6  C   UNL     1     -10.956   7.619  28.597  1.00  0.00     0.000 C 
BRANCH   6   7
ATOM      7  C   UNL     1     -12.127   8.113  27.734  1.00  0.00    -0.003 C 
ATOM      8  C   UNL     1     -11.753   8.125  26.255  1.00  0.00     0.004 C 
ENDBRANCH   6   7
ENDBRANCH   1   6
TORSDOF 4
ENDMDL
