MODEL 1
REMARK VINA RESULT:    -4.014      0.000      0.000
REMARK INTER + INTRA:          -5.372
REMARK INTER:                  -5.188
REMARK INTRA:                  -0.185
REMARK UNBOUND:                -0.185
REMARK SMILES CCCCCCC(=O)[O-]
REMARK SMILES IDX 5 1 6 2 7 3 8 4 9 5 4 6 3 7 2 8 1 9
REMARK H PARENT
REMARK Flexibility Score: inf
ROOT
ATOM      1  C   UNL     1      -2.795  37.473  18.422  1.00  0.00     0.006 C 
ENDROOT
BRANCH   1   2
ATOM      2  C   UNL     1      -4.039  36.624  18.716  1.00  0.00     0.053 C 
BRANCH   2   3
ATOM      3  C   UNL     1      -4.490  36.829  20.127  1.00  0.00     0.041 C 
ATOM      4  O   UNL     1      -5.061  37.901  20.461  1.00  0.00    -0.550 OA
ATOM      5  O   UNL     1      -4.324  35.818  21.063  1.00  0.00    -0.550 OA
ENDBRANCH   2   3
ENDBRANCH   1   2
BRANCH   1   6
ATOM      6  C   UNL     1      -2.181  37.165  17.047  1.00  0.00     0.000 C 
BRANCH   6   7
ATOM      7  C   UNL     1      -3.089  36.272  16.182  1.00  0.00    -0.000 C 
BRANCH   7   8
ATOM      8  C   UNL     1      -2.967  36.588  14.683  1.00  0.00    -0.003 C 
ATOM      9  C   UNL     1      -3.988  37.624  14.213  1.00  0.00     0.004 C 
ENDBRANCH   7   8
ENDBRANCH   6   7
ENDBRANCH   1   6
TORSDOF 5
ENDMDL
MODEL 2
REMARK VINA RESULT:    -3.946      1.194      1.562
REMARK INTER + INTRA:          -5.284
REMARK INTER:                  -5.145
REMARK INTRA:                  -0.140
REMARK UNBOUND:                -0.185
REMARK SMILES CCCCCCC(=O)[O-]
REMARK SMILES IDX 5 1 6 2 7 3 8 4 9 5 4 6 3 7 2 8 1 9
REMARK H PARENT
REMARK Flexibility Score: inf
ROOT
ATOM      1  C   UNL     1      -2.854  37.515  19.679  1.00  0.00     0.006 C 
ENDROOT
BRANCH   1   2
ATOM      2  C   UNL     1      -4.361  37.269  19.524  1.00  0.00     0.053 C 
BRANCH   2   3
ATOM      3  C   UNL     1      -4.721  35.906  20.025  1.00  0.00     0.041 C 
ATOM      4  O   UNL     1      -5.123  35.021  19.222  1.00  0.00    -0.550 OA
ATOM      5  O   UNL     1      -4.567  35.596  21.369  1.00  0.00    -0.550 OA
ENDBRANCH   2   3
ENDBRANCH   1   2
BRANCH   1   6
ATOM      6  C   UNL     1      -2.130  37.614  18.327  1.00  0.00     0.000 C 
BRANCH   6   7
ATOM      7  C   UNL     1      -3.011  37.157  17.150  1.00  0.00    -0.000 C 
BRANCH   7   8
ATOM      8  C   UNL     1      -2.185  36.595  15.982  1.00  0.00    -0.003 C 
ATOM      9  C   UNL     1      -2.965  36.565  14.669  1.00  0.00     0.004 C 
ENDBRANCH   7   8
ENDBRANCH   6   7
ENDBRANCH   1   6
TORSDOF 5
ENDMDL
MODEL 3
REMARK VINA RESULT:    -3.779      3.021      4.914
REMARK INTER + INTRA:          -5.068
REMARK INTER:                  -4.879
REMARK INTRA:                  -0.189
REMARK UNBOUND:                -0.185
REMARK SMILES CCCCCCC(=O)[O-]
REMARK SMILES IDX 5 1 6 2 7 3 8 4 9 5 4 6 3 7 2 8 1 9
REMARK H PARENT
REMARK Flexibility Score: inf
ROOT
ATOM      1  C   UNL     1      -2.432  37.510  18.098  1.00  0.00     0.006 C 
ENDROOT
BRANCH   1   2
ATOM      2  C   UNL     1      -3.284  36.698  17.113  1.00  0.00     0.053 C 
BRANCH   2   3
ATOM      3  C   UNL     1      -2.946  37.067  15.702  1.00  0.00     0.041 C 
ATOM      4  O   UNL     1      -2.008  36.479  15.101  1.00  0.00    -0.550 OA
ATOM      5  O   UNL     1      -3.698  38.024  15.036  1.00  0.00    -0.550 OA
ENDBRANCH   2   3
ENDBRANCH   1   2
BRANCH   1   6
ATOM      6  C   UNL     1      -2.971  37.446  19.536  1.00  0.00     0.000 C 
BRANCH   6   7
ATOM      7  C   UNL     1      -4.508  37.396  19.589  1.00  0.00    -0.000 C 
BRANCH   7   8
ATOM      8  C   UNL     1      -5.033  36.079  20.182  1.00  0.00    -0.003 C 
ATOM      9  C   UNL     1      -4.084  35.478  21.217  1.00  0.00     0.004 C 
ENDBRANCH   7   8
ENDBRANCH   6   7
ENDBRANCH   1   6
TORSDOF 5
ENDMDL
MODEL 4
REMARK VINA RESULT:    -3.181      3.357      4.946
REMARK INTER + INTRA:          -4.296
REMARK INTER:                  -4.084
REMARK INTRA:                  -0.211
REMARK UNBOUND:                -0.185
REMARK SMILES CCCCCCC(=O)[O-]
REMARK SMILES IDX 5 1 6 2 7 3 8 4 9 5 4 6 3 7 2 8 1 9
REMARK H PARENT
REMARK Flexibility Score: inf
ROOT
ATOM      1  C   UNL     1      -3.476  35.993  16.851  1.00  0.00     0.006 C 
ENDROOT
BRANCH   1   2
ATOM      2  C   UNL     1      -3.182  37.345  16.187  1.00  0.00     0.053 C 
BRANCH   2   3
ATOM      3  C   UNL     1      -3.341  37.243  14.703  1.00  0.00     0.041 C 
ATOM      4  O   UNL     1      -2.482  36.631  14.014  1.00  0.00    -0.550 OA
ATOM      5  O   UNL     1      -4.462  37.780  14.086  1.00  0.00    -0.550 OA
ENDBRANCH   2   3
ENDBRANCH   1   2
BRANCH   1   6
ATOM      6  C   UNL     1      -3.996  36.142  18.290  1.00  0.00     0.000 C 
BRANCH   6   7
ATOM      7  C   UNL     1      -3.648  37.510  18.904  1.00  0.00    -0.000 C 
BRANCH   7   8
ATOM      8  C   UNL     1      -2.389  37.457  19.783  1.00  0.00    -0.003 C 
ATOM      9  C   UNL     1      -1.153  38.015  19.078  1.00  0.00     0.004 C 
ENDBRANCH   7   8
ENDBRANCH   6   7
ENDBRANCH   1   6
TORSDOF 5
ENDMDL
MODEL 5
REMARK VINA RESULT:    -2.777      2.216      2.609
REMARK INTER + INTRA:          -3.774
REMARK INTER:                  -3.656
REMARK INTRA:                  -0.118
REMARK UNBOUND:                -0.185
REMARK SMILES CCCCCCC(=O)[O-]
REMARK SMILES IDX 5 1 6 2 7 3 8 4 9 5 4 6 3 7 2 8 1 9
REMARK H PARENT
REMARK Flexibility Score: inf
ROOT
ATOM      1  C   UNL     1      -3.561  37.529  18.362  1.00  0.00     0.006 C 
ENDROOT
BRANCH   1   2
ATOM      2  C   UNL     1      -2.861  37.240  19.696  1.00  0.00     0.053 C 
BRANCH   2   3
ATOM      3  C   UNL     1      -1.423  37.649  19.631  1.00  0.00     0.041 C 
ATOM      4  O   UNL     1      -0.583  37.140  20.419  1.00  0.00    -0.550 OA
ATOM      5  O   UNL     1      -1.002  38.556  18.668  1.00  0.00    -0.550 OA
ENDBRANCH   2   3
ENDBRANCH   1   2
BRANCH   1   6
ATOM      6  C   UNL     1      -3.264  36.462  17.296  1.00  0.00     0.000 C 
BRANCH   6   7
ATOM      7  C   UNL     1      -2.551  37.043  16.061  1.00  0.00    -0.000 C 
BRANCH   7   8
ATOM      8  C   UNL     1      -3.194  36.585  14.743  1.00  0.00    -0.003 C 
ATOM      9  C   UNL     1      -4.028  37.681  14.081  1.00  0.00     0.004 C 
ENDBRANCH   7   8
ENDBRANCH   6   7
ENDBRANCH   1   6
TORSDOF 5
ENDMDL
MODEL 6
REMARK VINA RESULT:    -2.745      2.748      5.294
REMARK INTER + INTRA:          -3.732
REMARK INTER:                  -3.511
REMARK INTRA:                  -0.221
REMARK UNBOUND:                -0.185
REMARK SMILES CCCCCCC(=O)[O-]
REMARK SMILES IDX 5 1 6 2 7 3 8 4 9 5 4 6 3 7 2 8 1 9
REMARK H PARENT
REMARK Flexibility Score: inf
ROOT
ATOM      1  C   UNL     1      -4.611  37.633  19.548  1.00  0.00     0.006 C 
ENDROOT
BRANCH   1   2
ATOM      2  C   UNL     1      -3.082  37.611  19.415  1.00  0.00     0.053 C 
BRANCH   2   3
ATOM      3  C   UNL     1      -2.684  37.216  18.028  1.00  0.00     0.041 C 
ATOM      4  O   UNL     1      -1.473  37.241  17.685  1.00  0.00    -0.550 OA
ATOM      5  O   UNL     1      -3.645  36.774  17.129  1.00  0.00    -0.550 OA
ENDBRANCH   2   3
ENDBRANCH   1   2
BRANCH   1   6
ATOM      6  C   UNL     1      -5.124  36.667  20.628  1.00  0.00     0.000 C 
BRANCH   6   7
ATOM      7  C   UNL     1      -4.051  35.658  21.076  1.00  0.00    -0.000 C 
BRANCH   7   8
ATOM      8  C   UNL     1      -4.456  34.896  22.347  1.00  0.00    -0.003 C 
ATOM      9  C   UNL     1      -5.125  35.793  23.387  1.00  0.00     0.004 C 
ENDBRANCH   7   8
ENDBRANCH   6   7
ENDBRANCH   1   6
TORSDOF 5
ENDMDL
MODEL 7
REMARK VINA RESULT:    -2.035      1.322      1.722
REMARK INTER + INTRA:          -2.815
REMARK INTER:                  -2.921
REMARK INTRA:                   0.106
REMARK UNBOUND:                -0.185
REMARK SMILES CCCCCCC(=O)[O-]
REMARK SMILES IDX 5 1 6 2 7 3 8 4 9 5 4 6 3 7 2 8 1 9
REMARK H PARENT
REMARK Flexibility Score: inf
ROOT
ATOM      1  C   UNL     1      -4.182  36.045  17.707  1.00  0.00     0.006 C 
ENDROOT
BRANCH   1   2
ATOM      2  C   UNL     1      -4.279  35.992  19.237  1.00  0.00     0.053 C 
BRANCH   2   3
ATOM      3  C   UNL     1      -4.107  37.360  19.819  1.00  0.00     0.041 C 
ATOM      4  O   UNL     1      -5.109  38.100  20.005  1.00  0.00    -0.550 OA
ATOM      5  O   UNL     1      -2.847  37.798  20.203  1.00  0.00    -0.550 OA
ENDBRANCH   2   3
ENDBRANCH   1   2
BRANCH   1   6
ATOM      6  C   UNL     1      -3.185  37.107  17.215  1.00  0.00     0.000 C 
BRANCH   6   7
ATOM      7  C   UNL     1      -3.421  37.502  15.746  1.00  0.00    -0.000 C 
BRANCH   7   8
ATOM      8  C   UNL     1      -2.615  36.634  14.767  1.00  0.00    -0.003 C 
ATOM      9  C   UNL     1      -1.526  35.818  15.462  1.00  0.00     0.004 C 
ENDBRANCH   7   8
ENDBRANCH   6   7
ENDBRANCH   1   6
TORSDOF 5
ENDMDL
MODEL 8
REMARK VINA RESULT:    -1.821      2.884      5.071
REMARK INTER + INTRA:          -2.537
REMARK INTER:                  -2.385
REMARK INTRA:                  -0.153
REMARK UNBOUND:                -0.185
REMARK SMILES CCCCCCC(=O)[O-]
REMARK SMILES IDX 5 1 6 2 7 3 8 4 9 5 4 6 3 7 2 8 1 9
REMARK H PARENT
REMARK Flexibility Score: inf
ROOT
ATOM      1  C   UNL     1      -3.968  35.382  17.675  1.00  0.00     0.006 C 
ENDROOT
BRANCH   1   2
ATOM      2  C   UNL     1      -3.627  36.855  17.418  1.00  0.00     0.053 C 
BRANCH   2   3
ATOM      3  C   UNL     1      -2.193  36.996  17.015  1.00  0.00     0.041 C 
ATOM      4  O   UNL     1      -1.355  37.491  17.816  1.00  0.00    -0.550 OA
ATOM      5  O   UNL     1      -1.772  36.536  15.775  1.00  0.00    -0.550 OA
ENDBRANCH   2   3
ENDBRANCH   1   2
BRANCH   1   6
ATOM      6  C   UNL     1      -4.934  35.197  18.857  1.00  0.00     0.000 C 
BRANCH   6   7
ATOM      7  C   UNL     1      -4.600  36.120  20.042  1.00  0.00    -0.000 C 
BRANCH   7   8
ATOM      8  C   UNL     1      -4.145  35.339  21.285  1.00  0.00    -0.003 C 
ATOM      9  C   UNL     1      -5.125  35.460  22.451  1.00  0.00     0.004 C 
ENDBRANCH   7   8
ENDBRANCH   6   7
ENDBRANCH   1   6
TORSDOF 5
ENDMDL
