MODEL 1
REMARK VINA RESULT:    -3.719      0.000      0.000
REMARK INTER + INTRA:          -4.506
REMARK INTER:                  -4.588
REMARK INTRA:                   0.082
REMARK UNBOUND:                 0.082
REMARK SMILES CCCCCC(=O)[O-]
REMARK SMILES IDX 4 1 5 2 6 3 7 4 8 5 3 6 2 7 1 8
REMARK H PARENT
REMARK Flexibility Score: inf
ROOT
ATOM      1  C   UNL     1     -21.003  -1.225   7.314  1.00  0.00     0.006 C 
ENDROOT
BRANCH   1   2
ATOM      2  C   UNL     1     -21.069  -0.897   8.809  1.00  0.00     0.053 C 
BRANCH   2   3
ATOM      3  C   UNL     1     -20.543  -2.039   9.619  1.00  0.00     0.041 C 
ATOM      4  O   UNL     1     -20.012  -3.029   9.051  1.00  0.00    -0.550 OA
ATOM      5  O   UNL     1     -20.592  -1.987  11.007  1.00  0.00    -0.550 OA
ENDBRANCH   2   3
ENDBRANCH   1   2
BRANCH   1   6
ATOM      6  C   UNL     1     -21.364  -0.000   6.466  1.00  0.00     0.000 C 
BRANCH   6   7
ATOM      7  C   UNL     1     -20.647   1.255   6.977  1.00  0.00    -0.003 C 
ATOM      8  C   UNL     1     -21.618   2.195   7.683  1.00  0.00     0.004 C 
ENDBRANCH   6   7
ENDBRANCH   1   6
TORSDOF 4
ENDMDL
MODEL 2
REMARK VINA RESULT:    -3.685      2.696      3.757
REMARK INTER + INTRA:          -4.465
REMARK INTER:                  -4.632
REMARK INTRA:                   0.167
REMARK UNBOUND:                 0.082
REMARK SMILES CCCCCC(=O)[O-]
REMARK SMILES IDX 4 1 5 2 6 3 7 4 8 5 3 6 2 7 1 8
REMARK H PARENT
REMARK Flexibility Score: inf
ROOT
ATOM      1  C   UNL     1     -21.217   1.529   7.295  1.00  0.00     0.006 C 
ENDROOT
BRANCH   1   2
ATOM      2  C   UNL     1     -21.421   0.901   8.677  1.00  0.00     0.053 C 
BRANCH   2   3
ATOM      3  C   UNL     1     -22.146   1.847   9.581  1.00  0.00     0.041 C 
ATOM      4  O   UNL     1     -22.338   1.550  10.789  1.00  0.00    -0.550 OA
ATOM      5  O   UNL     1     -22.568   3.081   9.100  1.00  0.00    -0.550 OA
ENDBRANCH   2   3
ENDBRANCH   1   2
BRANCH   1   6
ATOM      6  C   UNL     1     -21.496   0.512   6.183  1.00  0.00     0.000 C 
BRANCH   6   7
ATOM      7  C   UNL     1     -20.454  -0.613   6.191  1.00  0.00    -0.003 C 
ATOM      8  C   UNL     1     -20.957  -1.824   6.971  1.00  0.00     0.004 C 
ENDBRANCH   6   7
ENDBRANCH   1   6
TORSDOF 4
ENDMDL
MODEL 3
REMARK VINA RESULT:    -3.619      2.562      3.821
REMARK INTER + INTRA:          -4.383
REMARK INTER:                  -4.263
REMARK INTRA:                  -0.120
REMARK UNBOUND:                 0.082
REMARK SMILES CCCCCC(=O)[O-]
REMARK SMILES IDX 4 1 5 2 6 3 7 4 8 5 3 6 2 7 1 8
REMARK H PARENT
REMARK Flexibility Score: inf
ROOT
ATOM      1  C   UNL     1     -21.592   0.503   6.492  1.00  0.00     0.006 C 
ENDROOT
BRANCH   1   2
ATOM      2  C   UNL     1     -21.068   1.749   7.211  1.00  0.00     0.053 C 
BRANCH   2   3
ATOM      3  C   UNL     1     -21.798   1.957   8.500  1.00  0.00     0.041 C 
ATOM      4  O   UNL     1     -21.766   1.074   9.397  1.00  0.00    -0.550 OA
ATOM      5  O   UNL     1     -22.474   3.149   8.732  1.00  0.00    -0.550 OA
ENDBRANCH   2   3
ENDBRANCH   1   2
BRANCH   1   6
ATOM      6  C   UNL     1     -20.523  -0.594   6.441  1.00  0.00     0.000 C 
BRANCH   6   7
ATOM      7  C   UNL     1     -21.005  -1.867   7.145  1.00  0.00    -0.003 C 
ATOM      8  C   UNL     1     -20.617  -1.861   8.621  1.00  0.00     0.004 C 
ENDBRANCH   6   7
ENDBRANCH   1   6
TORSDOF 4
ENDMDL
MODEL 4
REMARK VINA RESULT:    -3.432      2.666      4.082
REMARK INTER + INTRA:          -4.152
REMARK INTER:                  -4.121
REMARK INTRA:                  -0.031
REMARK UNBOUND:                 0.082
REMARK SMILES CCCCCC(=O)[O-]
REMARK SMILES IDX 4 1 5 2 6 3 7 4 8 5 3 6 2 7 1 8
REMARK H PARENT
REMARK Flexibility Score: inf
ROOT
ATOM      1  C   UNL     1     -20.992  -1.314   7.323  1.00  0.00     0.006 C 
ENDROOT
BRANCH   1   2
ATOM      2  C   UNL     1     -21.567  -0.145   6.517  1.00  0.00     0.053 C 
BRANCH   2   3
ATOM      3  C   UNL     1     -20.974   1.150   6.976  1.00  0.00     0.041 C 
ATOM      4  O   UNL     1     -19.791   1.451   6.667  1.00  0.00    -0.550 OA
ATOM      5  O   UNL     1     -21.745   2.047   7.704  1.00  0.00    -0.550 OA
ENDBRANCH   2   3
ENDBRANCH   1   2
BRANCH   1   6
ATOM      6  C   UNL     1     -21.002  -1.005   8.825  1.00  0.00     0.000 C 
BRANCH   6   7
ATOM      7  C   UNL     1     -20.418  -2.171   9.631  1.00  0.00    -0.003 C 
ATOM      8  C   UNL     1     -20.584  -1.942  11.130  1.00  0.00     0.004 C 
ENDBRANCH   6   7
ENDBRANCH   1   6
TORSDOF 4
ENDMDL
MODEL 5
REMARK VINA RESULT:    -3.371      2.346      3.253
REMARK INTER + INTRA:          -4.077
REMARK INTER:                  -4.073
REMARK INTRA:                  -0.004
REMARK UNBOUND:                 0.082
REMARK SMILES CCCCCC(=O)[O-]
REMARK SMILES IDX 4 1 5 2 6 3 7 4 8 5 3 6 2 7 1 8
REMARK H PARENT
REMARK Flexibility Score: inf
ROOT
ATOM      1  C   UNL     1     -21.255   1.418   7.583  1.00  0.00     0.006 C 
ENDROOT
BRANCH   1   2
ATOM      2  C   UNL     1     -20.604   0.396   6.646  1.00  0.00     0.053 C 
BRANCH   2   3
ATOM      3  C   UNL     1     -21.246  -0.946   6.807  1.00  0.00     0.041 C 
ATOM      4  O   UNL     1     -22.366  -1.180   6.281  1.00  0.00    -0.550 OA
ATOM      5  O   UNL     1     -20.584  -1.955   7.496  1.00  0.00    -0.550 OA
ENDBRANCH   2   3
ENDBRANCH   1   2
BRANCH   1   6
ATOM      6  C   UNL     1     -21.467   0.828   8.981  1.00  0.00     0.000 C 
BRANCH   6   7
ATOM      7  C   UNL     1     -22.279   1.782   9.865  1.00  0.00    -0.003 C 
ATOM      8  C   UNL     1     -22.065   1.480  11.344  1.00  0.00     0.004 C 
ENDBRANCH   6   7
ENDBRANCH   1   6
TORSDOF 4
ENDMDL
MODEL 6
REMARK VINA RESULT:    -3.304      1.828      2.796
REMARK INTER + INTRA:          -3.994
REMARK INTER:                  -3.886
REMARK INTRA:                  -0.109
REMARK UNBOUND:                 0.082
REMARK SMILES CCCCCC(=O)[O-]
REMARK SMILES IDX 4 1 5 2 6 3 7 4 8 5 3 6 2 7 1 8
REMARK H PARENT
REMARK Flexibility Score: inf
ROOT
ATOM      1  C   UNL     1     -21.569   0.607   9.549  1.00  0.00     0.006 C 
ENDROOT
BRANCH   1   2
ATOM      2  C   UNL     1     -21.253   0.286   8.085  1.00  0.00     0.053 C 
BRANCH   2   3
ATOM      3  C   UNL     1     -20.910  -1.161   7.928  1.00  0.00     0.041 C 
ATOM      4  O   UNL     1     -20.695  -1.876   8.941  1.00  0.00    -0.550 OA
ATOM      5  O   UNL     1     -20.877  -1.733   6.662  1.00  0.00    -0.550 OA
ENDBRANCH   2   3
ENDBRANCH   1   2
BRANCH   1   6
ATOM      6  C   UNL     1     -22.240   1.978   9.680  1.00  0.00     0.000 C 
BRANCH   6   7
ATOM      7  C   UNL     1     -22.043   2.811   8.408  1.00  0.00    -0.003 C 
ATOM      8  C   UNL     1     -22.473   4.259   8.625  1.00  0.00     0.004 C 
ENDBRANCH   6   7
ENDBRANCH   1   6
TORSDOF 4
ENDMDL
MODEL 7
REMARK VINA RESULT:    -3.212      2.739      4.326
REMARK INTER + INTRA:          -3.881
REMARK INTER:                  -3.779
REMARK INTRA:                  -0.102
REMARK UNBOUND:                 0.082
REMARK SMILES CCCCCC(=O)[O-]
REMARK SMILES IDX 4 1 5 2 6 3 7 4 8 5 3 6 2 7 1 8
REMARK H PARENT
REMARK Flexibility Score: inf
ROOT
ATOM      1  C   UNL     1     -20.967  -1.178   9.352  1.00  0.00     0.006 C 
ENDROOT
BRANCH   1   2
ATOM      2  C   UNL     1     -20.990  -0.648   7.915  1.00  0.00     0.053 C 
BRANCH   2   3
ATOM      3  C   UNL     1     -21.352   0.803   7.897  1.00  0.00     0.041 C 
ATOM      4  O   UNL     1     -21.249   1.469   6.833  1.00  0.00    -0.550 OA
ATOM      5  O   UNL     1     -21.851   1.409   9.043  1.00  0.00    -0.550 OA
ENDBRANCH   2   3
ENDBRANCH   1   2
BRANCH   1   6
ATOM      6  C   UNL     1     -20.227  -2.518   9.433  1.00  0.00     0.000 C 
BRANCH   6   7
ATOM      7  C   UNL     1     -20.278  -3.256   8.090  1.00  0.00    -0.003 C 
ATOM      8  C   UNL     1     -19.930  -4.732   8.260  1.00  0.00     0.004 C 
ENDBRANCH   6   7
ENDBRANCH   1   6
TORSDOF 4
ENDMDL
MODEL 8
REMARK VINA RESULT:    -3.109      2.799      4.331
REMARK INTER + INTRA:          -3.754
REMARK INTER:                  -3.639
REMARK INTRA:                  -0.115
REMARK UNBOUND:                 0.082
REMARK SMILES CCCCCC(=O)[O-]
REMARK SMILES IDX 4 1 5 2 6 3 7 4 8 5 3 6 2 7 1 8
REMARK H PARENT
REMARK Flexibility Score: inf
ROOT
ATOM      1  C   UNL     1     -20.880  -1.409   8.042  1.00  0.00     0.006 C 
ENDROOT
BRANCH   1   2
ATOM      2  C   UNL     1     -21.193   0.046   8.407  1.00  0.00     0.053 C 
BRANCH   2   3
ATOM      3  C   UNL     1     -21.310   0.883   7.173  1.00  0.00     0.041 C 
ATOM      4  O   UNL     1     -21.316   2.139   7.257  1.00  0.00    -0.550 OA
ATOM      5  O   UNL     1     -21.363   0.276   5.925  1.00  0.00    -0.550 OA
ENDBRANCH   2   3
ENDBRANCH   1   2
BRANCH   1   6
ATOM      6  C   UNL     1     -20.481  -2.214   9.283  1.00  0.00     0.000 C 
BRANCH   6   7
ATOM      7  C   UNL     1     -20.629  -1.374  10.557  1.00  0.00    -0.003 C 
ATOM      8  C   UNL     1     -20.965  -2.250  11.760  1.00  0.00     0.004 C 
ENDBRANCH   6   7
ENDBRANCH   1   6
TORSDOF 4
ENDMDL
MODEL 9
REMARK VINA RESULT:    -2.970      2.787      3.441
REMARK INTER + INTRA:          -3.582
REMARK INTER:                  -3.485
REMARK INTRA:                  -0.098
REMARK UNBOUND:                 0.082
REMARK SMILES CCCCCC(=O)[O-]
REMARK SMILES IDX 4 1 5 2 6 3 7 4 8 5 3 6 2 7 1 8
REMARK H PARENT
REMARK Flexibility Score: inf
ROOT
ATOM      1  C   UNL     1     -21.048   0.158   8.670  1.00  0.00     0.006 C 
ENDROOT
BRANCH   1   2
ATOM      2  C   UNL     1     -21.435   0.050  10.148  1.00  0.00     0.053 C 
BRANCH   2   3
ATOM      3  C   UNL     1     -22.104   1.306  10.608  1.00  0.00     0.041 C 
ATOM      4  O   UNL     1     -22.167   1.579  11.835  1.00  0.00    -0.550 OA
ATOM      5  O   UNL     1     -22.614   2.202   9.676  1.00  0.00    -0.550 OA
ENDBRANCH   2   3
ENDBRANCH   1   2
BRANCH   1   6
ATOM      6  C   UNL     1     -20.957  -1.229   8.022  1.00  0.00     0.000 C 
BRANCH   6   7
ATOM      7  C   UNL     1     -20.975  -1.124   6.493  1.00  0.00    -0.003 C 
ATOM      8  C   UNL     1     -21.334   0.287   6.041  1.00  0.00     0.004 C 
ENDBRANCH   6   7
ENDBRANCH   1   6
TORSDOF 4
ENDMDL
