MODEL 1
REMARK VINA RESULT:    -4.719      0.000      0.000
REMARK INTER + INTRA:          -5.561
REMARK INTER:                  -5.823
REMARK INTRA:                   0.262
REMARK UNBOUND:                 0.262
REMARK SMILES CCCCC=CC(C)=O
REMARK SMILES IDX 4 1 3 2 2 3 1 4 5 5 6 6 7 7 9 8 8 9
REMARK H PARENT
REMARK Flexibility Score: inf
ROOT
ATOM      1  C   UNL     1       7.621  16.129  55.094  1.00  0.00     0.027 C 
ENDROOT
BRANCH   1   2
ATOM      2  C   UNL     1       7.105  16.127  56.542  1.00  0.00     0.004 C 
BRANCH   2   3
ATOM      3  C   UNL     1       5.617  15.755  56.622  1.00  0.00    -0.003 C 
ATOM      4  C   UNL     1       4.958  15.823  55.247  1.00  0.00     0.004 C 
ENDBRANCH   2   3
ENDBRANCH   1   2
BRANCH   1   5
ATOM      5  C   UNL     1       8.517  14.953  54.801  1.00  0.00    -0.023 C 
ATOM      6  C   UNL     1       9.636  14.979  54.058  1.00  0.00     0.042 C 
BRANCH   6   7
ATOM      7  C   UNL     1      10.186  16.150  53.337  1.00  0.00     0.152 C 
ATOM      8  O   UNL     1       9.570  17.247  53.289  1.00  0.00    -0.295 OA
ATOM      9  C   UNL     1      11.468  16.006  52.583  1.00  0.00     0.093 C 
ENDBRANCH   6   7
ENDBRANCH   1   5
TORSDOF 4
ENDMDL
MODEL 2
REMARK VINA RESULT:    -4.406     13.917     14.690
REMARK INTER + INTRA:          -5.174
REMARK INTER:                  -4.576
REMARK INTRA:                  -0.598
REMARK UNBOUND:                 0.262
REMARK SMILES CCCCC=CC(C)=O
REMARK SMILES IDX 4 1 3 2 2 3 1 4 5 5 6 6 7 7 9 8 8 9
REMARK H PARENT
REMARK Flexibility Score: inf
ROOT
ATOM      1  C   UNL     1       6.041  29.558  53.011  1.00  0.00     0.027 C 
ENDROOT
BRANCH   1   2
ATOM      2  C   UNL     1       6.111  28.145  53.611  1.00  0.00     0.004 C 
BRANCH   2   3
ATOM      3  C   UNL     1       4.924  27.274  53.175  1.00  0.00    -0.003 C 
ATOM      4  C   UNL     1       4.476  27.624  51.758  1.00  0.00     0.004 C 
ENDBRANCH   2   3
ENDBRANCH   1   2
BRANCH   1   5
ATOM      5  C   UNL     1       5.729  30.607  54.046  1.00  0.00    -0.023 C 
ATOM      6  C   UNL     1       4.502  31.018  54.409  1.00  0.00     0.042 C 
BRANCH   6   7
ATOM      7  C   UNL     1       3.216  30.566  53.831  1.00  0.00     0.152 C 
ATOM      8  O   UNL     1       2.559  29.619  54.341  1.00  0.00    -0.295 OA
ATOM      9  C   UNL     1       2.720  31.196  52.571  1.00  0.00     0.093 C 
ENDBRANCH   6   7
ENDBRANCH   1   5
TORSDOF 4
ENDMDL
MODEL 3
REMARK VINA RESULT:    -4.318     13.756     14.677
REMARK INTER + INTRA:          -5.065
REMARK INTER:                  -4.544
REMARK INTRA:                  -0.521
REMARK UNBOUND:                 0.262
REMARK SMILES CCCCC=CC(C)=O
REMARK SMILES IDX 4 1 3 2 2 3 1 4 5 5 6 6 7 7 9 8 8 9
REMARK H PARENT
REMARK Flexibility Score: inf
ROOT
ATOM      1  C   UNL     1       3.883  27.981  52.614  1.00  0.00     0.027 C 
ENDROOT
BRANCH   1   2
ATOM      2  C   UNL     1       5.168  27.291  53.097  1.00  0.00     0.004 C 
BRANCH   2   3
ATOM      3  C   UNL     1       6.203  28.300  53.617  1.00  0.00    -0.003 C 
ATOM      4  C   UNL     1       6.754  29.157  52.481  1.00  0.00     0.004 C 
ENDBRANCH   2   3
ENDBRANCH   1   2
BRANCH   1   5
ATOM      5  C   UNL     1       2.929  28.275  53.742  1.00  0.00    -0.023 C 
ATOM      6  C   UNL     1       2.519  29.494  54.133  1.00  0.00     0.042 C 
BRANCH   6   7
ATOM      7  C   UNL     1       2.960  30.791  53.573  1.00  0.00     0.152 C 
ATOM      8  O   UNL     1       2.371  31.324  52.596  1.00  0.00    -0.295 OA
ATOM      9  C   UNL     1       4.179  31.451  54.131  1.00  0.00     0.093 C 
ENDBRANCH   6   7
ENDBRANCH   1   5
TORSDOF 4
ENDMDL
MODEL 4
REMARK VINA RESULT:    -4.304     13.583     14.091
REMARK INTER + INTRA:          -5.048
REMARK INTER:                  -4.521
REMARK INTRA:                  -0.527
REMARK UNBOUND:                 0.262
REMARK SMILES CCCCC=CC(C)=O
REMARK SMILES IDX 4 1 3 2 2 3 1 4 5 5 6 6 7 7 9 8 8 9
REMARK H PARENT
REMARK Flexibility Score: inf
ROOT
ATOM      1  C   UNL     1       5.638  30.498  53.133  1.00  0.00     0.027 C 
ENDROOT
BRANCH   1   2
ATOM      2  C   UNL     1       4.760  31.201  54.181  1.00  0.00     0.004 C 
BRANCH   2   3
ATOM      3  C   UNL     1       3.266  30.917  53.965  1.00  0.00    -0.003 C 
ATOM      4  C   UNL     1       2.923  30.879  52.478  1.00  0.00     0.004 C 
ENDBRANCH   2   3
ENDBRANCH   1   2
BRANCH   1   5
ATOM      5  C   UNL     1       6.405  29.337  53.711  1.00  0.00    -0.023 C 
ATOM      6  C   UNL     1       6.069  28.040  53.610  1.00  0.00     0.042 C 
BRANCH   6   7
ATOM      7  C   UNL     1       4.856  27.494  52.960  1.00  0.00     0.152 C 
ATOM      8  O   UNL     1       3.748  27.451  53.557  1.00  0.00    -0.295 OA
ATOM      9  C   UNL     1       4.964  26.909  51.589  1.00  0.00     0.093 C 
ENDBRANCH   6   7
ENDBRANCH   1   5
TORSDOF 4
ENDMDL
MODEL 5
REMARK VINA RESULT:    -4.257     13.682     14.425
REMARK INTER + INTRA:          -4.990
REMARK INTER:                  -4.520
REMARK INTRA:                  -0.470
REMARK UNBOUND:                 0.262
REMARK SMILES CCCCC=CC(C)=O
REMARK SMILES IDX 4 1 3 2 2 3 1 4 5 5 6 6 7 7 9 8 8 9
REMARK H PARENT
REMARK Flexibility Score: inf
ROOT
ATOM      1  C   UNL     1       2.917  30.212  53.362  1.00  0.00     0.027 C 
ENDROOT
BRANCH   1   2
ATOM      2  C   UNL     1       3.792  31.006  54.345  1.00  0.00     0.004 C 
BRANCH   2   3
ATOM      3  C   UNL     1       4.985  31.673  53.644  1.00  0.00    -0.003 C 
ATOM      4  C   UNL     1       6.231  31.633  54.524  1.00  0.00     0.004 C 
ENDBRANCH   2   3
ENDBRANCH   1   2
BRANCH   1   5
ATOM      5  C   UNL     1       2.619  28.819  53.854  1.00  0.00    -0.023 C 
ATOM      6  C   UNL     1       3.361  27.724  53.619  1.00  0.00     0.042 C 
BRANCH   6   7
ATOM      7  C   UNL     1       4.586  27.651  52.791  1.00  0.00     0.152 C 
ATOM      8  O   UNL     1       4.558  27.231  51.604  1.00  0.00    -0.295 OA
ATOM      9  C   UNL     1       5.901  28.015  53.400  1.00  0.00     0.093 C 
ENDBRANCH   6   7
ENDBRANCH   1   5
TORSDOF 4
ENDMDL
MODEL 6
REMARK VINA RESULT:    -4.247      8.309      9.405
REMARK INTER + INTRA:          -4.978
REMARK INTER:                  -4.520
REMARK INTRA:                  -0.459
REMARK UNBOUND:                 0.262
REMARK SMILES CCCCC=CC(C)=O
REMARK SMILES IDX 4 1 3 2 2 3 1 4 5 5 6 6 7 7 9 8 8 9
REMARK H PARENT
REMARK Flexibility Score: inf
ROOT
ATOM      1  C   UNL     1      13.065  20.218  58.530  1.00  0.00     0.027 C 
ENDROOT
BRANCH   1   2
ATOM      2  C   UNL     1      14.076  20.449  59.664  1.00  0.00     0.004 C 
BRANCH   2   3
ATOM      3  C   UNL     1      14.810  21.790  59.517  1.00  0.00    -0.003 C 
ATOM      4  C   UNL     1      14.737  22.600  60.809  1.00  0.00     0.004 C 
ENDBRANCH   2   3
ENDBRANCH   1   2
BRANCH   1   5
ATOM      5  C   UNL     1      12.798  21.469  57.735  1.00  0.00    -0.023 C 
ATOM      6  C   UNL     1      11.758  22.303  57.901  1.00  0.00     0.042 C 
BRANCH   6   7
ATOM      7  C   UNL     1      10.641  22.137  58.859  1.00  0.00     0.152 C 
ATOM      8  O   UNL     1       9.578  21.540  58.539  1.00  0.00    -0.295 OA
ATOM      9  C   UNL     1      10.744  22.756  60.215  1.00  0.00     0.093 C 
ENDBRANCH   6   7
ENDBRANCH   1   5
TORSDOF 4
ENDMDL
MODEL 7
REMARK VINA RESULT:    -4.226     14.268     15.036
REMARK INTER + INTRA:          -4.953
REMARK INTER:                  -4.565
REMARK INTRA:                  -0.388
REMARK UNBOUND:                 0.262
REMARK SMILES CCCCC=CC(C)=O
REMARK SMILES IDX 4 1 3 2 2 3 1 4 5 5 6 6 7 7 9 8 8 9
REMARK H PARENT
REMARK Flexibility Score: inf
ROOT
ATOM      1  C   UNL     1       4.220  31.424  53.630  1.00  0.00     0.027 C 
ENDROOT
BRANCH   1   2
ATOM      2  C   UNL     1       5.262  31.618  54.744  1.00  0.00     0.004 C 
BRANCH   2   3
ATOM      3  C   UNL     1       6.615  30.987  54.383  1.00  0.00    -0.003 C 
ATOM      4  C   UNL     1       7.770  31.905  54.770  1.00  0.00     0.004 C 
ENDBRANCH   2   3
ENDBRANCH   1   2
BRANCH   1   5
ATOM      5  C   UNL     1       3.161  30.420  54.002  1.00  0.00    -0.023 C 
ATOM      6  C   UNL     1       3.131  29.129  53.628  1.00  0.00     0.042 C 
BRANCH   6   7
ATOM      7  C   UNL     1       4.098  28.449  52.737  1.00  0.00     0.152 C 
ATOM      8  O   UNL     1       4.039  28.565  51.484  1.00  0.00    -0.295 OA
ATOM      9  C   UNL     1       5.125  27.541  53.332  1.00  0.00     0.093 C 
ENDBRANCH   6   7
ENDBRANCH   1   5
TORSDOF 4
ENDMDL
MODEL 8
REMARK VINA RESULT:    -4.207     13.789     14.382
REMARK INTER + INTRA:          -4.929
REMARK INTER:                  -4.646
REMARK INTRA:                  -0.283
REMARK UNBOUND:                 0.262
REMARK SMILES CCCCC=CC(C)=O
REMARK SMILES IDX 4 1 3 2 2 3 1 4 5 5 6 6 7 7 9 8 8 9
REMARK H PARENT
REMARK Flexibility Score: inf
ROOT
ATOM      1  C   UNL     1       5.775  30.374  52.670  1.00  0.00     0.027 C 
ENDROOT
BRANCH   1   2
ATOM      2  C   UNL     1       5.772  31.761  53.334  1.00  0.00     0.004 C 
BRANCH   2   3
ATOM      3  C   UNL     1       6.433  31.737  54.720  1.00  0.00    -0.003 C 
ATOM      4  C   UNL     1       7.752  32.504  54.713  1.00  0.00     0.004 C 
ENDBRANCH   2   3
ENDBRANCH   1   2
BRANCH   1   5
ATOM      5  C   UNL     1       6.321  29.303  53.578  1.00  0.00    -0.023 C 
ATOM      6  C   UNL     1       5.923  28.020  53.614  1.00  0.00     0.042 C 
BRANCH   6   7
ATOM      7  C   UNL     1       4.837  27.414  52.811  1.00  0.00     0.152 C 
ATOM      8  O   UNL     1       3.666  27.299  53.262  1.00  0.00    -0.295 OA
ATOM      9  C   UNL     1       5.151  26.855  51.461  1.00  0.00     0.093 C 
ENDBRANCH   6   7
ENDBRANCH   1   5
TORSDOF 4
ENDMDL
MODEL 9
REMARK VINA RESULT:    -4.157      9.929     10.574
REMARK INTER + INTRA:          -4.867
REMARK INTER:                  -4.271
REMARK INTRA:                  -0.596
REMARK UNBOUND:                 0.262
REMARK SMILES CCCCC=CC(C)=O
REMARK SMILES IDX 4 1 3 2 2 3 1 4 5 5 6 6 7 7 9 8 8 9
REMARK H PARENT
REMARK Flexibility Score: inf
ROOT
ATOM      1  C   UNL     1      14.286  21.799  60.432  1.00  0.00     0.027 C 
ENDROOT
BRANCH   1   2
ATOM      2  C   UNL     1      13.160  22.737  59.969  1.00  0.00     0.004 C 
BRANCH   2   3
ATOM      3  C   UNL     1      12.610  22.340  58.591  1.00  0.00    -0.003 C 
ATOM      4  C   UNL     1      13.321  21.102  58.052  1.00  0.00     0.004 C 
ENDBRANCH   2   3
ENDBRANCH   1   2
BRANCH   1   5
ATOM      5  C   UNL     1      15.519  22.549  60.864  1.00  0.00    -0.023 C 
ATOM      6  C   UNL     1      16.579  22.836  60.091  1.00  0.00     0.042 C 
BRANCH   6   7
ATOM      7  C   UNL     1      16.776  22.430  58.681  1.00  0.00     0.152 C 
ATOM      8  O   UNL     1      17.357  21.354  58.377  1.00  0.00    -0.295 OA
ATOM      9  C   UNL     1      16.341  23.352  57.589  1.00  0.00     0.093 C 
ENDBRANCH   6   7
ENDBRANCH   1   5
TORSDOF 4
ENDMDL
