MODEL 1
REMARK VINA RESULT:    -4.783      0.000      0.000
REMARK INTER + INTRA:          -6.661
REMARK INTER:                  -6.041
REMARK INTRA:                  -0.621
REMARK UNBOUND:                -0.621
REMARK SMILES Oc1ccc(CCc2cc(O)cc(O)c2)cc1
REMARK SMILES IDX 6 1 5 2 4 3 3 4 2 5 16 6 17 7 1 8 7 10 8 11 15 12 9 13 13 14
REMARK SMILES IDX 10 15 12 16 14 17 11 19
REMARK H PARENT 1 9 14 18 11 20
REMARK Flexibility Score: inf
ROOT
ATOM      1  C   UNL     1      14.856   5.236  16.081  1.00  0.00     0.040 C 
ENDROOT
BRANCH   1   2
ATOM      2  C   UNL     1      13.828   6.338  16.046  1.00  0.00    -0.047 A 
ATOM      3  C   UNL     1      12.466   6.031  15.896  1.00  0.00     0.007 A 
ATOM      4  C   UNL     1      11.508   7.049  15.911  1.00  0.00     0.046 A 
ATOM      5  C   UNL     1      11.900   8.383  16.084  1.00  0.00     0.115 A 
ATOM      6  C   UNL     1      14.216   7.677  16.224  1.00  0.00     0.007 A 
ATOM      7  C   UNL     1      13.256   8.693  16.241  1.00  0.00     0.046 A 
BRANCH   5   8
ATOM      8  O   UNL     1      10.955   9.406  16.103  1.00  0.00    -0.508 OA
ATOM      9  H   UNL     1      11.114  10.263  16.620  1.00  0.00     0.293 HD
ENDBRANCH   5   8
ENDBRANCH   1   2
BRANCH   1  10
ATOM     10  C   UNL     1      14.216   3.870  16.366  1.00  0.00     0.040 C 
BRANCH  10  11
ATOM     11  C   UNL     1      14.376   3.468  17.811  1.00  0.00    -0.040 A 
ATOM     12  C   UNL     1      15.543   2.814  18.237  1.00  0.00     0.050 A 
ATOM     13  C   UNL     1      13.388   3.801  18.753  1.00  0.00     0.050 A 
ATOM     14  C   UNL     1      15.716   2.483  19.585  1.00  0.00     0.119 A 
ATOM     15  C   UNL     1      13.561   3.473  20.104  1.00  0.00     0.119 A 
ATOM     16  C   UNL     1      14.723   2.812  20.517  1.00  0.00     0.092 A 
BRANCH  14  17
ATOM     17  O   UNL     1      16.880   1.831  19.987  1.00  0.00    -0.508 OA
ATOM     18  H   UNL     1      16.851   1.041  20.622  1.00  0.00     0.293 HD
ENDBRANCH  14  17
BRANCH  15  19
ATOM     19  O   UNL     1      12.587   3.802  21.044  1.00  0.00    -0.508 OA
ATOM     20  H   UNL     1      11.929   3.113  21.388  1.00  0.00     0.293 HD
ENDBRANCH  15  19
ENDBRANCH  10  11
ENDBRANCH   1  10
TORSDOF 6
ENDMDL
MODEL 2
REMARK VINA RESULT:    -4.725     10.554     12.872
REMARK INTER + INTRA:          -6.588
REMARK INTER:                  -6.152
REMARK INTRA:                  -0.436
REMARK UNBOUND:                -0.621
REMARK SMILES Oc1ccc(CCc2cc(O)cc(O)c2)cc1
REMARK SMILES IDX 6 1 5 2 4 3 3 4 2 5 16 6 17 7 1 8 7 10 8 11 15 12 9 13 13 14
REMARK SMILES IDX 10 15 12 16 14 17 11 19
REMARK H PARENT 1 9 14 18 11 20
REMARK Flexibility Score: inf
ROOT
ATOM      1  C   UNL     1      25.026   1.911  17.423  1.00  0.00     0.040 C 
ENDROOT
BRANCH   1   2
ATOM      2  C   UNL     1      23.544   2.052  17.181  1.00  0.00    -0.047 A 
ATOM      3  C   UNL     1      23.020   3.258  16.689  1.00  0.00     0.007 A 
ATOM      4  C   UNL     1      21.653   3.375  16.419  1.00  0.00     0.046 A 
ATOM      5  C   UNL     1      20.799   2.284  16.630  1.00  0.00     0.115 A 
ATOM      6  C   UNL     1      22.685   0.960  17.386  1.00  0.00     0.007 A 
ATOM      7  C   UNL     1      21.319   1.078  17.113  1.00  0.00     0.046 A 
BRANCH   5   8
ATOM      8  O   UNL     1      19.435   2.387  16.363  1.00  0.00    -0.508 OA
ATOM      9  H   UNL     1      18.994   1.827  15.643  1.00  0.00     0.293 HD
ENDBRANCH   5   8
ENDBRANCH   1   2
BRANCH   1  10
ATOM     10  C   UNL     1      25.819   1.909  16.108  1.00  0.00     0.040 C 
BRANCH  10  11
ATOM     11  C   UNL     1      27.137   2.629  16.249  1.00  0.00    -0.040 A 
ATOM     12  C   UNL     1      27.202   4.021  16.085  1.00  0.00     0.050 A 
ATOM     13  C   UNL     1      28.296   1.922  16.608  1.00  0.00     0.050 A 
ATOM     14  C   UNL     1      28.412   4.699  16.263  1.00  0.00     0.119 A 
ATOM     15  C   UNL     1      29.510   2.599  16.789  1.00  0.00     0.119 A 
ATOM     16  C   UNL     1      29.566   3.985  16.613  1.00  0.00     0.092 A 
BRANCH  14  17
ATOM     17  O   UNL     1      28.457   6.081  16.092  1.00  0.00    -0.508 OA
ATOM     18  H   UNL     1      29.277   6.541  15.712  1.00  0.00     0.293 HD
ENDBRANCH  14  17
BRANCH  15  19
ATOM     19  O   UNL     1      30.663   1.904  17.147  1.00  0.00    -0.508 OA
ATOM     20  H   UNL     1      30.927   1.781  18.118  1.00  0.00     0.293 HD
ENDBRANCH  15  19
ENDBRANCH  10  11
ENDBRANCH   1  10
TORSDOF 6
ENDMDL
MODEL 3
REMARK VINA RESULT:    -4.724     10.539     12.752
REMARK INTER + INTRA:          -6.587
REMARK INTER:                  -6.154
REMARK INTRA:                  -0.433
REMARK UNBOUND:                -0.621
REMARK SMILES Oc1ccc(CCc2cc(O)cc(O)c2)cc1
REMARK SMILES IDX 6 1 5 2 4 3 3 4 2 5 16 6 17 7 1 8 7 10 8 11 15 12 9 13 13 14
REMARK SMILES IDX 10 15 12 16 14 17 11 19
REMARK H PARENT 1 9 14 18 11 20
REMARK Flexibility Score: inf
ROOT
ATOM      1  C   UNL     1      24.995   1.883  17.492  1.00  0.00     0.040 C 
ENDROOT
BRANCH   1   2
ATOM      2  C   UNL     1      23.517   2.028  17.230  1.00  0.00    -0.047 A 
ATOM      3  C   UNL     1      23.002   3.235  16.733  1.00  0.00     0.007 A 
ATOM      4  C   UNL     1      21.639   3.355  16.445  1.00  0.00     0.046 A 
ATOM      5  C   UNL     1      20.780   2.266  16.642  1.00  0.00     0.115 A 
ATOM      6  C   UNL     1      22.653   0.937  17.421  1.00  0.00     0.007 A 
ATOM      7  C   UNL     1      21.290   1.058  17.129  1.00  0.00     0.046 A 
BRANCH   5   8
ATOM      8  O   UNL     1      19.420   2.372  16.356  1.00  0.00    -0.508 OA
ATOM      9  H   UNL     1      18.738   2.541  17.086  1.00  0.00     0.293 HD
ENDBRANCH   5   8
ENDBRANCH   1   2
BRANCH   1  10
ATOM     10  C   UNL     1      25.805   1.873  16.188  1.00  0.00     0.040 C 
BRANCH  10  11
ATOM     11  C   UNL     1      27.106   2.623  16.333  1.00  0.00    -0.040 A 
ATOM     12  C   UNL     1      28.281   1.939  16.679  1.00  0.00     0.050 A 
ATOM     13  C   UNL     1      27.164   4.000  16.061  1.00  0.00     0.050 A 
ATOM     14  C   UNL     1      29.498   2.622  16.766  1.00  0.00     0.119 A 
ATOM     15  C   UNL     1      28.383   4.687  16.146  1.00  0.00     0.119 A 
ATOM     16  C   UNL     1      29.546   3.998  16.501  1.00  0.00     0.092 A 
BRANCH  14  17
ATOM     17  O   UNL     1      30.654   1.926  17.115  1.00  0.00    -0.508 OA
ATOM     18  H   UNL     1      30.622   1.122  17.731  1.00  0.00     0.293 HD
ENDBRANCH  14  17
BRANCH  15  19
ATOM     19  O   UNL     1      28.448   6.052  15.875  1.00  0.00    -0.508 OA
ATOM     20  H   UNL     1      27.897   6.472  15.135  1.00  0.00     0.293 HD
ENDBRANCH  15  19
ENDBRANCH  10  11
ENDBRANCH   1  10
TORSDOF 6
ENDMDL
MODEL 4
REMARK VINA RESULT:    -4.692      3.763      7.249
REMARK INTER + INTRA:          -6.547
REMARK INTER:                  -6.081
REMARK INTRA:                  -0.467
REMARK UNBOUND:                -0.621
REMARK SMILES Oc1ccc(CCc2cc(O)cc(O)c2)cc1
REMARK SMILES IDX 6 1 5 2 4 3 3 4 2 5 16 6 17 7 1 8 7 10 8 11 15 12 9 13 13 14
REMARK SMILES IDX 10 15 12 16 14 17 11 19
REMARK H PARENT 1 9 14 18 11 20
REMARK Flexibility Score: inf
ROOT
ATOM      1  C   UNL     1      12.479   7.625  21.529  1.00  0.00     0.040 C 
ENDROOT
BRANCH   1   2
ATOM      2  C   UNL     1      12.049   6.572  22.519  1.00  0.00    -0.047 A 
ATOM      3  C   UNL     1      12.373   5.223  22.304  1.00  0.00     0.007 A 
ATOM      4  C   UNL     1      12.016   4.253  23.245  1.00  0.00     0.046 A 
ATOM      5  C   UNL     1      11.338   4.623  24.415  1.00  0.00     0.115 A 
ATOM      6  C   UNL     1      11.374   6.938  23.696  1.00  0.00     0.007 A 
ATOM      7  C   UNL     1      11.020   5.967  24.637  1.00  0.00     0.046 A 
BRANCH   5   8
ATOM      8  O   UNL     1      10.979   3.665  25.361  1.00  0.00    -0.508 OA
ATOM      9  H   UNL     1      10.089   3.706  25.843  1.00  0.00     0.293 HD
ENDBRANCH   5   8
ENDBRANCH   1   2
BRANCH   1  10
ATOM     10  C   UNL     1      11.286   8.191  20.746  1.00  0.00     0.040 C 
BRANCH  10  11
ATOM     11  C   UNL     1      11.268   7.697  19.321  1.00  0.00    -0.040 A 
ATOM     12  C   UNL     1      11.291   6.320  19.051  1.00  0.00     0.050 A 
ATOM     13  C   UNL     1      11.164   8.607  18.257  1.00  0.00     0.050 A 
ATOM     14  C   UNL     1      11.225   5.856  17.733  1.00  0.00     0.119 A 
ATOM     15  C   UNL     1      11.095   8.146  16.936  1.00  0.00     0.119 A 
ATOM     16  C   UNL     1      11.129   6.772  16.676  1.00  0.00     0.092 A 
BRANCH  14  17
ATOM     17  O   UNL     1      11.253   4.486  17.484  1.00  0.00    -0.508 OA
ATOM     18  H   UNL     1      11.229   4.119  16.540  1.00  0.00     0.293 HD
ENDBRANCH  14  17
BRANCH  15  19
ATOM     19  O   UNL     1      10.989   9.044  15.875  1.00  0.00    -0.508 OA
ATOM     20  H   UNL     1      11.809   9.448  15.440  1.00  0.00     0.293 HD
ENDBRANCH  15  19
ENDBRANCH  10  11
ENDBRANCH   1  10
TORSDOF 6
ENDMDL
MODEL 5
REMARK VINA RESULT:    -4.691      1.849      3.309
REMARK INTER + INTRA:          -6.545
REMARK INTER:                  -6.007
REMARK INTRA:                  -0.538
REMARK UNBOUND:                -0.621
REMARK SMILES Oc1ccc(CCc2cc(O)cc(O)c2)cc1
REMARK SMILES IDX 6 1 5 2 4 3 3 4 2 5 16 6 17 7 1 8 7 10 8 11 15 12 9 13 13 14
REMARK SMILES IDX 10 15 12 16 14 17 11 19
REMARK H PARENT 1 9 14 18 11 20
REMARK Flexibility Score: inf
ROOT
ATOM      1  C   UNL     1      14.221   3.377  18.099  1.00  0.00     0.040 C 
ENDROOT
BRANCH   1   2
ATOM      2  C   UNL     1      13.323   4.435  17.510  1.00  0.00    -0.047 A 
ATOM      3  C   UNL     1      12.004   4.580  17.971  1.00  0.00     0.007 A 
ATOM      4  C   UNL     1      11.186   5.592  17.459  1.00  0.00     0.046 A 
ATOM      5  C   UNL     1      11.680   6.473  16.488  1.00  0.00     0.115 A 
ATOM      6  C   UNL     1      13.815   5.325  16.541  1.00  0.00     0.007 A 
ATOM      7  C   UNL     1      12.996   6.338  16.032  1.00  0.00     0.046 A 
BRANCH   5   8
ATOM      8  O   UNL     1      10.875   7.487  15.973  1.00  0.00    -0.508 OA
ATOM      9  H   UNL     1      10.440   8.175  16.577  1.00  0.00     0.293 HD
ENDBRANCH   5   8
ENDBRANCH   1   2
BRANCH   1  10
ATOM     10  C   UNL     1      14.859   3.841  19.416  1.00  0.00     0.040 C 
BRANCH  10  11
ATOM     11  C   UNL     1      14.404   3.001  20.583  1.00  0.00    -0.040 A 
ATOM     12  C   UNL     1      13.229   3.332  21.276  1.00  0.00     0.050 A 
ATOM     13  C   UNL     1      15.118   1.847  20.946  1.00  0.00     0.050 A 
ATOM     14  C   UNL     1      12.778   2.528  22.328  1.00  0.00     0.119 A 
ATOM     15  C   UNL     1      14.666   1.039  21.998  1.00  0.00     0.119 A 
ATOM     16  C   UNL     1      13.500   1.382  22.689  1.00  0.00     0.092 A 
BRANCH  14  17
ATOM     17  O   UNL     1      11.611   2.875  23.006  1.00  0.00    -0.508 OA
ATOM     18  H   UNL     1      11.447   2.581  23.962  1.00  0.00     0.293 HD
ENDBRANCH  14  17
BRANCH  15  19
ATOM     19  O   UNL     1      15.368  -0.109  22.362  1.00  0.00    -0.508 OA
ATOM     20  H   UNL     1      16.276  -0.322  21.967  1.00  0.00     0.293 HD
ENDBRANCH  15  19
ENDBRANCH  10  11
ENDBRANCH   1  10
TORSDOF 6
ENDMDL
MODEL 6
REMARK VINA RESULT:    -4.677      1.891      2.809
REMARK INTER + INTRA:          -6.528
REMARK INTER:                  -6.045
REMARK INTRA:                  -0.483
REMARK UNBOUND:                -0.621
REMARK SMILES Oc1ccc(CCc2cc(O)cc(O)c2)cc1
REMARK SMILES IDX 6 1 5 2 4 3 3 4 2 5 16 6 17 7 1 8 7 10 8 11 15 12 9 13 13 14
REMARK SMILES IDX 10 15 12 16 14 17 11 19
REMARK H PARENT 1 9 14 18 11 20
REMARK Flexibility Score: inf
ROOT
ATOM      1  C   UNL     1      14.661   3.230  18.143  1.00  0.00     0.040 C 
ENDROOT
BRANCH   1   2
ATOM      2  C   UNL     1      13.679   4.193  17.523  1.00  0.00    -0.047 A 
ATOM      3  C   UNL     1      12.390   4.332  18.060  1.00  0.00     0.007 A 
ATOM      4  C   UNL     1      11.496   5.258  17.517  1.00  0.00     0.046 A 
ATOM      5  C   UNL     1      11.884   6.061  16.435  1.00  0.00     0.115 A 
ATOM      6  C   UNL     1      14.066   5.003  16.443  1.00  0.00     0.007 A 
ATOM      7  C   UNL     1      13.171   5.931  15.901  1.00  0.00     0.046 A 
BRANCH   5   8
ATOM      8  O   UNL     1      11.003   6.989  15.886  1.00  0.00    -0.508 OA
ATOM      9  H   UNL     1      10.626   6.873  14.952  1.00  0.00     0.293 HD
ENDBRANCH   5   8
ENDBRANCH   1   2
BRANCH   1  10
ATOM     10  C   UNL     1      15.088   3.679  19.547  1.00  0.00     0.040 C 
BRANCH  10  11
ATOM     11  C   UNL     1      14.515   2.785  20.618  1.00  0.00    -0.040 A 
ATOM     12  C   UNL     1      15.207   1.632  21.020  1.00  0.00     0.050 A 
ATOM     13  C   UNL     1      13.317   3.131  21.265  1.00  0.00     0.050 A 
ATOM     14  C   UNL     1      14.704   0.826  22.047  1.00  0.00     0.119 A 
ATOM     15  C   UNL     1      12.812   2.326  22.295  1.00  0.00     0.119 A 
ATOM     16  C   UNL     1      13.504   1.174  22.682  1.00  0.00     0.092 A 
BRANCH  14  17
ATOM     17  O   UNL     1      15.404  -0.316  22.430  1.00  0.00    -0.508 OA
ATOM     18  H   UNL     1      15.575  -0.530  23.406  1.00  0.00     0.293 HD
ENDBRANCH  14  17
BRANCH  15  19
ATOM     19  O   UNL     1      11.625   2.665  22.942  1.00  0.00    -0.508 OA
ATOM     20  H   UNL     1      11.290   3.621  22.967  1.00  0.00     0.293 HD
ENDBRANCH  15  19
ENDBRANCH  10  11
ENDBRANCH   1  10
TORSDOF 6
ENDMDL
MODEL 7
REMARK VINA RESULT:    -4.674      3.551      4.792
REMARK INTER + INTRA:          -6.524
REMARK INTER:                  -6.002
REMARK INTRA:                  -0.522
REMARK UNBOUND:                -0.621
REMARK SMILES Oc1ccc(CCc2cc(O)cc(O)c2)cc1
REMARK SMILES IDX 6 1 5 2 4 3 3 4 2 5 16 6 17 7 1 8 7 10 8 11 15 12 9 13 13 14
REMARK SMILES IDX 10 15 12 16 14 17 11 19
REMARK H PARENT 1 9 14 18 11 20
REMARK Flexibility Score: inf
ROOT
ATOM      1  C   UNL     1      12.849   5.950  21.241  1.00  0.00     0.040 C 
ENDROOT
BRANCH   1   2
ATOM      2  C   UNL     1      12.364   5.877  19.815  1.00  0.00    -0.047 A 
ATOM      3  C   UNL     1      12.618   4.735  19.039  1.00  0.00     0.007 A 
ATOM      4  C   UNL     1      12.127   4.646  17.733  1.00  0.00     0.046 A 
ATOM      5  C   UNL     1      11.371   5.695  17.192  1.00  0.00     0.115 A 
ATOM      6  C   UNL     1      11.601   6.923  19.271  1.00  0.00     0.007 A 
ATOM      7  C   UNL     1      11.109   6.832  17.965  1.00  0.00     0.046 A 
BRANCH   5   8
ATOM      8  O   UNL     1      10.875   5.618  15.893  1.00  0.00    -0.508 OA
ATOM      9  H   UNL     1      10.225   6.306  15.534  1.00  0.00     0.293 HD
ENDBRANCH   5   8
ENDBRANCH   1   2
BRANCH   1  10
ATOM     10  C   UNL     1      11.708   5.721  22.242  1.00  0.00     0.040 C 
BRANCH  10  11
ATOM     11  C   UNL     1      11.935   4.484  23.074  1.00  0.00    -0.040 A 
ATOM     12  C   UNL     1      12.403   3.305  22.473  1.00  0.00     0.050 A 
ATOM     13  C   UNL     1      11.740   4.519  24.465  1.00  0.00     0.050 A 
ATOM     14  C   UNL     1      12.661   2.169  23.249  1.00  0.00     0.119 A 
ATOM     15  C   UNL     1      12.001   3.384  25.244  1.00  0.00     0.119 A 
ATOM     16  C   UNL     1      12.458   2.211  24.635  1.00  0.00     0.092 A 
BRANCH  14  17
ATOM     17  O   UNL     1      13.122   1.007  22.634  1.00  0.00    -0.508 OA
ATOM     18  H   UNL     1      13.618   0.294  23.156  1.00  0.00     0.293 HD
ENDBRANCH  14  17
BRANCH  15  19
ATOM     19  O   UNL     1      11.813   3.414  26.625  1.00  0.00    -0.508 OA
ATOM     20  H   UNL     1      11.948   4.264  27.160  1.00  0.00     0.293 HD
ENDBRANCH  15  19
ENDBRANCH  10  11
ENDBRANCH   1  10
TORSDOF 6
ENDMDL
MODEL 8
REMARK VINA RESULT:    -4.548      4.683      5.980
REMARK INTER + INTRA:          -6.365
REMARK INTER:                  -5.915
REMARK INTRA:                  -0.451
REMARK UNBOUND:                -0.621
REMARK SMILES Oc1ccc(CCc2cc(O)cc(O)c2)cc1
REMARK SMILES IDX 6 1 5 2 4 3 3 4 2 5 16 6 17 7 1 8 7 10 8 11 15 12 9 13 13 14
REMARK SMILES IDX 10 15 12 16 14 17 11 19
REMARK H PARENT 1 9 14 18 11 20
REMARK Flexibility Score: inf
ROOT
ATOM      1  C   UNL     1      12.471   6.775  21.208  1.00  0.00     0.040 C 
ENDROOT
BRANCH   1   2
ATOM      2  C   UNL     1      12.013   6.424  19.815  1.00  0.00    -0.047 A 
ATOM      3  C   UNL     1      11.319   7.367  19.040  1.00  0.00     0.007 A 
ATOM      4  C   UNL     1      10.936   7.059  17.731  1.00  0.00     0.046 A 
ATOM      5  C   UNL     1      11.250   5.809  17.181  1.00  0.00     0.115 A 
ATOM      6  C   UNL     1      12.330   5.174  19.257  1.00  0.00     0.007 A 
ATOM      7  C   UNL     1      11.948   4.869  17.947  1.00  0.00     0.046 A 
BRANCH   5   8
ATOM      8  O   UNL     1      10.875   5.492  15.877  1.00  0.00    -0.508 OA
ATOM      9  H   UNL     1      10.012   5.837  15.476  1.00  0.00     0.293 HD
ENDBRANCH   5   8
ENDBRANCH   1   2
BRANCH   1  10
ATOM     10  C   UNL     1      11.340   7.395  22.039  1.00  0.00     0.040 C 
BRANCH  10  11
ATOM     11  C   UNL     1      11.254   6.779  23.414  1.00  0.00    -0.040 A 
ATOM     12  C   UNL     1      11.266   5.383  23.564  1.00  0.00     0.050 A 
ATOM     13  C   UNL     1      11.225   7.596  24.556  1.00  0.00     0.050 A 
ATOM     14  C   UNL     1      11.236   4.809  24.839  1.00  0.00     0.119 A 
ATOM     15  C   UNL     1      11.198   7.022  25.834  1.00  0.00     0.119 A 
ATOM     16  C   UNL     1      11.200   5.631  25.973  1.00  0.00     0.092 A 
BRANCH  14  17
ATOM     17  O   UNL     1      11.246   3.421  24.968  1.00  0.00    -0.508 OA
ATOM     18  H   UNL     1      11.993   2.940  25.455  1.00  0.00     0.293 HD
ENDBRANCH  14  17
BRANCH  15  19
ATOM     19  O   UNL     1      11.172   7.827  26.972  1.00  0.00    -0.508 OA
ATOM     20  H   UNL     1      11.965   7.882  27.600  1.00  0.00     0.293 HD
ENDBRANCH  15  19
ENDBRANCH  10  11
ENDBRANCH   1  10
TORSDOF 6
ENDMDL
