MODEL 1
REMARK VINA RESULT:    -7.158      0.000      0.000
REMARK INTER + INTRA:          -8.887
REMARK INTER:                  -8.623
REMARK INTRA:                  -0.264
REMARK UNBOUND:                -0.264
REMARK SMILES O=c1c(O)c(-c2ccc(O)c(O)c2)oc2cc(O)cc(O)c12
REMARK SMILES IDX 5 1 3 2 2 3 1 4 22 5 20 6 19 7 17 8 16 9 15 10 14 11 6 12
REMARK SMILES IDX 7 13 8 14 9 15 13 16 11 17 10 18 12 20 4 22 21 24 18 26
REMARK H PARENT 10 19 12 21 4 23 21 25 18 27
REMARK Flexibility Score: inf
ROOT
ATOM      1  C   UNL     1     172.823 172.142 164.097  1.00  0.00     0.180 A 
ATOM      2  C   UNL     1     171.471 172.400 164.392  1.00  0.00     0.208 A 
ATOM      3  C   UNL     1     170.994 172.120 165.682  1.00  0.00     0.238 A 
ATOM      4  O   UNL     1     169.782 172.337 165.956  1.00  0.00    -0.285 OA
ATOM      5  C   UNL     1     171.877 171.609 166.656  1.00  0.00     0.111 A 
ATOM      6  C   UNL     1     171.477 171.305 167.980  1.00  0.00     0.134 A 
ATOM      7  C   UNL     1     172.418 170.808 168.894  1.00  0.00     0.093 A 
ATOM      8  C   UNL     1     173.747 170.612 168.513  1.00  0.00     0.123 A 
ATOM      9  C   UNL     1     174.147 170.910 167.206  1.00  0.00     0.094 A 
ATOM     10  C   UNL     1     173.225 171.404 166.280  1.00  0.00     0.146 A 
ATOM     11  O   UNL     1     173.630 171.675 165.045  1.00  0.00    -0.452 OA
ENDROOT
BRANCH   1  12
ATOM     12  C   UNL     1     173.396 172.394 162.755  1.00  0.00     0.025 A 
ATOM     13  C   UNL     1     174.185 173.529 162.496  1.00  0.00     0.016 A 
ATOM     14  C   UNL     1     174.695 173.759 161.216  1.00  0.00     0.051 A 
ATOM     15  C   UNL     1     174.415 172.871 160.173  1.00  0.00     0.157 A 
ATOM     16  C   UNL     1     173.100 171.516 161.700  1.00  0.00     0.062 A 
ATOM     17  C   UNL     1     173.611 171.744 160.414  1.00  0.00     0.158 A 
BRANCH  15  18
ATOM     18  O   UNL     1     174.939 173.126 158.907  1.00  0.00    -0.504 OA
ATOM     19  H   UNL     1     174.445 173.686 158.222  1.00  0.00     0.293 HD
ENDBRANCH  15  18
BRANCH  17  20
ATOM     20  O   UNL     1     173.322 170.859 159.378  1.00  0.00    -0.504 OA
ATOM     21  H   UNL     1     174.053 170.449 158.808  1.00  0.00     0.293 HD
ENDBRANCH  17  20
ENDBRANCH   1  12
BRANCH   2  22
ATOM     22  O   UNL     1     170.629 172.952 163.424  1.00  0.00    -0.502 OA
ATOM     23  H   UNL     1     170.983 173.413 162.595  1.00  0.00     0.293 HD
ENDBRANCH   2  22
BRANCH   6  24
ATOM     24  O   UNL     1     170.157 171.492 168.393  1.00  0.00    -0.507 OA
ATOM     25  H   UNL     1     169.931 171.993 169.244  1.00  0.00     0.293 HD
ENDBRANCH   6  24
BRANCH   8  26
ATOM     26  O   UNL     1     174.662 170.119 169.439  1.00  0.00    -0.508 OA
ATOM     27  H   UNL     1     175.260 170.737 169.976  1.00  0.00     0.293 HD
ENDBRANCH   8  26
TORSDOF 6
ENDMDL
MODEL 2
REMARK VINA RESULT:    -6.825     14.605     17.677
REMARK INTER + INTRA:          -8.485
REMARK INTER:                  -8.237
REMARK INTRA:                  -0.249
REMARK UNBOUND:                -0.264
REMARK SMILES O=c1c(O)c(-c2ccc(O)c(O)c2)oc2cc(O)cc(O)c12
REMARK SMILES IDX 5 1 3 2 2 3 1 4 22 5 20 6 19 7 17 8 16 9 15 10 14 11 6 12
REMARK SMILES IDX 7 13 8 14 9 15 13 16 11 17 10 18 12 20 4 22 21 24 18 26
REMARK H PARENT 10 19 12 21 4 23 21 25 18 27
REMARK Flexibility Score: inf
ROOT
ATOM      1  C   UNL     1     158.589 167.801 173.561  1.00  0.00     0.180 A 
ATOM      2  C   UNL     1     158.051 168.183 174.805  1.00  0.00     0.208 A 
ATOM      3  C   UNL     1     158.491 169.376 175.397  1.00  0.00     0.238 A 
ATOM      4  O   UNL     1     158.025 169.724 176.517  1.00  0.00    -0.285 OA
ATOM      5  C   UNL     1     159.443 170.176 174.730  1.00  0.00     0.111 A 
ATOM      6  C   UNL     1     159.936 171.394 175.256  1.00  0.00     0.134 A 
ATOM      7  C   UNL     1     160.876 172.137 174.526  1.00  0.00     0.093 A 
ATOM      8  C   UNL     1     161.330 171.688 173.284  1.00  0.00     0.123 A 
ATOM      9  C   UNL     1     160.847 170.485 172.760  1.00  0.00     0.094 A 
ATOM     10  C   UNL     1     159.911 169.729 173.472  1.00  0.00     0.146 A 
ATOM     11  O   UNL     1     159.473 168.588 172.954  1.00  0.00    -0.452 OA
ENDROOT
BRANCH   1  12
ATOM     12  C   UNL     1     158.187 166.548 172.882  1.00  0.00     0.025 A 
ATOM     13  C   UNL     1     158.579 165.291 173.375  1.00  0.00     0.016 A 
ATOM     14  C   UNL     1     158.209 164.122 172.703  1.00  0.00     0.051 A 
ATOM     15  C   UNL     1     157.458 164.190 171.526  1.00  0.00     0.157 A 
ATOM     16  C   UNL     1     157.451 166.613 171.688  1.00  0.00     0.062 A 
ATOM     17  C   UNL     1     157.079 165.442 171.013  1.00  0.00     0.158 A 
BRANCH  15  18
ATOM     18  O   UNL     1     157.103 163.008 170.879  1.00  0.00    -0.504 OA
ATOM     19  H   UNL     1     156.600 162.266 171.351  1.00  0.00     0.293 HD
ENDBRANCH  15  18
BRANCH  17  20
ATOM     20  O   UNL     1     156.336 165.518 169.836  1.00  0.00    -0.504 OA
ATOM     21  H   UNL     1     155.700 164.779 169.560  1.00  0.00     0.293 HD
ENDBRANCH  17  20
ENDBRANCH   1  12
BRANCH   2  22
ATOM     22  O   UNL     1     157.073 167.399 175.423  1.00  0.00    -0.502 OA
ATOM     23  H   UNL     1     156.097 167.669 175.449  1.00  0.00     0.293 HD
ENDBRANCH   2  22
BRANCH   6  24
ATOM     24  O   UNL     1     159.501 171.871 176.493  1.00  0.00    -0.507 OA
ATOM     25  H   UNL     1     159.915 172.689 176.925  1.00  0.00     0.293 HD
ENDBRANCH   6  24
BRANCH   8  26
ATOM     26  O   UNL     1     162.263 172.445 172.579  1.00  0.00    -0.508 OA
ATOM     27  H   UNL     1     163.173 172.660 172.967  1.00  0.00     0.293 HD
ENDBRANCH   8  26
TORSDOF 6
ENDMDL
MODEL 3
REMARK VINA RESULT:    -6.506      3.510      8.407
REMARK INTER + INTRA:          -8.102
REMARK INTER:                  -7.777
REMARK INTRA:                  -0.325
REMARK UNBOUND:                -0.264
REMARK SMILES O=c1c(O)c(-c2ccc(O)c(O)c2)oc2cc(O)cc(O)c12
REMARK SMILES IDX 5 1 3 2 2 3 1 4 22 5 20 6 19 7 17 8 16 9 15 10 14 11 6 12
REMARK SMILES IDX 7 13 8 14 9 15 13 16 11 17 10 18 12 20 4 22 21 24 18 26
REMARK H PARENT 10 19 12 21 4 23 21 25 18 27
REMARK Flexibility Score: inf
ROOT
ATOM      1  C   UNL     1     169.373 171.545 168.719  1.00  0.00     0.180 A 
ATOM      2  C   UNL     1     170.561 171.108 169.335  1.00  0.00     0.208 A 
ATOM      3  C   UNL     1     171.743 171.069 168.579  1.00  0.00     0.238 A 
ATOM      4  O   UNL     1     172.811 170.669 169.118  1.00  0.00    -0.285 OA
ATOM      5  C   UNL     1     171.722 171.483 167.231  1.00  0.00     0.111 A 
ATOM      6  C   UNL     1     172.869 171.477 166.402  1.00  0.00     0.134 A 
ATOM      7  C   UNL     1     172.769 171.914 165.072  1.00  0.00     0.093 A 
ATOM      8  C   UNL     1     171.547 172.356 164.557  1.00  0.00     0.123 A 
ATOM      9  C   UNL     1     170.411 172.363 165.372  1.00  0.00     0.094 A 
ATOM     10  C   UNL     1     170.490 171.930 166.700  1.00  0.00     0.146 A 
ATOM     11  O   UNL     1     169.394 171.943 167.450  1.00  0.00    -0.452 OA
ENDROOT
BRANCH   1  12
ATOM     12  C   UNL     1     168.084 171.598 169.445  1.00  0.00     0.025 A 
ATOM     13  C   UNL     1     167.698 172.740 170.169  1.00  0.00     0.016 A 
ATOM     14  C   UNL     1     166.487 172.759 170.867  1.00  0.00     0.051 A 
ATOM     15  C   UNL     1     165.653 171.637 170.866  1.00  0.00     0.157 A 
ATOM     16  C   UNL     1     167.253 170.467 169.463  1.00  0.00     0.062 A 
ATOM     17  C   UNL     1     166.038 170.483 170.163  1.00  0.00     0.158 A 
BRANCH  15  18
ATOM     18  O   UNL     1     164.451 171.686 171.570  1.00  0.00    -0.504 OA
ATOM     19  H   UNL     1     163.821 170.894 171.616  1.00  0.00     0.293 HD
ENDBRANCH  15  18
BRANCH  17  20
ATOM     20  O   UNL     1     165.214 169.358 170.163  1.00  0.00    -0.504 OA
ATOM     21  H   UNL     1     164.367 169.320 170.718  1.00  0.00     0.293 HD
ENDBRANCH  17  20
ENDBRANCH   1  12
BRANCH   2  22
ATOM     22  O   UNL     1     170.566 170.750 170.686  1.00  0.00    -0.502 OA
ATOM     23  H   UNL     1     170.981 169.888 171.017  1.00  0.00     0.293 HD
ENDBRANCH   2  22
BRANCH   6  24
ATOM     24  O   UNL     1     174.104 171.043 166.886  1.00  0.00    -0.507 OA
ATOM     25  H   UNL     1     174.177 170.458 167.710  1.00  0.00     0.293 HD
ENDBRANCH   6  24
BRANCH   8  26
ATOM     26  O   UNL     1     171.474 172.786 163.235  1.00  0.00    -0.508 OA
ATOM     27  H   UNL     1     170.594 173.054 162.812  1.00  0.00     0.293 HD
ENDBRANCH   8  26
TORSDOF 6
ENDMDL
MODEL 4
REMARK VINA RESULT:    -6.503      1.711      6.967
REMARK INTER + INTRA:          -8.097
REMARK INTER:                  -7.773
REMARK INTRA:                  -0.324
REMARK UNBOUND:                -0.264
REMARK SMILES O=c1c(O)c(-c2ccc(O)c(O)c2)oc2cc(O)cc(O)c12
REMARK SMILES IDX 5 1 3 2 2 3 1 4 22 5 20 6 19 7 17 8 16 9 15 10 14 11 6 12
REMARK SMILES IDX 7 13 8 14 9 15 13 16 11 17 10 18 12 20 4 22 21 24 18 26
REMARK H PARENT 10 19 12 21 4 23 21 25 18 27
REMARK Flexibility Score: inf
ROOT
ATOM      1  C   UNL     1     172.062 172.800 164.433  1.00  0.00     0.180 A 
ATOM      2  C   UNL     1     172.626 174.089 164.373  1.00  0.00     0.208 A 
ATOM      3  C   UNL     1     173.448 174.419 163.284  1.00  0.00     0.238 A 
ATOM      4  O   UNL     1     173.968 175.567 163.224  1.00  0.00    -0.285 OA
ATOM      5  C   UNL     1     173.677 173.467 162.269  1.00  0.00     0.111 A 
ATOM      6  C   UNL     1     174.489 173.722 161.138  1.00  0.00     0.134 A 
ATOM      7  C   UNL     1     174.659 172.725 160.165  1.00  0.00     0.093 A 
ATOM      8  C   UNL     1     174.035 171.483 160.301  1.00  0.00     0.123 A 
ATOM      9  C   UNL     1     173.232 171.226 161.417  1.00  0.00     0.094 A 
ATOM     10  C   UNL     1     173.051 172.205 162.398  1.00  0.00     0.146 A 
ATOM     11  O   UNL     1     172.287 171.933 163.449  1.00  0.00    -0.452 OA
ENDROOT
BRANCH   1  12
ATOM     12  C   UNL     1     171.200 172.371 165.557  1.00  0.00     0.025 A 
ATOM     13  C   UNL     1     169.811 172.594 165.541  1.00  0.00     0.016 A 
ATOM     14  C   UNL     1     169.020 172.202 166.624  1.00  0.00     0.051 A 
ATOM     15  C   UNL     1     169.601 171.599 167.743  1.00  0.00     0.157 A 
ATOM     16  C   UNL     1     171.782 171.784 166.691  1.00  0.00     0.062 A 
ATOM     17  C   UNL     1     170.990 171.390 167.779  1.00  0.00     0.158 A 
BRANCH  15  18
ATOM     18  O   UNL     1     168.786 171.217 168.807  1.00  0.00    -0.504 OA
ATOM     19  H   UNL     1     167.851 170.854 168.666  1.00  0.00     0.293 HD
ENDBRANCH  15  18
BRANCH  17  20
ATOM     20  O   UNL     1     171.577 170.795 168.895  1.00  0.00    -0.504 OA
ATOM     21  H   UNL     1     172.541 170.480 168.884  1.00  0.00     0.293 HD
ENDBRANCH  17  20
ENDBRANCH   1  12
BRANCH   2  22
ATOM     22  O   UNL     1     172.345 175.031 165.366  1.00  0.00    -0.502 OA
ATOM     23  H   UNL     1     171.676 175.779 165.231  1.00  0.00     0.293 HD
ENDBRANCH   2  22
BRANCH   6  24
ATOM     24  O   UNL     1     175.125 174.952 160.972  1.00  0.00    -0.507 OA
ATOM     25  H   UNL     1     174.601 175.807 160.820  1.00  0.00     0.293 HD
ENDBRANCH   6  24
BRANCH   8  26
ATOM     26  O   UNL     1     174.219 170.510 159.321  1.00  0.00    -0.508 OA
ATOM     27  H   UNL     1     173.458 170.207 158.725  1.00  0.00     0.293 HD
ENDBRANCH   8  26
TORSDOF 6
ENDMDL
MODEL 5
REMARK VINA RESULT:    -6.501     12.813     16.118
REMARK INTER + INTRA:          -8.095
REMARK INTER:                  -7.893
REMARK INTRA:                  -0.203
REMARK UNBOUND:                -0.264
REMARK SMILES O=c1c(O)c(-c2ccc(O)c(O)c2)oc2cc(O)cc(O)c12
REMARK SMILES IDX 5 1 3 2 2 3 1 4 22 5 20 6 19 7 17 8 16 9 15 10 14 11 6 12
REMARK SMILES IDX 7 13 8 14 9 15 13 16 11 17 10 18 12 20 4 22 21 24 18 26
REMARK H PARENT 10 19 12 21 4 23 21 25 18 27
REMARK Flexibility Score: inf
ROOT
ATOM      1  C   UNL     1     159.910 168.849 171.900  1.00  0.00     0.180 A 
ATOM      2  C   UNL     1     159.841 167.968 172.997  1.00  0.00     0.208 A 
ATOM      3  C   UNL     1     158.952 166.883 172.940  1.00  0.00     0.238 A 
ATOM      4  O   UNL     1     158.874 166.092 173.920  1.00  0.00    -0.285 OA
ATOM      5  C   UNL     1     158.165 166.686 171.786  1.00  0.00     0.111 A 
ATOM      6  C   UNL     1     157.249 165.616 171.647  1.00  0.00     0.134 A 
ATOM      7  C   UNL     1     156.509 165.483 170.463  1.00  0.00     0.093 A 
ATOM      8  C   UNL     1     156.668 166.395 169.417  1.00  0.00     0.123 A 
ATOM      9  C   UNL     1     157.571 167.455 169.549  1.00  0.00     0.094 A 
ATOM     10  C   UNL     1     158.317 167.606 170.722  1.00  0.00     0.146 A 
ATOM     11  O   UNL     1     159.164 168.623 170.823  1.00  0.00    -0.452 OA
ENDROOT
BRANCH   1  12
ATOM     12  C   UNL     1     160.809 170.025 171.893  1.00  0.00     0.025 A 
ATOM     13  C   UNL     1     160.617 171.100 172.779  1.00  0.00     0.016 A 
ATOM     14  C   UNL     1     161.463 172.211 172.737  1.00  0.00     0.051 A 
ATOM     15  C   UNL     1     162.502 172.273 171.804  1.00  0.00     0.157 A 
ATOM     16  C   UNL     1     161.841 170.101 170.943  1.00  0.00     0.062 A 
ATOM     17  C   UNL     1     162.692 171.214 170.899  1.00  0.00     0.158 A 
BRANCH  15  18
ATOM     18  O   UNL     1     163.332 173.393 171.787  1.00  0.00    -0.504 OA
ATOM     19  H   UNL     1     162.963 174.337 171.804  1.00  0.00     0.293 HD
ENDBRANCH  15  18
BRANCH  17  20
ATOM     20  O   UNL     1     163.721 171.273 169.962  1.00  0.00    -0.504 OA
ATOM     21  H   UNL     1     164.315 170.474 169.773  1.00  0.00     0.293 HD
ENDBRANCH  17  20
ENDBRANCH   1  12
BRANCH   2  22
ATOM     22  O   UNL     1     160.667 168.156 174.108  1.00  0.00    -0.502 OA
ATOM     23  H   UNL     1     160.388 167.885 175.043  1.00  0.00     0.293 HD
ENDBRANCH   2  22
BRANCH   6  24
ATOM     24  O   UNL     1     157.068 164.687 172.672  1.00  0.00    -0.507 OA
ATOM     25  H   UNL     1     156.679 163.768 172.496  1.00  0.00     0.293 HD
ENDBRANCH   6  24
BRANCH   8  26
ATOM     26  O   UNL     1     155.922 166.241 168.251  1.00  0.00    -0.508 OA
ATOM     27  H   UNL     1     155.782 167.009 167.605  1.00  0.00     0.293 HD
ENDBRANCH   8  26
TORSDOF 6
ENDMDL
MODEL 6
REMARK VINA RESULT:    -6.489     10.454     14.220
REMARK INTER + INTRA:          -8.081
REMARK INTER:                  -7.876
REMARK INTRA:                  -0.205
REMARK UNBOUND:                -0.264
REMARK SMILES O=c1c(O)c(-c2ccc(O)c(O)c2)oc2cc(O)cc(O)c12
REMARK SMILES IDX 5 1 3 2 2 3 1 4 22 5 20 6 19 7 17 8 16 9 15 10 14 11 6 12
REMARK SMILES IDX 7 13 8 14 9 15 13 16 11 17 10 18 12 20 4 22 21 24 18 26
REMARK H PARENT 10 19 12 21 4 23 21 25 18 27
REMARK Flexibility Score: inf
ROOT
ATOM      1  C   UNL     1     161.384 170.469 171.405  1.00  0.00     0.180 A 
ATOM      2  C   UNL     1     160.940 171.779 171.144  1.00  0.00     0.208 A 
ATOM      3  C   UNL     1     161.879 172.751 170.765  1.00  0.00     0.238 A 
ATOM      4  O   UNL     1     161.495 173.931 170.539  1.00  0.00    -0.285 OA
ATOM      5  C   UNL     1     163.238 172.394 170.635  1.00  0.00     0.111 A 
ATOM      6  C   UNL     1     164.246 173.311 170.254  1.00  0.00     0.134 A 
ATOM      7  C   UNL     1     165.575 172.876 170.138  1.00  0.00     0.093 A 
ATOM      8  C   UNL     1     165.914 171.545 170.393  1.00  0.00     0.123 A 
ATOM      9  C   UNL     1     164.922 170.635 170.770  1.00  0.00     0.094 A 
ATOM     10  C   UNL     1     163.592 171.049 170.893  1.00  0.00     0.146 A 
ATOM     11  O   UNL     1     162.671 170.165 171.258  1.00  0.00    -0.452 OA
ENDROOT
BRANCH   1  12
ATOM     12  C   UNL     1     160.458 169.394 171.827  1.00  0.00     0.025 A 
ATOM     13  C   UNL     1     160.522 168.835 173.115  1.00  0.00     0.016 A 
ATOM     14  C   UNL     1     159.653 167.804 173.483  1.00  0.00     0.051 A 
ATOM     15  C   UNL     1     158.720 167.306 172.569  1.00  0.00     0.157 A 
ATOM     16  C   UNL     1     159.533 168.877 170.905  1.00  0.00     0.062 A 
ATOM     17  C   UNL     1     158.660 167.843 171.271  1.00  0.00     0.158 A 
BRANCH  15  18
ATOM     18  O   UNL     1     157.865 166.278 172.965  1.00  0.00    -0.504 OA
ATOM     19  H   UNL     1     157.510 165.591 172.310  1.00  0.00     0.293 HD
ENDBRANCH  15  18
BRANCH  17  20
ATOM     20  O   UNL     1     157.737 167.346 170.353  1.00  0.00    -0.504 OA
ATOM     21  H   UNL     1     157.961 166.572 169.739  1.00  0.00     0.293 HD
ENDBRANCH  17  20
ENDBRANCH   1  12
BRANCH   2  22
ATOM     22  O   UNL     1     159.582 172.096 171.232  1.00  0.00    -0.502 OA
ATOM     23  H   UNL     1     158.914 171.825 170.521  1.00  0.00     0.293 HD
ENDBRANCH   2  22
BRANCH   6  24
ATOM     24  O   UNL     1     163.940 174.647 169.991  1.00  0.00    -0.507 OA
ATOM     25  H   UNL     1     163.242 174.909 169.305  1.00  0.00     0.293 HD
ENDBRANCH   6  24
BRANCH   8  26
ATOM     26  O   UNL     1     167.240 171.138 170.269  1.00  0.00    -0.508 OA
ATOM     27  H   UNL     1     167.735 171.205 169.388  1.00  0.00     0.293 HD
ENDBRANCH   8  26
TORSDOF 6
ENDMDL
MODEL 7
REMARK VINA RESULT:    -6.431      3.381      7.826
REMARK INTER + INTRA:          -8.011
REMARK INTER:                  -7.682
REMARK INTRA:                  -0.329
REMARK UNBOUND:                -0.264
REMARK SMILES O=c1c(O)c(-c2ccc(O)c(O)c2)oc2cc(O)cc(O)c12
REMARK SMILES IDX 5 1 3 2 2 3 1 4 22 5 20 6 19 7 17 8 16 9 15 10 14 11 6 12
REMARK SMILES IDX 7 13 8 14 9 15 13 16 11 17 10 18 12 20 4 22 21 24 18 26
REMARK H PARENT 10 19 12 21 4 23 21 25 18 27
REMARK Flexibility Score: inf
ROOT
ATOM      1  C   UNL     1     168.906 172.090 167.656  1.00  0.00     0.180 A 
ATOM      2  C   UNL     1     168.534 172.611 166.402  1.00  0.00     0.208 A 
ATOM      3  C   UNL     1     169.506 172.708 165.394  1.00  0.00     0.238 A 
ATOM      4  O   UNL     1     169.188 173.183 164.269  1.00  0.00    -0.285 OA
ATOM      5  C   UNL     1     170.821 172.267 165.648  1.00  0.00     0.111 A 
ATOM      6  C   UNL     1     171.857 172.327 164.685  1.00  0.00     0.134 A 
ATOM      7  C   UNL     1     173.139 171.859 165.013  1.00  0.00     0.093 A 
ATOM      8  C   UNL     1     173.404 171.333 166.279  1.00  0.00     0.123 A 
ATOM      9  C   UNL     1     172.384 171.272 167.234  1.00  0.00     0.094 A 
ATOM     10  C   UNL     1     171.100 171.735 166.928  1.00  0.00     0.146 A 
ATOM     11  O   UNL     1     170.151 171.669 167.855  1.00  0.00    -0.452 OA
ENDROOT
BRANCH   1  12
ATOM     12  C   UNL     1     167.943 171.972 168.775  1.00  0.00     0.025 A 
ATOM     13  C   UNL     1     167.706 173.044 169.653  1.00  0.00     0.016 A 
ATOM     14  C   UNL     1     166.810 172.902 170.717  1.00  0.00     0.051 A 
ATOM     15  C   UNL     1     166.151 171.688 170.929  1.00  0.00     0.157 A 
ATOM     16  C   UNL     1     167.295 170.748 169.004  1.00  0.00     0.062 A 
ATOM     17  C   UNL     1     166.396 170.602 170.070  1.00  0.00     0.158 A 
BRANCH  15  18
ATOM     18  O   UNL     1     165.263 171.576 171.997  1.00  0.00    -0.504 OA
ATOM     19  H   UNL     1     165.543 171.195 172.893  1.00  0.00     0.293 HD
ENDBRANCH  15  18
BRANCH  17  20
ATOM     20  O   UNL     1     165.748 169.387 170.280  1.00  0.00    -0.504 OA
ATOM     21  H   UNL     1     166.182 168.504 170.036  1.00  0.00     0.293 HD
ENDBRANCH  17  20
ENDBRANCH   1  12
BRANCH   2  22
ATOM     22  O   UNL     1     167.213 172.995 166.159  1.00  0.00    -0.502 OA
ATOM     23  H   UNL     1     166.440 172.344 166.214  1.00  0.00     0.293 HD
ENDBRANCH   2  22
BRANCH   6  24
ATOM     24  O   UNL     1     171.626 172.846 163.411  1.00  0.00    -0.507 OA
ATOM     25  H   UNL     1     171.127 173.717 163.272  1.00  0.00     0.293 HD
ENDBRANCH   6  24
BRANCH   8  26
ATOM     26  O   UNL     1     174.684 170.874 166.579  1.00  0.00    -0.508 OA
ATOM     27  H   UNL     1     175.370 170.705 165.853  1.00  0.00     0.293 HD
ENDBRANCH   8  26
TORSDOF 6
ENDMDL
MODEL 8
REMARK VINA RESULT:    -6.271     11.329     14.366
REMARK INTER + INTRA:          -7.818
REMARK INTER:                  -7.638
REMARK INTRA:                  -0.181
REMARK UNBOUND:                -0.264
REMARK SMILES O=c1c(O)c(-c2ccc(O)c(O)c2)oc2cc(O)cc(O)c12
REMARK SMILES IDX 5 1 3 2 2 3 1 4 22 5 20 6 19 7 17 8 16 9 15 10 14 11 6 12
REMARK SMILES IDX 7 13 8 14 9 15 13 16 11 17 10 18 12 20 4 22 21 24 18 26
REMARK H PARENT 10 19 12 21 4 23 21 25 18 27
REMARK Flexibility Score: inf
ROOT
ATOM      1  C   UNL     1     161.128 170.110 170.972  1.00  0.00     0.180 A 
ATOM      2  C   UNL     1     160.235 170.075 169.884  1.00  0.00     0.208 A 
ATOM      3  C   UNL     1     159.148 169.188 169.928  1.00  0.00     0.238 A 
ATOM      4  O   UNL     1     158.347 169.139 168.954  1.00  0.00    -0.285 OA
ATOM      5  C   UNL     1     158.961 168.369 171.061  1.00  0.00     0.111 A 
ATOM      6  C   UNL     1     157.890 167.452 171.185  1.00  0.00     0.134 A 
ATOM      7  C   UNL     1     157.767 166.679 172.349  1.00  0.00     0.093 A 
ATOM      8  C   UNL     1     158.691 166.806 173.390  1.00  0.00     0.123 A 
ATOM      9  C   UNL     1     159.752 167.709 173.272  1.00  0.00     0.094 A 
ATOM     10  C   UNL     1     159.892 168.488 172.119  1.00  0.00     0.146 A 
ATOM     11  O   UNL     1     160.911 169.335 172.031  1.00  0.00    -0.452 OA
ENDROOT
BRANCH   1  12
ATOM     12  C   UNL     1     162.307 171.006 170.993  1.00  0.00     0.025 A 
ATOM     13  C   UNL     1     162.164 172.404 171.033  1.00  0.00     0.016 A 
ATOM     14  C   UNL     1     163.290 173.231 171.027  1.00  0.00     0.051 A 
ATOM     15  C   UNL     1     164.573 172.677 170.966  1.00  0.00     0.157 A 
ATOM     16  C   UNL     1     163.596 170.455 170.911  1.00  0.00     0.062 A 
ATOM     17  C   UNL     1     164.728 171.282 170.905  1.00  0.00     0.158 A 
BRANCH  15  18
ATOM     18  O   UNL     1     165.678 173.526 170.963  1.00  0.00    -0.504 OA
ATOM     19  H   UNL     1     166.518 173.316 170.437  1.00  0.00     0.293 HD
ENDBRANCH  15  18
BRANCH  17  20
ATOM     20  O   UNL     1     166.003 170.723 170.837  1.00  0.00    -0.504 OA
ATOM     21  H   UNL     1     166.811 171.195 171.226  1.00  0.00     0.293 HD
ENDBRANCH  17  20
ENDBRANCH   1  12
BRANCH   2  22
ATOM     22  O   UNL     1     160.414 170.931 168.795  1.00  0.00    -0.502 OA
ATOM     23  H   UNL     1     160.858 170.631 167.936  1.00  0.00     0.293 HD
ENDBRANCH   2  22
BRANCH   6  24
ATOM     24  O   UNL     1     156.949 167.303 170.165  1.00  0.00    -0.507 OA
ATOM     25  H   UNL     1     156.349 168.068 169.878  1.00  0.00     0.293 HD
ENDBRANCH   6  24
BRANCH   8  26
ATOM     26  O   UNL     1     158.547 166.027 174.535  1.00  0.00    -0.508 OA
ATOM     27  H   UNL     1     158.974 165.112 174.613  1.00  0.00     0.293 HD
ENDBRANCH   8  26
TORSDOF 6
ENDMDL
MODEL 9
REMARK VINA RESULT:    -6.123     16.476     18.467
REMARK INTER + INTRA:          -7.639
REMARK INTER:                  -7.310
REMARK INTRA:                  -0.329
REMARK UNBOUND:                -0.264
REMARK SMILES O=c1c(O)c(-c2ccc(O)c(O)c2)oc2cc(O)cc(O)c12
REMARK SMILES IDX 5 1 3 2 2 3 1 4 22 5 20 6 19 7 17 8 16 9 15 10 14 11 6 12
REMARK SMILES IDX 7 13 8 14 9 15 13 16 11 17 10 18 12 20 4 22 21 24 18 26
REMARK H PARENT 10 19 12 21 4 23 21 25 18 27
REMARK Flexibility Score: inf
ROOT
ATOM      1  C   UNL     1     158.184 167.910 173.413  1.00  0.00     0.180 A 
ATOM      2  C   UNL     1     159.327 168.724 173.304  1.00  0.00     0.208 A 
ATOM      3  C   UNL     1     159.459 169.827 174.161  1.00  0.00     0.238 A 
ATOM      4  O   UNL     1     160.474 170.570 174.066  1.00  0.00    -0.285 OA
ATOM      5  C   UNL     1     158.459 170.086 175.123  1.00  0.00     0.111 A 
ATOM      6  C   UNL     1     158.518 171.174 176.027  1.00  0.00     0.134 A 
ATOM      7  C   UNL     1     157.488 171.358 176.961  1.00  0.00     0.093 A 
ATOM      8  C   UNL     1     156.404 170.478 177.010  1.00  0.00     0.123 A 
ATOM      9  C   UNL     1     156.341 169.402 176.118  1.00  0.00     0.094 A 
ATOM     10  C   UNL     1     157.357 169.202 175.179  1.00  0.00     0.146 A 
ATOM     11  O   UNL     1     157.270 168.175 174.342  1.00  0.00    -0.452 OA
ENDROOT
BRANCH   1  12
ATOM     12  C   UNL     1     157.965 166.740 172.533  1.00  0.00     0.025 A 
ATOM     13  C   UNL     1     157.381 166.879 171.261  1.00  0.00     0.016 A 
ATOM     14  C   UNL     1     157.162 165.757 170.457  1.00  0.00     0.051 A 
ATOM     15  C   UNL     1     157.506 164.482 170.914  1.00  0.00     0.157 A 
ATOM     16  C   UNL     1     158.290 165.455 172.996  1.00  0.00     0.062 A 
ATOM     17  C   UNL     1     158.071 164.328 172.192  1.00  0.00     0.158 A 
BRANCH  15  18
ATOM     18  O   UNL     1     157.277 163.382 170.089  1.00  0.00    -0.504 OA
ATOM     19  H   UNL     1     156.342 163.085 169.835  1.00  0.00     0.293 HD
ENDBRANCH  15  18
BRANCH  17  20
ATOM     20  O   UNL     1     158.410 163.058 172.656  1.00  0.00    -0.504 OA
ATOM     21  H   UNL     1     159.373 162.746 172.695  1.00  0.00     0.293 HD
ENDBRANCH  17  20
ENDBRANCH   1  12
BRANCH   2  22
ATOM     22  O   UNL     1     160.327 168.419 172.376  1.00  0.00    -0.502 OA
ATOM     23  H   UNL     1     160.333 168.801 171.439  1.00  0.00     0.293 HD
ENDBRANCH   2  22
BRANCH   6  24
ATOM     24  O   UNL     1     159.588 172.069 176.005  1.00  0.00    -0.507 OA
ATOM     25  H   UNL     1     159.524 172.965 175.535  1.00  0.00     0.293 HD
ENDBRANCH   6  24
BRANCH   8  26
ATOM     26  O   UNL     1     155.395 170.682 177.947  1.00  0.00    -0.508 OA
ATOM     27  H   UNL     1     154.729 169.954 178.177  1.00  0.00     0.293 HD
ENDBRANCH   8  26
TORSDOF 6
ENDMDL
