MODEL 1
REMARK VINA RESULT:    -3.180      0.000      0.000
REMARK INTER + INTRA:          -6.384
REMARK INTER:                  -5.039
REMARK INTRA:                  -1.345
REMARK UNBOUND:                -1.345
REMARK SMILES CCCCCCCCCCCC(=O)[O-]
REMARK SMILES IDX 7 1 8 2 9 3 10 4 11 5 12 6 13 7 14 8 6 9 5 10 4 11 3 12 2 13
REMARK SMILES IDX 1 14
REMARK H PARENT
REMARK Flexibility Score: inf
ROOT
ATOM      1  C   UNL     1      -7.716  -5.763   7.038  1.00  0.00     0.000 C 
ENDROOT
BRANCH   1   2
ATOM      2  C   UNL     1      -7.490  -5.664   8.551  1.00  0.00     0.000 C 
BRANCH   2   3
ATOM      3  C   UNL     1      -8.027  -4.338   9.102  1.00  0.00     0.000 C 
BRANCH   3   4
ATOM      4  C   UNL     1      -9.454  -4.071   8.597  1.00  0.00     0.006 C 
BRANCH   4   5
ATOM      5  C   UNL     1      -9.683  -2.591   8.260  1.00  0.00     0.053 C 
BRANCH   5   6
ATOM      6  C   UNL     1      -8.708  -2.097   7.236  1.00  0.00     0.041 C 
ATOM      7  O   UNL     1      -8.870  -2.377   6.019  1.00  0.00    -0.550 OA
ATOM      8  O   UNL     1      -7.638  -1.300   7.622  1.00  0.00    -0.550 OA
ENDBRANCH   5   6
ENDBRANCH   4   5
ENDBRANCH   3   4
ENDBRANCH   2   3
ENDBRANCH   1   2
BRANCH   1   9
ATOM      9  C   UNL     1      -8.218  -7.157   6.646  1.00  0.00     0.000 C 
BRANCH   9  10
ATOM     10  C   UNL     1      -9.362  -7.609   7.561  1.00  0.00    -0.000 C 
BRANCH  10  11
ATOM     11  C   UNL     1     -10.723  -7.166   7.004  1.00  0.00    -0.000 C 
BRANCH  11  12
ATOM     12  C   UNL     1     -10.917  -7.545   5.525  1.00  0.00    -0.000 C 
BRANCH  12  13
ATOM     13  C   UNL     1     -11.124  -6.354   4.573  1.00  0.00    -0.003 C 
ATOM     14  C   UNL     1     -11.011  -5.001   5.275  1.00  0.00     0.004 C 
ENDBRANCH  12  13
ENDBRANCH  11  12
ENDBRANCH  10  11
ENDBRANCH   9  10
ENDBRANCH   1   9
TORSDOF 10
ENDMDL
MODEL 2
REMARK VINA RESULT:    -3.092     20.197     21.262
REMARK INTER + INTRA:          -6.244
REMARK INTER:                  -5.022
REMARK INTRA:                  -1.222
REMARK UNBOUND:                -1.345
REMARK SMILES CCCCCCCCCCCC(=O)[O-]
REMARK SMILES IDX 7 1 8 2 9 3 10 4 11 5 12 6 13 7 14 8 6 9 5 10 4 11 3 12 2 13
REMARK SMILES IDX 1 14
REMARK H PARENT
REMARK Flexibility Score: inf
ROOT
ATOM      1  C   UNL     1       5.469  -5.050  -6.515  1.00  0.00     0.000 C 
ENDROOT
BRANCH   1   2
ATOM      2  C   UNL     1       6.745  -4.807  -7.330  1.00  0.00     0.000 C 
BRANCH   2   3
ATOM      3  C   UNL     1       6.408  -4.396  -8.769  1.00  0.00     0.000 C 
BRANCH   3   4
ATOM      4  C   UNL     1       4.891  -4.240  -8.955  1.00  0.00     0.006 C 
BRANCH   4   5
ATOM      5  C   UNL     1       4.542  -3.286 -10.106  1.00  0.00     0.053 C 
BRANCH   5   6
ATOM      6  C   UNL     1       3.978  -1.992  -9.603  1.00  0.00     0.041 C 
ATOM      7  O   UNL     1       4.331  -0.902 -10.124  1.00  0.00    -0.550 OA
ATOM      8  O   UNL     1       3.037  -1.994  -8.582  1.00  0.00    -0.550 OA
ENDBRANCH   5   6
ENDBRANCH   4   5
ENDBRANCH   3   4
ENDBRANCH   2   3
ENDBRANCH   1   2
BRANCH   1   9
ATOM      9  C   UNL     1       5.451  -6.466  -5.929  1.00  0.00     0.000 C 
BRANCH   9  10
ATOM     10  C   UNL     1       6.714  -7.242  -6.321  1.00  0.00    -0.000 C 
BRANCH  10  11
ATOM     11  C   UNL     1       6.356  -8.599  -6.945  1.00  0.00    -0.000 C 
BRANCH  11  12
ATOM     12  C   UNL     1       6.372  -8.574  -8.484  1.00  0.00    -0.000 C 
BRANCH  12  13
ATOM     13  C   UNL     1       5.037  -8.948  -9.151  1.00  0.00    -0.003 C 
ATOM     14  C   UNL     1       3.983  -7.848  -9.038  1.00  0.00     0.004 C 
ENDBRANCH  12  13
ENDBRANCH  11  12
ENDBRANCH  10  11
ENDBRANCH   9  10
ENDBRANCH   1   9
TORSDOF 10
ENDMDL
MODEL 3
REMARK VINA RESULT:    -2.833      1.466      3.096
REMARK INTER + INTRA:          -5.834
REMARK INTER:                  -4.396
REMARK INTRA:                  -1.439
REMARK UNBOUND:                -1.345
REMARK SMILES CCCCCCCCCCCC(=O)[O-]
REMARK SMILES IDX 7 1 8 2 9 3 10 4 11 5 12 6 13 7 14 8 6 9 5 10 4 11 3 12 2 13
REMARK SMILES IDX 1 14
REMARK H PARENT
REMARK Flexibility Score: inf
ROOT
ATOM      1  C   UNL     1      -9.866  -5.111   6.491  1.00  0.00     0.000 C 
ENDROOT
BRANCH   1   2
ATOM      2  C   UNL     1     -10.769  -4.849   7.703  1.00  0.00     0.000 C 
BRANCH   2   3
ATOM      3  C   UNL     1      -9.948  -4.791   8.997  1.00  0.00     0.000 C 
BRANCH   3   4
ATOM      4  C   UNL     1      -8.552  -4.207   8.736  1.00  0.00     0.006 C 
BRANCH   4   5
ATOM      5  C   UNL     1      -8.433  -2.752   9.212  1.00  0.00     0.053 C 
BRANCH   5   6
ATOM      6  C   UNL     1      -8.261  -1.804   8.064  1.00  0.00     0.041 C 
ATOM      7  O   UNL     1      -7.195  -1.146   7.939  1.00  0.00    -0.550 OA
ATOM      8  O   UNL     1      -9.266  -1.673   7.115  1.00  0.00    -0.550 OA
ENDBRANCH   5   6
ENDBRANCH   4   5
ENDBRANCH   3   4
ENDBRANCH   2   3
ENDBRANCH   1   2
BRANCH   1   9
ATOM      9  C   UNL     1      -9.801  -6.607   6.165  1.00  0.00     0.000 C 
BRANCH   9  10
ATOM     10  C   UNL     1      -8.378  -7.149   6.343  1.00  0.00    -0.000 C 
BRANCH  10  11
ATOM     11  C   UNL     1      -8.379  -8.435   7.183  1.00  0.00    -0.000 C 
BRANCH  11  12
ATOM     12  C   UNL     1      -9.549  -8.498   8.181  1.00  0.00    -0.000 C 
BRANCH  12  13
ATOM     13  C   UNL     1      -9.154  -8.290   9.654  1.00  0.00    -0.003 C 
ATOM     14  C   UNL     1      -7.660  -8.030   9.842  1.00  0.00     0.004 C 
ENDBRANCH  12  13
ENDBRANCH  11  12
ENDBRANCH  10  11
ENDBRANCH   9  10
ENDBRANCH   1   9
TORSDOF 10
ENDMDL
MODEL 4
REMARK VINA RESULT:    -2.833     20.206     21.401
REMARK INTER + INTRA:          -5.834
REMARK INTER:                  -4.798
REMARK INTRA:                  -1.036
REMARK UNBOUND:                -1.345
REMARK SMILES CCCCCCCCCCCC(=O)[O-]
REMARK SMILES IDX 7 1 8 2 9 3 10 4 11 5 12 6 13 7 14 8 6 9 5 10 4 11 3 12 2 13
REMARK SMILES IDX 1 14
REMARK H PARENT
REMARK Flexibility Score: inf
ROOT
ATOM      1  C   UNL     1       8.322  -5.290  -5.954  1.00  0.00     0.000 C 
ENDROOT
BRANCH   1   2
ATOM      2  C   UNL     1       8.274  -6.723  -6.498  1.00  0.00     0.000 C 
BRANCH   2   3
ATOM      3  C   UNL     1       7.318  -7.593  -5.673  1.00  0.00     0.000 C 
BRANCH   3   4
ATOM      4  C   UNL     1       6.149  -8.094  -6.534  1.00  0.00     0.006 C 
BRANCH   4   5
ATOM      5  C   UNL     1       5.196  -6.961  -6.938  1.00  0.00     0.053 C 
BRANCH   5   6
ATOM      6  C   UNL     1       4.706  -6.197  -5.745  1.00  0.00     0.041 C 
ATOM      7  O   UNL     1       4.088  -6.791  -4.823  1.00  0.00    -0.550 OA
ATOM      8  O   UNL     1       4.960  -4.836  -5.639  1.00  0.00    -0.550 OA
ENDBRANCH   5   6
ENDBRANCH   4   5
ENDBRANCH   3   4
ENDBRANCH   2   3
ENDBRANCH   1   2
BRANCH   1   9
ATOM      9  C   UNL     1       8.410  -4.271  -7.095  1.00  0.00     0.000 C 
BRANCH   9  10
ATOM     10  C   UNL     1       7.750  -4.810  -8.370  1.00  0.00    -0.000 C 
BRANCH  10  11
ATOM     11  C   UNL     1       7.452  -3.674  -9.360  1.00  0.00    -0.000 C 
BRANCH  11  12
ATOM     12  C   UNL     1       6.066  -3.800 -10.017  1.00  0.00    -0.000 C 
BRANCH  12  13
ATOM     13  C   UNL     1       4.883  -3.837  -9.032  1.00  0.00    -0.003 C 
ATOM     14  C   UNL     1       3.789  -2.828  -9.373  1.00  0.00     0.004 C 
ENDBRANCH  12  13
ENDBRANCH  11  12
ENDBRANCH  10  11
ENDBRANCH   9  10
ENDBRANCH   1   9
TORSDOF 10
ENDMDL
MODEL 5
REMARK VINA RESULT:    -2.799      1.194      3.294
REMARK INTER + INTRA:          -5.781
REMARK INTER:                  -4.650
REMARK INTRA:                  -1.131
REMARK UNBOUND:                -1.345
REMARK SMILES CCCCCCCCCCCC(=O)[O-]
REMARK SMILES IDX 7 1 8 2 9 3 10 4 11 5 12 6 13 7 14 8 6 9 5 10 4 11 3 12 2 13
REMARK SMILES IDX 1 14
REMARK H PARENT
REMARK Flexibility Score: inf
ROOT
ATOM      1  C   UNL     1     -10.004  -6.846   5.640  1.00  0.00     0.000 C 
ENDROOT
BRANCH   1   2
ATOM      2  C   UNL     1     -10.813  -5.573   5.917  1.00  0.00     0.000 C 
BRANCH   2   3
ATOM      3  C   UNL     1     -10.806  -5.233   7.412  1.00  0.00     0.000 C 
BRANCH   3   4
ATOM      4  C   UNL     1     -10.869  -3.714   7.630  1.00  0.00     0.006 C 
BRANCH   4   5
ATOM      5  C   UNL     1      -9.555  -3.152   8.192  1.00  0.00     0.053 C 
BRANCH   5   6
ATOM      6  C   UNL     1      -8.776  -2.413   7.147  1.00  0.00     0.041 C 
ATOM      7  O   UNL     1      -9.091  -2.514   5.932  1.00  0.00    -0.550 OA
ATOM      8  O   UNL     1      -7.722  -1.588   7.519  1.00  0.00    -0.550 OA
ENDBRANCH   5   6
ENDBRANCH   4   5
ENDBRANCH   3   4
ENDBRANCH   2   3
ENDBRANCH   1   2
BRANCH   1   9
ATOM      9  C   UNL     1      -9.918  -7.728   6.890  1.00  0.00     0.000 C 
BRANCH   9  10
ATOM     10  C   UNL     1      -8.476  -8.180   7.149  1.00  0.00    -0.000 C 
BRANCH  10  11
ATOM     11  C   UNL     1      -8.162  -8.188   8.653  1.00  0.00    -0.000 C 
BRANCH  11  12
ATOM     12  C   UNL     1      -8.139  -6.777   9.268  1.00  0.00    -0.000 C 
BRANCH  12  13
ATOM     13  C   UNL     1      -7.219  -5.773   8.549  1.00  0.00    -0.003 C 
ATOM     14  C   UNL     1      -6.037  -5.324   9.407  1.00  0.00     0.004 C 
ENDBRANCH  12  13
ENDBRANCH  11  12
ENDBRANCH  10  11
ENDBRANCH   9  10
ENDBRANCH   1   9
TORSDOF 10
ENDMDL
MODEL 6
REMARK VINA RESULT:    -2.762     14.942     16.739
REMARK INTER + INTRA:          -5.722
REMARK INTER:                  -4.643
REMARK INTRA:                  -1.079
REMARK UNBOUND:                -1.345
REMARK SMILES CCCCCCCCCCCC(=O)[O-]
REMARK SMILES IDX 7 1 8 2 9 3 10 4 11 5 12 6 13 7 14 8 6 9 5 10 4 11 3 12 2 13
REMARK SMILES IDX 1 14
REMARK H PARENT
REMARK Flexibility Score: inf
ROOT
ATOM      1  C   UNL     1       8.306  -5.498   4.710  1.00  0.00     0.000 C 
ENDROOT
BRANCH   1   2
ATOM      2  C   UNL     1       7.626  -6.795   4.257  1.00  0.00     0.000 C 
BRANCH   2   3
ATOM      3  C   UNL     1       6.100  -6.646   4.261  1.00  0.00     0.000 C 
BRANCH   3   4
ATOM      4  C   UNL     1       5.420  -7.950   3.817  1.00  0.00     0.006 C 
BRANCH   4   5
ATOM      5  C   UNL     1       5.566  -8.198   2.309  1.00  0.00     0.053 C 
BRANCH   5   6
ATOM      6  C   UNL     1       4.234  -8.262   1.626  1.00  0.00     0.041 C 
ATOM      7  O   UNL     1       4.161  -8.579   0.409  1.00  0.00    -0.550 OA
ATOM      8  O   UNL     1       3.072  -8.003   2.340  1.00  0.00    -0.550 OA
ENDBRANCH   5   6
ENDBRANCH   4   5
ENDBRANCH   3   4
ENDBRANCH   2   3
ENDBRANCH   1   2
BRANCH   1   9
ATOM      9  C   UNL     1       9.077  -5.707   6.018  1.00  0.00     0.000 C 
BRANCH   9  10
ATOM     10  C   UNL     1       9.019  -7.173   6.464  1.00  0.00    -0.000 C 
BRANCH  10  11
ATOM     11  C   UNL     1       8.506  -7.290   7.907  1.00  0.00    -0.000 C 
BRANCH  11  12
ATOM     12  C   UNL     1       7.009  -6.954   8.040  1.00  0.00    -0.000 C 
BRANCH  12  13
ATOM     13  C   UNL     1       6.110  -8.145   8.414  1.00  0.00    -0.003 C 
ATOM     14  C   UNL     1       5.901  -9.123   7.259  1.00  0.00     0.004 C 
ENDBRANCH  12  13
ENDBRANCH  11  12
ENDBRANCH  10  11
ENDBRANCH   9  10
ENDBRANCH   1   9
TORSDOF 10
ENDMDL
MODEL 7
REMARK VINA RESULT:    -2.673     19.366     21.269
REMARK INTER + INTRA:          -5.581
REMARK INTER:                  -4.438
REMARK INTRA:                  -1.143
REMARK UNBOUND:                -1.345
REMARK SMILES CCCCCCCCCCCC(=O)[O-]
REMARK SMILES IDX 7 1 8 2 9 3 10 4 11 5 12 6 13 7 14 8 6 9 5 10 4 11 3 12 2 13
REMARK SMILES IDX 1 14
REMARK H PARENT
REMARK Flexibility Score: inf
ROOT
ATOM      1  C   UNL     1       6.134   8.762   9.873  1.00  0.00     0.000 C 
ENDROOT
BRANCH   1   2
ATOM      2  C   UNL     1       6.036   9.815   8.764  1.00  0.00     0.000 C 
BRANCH   2   3
ATOM      3  C   UNL     1       7.348  10.599   8.633  1.00  0.00     0.000 C 
BRANCH   3   4
ATOM      4  C   UNL     1       7.682  10.870   7.158  1.00  0.00     0.006 C 
BRANCH   4   5
ATOM      5  C   UNL     1       6.424  11.124   6.315  1.00  0.00     0.053 C 
BRANCH   5   6
ATOM      6  C   UNL     1       6.708  11.013   4.847  1.00  0.00     0.041 C 
ATOM      7  O   UNL     1       5.764  10.847   4.031  1.00  0.00    -0.550 OA
ATOM      8  O   UNL     1       8.011  11.124   4.380  1.00  0.00    -0.550 OA
ENDBRANCH   5   6
ENDBRANCH   4   5
ENDBRANCH   3   4
ENDBRANCH   2   3
ENDBRANCH   1   2
BRANCH   1   9
ATOM      9  C   UNL     1       7.338   7.840   9.654  1.00  0.00     0.000 C 
BRANCH   9  10
ATOM     10  C   UNL     1       6.893   6.387   9.453  1.00  0.00    -0.000 C 
BRANCH  10  11
ATOM     11  C   UNL     1       5.813   6.286   8.366  1.00  0.00    -0.000 C 
BRANCH  11  12
ATOM     12  C   UNL     1       6.397   6.255   6.942  1.00  0.00    -0.000 C 
BRANCH  12  13
ATOM     13  C   UNL     1       6.124   7.516   6.103  1.00  0.00    -0.003 C 
ATOM     14  C   UNL     1       6.755   7.458   4.713  1.00  0.00     0.004 C 
ENDBRANCH  12  13
ENDBRANCH  11  12
ENDBRANCH  10  11
ENDBRANCH   9  10
ENDBRANCH   1   9
TORSDOF 10
ENDMDL
MODEL 8
REMARK VINA RESULT:    -2.653     20.547     21.963
REMARK INTER + INTRA:          -5.549
REMARK INTER:                  -4.208
REMARK INTRA:                  -1.341
REMARK UNBOUND:                -1.345
REMARK SMILES CCCCCCCCCCCC(=O)[O-]
REMARK SMILES IDX 7 1 8 2 9 3 10 4 11 5 12 6 13 7 14 8 6 9 5 10 4 11 3 12 2 13
REMARK SMILES IDX 1 14
REMARK H PARENT
REMARK Flexibility Score: inf
ROOT
ATOM      1  C   UNL     1       6.043  -3.638  -9.083  1.00  0.00     0.000 C 
ENDROOT
BRANCH   1   2
ATOM      2  C   UNL     1       4.965  -4.699  -9.336  1.00  0.00     0.000 C 
BRANCH   2   3
ATOM      3  C   UNL     1       5.553  -6.113  -9.247  1.00  0.00     0.000 C 
BRANCH   3   4
ATOM      4  C   UNL     1       4.829  -6.943  -8.176  1.00  0.00     0.006 C 
BRANCH   4   5
ATOM      5  C   UNL     1       5.603  -6.984  -6.851  1.00  0.00     0.053 C 
BRANCH   5   6
ATOM      6  C   UNL     1       4.950  -6.140  -5.799  1.00  0.00     0.041 C 
ATOM      7  O   UNL     1       5.122  -4.892  -5.792  1.00  0.00    -0.550 OA
ATOM      8  O   UNL     1       4.127  -6.727  -4.848  1.00  0.00    -0.550 OA
ENDBRANCH   5   6
ENDBRANCH   4   5
ENDBRANCH   3   4
ENDBRANCH   2   3
ENDBRANCH   1   2
BRANCH   1   9
ATOM      9  C   UNL     1       7.214  -3.799 -10.059  1.00  0.00     0.000 C 
BRANCH   9  10
ATOM     10  C   UNL     1       8.547  -3.909  -9.309  1.00  0.00    -0.000 C 
BRANCH  10  11
ATOM     11  C   UNL     1       8.329  -3.880  -7.790  1.00  0.00    -0.000 C 
BRANCH  11  12
ATOM     12  C   UNL     1       8.764  -5.184  -7.096  1.00  0.00    -0.000 C 
BRANCH  12  13
ATOM     13  C   UNL     1       8.632  -5.177  -5.563  1.00  0.00    -0.003 C 
ATOM     14  C   UNL     1       8.822  -6.559  -4.940  1.00  0.00     0.004 C 
ENDBRANCH  12  13
ENDBRANCH  11  12
ENDBRANCH  10  11
ENDBRANCH   9  10
ENDBRANCH   1   9
TORSDOF 10
ENDMDL
