MODEL 1
REMARK VINA RESULT:    -3.759      0.000      0.000
REMARK INTER + INTRA:          -7.657
REMARK INTER:                  -6.616
REMARK INTRA:                  -1.041
REMARK UNBOUND:                -1.041
REMARK SMILES CCCCCCCCCCCCCCC(=O)[O-]
REMARK SMILES IDX 9 1 10 2 11 3 12 4 13 5 14 6 15 7 16 8 17 9 8 10 7 11 6 12
REMARK SMILES IDX 5 13 4 14 3 15 2 16 1 17
REMARK H PARENT
REMARK Flexibility Score: inf
ROOT
ATOM      1  C   UNL     1      25.304  18.943  26.017  1.00  0.00     0.000 C 
ENDROOT
BRANCH   1   2
ATOM      2  C   UNL     1      23.923  18.960  26.700  1.00  0.00     0.000 C 
BRANCH   2   3
ATOM      3  C   UNL     1      22.935  19.971  26.077  1.00  0.00     0.000 C 
BRANCH   3   4
ATOM      4  C   UNL     1      22.203  20.807  27.141  1.00  0.00     0.000 C 
BRANCH   4   5
ATOM      5  C   UNL     1      22.501  22.313  27.026  1.00  0.00     0.006 C 
BRANCH   5   6
ATOM      6  C   UNL     1      23.923  22.642  26.544  1.00  0.00     0.053 C 
BRANCH   6   7
ATOM      7  C   UNL     1      24.259  24.089  26.732  1.00  0.00     0.041 C 
ATOM      8  O   UNL     1      24.146  24.624  27.866  1.00  0.00    -0.550 OA
ATOM      9  O   UNL     1      24.667  24.856  25.647  1.00  0.00    -0.550 OA
ENDBRANCH   6   7
ENDBRANCH   5   6
ENDBRANCH   4   5
ENDBRANCH   3   4
ENDBRANCH   2   3
ENDBRANCH   1   2
BRANCH   1  10
ATOM     10  C   UNL     1      25.274  19.096  24.485  1.00  0.00     0.000 C 
BRANCH  10  11
ATOM     11  C   UNL     1      26.513  19.784  23.881  1.00  0.00    -0.000 C 
BRANCH  11  12
ATOM     12  C   UNL     1      26.940  21.039  24.661  1.00  0.00    -0.000 C 
BRANCH  12  13
ATOM     13  C   UNL     1      28.214  20.816  25.492  1.00  0.00    -0.000 C 
BRANCH  13  14
ATOM     14  C   UNL     1      29.496  20.932  24.649  1.00  0.00    -0.000 C 
BRANCH  14  15
ATOM     15  C   UNL     1      30.046  19.564  24.219  1.00  0.00    -0.000 C 
BRANCH  15  16
ATOM     16  C   UNL     1      29.904  19.316  22.710  1.00  0.00    -0.003 C 
ATOM     17  C   UNL     1      30.800  20.260  21.912  1.00  0.00     0.004 C 
ENDBRANCH  15  16
ENDBRANCH  14  15
ENDBRANCH  13  14
ENDBRANCH  12  13
ENDBRANCH  11  12
ENDBRANCH  10  11
ENDBRANCH   1  10
TORSDOF 13
ENDMDL
MODEL 2
REMARK VINA RESULT:    -3.739      3.469      7.121
REMARK INTER + INTRA:          -7.622
REMARK INTER:                  -6.735
REMARK INTRA:                  -0.887
REMARK UNBOUND:                -1.041
REMARK SMILES CCCCCCCCCCCCCCC(=O)[O-]
REMARK SMILES IDX 9 1 10 2 11 3 12 4 13 5 14 6 15 7 16 8 17 9 8 10 7 11 6 12
REMARK SMILES IDX 5 13 4 14 3 15 2 16 1 17
REMARK H PARENT
REMARK Flexibility Score: inf
ROOT
ATOM      1  C   UNL     1      25.993  20.180  25.769  1.00  0.00     0.000 C 
ENDROOT
BRANCH   1   2
ATOM      2  C   UNL     1      26.362  19.698  24.353  1.00  0.00     0.000 C 
BRANCH   2   3
ATOM      3  C   UNL     1      27.597  20.409  23.758  1.00  0.00     0.000 C 
BRANCH   3   4
ATOM      4  C   UNL     1      28.695  20.651  24.808  1.00  0.00     0.000 C 
BRANCH   4   5
ATOM      5  C   UNL     1      30.112  20.399  24.260  1.00  0.00     0.006 C 
BRANCH   5   6
ATOM      6  C   UNL     1      30.344  18.972  23.737  1.00  0.00     0.053 C 
BRANCH   6   7
ATOM      7  C   UNL     1      30.905  18.966  22.349  1.00  0.00     0.041 C 
ATOM      8  O   UNL     1      30.134  18.948  21.354  1.00  0.00    -0.550 OA
ATOM      9  O   UNL     1      32.281  18.947  22.154  1.00  0.00    -0.550 OA
ENDBRANCH   6   7
ENDBRANCH   5   6
ENDBRANCH   4   5
ENDBRANCH   3   4
ENDBRANCH   2   3
ENDBRANCH   1   2
BRANCH   1  10
ATOM     10  C   UNL     1      25.005  19.274  26.527  1.00  0.00     0.000 C 
BRANCH  10  11
ATOM     11  C   UNL     1      23.750  18.875  25.728  1.00  0.00    -0.000 C 
BRANCH  11  12
ATOM     12  C   UNL     1      22.665  19.966  25.735  1.00  0.00    -0.000 C 
BRANCH  12  13
ATOM     13  C   UNL     1      22.555  20.685  27.090  1.00  0.00    -0.000 C 
BRANCH  13  14
ATOM     14  C   UNL     1      22.625  22.216  26.952  1.00  0.00    -0.000 C 
BRANCH  14  15
ATOM     15  C   UNL     1      24.068  22.738  26.889  1.00  0.00    -0.000 C 
BRANCH  15  16
ATOM     16  C   UNL     1      24.159  24.163  26.325  1.00  0.00    -0.003 C 
ATOM     17  C   UNL     1      24.847  25.102  27.312  1.00  0.00     0.004 C 
ENDBRANCH  15  16
ENDBRANCH  14  15
ENDBRANCH  13  14
ENDBRANCH  12  13
ENDBRANCH  11  12
ENDBRANCH  10  11
ENDBRANCH   1  10
TORSDOF 13
ENDMDL
MODEL 3
REMARK VINA RESULT:    -3.430      3.170      6.837
REMARK INTER + INTRA:          -7.078
REMARK INTER:                  -6.316
REMARK INTRA:                  -0.761
REMARK UNBOUND:                -1.041
REMARK SMILES CCCCCCCCCCCCCCC(=O)[O-]
REMARK SMILES IDX 9 1 10 2 11 3 12 4 13 5 14 6 15 7 16 8 17 9 8 10 7 11 6 12
REMARK SMILES IDX 5 13 4 14 3 15 2 16 1 17
REMARK H PARENT
REMARK Flexibility Score: inf
ROOT
ATOM      1  C   UNL     1      25.150  19.637  25.196  1.00  0.00     0.000 C 
ENDROOT
BRANCH   1   2
ATOM      2  C   UNL     1      25.371  19.188  23.738  1.00  0.00     0.000 C 
BRANCH   2   3
ATOM      3  C   UNL     1      26.781  19.513  23.197  1.00  0.00     0.000 C 
BRANCH   3   4
ATOM      4  C   UNL     1      27.561  20.459  24.126  1.00  0.00     0.000 C 
BRANCH   4   5
ATOM      5  C   UNL     1      29.005  19.988  24.380  1.00  0.00     0.006 C 
BRANCH   5   6
ATOM      6  C   UNL     1      29.535  18.983  23.345  1.00  0.00     0.053 C 
BRANCH   6   7
ATOM      7  C   UNL     1      30.582  19.586  22.460  1.00  0.00     0.041 C 
ATOM      8  O   UNL     1      31.548  18.888  22.055  1.00  0.00    -0.550 OA
ATOM      9  O   UNL     1      30.508  20.928  22.109  1.00  0.00    -0.550 OA
ENDBRANCH   6   7
ENDBRANCH   5   6
ENDBRANCH   4   5
ENDBRANCH   3   4
ENDBRANCH   2   3
ENDBRANCH   1   2
BRANCH   1  10
ATOM     10  C   UNL     1      24.044  18.876  25.950  1.00  0.00     0.000 C 
BRANCH  10  11
ATOM     11  C   UNL     1      22.670  19.572  25.956  1.00  0.00    -0.000 C 
BRANCH  11  12
ATOM     12  C   UNL     1      22.419  20.388  27.236  1.00  0.00    -0.000 C 
BRANCH  12  13
ATOM     13  C   UNL     1      22.326  21.899  26.968  1.00  0.00    -0.000 C 
BRANCH  13  14
ATOM     14  C   UNL     1      23.701  22.538  26.704  1.00  0.00    -0.000 C 
BRANCH  14  15
ATOM     15  C   UNL     1      23.709  24.051  26.967  1.00  0.00    -0.000 C 
BRANCH  15  16
ATOM     16  C   UNL     1      24.744  24.796  26.111  1.00  0.00    -0.003 C 
ATOM     17  C   UNL     1      25.488  25.843  26.937  1.00  0.00     0.004 C 
ENDBRANCH  15  16
ENDBRANCH  14  15
ENDBRANCH  13  14
ENDBRANCH  12  13
ENDBRANCH  11  12
ENDBRANCH  10  11
ENDBRANCH   1  10
TORSDOF 13
ENDMDL
MODEL 4
REMARK VINA RESULT:    -3.312     20.558     22.516
REMARK INTER + INTRA:          -6.870
REMARK INTER:                  -6.522
REMARK INTRA:                  -0.349
REMARK UNBOUND:                -1.041
REMARK SMILES CCCCCCCCCCCCCCC(=O)[O-]
REMARK SMILES IDX 9 1 10 2 11 3 12 4 13 5 14 6 15 7 16 8 17 9 8 10 7 11 6 12
REMARK SMILES IDX 5 13 4 14 3 15 2 16 1 17
REMARK H PARENT
REMARK Flexibility Score: inf
ROOT
ATOM      1  C   UNL     1      16.722  33.491  11.153  1.00  0.00     0.000 C 
ENDROOT
BRANCH   1   2
ATOM      2  C   UNL     1      18.170  33.994  11.003  1.00  0.00     0.000 C 
BRANCH   2   3
ATOM      3  C   UNL     1      18.351  35.034   9.875  1.00  0.00     0.000 C 
BRANCH   3   4
ATOM      4  C   UNL     1      17.527  36.311  10.119  1.00  0.00     0.000 C 
BRANCH   4   5
ATOM      5  C   UNL     1      18.340  37.598   9.890  1.00  0.00     0.006 C 
BRANCH   5   6
ATOM      6  C   UNL     1      19.864  37.399   9.921  1.00  0.00     0.053 C 
BRANCH   6   7
ATOM      7  C   UNL     1      20.531  38.316  10.899  1.00  0.00     0.041 C 
ATOM      8  O   UNL     1      21.580  38.933  10.576  1.00  0.00    -0.550 OA
ATOM      9  O   UNL     1      20.013  38.464  12.180  1.00  0.00    -0.550 OA
ENDBRANCH   6   7
ENDBRANCH   5   6
ENDBRANCH   4   5
ENDBRANCH   3   4
ENDBRANCH   2   3
ENDBRANCH   1   2
BRANCH   1  10
ATOM     10  C   UNL     1      15.756  33.947  10.044  1.00  0.00     0.000 C 
BRANCH  10  11
ATOM     11  C   UNL     1      14.305  34.180  10.507  1.00  0.00    -0.000 C 
BRANCH  11  12
ATOM     12  C   UNL     1      14.019  33.590  11.898  1.00  0.00    -0.000 C 
BRANCH  12  13
ATOM     13  C   UNL     1      13.094  32.363  11.844  1.00  0.00    -0.000 C 
BRANCH  13  14
ATOM     14  C   UNL     1      13.859  31.060  11.551  1.00  0.00    -0.000 C 
BRANCH  14  15
ATOM     15  C   UNL     1      13.578  29.965  12.591  1.00  0.00    -0.000 C 
BRANCH  15  16
ATOM     16  C   UNL     1      13.263  28.605  11.950  1.00  0.00    -0.003 C 
ATOM     17  C   UNL     1      12.983  28.755  10.456  1.00  0.00     0.004 C 
ENDBRANCH  15  16
ENDBRANCH  14  15
ENDBRANCH  13  14
ENDBRANCH  12  13
ENDBRANCH  11  12
ENDBRANCH  10  11
ENDBRANCH   1  10
TORSDOF 13
ENDMDL
MODEL 5
REMARK VINA RESULT:    -3.212      2.692      6.242
REMARK INTER + INTRA:          -6.694
REMARK INTER:                  -5.622
REMARK INTRA:                  -1.072
REMARK UNBOUND:                -1.041
REMARK SMILES CCCCCCCCCCCCCCC(=O)[O-]
REMARK SMILES IDX 9 1 10 2 11 3 12 4 13 5 14 6 15 7 16 8 17 9 8 10 7 11 6 12
REMARK SMILES IDX 5 13 4 14 3 15 2 16 1 17
REMARK H PARENT
REMARK Flexibility Score: inf
ROOT
ATOM      1  C   UNL     1      24.174  19.170  25.883  1.00  0.00     0.000 C 
ENDROOT
BRANCH   1   2
ATOM      2  C   UNL     1      25.683  19.038  26.164  1.00  0.00     0.000 C 
BRANCH   2   3
ATOM      3  C   UNL     1      26.515  20.239  25.663  1.00  0.00     0.000 C 
BRANCH   3   4
ATOM      4  C   UNL     1      26.409  20.430  24.140  1.00  0.00     0.000 C 
BRANCH   4   5
ATOM      5  C   UNL     1      27.413  19.563  23.359  1.00  0.00     0.006 C 
BRANCH   5   6
ATOM      6  C   UNL     1      28.746  19.327  24.087  1.00  0.00     0.053 C 
BRANCH   6   7
ATOM      7  C   UNL     1      29.753  20.391  23.776  1.00  0.00     0.041 C 
ATOM      8  O   UNL     1      30.110  21.205  24.668  1.00  0.00    -0.550 OA
ATOM      9  O   UNL     1      30.272  20.505  22.492  1.00  0.00    -0.550 OA
ENDBRANCH   6   7
ENDBRANCH   5   6
ENDBRANCH   4   5
ENDBRANCH   3   4
ENDBRANCH   2   3
ENDBRANCH   1   2
BRANCH   1  10
ATOM     10  C   UNL     1      23.265  18.984  27.112  1.00  0.00     0.000 C 
BRANCH  10  11
ATOM     11  C   UNL     1      22.323  20.167  27.404  1.00  0.00    -0.000 C 
BRANCH  11  12
ATOM     12  C   UNL     1      22.515  21.339  26.426  1.00  0.00    -0.000 C 
BRANCH  12  13
ATOM     13  C   UNL     1      22.705  22.685  27.144  1.00  0.00    -0.000 C 
BRANCH  13  14
ATOM     14  C   UNL     1      23.858  23.514  26.549  1.00  0.00    -0.000 C 
BRANCH  14  15
ATOM     15  C   UNL     1      24.453  24.506  27.559  1.00  0.00    -0.000 C 
BRANCH  15  16
ATOM     16  C   UNL     1      25.262  25.624  26.884  1.00  0.00    -0.003 C 
ATOM     17  C   UNL     1      25.049  25.620  25.372  1.00  0.00     0.004 C 
ENDBRANCH  15  16
ENDBRANCH  14  15
ENDBRANCH  13  14
ENDBRANCH  12  13
ENDBRANCH  11  12
ENDBRANCH  10  11
ENDBRANCH   1  10
TORSDOF 13
ENDMDL
MODEL 6
REMARK VINA RESULT:    -3.061      0.839      1.818
REMARK INTER + INTRA:          -6.427
REMARK INTER:                  -5.618
REMARK INTRA:                  -0.810
REMARK UNBOUND:                -1.041
REMARK SMILES CCCCCCCCCCCCCCC(=O)[O-]
REMARK SMILES IDX 9 1 10 2 11 3 12 4 13 5 14 6 15 7 16 8 17 9 8 10 7 11 6 12
REMARK SMILES IDX 5 13 4 14 3 15 2 16 1 17
REMARK H PARENT
REMARK Flexibility Score: inf
ROOT
ATOM      1  C   UNL     1      25.573  19.672  26.049  1.00  0.00     0.000 C 
ENDROOT
BRANCH   1   2
ATOM      2  C   UNL     1      24.146  19.167  26.340  1.00  0.00     0.000 C 
BRANCH   2   3
ATOM      3  C   UNL     1      23.039  20.133  25.865  1.00  0.00     0.000 C 
BRANCH   3   4
ATOM      4  C   UNL     1      22.262  20.756  27.038  1.00  0.00     0.000 C 
BRANCH   4   5
ATOM      5  C   UNL     1      22.575  22.250  27.235  1.00  0.00     0.006 C 
BRANCH   5   6
ATOM      6  C   UNL     1      23.728  22.776  26.365  1.00  0.00     0.053 C 
BRANCH   6   7
ATOM      7  C   UNL     1      24.162  24.149  26.776  1.00  0.00     0.041 C 
ATOM      8  O   UNL     1      23.710  24.667  27.830  1.00  0.00    -0.550 OA
ATOM      9  O   UNL     1      25.041  24.870  25.977  1.00  0.00    -0.550 OA
ENDBRANCH   6   7
ENDBRANCH   5   6
ENDBRANCH   4   5
ENDBRANCH   3   4
ENDBRANCH   2   3
ENDBRANCH   1   2
BRANCH   1  10
ATOM     10  C   UNL     1      26.286  18.968  24.879  1.00  0.00     0.000 C 
BRANCH  10  11
ATOM     11  C   UNL     1      25.788  19.376  23.480  1.00  0.00    -0.000 C 
BRANCH  11  12
ATOM     12  C   UNL     1      26.875  19.248  22.398  1.00  0.00    -0.000 C 
BRANCH  12  13
ATOM     13  C   UNL     1      28.249  18.875  22.978  1.00  0.00    -0.000 C 
BRANCH  13  14
ATOM     14  C   UNL     1      29.291  19.991  22.792  1.00  0.00    -0.000 C 
BRANCH  14  15
ATOM     15  C   UNL     1      30.135  20.227  24.053  1.00  0.00    -0.000 C 
BRANCH  15  16
ATOM     16  C   UNL     1      29.742  21.512  24.798  1.00  0.00    -0.003 C 
ATOM     17  C   UNL     1      28.452  21.315  25.589  1.00  0.00     0.004 C 
ENDBRANCH  15  16
ENDBRANCH  14  15
ENDBRANCH  13  14
ENDBRANCH  12  13
ENDBRANCH  11  12
ENDBRANCH  10  11
ENDBRANCH   1  10
TORSDOF 13
ENDMDL
MODEL 7
REMARK VINA RESULT:    -2.491      0.872      1.407
REMARK INTER + INTRA:          -5.425
REMARK INTER:                  -4.608
REMARK INTRA:                  -0.817
REMARK UNBOUND:                -1.041
REMARK SMILES CCCCCCCCCCCCCCC(=O)[O-]
REMARK SMILES IDX 9 1 10 2 11 3 12 4 13 5 14 6 15 7 16 8 17 9 8 10 7 11 6 12
REMARK SMILES IDX 5 13 4 14 3 15 2 16 1 17
REMARK H PARENT
REMARK Flexibility Score: inf
ROOT
ATOM      1  C   UNL     1      23.130  18.940  25.045  1.00  0.00     0.000 C 
ENDROOT
BRANCH   1   2
ATOM      2  C   UNL     1      23.694  19.644  26.295  1.00  0.00     0.000 C 
BRANCH   2   3
ATOM      3  C   UNL     1      22.614  20.031  27.329  1.00  0.00     0.000 C 
BRANCH   3   4
ATOM      4  C   UNL     1      22.110  21.472  27.137  1.00  0.00     0.000 C 
BRANCH   4   5
ATOM      5  C   UNL     1      23.184  22.407  26.554  1.00  0.00     0.006 C 
BRANCH   5   6
ATOM      6  C   UNL     1      23.431  23.680  27.380  1.00  0.00     0.053 C 
BRANCH   6   7
ATOM      7  C   UNL     1      24.443  24.579  26.739  1.00  0.00     0.041 C 
ATOM      8  O   UNL     1      25.215  25.273  27.450  1.00  0.00    -0.550 OA
ATOM      9  O   UNL     1      24.510  24.676  25.354  1.00  0.00    -0.550 OA
ENDBRANCH   6   7
ENDBRANCH   5   6
ENDBRANCH   4   5
ENDBRANCH   3   4
ENDBRANCH   2   3
ENDBRANCH   1   2
BRANCH   1  10
ATOM     10  C   UNL     1      24.093  18.875  23.845  1.00  0.00     0.000 C 
BRANCH  10  11
ATOM     11  C   UNL     1      25.588  18.880  24.215  1.00  0.00    -0.000 C 
BRANCH  11  12
ATOM     12  C   UNL     1      26.338  20.100  23.654  1.00  0.00    -0.000 C 
BRANCH  12  13
ATOM     13  C   UNL     1      26.610  21.172  24.721  1.00  0.00    -0.000 C 
BRANCH  13  14
ATOM     14  C   UNL     1      27.730  20.766  25.695  1.00  0.00    -0.000 C 
BRANCH  14  15
ATOM     15  C   UNL     1      29.129  20.901  25.075  1.00  0.00    -0.000 C 
BRANCH  15  16
ATOM     16  C   UNL     1      29.409  19.835  24.006  1.00  0.00    -0.003 C 
ATOM     17  C   UNL     1      30.099  20.446  22.789  1.00  0.00     0.004 C 
ENDBRANCH  15  16
ENDBRANCH  14  15
ENDBRANCH  13  14
ENDBRANCH  12  13
ENDBRANCH  11  12
ENDBRANCH  10  11
ENDBRANCH   1  10
TORSDOF 13
ENDMDL
MODEL 8
REMARK VINA RESULT:    -2.261      2.524      3.658
REMARK INTER + INTRA:          -5.020
REMARK INTER:                  -4.191
REMARK INTRA:                  -0.829
REMARK UNBOUND:                -1.041
REMARK SMILES CCCCCCCCCCCCCCC(=O)[O-]
REMARK SMILES IDX 9 1 10 2 11 3 12 4 13 5 14 6 15 7 16 8 17 9 8 10 7 11 6 12
REMARK SMILES IDX 5 13 4 14 3 15 2 16 1 17
REMARK H PARENT
REMARK Flexibility Score: inf
ROOT
ATOM      1  C   UNL     1      24.712  23.204  26.304  1.00  0.00     0.000 C 
ENDROOT
BRANCH   1   2
ATOM      2  C   UNL     1      23.240  22.808  26.530  1.00  0.00     0.000 C 
BRANCH   2   3
ATOM      3  C   UNL     1      23.066  21.465  27.273  1.00  0.00     0.000 C 
BRANCH   3   4
ATOM      4  C   UNL     1      22.414  20.387  26.389  1.00  0.00     0.000 C 
BRANCH   4   5
ATOM      5  C   UNL     1      23.120  19.023  26.494  1.00  0.00     0.006 C 
BRANCH   5   6
ATOM      6  C   UNL     1      24.351  18.875  25.586  1.00  0.00     0.053 C 
BRANCH   6   7
ATOM      7  C   UNL     1      23.986  18.906  24.134  1.00  0.00     0.041 C 
ATOM      8  O   UNL     1      24.886  18.952  23.254  1.00  0.00    -0.550 OA
ATOM      9  O   UNL     1      22.650  18.916  23.752  1.00  0.00    -0.550 OA
ENDBRANCH   6   7
ENDBRANCH   5   6
ENDBRANCH   4   5
ENDBRANCH   3   4
ENDBRANCH   2   3
ENDBRANCH   1   2
BRANCH   1  10
ATOM     10  C   UNL     1      25.736  22.091  26.592  1.00  0.00     0.000 C 
BRANCH  10  11
ATOM     11  C   UNL     1      26.400  21.484  25.341  1.00  0.00    -0.000 C 
BRANCH  11  12
ATOM     12  C   UNL     1      27.725  20.769  25.656  1.00  0.00    -0.000 C 
BRANCH  12  13
ATOM     13  C   UNL     1      27.779  19.342  25.087  1.00  0.00    -0.000 C 
BRANCH  13  14
ATOM     14  C   UNL     1      28.568  19.261  23.768  1.00  0.00    -0.000 C 
BRANCH  14  15
ATOM     15  C   UNL     1      29.702  20.296  23.695  1.00  0.00    -0.000 C 
BRANCH  15  16
ATOM     16  C   UNL     1      30.516  20.191  22.397  1.00  0.00    -0.003 C 
ATOM     17  C   UNL     1      30.055  19.005  21.554  1.00  0.00     0.004 C 
ENDBRANCH  15  16
ENDBRANCH  14  15
ENDBRANCH  13  14
ENDBRANCH  12  13
ENDBRANCH  11  12
ENDBRANCH  10  11
ENDBRANCH   1  10
TORSDOF 13
ENDMDL
MODEL 9
REMARK VINA RESULT:    -2.076      1.151      2.438
REMARK INTER + INTRA:          -4.695
REMARK INTER:                  -4.206
REMARK INTRA:                  -0.488
REMARK UNBOUND:                -1.041
REMARK SMILES CCCCCCCCCCCCCCC(=O)[O-]
REMARK SMILES IDX 9 1 10 2 11 3 12 4 13 5 14 6 15 7 16 8 17 9 8 10 7 11 6 12
REMARK SMILES IDX 5 13 4 14 3 15 2 16 1 17
REMARK H PARENT
REMARK Flexibility Score: inf
ROOT
ATOM      1  C   UNL     1      25.967  20.661  26.122  1.00  0.00     0.000 C 
ENDROOT
BRANCH   1   2
ATOM      2  C   UNL     1      25.209  19.322  26.190  1.00  0.00     0.000 C 
BRANCH   2   3
ATOM      3  C   UNL     1      23.732  19.423  25.751  1.00  0.00     0.000 C 
BRANCH   3   4
ATOM      4  C   UNL     1      22.846  20.077  26.825  1.00  0.00     0.000 C 
BRANCH   4   5
ATOM      5  C   UNL     1      22.649  21.587  26.597  1.00  0.00     0.006 C 
BRANCH   5   6
ATOM      6  C   UNL     1      23.560  22.481  27.453  1.00  0.00     0.053 C 
BRANCH   6   7
ATOM      7  C   UNL     1      23.878  23.776  26.772  1.00  0.00     0.041 C 
ATOM      8  O   UNL     1      24.325  23.780  25.595  1.00  0.00    -0.550 OA
ATOM      9  O   UNL     1      23.712  24.978  27.449  1.00  0.00    -0.550 OA
ENDBRANCH   6   7
ENDBRANCH   5   6
ENDBRANCH   4   5
ENDBRANCH   3   4
ENDBRANCH   2   3
ENDBRANCH   1   2
BRANCH   1  10
ATOM     10  C   UNL     1      27.502  20.541  26.135  1.00  0.00     0.000 C 
BRANCH  10  11
ATOM     11  C   UNL     1      28.229  21.432  25.110  1.00  0.00    -0.000 C 
BRANCH  11  12
ATOM     12  C   UNL     1      29.664  20.959  24.818  1.00  0.00    -0.000 C 
BRANCH  12  13
ATOM     13  C   UNL     1      29.862  20.532  23.355  1.00  0.00    -0.000 C 
BRANCH  13  14
ATOM     14  C   UNL     1      29.401  19.087  23.094  1.00  0.00    -0.000 C 
BRANCH  14  15
ATOM     15  C   UNL     1      27.914  18.875  23.415  1.00  0.00    -0.000 C 
BRANCH  15  16
ATOM     16  C   UNL     1      27.018  18.985  22.173  1.00  0.00    -0.003 C 
ATOM     17  C   UNL     1      25.544  19.058  22.564  1.00  0.00     0.004 C 
ENDBRANCH  15  16
ENDBRANCH  14  15
ENDBRANCH  13  14
ENDBRANCH  12  13
ENDBRANCH  11  12
ENDBRANCH  10  11
ENDBRANCH   1  10
TORSDOF 13
ENDMDL
