MODEL 1
REMARK VINA RESULT:    -5.401      0.000      0.000
REMARK INTER + INTRA:          -5.559
REMARK INTER:                  -5.559
REMARK INTRA:                   0.000
REMARK UNBOUND:                 0.000
REMARK SMILES Nc1ncnc2nc[nH]c12
REMARK SMILES IDX 8 1 7 2 6 3 5 4 4 5 3 6 2 7 10 8 9 9 1 11
REMARK H PARENT 9 10 1 12 1 13
REMARK Flexibility Score: inf
ROOT
ATOM      1  C   UNL     1      95.105 105.255  98.783  1.00  0.00     0.199 A 
ATOM      2  N   UNL     1      93.781 105.148  98.485  1.00  0.00    -0.217 NA
ATOM      3  C   UNL     1      93.488 103.912  98.924  1.00  0.00     0.182 A 
ATOM      4  N   UNL     1      92.283 103.299  98.867  1.00  0.00    -0.215 NA
ATOM      5  C   UNL     1      92.179 102.030  99.367  1.00  0.00     0.226 A 
ATOM      6  N   UNL     1      93.272 101.406  99.912  1.00  0.00    -0.217 NA
ATOM      7  C   UNL     1      94.490 102.024  99.971  1.00  0.00     0.152 A 
ATOM      8  C   UNL     1      94.579 103.314  99.455  1.00  0.00     0.127 A 
ATOM      9  N   UNL     1      95.621 104.150  99.378  1.00  0.00    -0.340 N 
ATOM     10  H   UNL     1      96.604 104.000  99.696  1.00  0.00     0.168 HD
ENDROOT
BRANCH   7  11
ATOM     11  N   UNL     1      95.614 101.353 100.541  1.00  0.00    -0.382 N 
ATOM     12  H   UNL     1      95.524 100.783 101.410  1.00  0.00     0.158 HD
ATOM     13  H   UNL     1      96.552 101.427 100.088  1.00  0.00     0.158 HD
ENDBRANCH   7  11
TORSDOF 1
ENDMDL
MODEL 2
REMARK VINA RESULT:    -5.219      2.365      2.839
REMARK INTER + INTRA:          -5.372
REMARK INTER:                  -5.372
REMARK INTRA:                   0.000
REMARK UNBOUND:                 0.000
REMARK SMILES Nc1ncnc2nc[nH]c12
REMARK SMILES IDX 8 1 7 2 6 3 5 4 4 5 3 6 2 7 10 8 9 9 1 11
REMARK H PARENT 9 10 1 12 1 13
REMARK Flexibility Score: inf
ROOT
ATOM      1  C   UNL     1      95.038 105.393  98.656  1.00  0.00     0.199 A 
ATOM      2  N   UNL     1      95.057 104.585  97.561  1.00  0.00    -0.217 NA
ATOM      3  C   UNL     1      93.828 104.041  97.588  1.00  0.00     0.182 A 
ATOM      4  N   UNL     1      93.320 103.149  96.705  1.00  0.00    -0.215 NA
ATOM      5  C   UNL     1      92.042 102.705  96.899  1.00  0.00     0.226 A 
ATOM      6  N   UNL     1      91.301 103.158  97.961  1.00  0.00    -0.217 NA
ATOM      7  C   UNL     1      91.812 104.059  98.853  1.00  0.00     0.152 A 
ATOM      8  C   UNL     1      93.116 104.499  98.642  1.00  0.00     0.127 A 
ATOM      9  N   UNL     1      93.865 105.363  99.338  1.00  0.00    -0.340 N 
ATOM     10  H   UNL     1      93.618 105.894 100.202  1.00  0.00     0.168 HD
ENDROOT
BRANCH   7  11
ATOM     11  N   UNL     1      91.023 104.515  99.952  1.00  0.00    -0.382 N 
ATOM     12  H   UNL     1      91.364 104.440 100.935  1.00  0.00     0.158 HD
ATOM     13  H   UNL     1      90.083 104.936  99.780  1.00  0.00     0.158 HD
ENDBRANCH   7  11
TORSDOF 1
ENDMDL
MODEL 3
REMARK VINA RESULT:    -5.173      1.039      2.569
REMARK INTER + INTRA:          -5.324
REMARK INTER:                  -5.324
REMARK INTRA:                   0.000
REMARK UNBOUND:                 0.000
REMARK SMILES Nc1ncnc2nc[nH]c12
REMARK SMILES IDX 8 1 7 2 6 3 5 4 4 5 3 6 2 7 10 8 9 9 1 11
REMARK H PARENT 9 10 1 12 1 13
REMARK Flexibility Score: inf
ROOT
ATOM      1  C   UNL     1      95.009 105.262  98.622  1.00  0.00     0.199 A 
ATOM      2  N   UNL     1      95.565 104.126  99.125  1.00  0.00    -0.217 NA
ATOM      3  C   UNL     1      94.482 103.390  99.430  1.00  0.00     0.182 A 
ATOM      4  N   UNL     1      94.474 102.149  99.971  1.00  0.00    -0.215 NA
ATOM      5  C   UNL     1      93.265 101.558 100.212  1.00  0.00     0.226 A 
ATOM      6  N   UNL     1      92.098 102.211  99.909  1.00  0.00    -0.217 NA
ATOM      7  C   UNL     1      92.104 103.464  99.363  1.00  0.00     0.152 A 
ATOM      8  C   UNL     1      93.342 104.053  99.125  1.00  0.00     0.127 A 
ATOM      9  N   UNL     1      93.653 105.248  98.608  1.00  0.00    -0.340 N 
ATOM     10  H   UNL     1      93.013 106.000  98.271  1.00  0.00     0.168 HD
ENDROOT
BRANCH   7  11
ATOM     11  N   UNL     1      90.875 104.125  99.057  1.00  0.00    -0.382 N 
ATOM     12  H   UNL     1      90.275 104.531  99.808  1.00  0.00     0.158 HD
ATOM     13  H   UNL     1      90.561 104.211  98.065  1.00  0.00     0.158 HD
ENDBRANCH   7  11
TORSDOF 1
ENDMDL
MODEL 4
REMARK VINA RESULT:    -5.063      0.922      2.938
REMARK INTER + INTRA:          -5.211
REMARK INTER:                  -5.211
REMARK INTRA:                   0.000
REMARK UNBOUND:                 0.000
REMARK SMILES Nc1ncnc2nc[nH]c12
REMARK SMILES IDX 8 1 7 2 6 3 5 4 4 5 3 6 2 7 10 8 9 9 1 11
REMARK H PARENT 9 10 1 12 1 13
REMARK Flexibility Score: inf
ROOT
ATOM      1  C   UNL     1      91.249 101.614  99.473  1.00  0.00     0.199 A 
ATOM      2  N   UNL     1      91.243 102.847  98.895  1.00  0.00    -0.217 NA
ATOM      3  C   UNL     1      92.533 103.212  98.990  1.00  0.00     0.182 A 
ATOM      4  N   UNL     1      93.078 104.374  98.560  1.00  0.00    -0.215 NA
ATOM      5  C   UNL     1      94.419 104.567  98.746  1.00  0.00     0.226 A 
ATOM      6  N   UNL     1      95.183 103.602  99.352  1.00  0.00    -0.217 NA
ATOM      7  C   UNL     1      94.635 102.428  99.787  1.00  0.00     0.152 A 
ATOM      8  C   UNL     1      93.268 102.248  99.591  1.00  0.00     0.127 A 
ATOM      9  N   UNL     1      92.472 101.220  99.907  1.00  0.00    -0.340 N 
ATOM     10  H   UNL     1      92.720 100.322 100.377  1.00  0.00     0.168 HD
ENDROOT
BRANCH   7  11
ATOM     11  N   UNL     1      95.450 101.439 100.417  1.00  0.00    -0.382 N 
ATOM     12  H   UNL     1      96.488 101.534 100.456  1.00  0.00     0.158 HD
ATOM     13  H   UNL     1      95.009 100.598 100.851  1.00  0.00     0.158 HD
ENDBRANCH   7  11
TORSDOF 1
ENDMDL
MODEL 5
REMARK VINA RESULT:    -4.987      1.177      2.976
REMARK INTER + INTRA:          -5.132
REMARK INTER:                  -5.132
REMARK INTRA:                   0.000
REMARK UNBOUND:                 0.000
REMARK SMILES Nc1ncnc2nc[nH]c12
REMARK SMILES IDX 8 1 7 2 6 3 5 4 4 5 3 6 2 7 10 8 9 9 1 11
REMARK H PARENT 9 10 1 12 1 13
REMARK Flexibility Score: inf
ROOT
ATOM      1  C   UNL     1      91.003 103.759  98.374  1.00  0.00     0.199 A 
ATOM      2  N   UNL     1      91.146 102.490  98.846  1.00  0.00    -0.217 NA
ATOM      3  C   UNL     1      92.433 102.473  99.232  1.00  0.00     0.182 A 
ATOM      4  N   UNL     1      93.098 101.429  99.781  1.00  0.00    -0.215 NA
ATOM      5  C   UNL     1      94.414 101.603 100.109  1.00  0.00     0.226 A 
ATOM      6  N   UNL     1      95.034 102.807  99.887  1.00  0.00    -0.217 NA
ATOM      7  C   UNL     1      94.364 103.861  99.332  1.00  0.00     0.152 A 
ATOM      8  C   UNL     1      93.026 103.667  99.002  1.00  0.00     0.127 A 
ATOM      9  N   UNL     1      92.134 104.504  98.457  1.00  0.00    -0.340 N 
ATOM     10  H   UNL     1      92.265 105.496  98.161  1.00  0.00     0.168 HD
ENDROOT
BRANCH   7  11
ATOM     11  N   UNL     1      95.031 105.104  99.109  1.00  0.00    -0.382 N 
ATOM     12  H   UNL     1      96.064 105.196  99.223  1.00  0.00     0.158 HD
ATOM     13  H   UNL     1      94.483 105.947  98.825  1.00  0.00     0.158 HD
ENDBRANCH   7  11
TORSDOF 1
ENDMDL
MODEL 6
REMARK VINA RESULT:    -4.934      0.910      3.706
REMARK INTER + INTRA:          -5.079
REMARK INTER:                  -5.079
REMARK INTRA:                   0.000
REMARK UNBOUND:                 0.000
REMARK SMILES Nc1ncnc2nc[nH]c12
REMARK SMILES IDX 8 1 7 2 6 3 5 4 4 5 3 6 2 7 10 8 9 9 1 11
REMARK H PARENT 9 10 1 12 1 13
REMARK Flexibility Score: inf
ROOT
ATOM      1  C   UNL     1      93.957 101.311 100.274  1.00  0.00     0.199 A 
ATOM      2  N   UNL     1      95.152 101.907 100.006  1.00  0.00    -0.217 NA
ATOM      3  C   UNL     1      94.771 103.082  99.477  1.00  0.00     0.182 A 
ATOM      4  N   UNL     1      95.584 104.069  99.032  1.00  0.00    -0.215 NA
ATOM      5  C   UNL     1      95.008 105.199  98.522  1.00  0.00     0.226 A 
ATOM      6  N   UNL     1      93.643 105.321  98.468  1.00  0.00    -0.217 NA
ATOM      7  C   UNL     1      92.821 104.326  98.916  1.00  0.00     0.152 A 
ATOM      8  C   UNL     1      93.423 103.182  99.431  1.00  0.00     0.127 A 
ATOM      9  N   UNL     1      92.882 102.065  99.934  1.00  0.00    -0.340 N 
ATOM     10  H   UNL     1      91.873 101.820 100.045  1.00  0.00     0.168 HD
ENDROOT
BRANCH   7  11
ATOM     11  N   UNL     1      91.402 104.475  98.848  1.00  0.00    -0.382 N 
ATOM     12  H   UNL     1      90.907 105.218  99.388  1.00  0.00     0.158 HD
ATOM     13  H   UNL     1      90.837 103.833  98.249  1.00  0.00     0.158 HD
ENDBRANCH   7  11
TORSDOF 1
ENDMDL
MODEL 7
REMARK VINA RESULT:    -4.889      2.010      3.282
REMARK INTER + INTRA:          -5.032
REMARK INTER:                  -5.032
REMARK INTRA:                   0.000
REMARK UNBOUND:                 0.000
REMARK SMILES Nc1ncnc2nc[nH]c12
REMARK SMILES IDX 8 1 7 2 6 3 5 4 4 5 3 6 2 7 10 8 9 9 1 11
REMARK H PARENT 9 10 1 12 1 13
REMARK Flexibility Score: inf
ROOT
ATOM      1  C   UNL     1      94.484 102.001 100.230  1.00  0.00     0.199 A 
ATOM      2  N   UNL     1      94.317 101.504  98.973  1.00  0.00    -0.217 NA
ATOM      3  C   UNL     1      93.259 102.203  98.529  1.00  0.00     0.182 A 
ATOM      4  N   UNL     1      92.672 102.095  97.313  1.00  0.00    -0.215 NA
ATOM      5  C   UNL     1      91.598 102.896  97.042  1.00  0.00     0.226 A 
ATOM      6  N   UNL     1      91.136 103.783  97.981  1.00  0.00    -0.217 NA
ATOM      7  C   UNL     1      91.726 103.893  99.208  1.00  0.00     0.152 A 
ATOM      8  C   UNL     1      92.818 103.070  99.469  1.00  0.00     0.127 A 
ATOM      9  N   UNL     1      93.583 102.960 100.562  1.00  0.00    -0.340 N 
ATOM     10  H   UNL     1      93.514 103.482 101.464  1.00  0.00     0.168 HD
ENDROOT
BRANCH   7  11
ATOM     11  N   UNL     1      91.227 104.823 100.170  1.00  0.00    -0.382 N 
ATOM     12  H   UNL     1      90.292 105.273 100.057  1.00  0.00     0.158 HD
ATOM     13  H   UNL     1      91.799 105.064 101.009  1.00  0.00     0.158 HD
ENDBRANCH   7  11
TORSDOF 1
ENDMDL
MODEL 8
REMARK VINA RESULT:    -4.780      1.513      3.052
REMARK INTER + INTRA:          -4.919
REMARK INTER:                  -4.919
REMARK INTRA:                   0.000
REMARK UNBOUND:                 0.000
REMARK SMILES Nc1ncnc2nc[nH]c12
REMARK SMILES IDX 8 1 7 2 6 3 5 4 4 5 3 6 2 7 10 8 9 9 1 11
REMARK H PARENT 9 10 1 12 1 13
REMARK Flexibility Score: inf
ROOT
ATOM      1  C   UNL     1      94.615 102.253 100.900  1.00  0.00     0.199 A 
ATOM      2  N   UNL     1      93.809 101.445 100.158  1.00  0.00    -0.217 NA
ATOM      3  C   UNL     1      93.682 102.140  99.016  1.00  0.00     0.182 A 
ATOM      4  N   UNL     1      92.969 101.777  97.923  1.00  0.00    -0.215 NA
ATOM      5  C   UNL     1      92.958 102.622  96.849  1.00  0.00     0.226 A 
ATOM      6  N   UNL     1      93.655 103.803  96.885  1.00  0.00    -0.217 NA
ATOM      7  C   UNL     1      94.375 104.172  97.987  1.00  0.00     0.152 A 
ATOM      8  C   UNL     1      94.375 103.301  99.072  1.00  0.00     0.127 A 
ATOM      9  N   UNL     1      94.979 103.395 100.264  1.00  0.00    -0.340 N 
ATOM     10  H   UNL     1      95.587 104.160 100.629  1.00  0.00     0.168 HD
ENDROOT
BRANCH   7  11
ATOM     11  N   UNL     1      95.092 105.407  98.002  1.00  0.00    -0.382 N 
ATOM     12  H   UNL     1      94.596 106.324  97.976  1.00  0.00     0.158 HD
ATOM     13  H   UNL     1      96.136 105.405  98.040  1.00  0.00     0.158 HD
ENDBRANCH   7  11
TORSDOF 1
ENDMDL
MODEL 9
REMARK VINA RESULT:    -4.683      2.455      3.733
REMARK INTER + INTRA:          -4.820
REMARK INTER:                  -4.820
REMARK INTRA:                   0.000
REMARK UNBOUND:                 0.000
REMARK SMILES Nc1ncnc2nc[nH]c12
REMARK SMILES IDX 8 1 7 2 6 3 5 4 4 5 3 6 2 7 10 8 9 9 1 11
REMARK H PARENT 9 10 1 12 1 13
REMARK Flexibility Score: inf
ROOT
ATOM      1  C   UNL     1      91.109 103.499  99.192  1.00  0.00     0.199 A 
ATOM      2  N   UNL     1      91.563 102.858  98.080  1.00  0.00    -0.217 NA
ATOM      3  C   UNL     1      92.679 103.548  97.789  1.00  0.00     0.182 A 
ATOM      4  N   UNL     1      93.524 103.319  96.757  1.00  0.00    -0.215 NA
ATOM      5  C   UNL     1      94.615 104.133  96.623  1.00  0.00     0.226 A 
ATOM      6  N   UNL     1      94.838 105.150  97.516  1.00  0.00    -0.217 NA
ATOM      7  C   UNL     1      93.986 105.383  98.559  1.00  0.00     0.152 A 
ATOM      8  C   UNL     1      92.880 104.546  98.680  1.00  0.00     0.127 A 
ATOM      9  N   UNL     1      91.893 104.535  99.584  1.00  0.00    -0.340 N 
ATOM     10  H   UNL     1      91.748 105.167 100.402  1.00  0.00     0.168 HD
ENDROOT
BRANCH   7  11
ATOM     11  N   UNL     1      94.239 106.448  99.475  1.00  0.00    -0.382 N 
ATOM     12  H   UNL     1      93.912 106.403 100.465  1.00  0.00     0.158 HD
ATOM     13  H   UNL     1      94.761 107.295  99.160  1.00  0.00     0.158 HD
ENDBRANCH   7  11
TORSDOF 1
ENDMDL
