MODEL 1
REMARK VINA RESULT:    -3.988      0.000      0.000
REMARK INTER + INTRA:          -9.189
REMARK INTER:                  -7.019
REMARK INTRA:                  -2.171
REMARK UNBOUND:                -2.171
REMARK SMILES CCCCCCC=CCCCCCCCC(=O)[O-]
REMARK SMILES IDX 10 1 11 2 12 3 13 4 14 5 15 6 16 7 17 8 18 9 9 10 8 11 7 12
REMARK SMILES IDX 6 13 5 14 4 15 3 16 2 17 1 18
REMARK H PARENT
REMARK Flexibility Score: inf
ROOT
ATOM      1  C   UNL     1     123.186 123.339 123.658  1.00  0.00     0.004 C 
ENDROOT
BRANCH   1   2
ATOM      2  C   UNL     1     123.370 123.691 125.145  1.00  0.00     0.000 C 
BRANCH   2   3
ATOM      3  C   UNL     1     123.262 125.209 125.403  1.00  0.00     0.000 C 
BRANCH   3   4
ATOM      4  C   UNL     1     122.602 125.988 124.249  1.00  0.00     0.000 C 
BRANCH   4   5
ATOM      5  C   UNL     1     121.505 126.976 124.683  1.00  0.00     0.006 C 
BRANCH   5   6
ATOM      6  C   UNL     1     120.096 126.377 124.589  1.00  0.00     0.053 C 
BRANCH   6   7
ATOM      7  C   UNL     1     119.740 126.106 123.162  1.00  0.00     0.041 C 
ATOM      8  O   UNL     1     119.663 127.054 122.338  1.00  0.00    -0.550 OA
ATOM      9  O   UNL     1     119.542 124.800 122.730  1.00  0.00    -0.550 OA
ENDBRANCH   6   7
ENDBRANCH   5   6
ENDBRANCH   4   5
ENDBRANCH   3   4
ENDBRANCH   2   3
ENDBRANCH   1   2
BRANCH   1  10
ATOM     10  C   UNL     1     124.504 122.905 123.003  1.00  0.00     0.027 C 
BRANCH  10  11
ATOM     11  C   UNL     1     124.810 123.703 121.763  1.00  0.00    -0.031 C 
ATOM     12  C   UNL     1     125.196 124.983 121.851  1.00  0.00    -0.031 C 
BRANCH  12  13
ATOM     13  C   UNL     1     125.509 125.801 120.626  1.00  0.00     0.027 C 
BRANCH  13  14
ATOM     14  C   UNL     1     124.722 127.122 120.586  1.00  0.00     0.004 C 
BRANCH  14  15
ATOM     15  C   UNL     1     123.228 126.958 120.945  1.00  0.00     0.000 C 
BRANCH  15  16
ATOM     16  C   UNL     1     122.361 126.451 119.777  1.00  0.00    -0.000 C 
BRANCH  16  17
ATOM     17  C   UNL     1     121.769 125.046 119.982  1.00  0.00    -0.003 C 
ATOM     18  C   UNL     1     122.207 124.054 118.904  1.00  0.00     0.004 C 
ENDBRANCH  16  17
ENDBRANCH  15  16
ENDBRANCH  14  15
ENDBRANCH  13  14
ENDBRANCH  12  13
ENDBRANCH  10  11
ENDBRANCH   1  10
TORSDOF 13
ENDMDL
MODEL 2
REMARK VINA RESULT:    -3.979      1.228      1.647
REMARK INTER + INTRA:          -9.175
REMARK INTER:                  -6.662
REMARK INTRA:                  -2.512
REMARK UNBOUND:                -2.171
REMARK SMILES CCCCCCC=CCCCCCCCC(=O)[O-]
REMARK SMILES IDX 10 1 11 2 12 3 13 4 14 5 15 6 16 7 17 8 18 9 9 10 8 11 7 12
REMARK SMILES IDX 6 13 5 14 4 15 3 16 2 17 1 18
REMARK H PARENT
REMARK Flexibility Score: inf
ROOT
ATOM      1  C   UNL     1     123.825 124.437 124.949  1.00  0.00     0.004 C 
ENDROOT
BRANCH   1   2
ATOM      2  C   UNL     1     122.383 124.972 125.002  1.00  0.00     0.000 C 
BRANCH   2   3
ATOM      3  C   UNL     1     122.305 126.475 124.659  1.00  0.00     0.000 C 
BRANCH   3   4
ATOM      4  C   UNL     1     121.646 126.764 123.296  1.00  0.00     0.000 C 
BRANCH   4   5
ATOM      5  C   UNL     1     120.803 125.608 122.729  1.00  0.00     0.006 C 
BRANCH   5   6
ATOM      6  C   UNL     1     119.575 126.097 121.950  1.00  0.00     0.053 C 
BRANCH   6   7
ATOM      7  C   UNL     1     118.353 125.353 122.384  1.00  0.00     0.041 C 
ATOM      8  O   UNL     1     117.940 125.451 123.570  1.00  0.00    -0.550 OA
ATOM      9  O   UNL     1     117.640 124.590 121.467  1.00  0.00    -0.550 OA
ENDBRANCH   6   7
ENDBRANCH   5   6
ENDBRANCH   4   5
ENDBRANCH   3   4
ENDBRANCH   2   3
ENDBRANCH   1   2
BRANCH   1  10
ATOM     10  C   UNL     1     123.990 123.334 123.895  1.00  0.00     0.027 C 
BRANCH  10  11
ATOM     11  C   UNL     1     124.095 123.894 122.501  1.00  0.00    -0.031 C 
ATOM     12  C   UNL     1     124.811 125.000 122.259  1.00  0.00    -0.031 C 
BRANCH  12  13
ATOM     13  C   UNL     1     124.932 125.576 120.873  1.00  0.00     0.027 C 
BRANCH  13  14
ATOM     14  C   UNL     1     124.202 126.924 120.734  1.00  0.00     0.004 C 
BRANCH  14  15
ATOM     15  C   UNL     1     122.919 126.842 119.875  1.00  0.00     0.000 C 
BRANCH  15  16
ATOM     16  C   UNL     1     122.815 125.553 119.038  1.00  0.00    -0.000 C 
BRANCH  16  17
ATOM     17  C   UNL     1     121.486 124.794 119.192  1.00  0.00    -0.003 C 
ATOM     18  C   UNL     1     121.662 123.406 119.808  1.00  0.00     0.004 C 
ENDBRANCH  16  17
ENDBRANCH  15  16
ENDBRANCH  14  15
ENDBRANCH  13  14
ENDBRANCH  12  13
ENDBRANCH  10  11
ENDBRANCH   1  10
TORSDOF 13
ENDMDL
MODEL 3
REMARK VINA RESULT:    -3.964     13.526     16.872
REMARK INTER + INTRA:          -9.147
REMARK INTER:                  -7.964
REMARK INTRA:                  -1.183
REMARK UNBOUND:                -2.171
REMARK SMILES CCCCCCC=CCCCCCCCC(=O)[O-]
REMARK SMILES IDX 10 1 11 2 12 3 13 4 14 5 15 6 16 7 17 8 18 9 9 10 8 11 7 12
REMARK SMILES IDX 6 13 5 14 4 15 3 16 2 17 1 18
REMARK H PARENT
REMARK Flexibility Score: inf
ROOT
ATOM      1  C   UNL     1     119.308 112.911 109.046  1.00  0.00     0.004 C 
ENDROOT
BRANCH   1   2
ATOM      2  C   UNL     1     118.749 114.345 109.055  1.00  0.00     0.000 C 
BRANCH   2   3
ATOM      3  C   UNL     1     118.951 115.060 107.702  1.00  0.00     0.000 C 
BRANCH   3   4
ATOM      4  C   UNL     1     117.632 115.454 107.008  1.00  0.00     0.000 C 
BRANCH   4   5
ATOM      5  C   UNL     1     116.498 115.862 107.965  1.00  0.00     0.006 C 
BRANCH   5   6
ATOM      6  C   UNL     1     116.602 117.324 108.418  1.00  0.00     0.053 C 
BRANCH   6   7
ATOM      7  C   UNL     1     115.249 117.860 108.763  1.00  0.00     0.041 C 
ATOM      8  O   UNL     1     115.125 118.736 109.658  1.00  0.00    -0.550 OA
ATOM      9  O   UNL     1     114.130 117.428 108.062  1.00  0.00    -0.550 OA
ENDBRANCH   6   7
ENDBRANCH   5   6
ENDBRANCH   4   5
ENDBRANCH   3   4
ENDBRANCH   2   3
ENDBRANCH   1   2
BRANCH   1  10
ATOM     10  C   UNL     1     118.883 112.121 110.291  1.00  0.00     0.027 C 
BRANCH  10  11
ATOM     11  C   UNL     1     118.489 113.024 111.429  1.00  0.00    -0.031 C 
ATOM     12  C   UNL     1     118.896 112.768 112.679  1.00  0.00    -0.031 C 
BRANCH  12  13
ATOM     13  C   UNL     1     118.516 113.659 113.832  1.00  0.00     0.027 C 
BRANCH  13  14
ATOM     14  C   UNL     1     117.041 114.094 113.776  1.00  0.00     0.004 C 
BRANCH  14  15
ATOM     15  C   UNL     1     116.854 115.627 113.713  1.00  0.00     0.000 C 
BRANCH  15  16
ATOM     16  C   UNL     1     118.081 116.379 113.163  1.00  0.00    -0.000 C 
BRANCH  16  17
ATOM     17  C   UNL     1     118.805 117.265 114.191  1.00  0.00    -0.003 C 
ATOM     18  C   UNL     1     120.327 117.177 114.084  1.00  0.00     0.004 C 
ENDBRANCH  16  17
ENDBRANCH  15  16
ENDBRANCH  14  15
ENDBRANCH  13  14
ENDBRANCH  12  13
ENDBRANCH  10  11
ENDBRANCH   1  10
TORSDOF 13
ENDMDL
MODEL 4
REMARK VINA RESULT:    -3.955      1.906      3.117
REMARK INTER + INTRA:          -9.131
REMARK INTER:                  -7.467
REMARK INTRA:                  -1.663
REMARK UNBOUND:                -2.171
REMARK SMILES CCCCCCC=CCCCCCCCC(=O)[O-]
REMARK SMILES IDX 10 1 11 2 12 3 13 4 14 5 15 6 16 7 17 8 18 9 9 10 8 11 7 12
REMARK SMILES IDX 6 13 5 14 4 15 3 16 2 17 1 18
REMARK H PARENT
REMARK Flexibility Score: inf
ROOT
ATOM      1  C   UNL     1     122.466 126.661 124.889  1.00  0.00     0.004 C 
ENDROOT
BRANCH   1   2
ATOM      2  C   UNL     1     121.023 127.006 124.484  1.00  0.00     0.000 C 
BRANCH   2   3
ATOM      3  C   UNL     1     120.857 127.124 122.954  1.00  0.00     0.000 C 
BRANCH   3   4
ATOM      4  C   UNL     1     119.428 126.824 122.461  1.00  0.00     0.000 C 
BRANCH   4   5
ATOM      5  C   UNL     1     118.682 125.744 123.264  1.00  0.00     0.006 C 
BRANCH   5   6
ATOM      6  C   UNL     1     117.678 124.959 122.411  1.00  0.00     0.053 C 
BRANCH   6   7
ATOM      7  C   UNL     1     116.364 124.857 123.115  1.00  0.00     0.041 C 
ATOM      8  O   UNL     1     115.893 123.729 123.416  1.00  0.00    -0.550 OA
ATOM      9  O   UNL     1     115.681 126.009 123.485  1.00  0.00    -0.550 OA
ENDBRANCH   6   7
ENDBRANCH   5   6
ENDBRANCH   4   5
ENDBRANCH   3   4
ENDBRANCH   2   3
ENDBRANCH   1   2
BRANCH   1  10
ATOM     10  C   UNL     1     122.677 125.147 125.033  1.00  0.00     0.027 C 
BRANCH  10  11
ATOM     11  C   UNL     1     123.573 124.595 123.957  1.00  0.00    -0.031 C 
ATOM     12  C   UNL     1     124.097 125.399 123.022  1.00  0.00    -0.031 C 
BRANCH  12  13
ATOM     13  C   UNL     1     124.998 124.870 121.938  1.00  0.00     0.027 C 
BRANCH  13  14
ATOM     14  C   UNL     1     125.234 125.899 120.818  1.00  0.00     0.004 C 
BRANCH  14  15
ATOM     15  C   UNL     1     124.213 127.059 120.823  1.00  0.00     0.000 C 
BRANCH  15  16
ATOM     16  C   UNL     1     123.340 127.123 119.556  1.00  0.00    -0.000 C 
BRANCH  16  17
ATOM     17  C   UNL     1     122.793 125.764 119.084  1.00  0.00    -0.003 C 
ATOM     18  C   UNL     1     121.409 125.451 119.654  1.00  0.00     0.004 C 
ENDBRANCH  16  17
ENDBRANCH  15  16
ENDBRANCH  14  15
ENDBRANCH  13  14
ENDBRANCH  12  13
ENDBRANCH  10  11
ENDBRANCH   1  10
TORSDOF 13
ENDMDL
MODEL 5
REMARK VINA RESULT:    -3.940      1.164      2.423
REMARK INTER + INTRA:          -9.105
REMARK INTER:                  -6.592
REMARK INTRA:                  -2.513
REMARK UNBOUND:                -2.171
REMARK SMILES CCCCCCC=CCCCCCCCC(=O)[O-]
REMARK SMILES IDX 10 1 11 2 12 3 13 4 14 5 15 6 16 7 17 8 18 9 9 10 8 11 7 12
REMARK SMILES IDX 6 13 5 14 4 15 3 16 2 17 1 18
REMARK H PARENT
REMARK Flexibility Score: inf
ROOT
ATOM      1  C   UNL     1     123.702 123.263 123.782  1.00  0.00     0.004 C 
ENDROOT
BRANCH   1   2
ATOM      2  C   UNL     1     124.039 124.680 124.279  1.00  0.00     0.000 C 
BRANCH   2   3
ATOM      3  C   UNL     1     122.953 125.243 125.219  1.00  0.00     0.000 C 
BRANCH   3   4
ATOM      4  C   UNL     1     122.497 126.669 124.853  1.00  0.00     0.000 C 
BRANCH   4   5
ATOM      5  C   UNL     1     121.261 126.736 123.938  1.00  0.00     0.006 C 
BRANCH   5   6
ATOM      6  C   UNL     1     120.051 125.996 124.522  1.00  0.00     0.053 C 
BRANCH   6   7
ATOM      7  C   UNL     1     119.003 125.802 123.473  1.00  0.00     0.041 C 
ATOM      8  O   UNL     1     118.900 126.622 122.523  1.00  0.00    -0.550 OA
ATOM      9  O   UNL     1     118.173 124.688 123.515  1.00  0.00    -0.550 OA
ENDBRANCH   6   7
ENDBRANCH   5   6
ENDBRANCH   4   5
ENDBRANCH   3   4
ENDBRANCH   2   3
ENDBRANCH   1   2
BRANCH   1  10
ATOM     10  C   UNL     1     122.207 122.944 123.924  1.00  0.00     0.027 C 
BRANCH  10  11
ATOM     11  C   UNL     1     121.469 123.097 122.621  1.00  0.00    -0.031 C 
ATOM     12  C   UNL     1     122.134 123.323 121.479  1.00  0.00    -0.031 C 
BRANCH  12  13
ATOM     13  C   UNL     1     121.418 123.477 120.164  1.00  0.00     0.027 C 
BRANCH  13  14
ATOM     14  C   UNL     1     121.820 124.765 119.424  1.00  0.00     0.004 C 
BRANCH  14  15
ATOM     15  C   UNL     1     121.644 126.043 120.275  1.00  0.00     0.000 C 
BRANCH  15  16
ATOM     16  C   UNL     1     122.846 127.003 120.206  1.00  0.00    -0.000 C 
BRANCH  16  17
ATOM     17  C   UNL     1     123.890 126.805 121.319  1.00  0.00    -0.003 C 
ATOM     18  C   UNL     1     125.015 125.851 120.915  1.00  0.00     0.004 C 
ENDBRANCH  16  17
ENDBRANCH  15  16
ENDBRANCH  14  15
ENDBRANCH  13  14
ENDBRANCH  12  13
ENDBRANCH  10  11
ENDBRANCH   1  10
TORSDOF 13
ENDMDL
MODEL 6
REMARK VINA RESULT:    -3.933      1.835      3.293
REMARK INTER + INTRA:          -9.092
REMARK INTER:                  -6.531
REMARK INTRA:                  -2.561
REMARK UNBOUND:                -2.171
REMARK SMILES CCCCCCC=CCCCCCCCC(=O)[O-]
REMARK SMILES IDX 10 1 11 2 12 3 13 4 14 5 15 6 16 7 17 8 18 9 9 10 8 11 7 12
REMARK SMILES IDX 6 13 5 14 4 15 3 16 2 17 1 18
REMARK H PARENT
REMARK Flexibility Score: inf
ROOT
ATOM      1  C   UNL     1     123.405 121.590 125.770  1.00  0.00     0.004 C 
ENDROOT
BRANCH   1   2
ATOM      2  C   UNL     1     121.909 121.804 125.480  1.00  0.00     0.000 C 
BRANCH   2   3
ATOM      3  C   UNL     1     121.479 121.176 124.137  1.00  0.00     0.000 C 
BRANCH   3   4
ATOM      4  C   UNL     1     120.723 122.151 123.213  1.00  0.00     0.000 C 
BRANCH   4   5
ATOM      5  C   UNL     1     120.302 123.474 123.877  1.00  0.00     0.006 C 
BRANCH   5   6
ATOM      6  C   UNL     1     119.862 124.534 122.859  1.00  0.00     0.053 C 
BRANCH   6   7
ATOM      7  C   UNL     1     119.058 125.599 123.532  1.00  0.00     0.041 C 
ATOM      8  O   UNL     1     119.488 126.152 124.578  1.00  0.00    -0.550 OA
ATOM      9  O   UNL     1     117.855 126.019 122.976  1.00  0.00    -0.550 OA
ENDBRANCH   6   7
ENDBRANCH   5   6
ENDBRANCH   4   5
ENDBRANCH   3   4
ENDBRANCH   2   3
ENDBRANCH   1   2
BRANCH   1  10
ATOM     10  C   UNL     1     124.133 122.913 126.043  1.00  0.00     0.027 C 
BRANCH  10  11
ATOM     11  C   UNL     1     123.335 124.104 125.583  1.00  0.00    -0.031 C 
ATOM     12  C   UNL     1     123.806 124.917 124.628  1.00  0.00    -0.031 C 
BRANCH  12  13
ATOM     13  C   UNL     1     123.025 126.112 124.150  1.00  0.00     0.027 C 
BRANCH  13  14
ATOM     14  C   UNL     1     123.141 126.319 122.630  1.00  0.00     0.004 C 
BRANCH  14  15
ATOM     15  C   UNL     1     124.067 125.291 121.939  1.00  0.00     0.000 C 
BRANCH  15  16
ATOM     16  C   UNL     1     123.311 124.122 121.280  1.00  0.00    -0.000 C 
BRANCH  16  17
ATOM     17  C   UNL     1     123.870 122.728 121.614  1.00  0.00    -0.003 C 
ATOM     18  C   UNL     1     125.266 122.780 122.234  1.00  0.00     0.004 C 
ENDBRANCH  16  17
ENDBRANCH  15  16
ENDBRANCH  14  15
ENDBRANCH  13  14
ENDBRANCH  12  13
ENDBRANCH  10  11
ENDBRANCH   1  10
TORSDOF 13
ENDMDL
MODEL 7
REMARK VINA RESULT:    -3.915      2.084      2.952
REMARK INTER + INTRA:          -9.061
REMARK INTER:                  -6.699
REMARK INTRA:                  -2.362
REMARK UNBOUND:                -2.171
REMARK SMILES CCCCCCC=CCCCCCCCC(=O)[O-]
REMARK SMILES IDX 10 1 11 2 12 3 13 4 14 5 15 6 16 7 17 8 18 9 9 10 8 11 7 12
REMARK SMILES IDX 6 13 5 14 4 15 3 16 2 17 1 18
REMARK H PARENT
REMARK Flexibility Score: inf
ROOT
ATOM      1  C   UNL     1     123.585 122.013 125.335  1.00  0.00     0.004 C 
ENDROOT
BRANCH   1   2
ATOM      2  C   UNL     1     122.120 121.867 124.888  1.00  0.00     0.000 C 
BRANCH   2   3
ATOM      3  C   UNL     1     121.979 121.823 123.352  1.00  0.00     0.000 C 
BRANCH   3   4
ATOM      4  C   UNL     1     121.132 122.974 122.775  1.00  0.00     0.000 C 
BRANCH   4   5
ATOM      5  C   UNL     1     120.051 123.518 123.726  1.00  0.00     0.006 C 
BRANCH   5   6
ATOM      6  C   UNL     1     118.816 124.040 122.982  1.00  0.00     0.053 C 
BRANCH   6   7
ATOM      7  C   UNL     1     118.493 125.432 123.421  1.00  0.00     0.041 C 
ATOM      8  O   UNL     1     117.461 126.009 122.990  1.00  0.00    -0.550 OA
ATOM      9  O   UNL     1     119.306 126.076 124.347  1.00  0.00    -0.550 OA
ENDBRANCH   6   7
ENDBRANCH   5   6
ENDBRANCH   4   5
ENDBRANCH   3   4
ENDBRANCH   2   3
ENDBRANCH   1   2
BRANCH   1  10
ATOM     10  C   UNL     1     123.851 123.369 126.002  1.00  0.00     0.027 C 
BRANCH  10  11
ATOM     11  C   UNL     1     123.785 124.507 125.018  1.00  0.00    -0.031 C 
ATOM     12  C   UNL     1     122.857 125.465 125.140  1.00  0.00    -0.031 C 
BRANCH  12  13
ATOM     13  C   UNL     1     122.774 126.613 124.169  1.00  0.00     0.027 C 
BRANCH  13  14
ATOM     14  C   UNL     1     122.898 126.154 122.706  1.00  0.00     0.004 C 
BRANCH  14  15
ATOM     15  C   UNL     1     121.712 126.597 121.820  1.00  0.00     0.000 C 
BRANCH  15  16
ATOM     16  C   UNL     1     121.691 125.928 120.432  1.00  0.00    -0.000 C 
BRANCH  16  17
ATOM     17  C   UNL     1     120.287 125.577 119.910  1.00  0.00    -0.003 C 
ATOM     18  C   UNL     1     120.187 124.143 119.390  1.00  0.00     0.004 C 
ENDBRANCH  16  17
ENDBRANCH  15  16
ENDBRANCH  14  15
ENDBRANCH  13  14
ENDBRANCH  12  13
ENDBRANCH  10  11
ENDBRANCH   1  10
TORSDOF 13
ENDMDL
MODEL 8
REMARK VINA RESULT:    -3.773      1.751      4.322
REMARK INTER + INTRA:          -8.812
REMARK INTER:                  -6.669
REMARK INTRA:                  -2.143
REMARK UNBOUND:                -2.171
REMARK SMILES CCCCCCC=CCCCCCCCC(=O)[O-]
REMARK SMILES IDX 10 1 11 2 12 3 13 4 14 5 15 6 16 7 17 8 18 9 9 10 8 11 7 12
REMARK SMILES IDX 6 13 5 14 4 15 3 16 2 17 1 18
REMARK H PARENT
REMARK Flexibility Score: inf
ROOT
ATOM      1  C   UNL     1     124.287 125.386 120.927  1.00  0.00     0.004 C 
ENDROOT
BRANCH   1   2
ATOM      2  C   UNL     1     123.723 126.801 121.142  1.00  0.00     0.000 C 
BRANCH   2   3
ATOM      3  C   UNL     1     122.181 126.815 121.195  1.00  0.00     0.000 C 
BRANCH   3   4
ATOM      4  C   UNL     1     121.611 126.764 122.626  1.00  0.00     0.000 C 
BRANCH   4   5
ATOM      5  C   UNL     1     120.724 125.542 122.924  1.00  0.00     0.006 C 
BRANCH   5   6
ATOM      6  C   UNL     1     119.823 125.162 121.742  1.00  0.00     0.053 C 
BRANCH   6   7
ATOM      7  C   UNL     1     118.395 125.084 122.181  1.00  0.00     0.041 C 
ATOM      8  O   UNL     1     117.530 124.563 121.428  1.00  0.00    -0.550 OA
ATOM      9  O   UNL     1     118.027 125.540 123.440  1.00  0.00    -0.550 OA
ENDBRANCH   6   7
ENDBRANCH   5   6
ENDBRANCH   4   5
ENDBRANCH   3   4
ENDBRANCH   2   3
ENDBRANCH   1   2
BRANCH   1  10
ATOM     10  C   UNL     1     125.229 124.963 122.062  1.00  0.00     0.027 C 
BRANCH  10  11
ATOM     11  C   UNL     1     124.510 124.197 123.140  1.00  0.00    -0.031 C 
ATOM     12  C   UNL     1     124.154 124.794 124.285  1.00  0.00    -0.031 C 
BRANCH  12  13
ATOM     13  C   UNL     1     123.432 124.048 125.376  1.00  0.00     0.027 C 
BRANCH  13  14
ATOM     14  C   UNL     1     124.019 122.645 125.613  1.00  0.00     0.004 C 
BRANCH  14  15
ATOM     15  C   UNL     1     122.965 121.517 125.531  1.00  0.00     0.000 C 
BRANCH  15  16
ATOM     16  C   UNL     1     121.555 122.012 125.160  1.00  0.00    -0.000 C 
BRANCH  16  17
ATOM     17  C   UNL     1     121.002 121.445 123.841  1.00  0.00    -0.003 C 
ATOM     18  C   UNL     1     121.787 121.915 122.617  1.00  0.00     0.004 C 
ENDBRANCH  16  17
ENDBRANCH  15  16
ENDBRANCH  14  15
ENDBRANCH  13  14
ENDBRANCH  12  13
ENDBRANCH  10  11
ENDBRANCH   1  10
TORSDOF 13
ENDMDL
MODEL 9
REMARK VINA RESULT:    -3.770      2.228      4.335
REMARK INTER + INTRA:          -8.805
REMARK INTER:                  -6.734
REMARK INTRA:                  -2.071
REMARK UNBOUND:                -2.171
REMARK SMILES CCCCCCC=CCCCCCCCC(=O)[O-]
REMARK SMILES IDX 10 1 11 2 12 3 13 4 14 5 15 6 16 7 17 8 18 9 9 10 8 11 7 12
REMARK SMILES IDX 6 13 5 14 4 15 3 16 2 17 1 18
REMARK H PARENT
REMARK Flexibility Score: inf
ROOT
ATOM      1  C   UNL     1     124.105 122.836 124.617  1.00  0.00     0.004 C 
ENDROOT
BRANCH   1   2
ATOM      2  C   UNL     1     123.697 123.062 123.151  1.00  0.00     0.000 C 
BRANCH   2   3
ATOM      3  C   UNL     1     124.909 123.375 122.248  1.00  0.00     0.000 C 
BRANCH   3   4
ATOM      4  C   UNL     1     125.239 124.877 122.154  1.00  0.00     0.000 C 
BRANCH   4   5
ATOM      5  C   UNL     1     124.080 125.763 121.664  1.00  0.00     0.006 C 
BRANCH   5   6
ATOM      6  C   UNL     1     124.549 126.898 120.745  1.00  0.00     0.053 C 
BRANCH   6   7
ATOM      7  C   UNL     1     123.987 126.720 119.371  1.00  0.00     0.041 C 
ATOM      8  O   UNL     1     122.746 126.818 119.178  1.00  0.00    -0.550 OA
ATOM      9  O   UNL     1     124.836 126.497 118.294  1.00  0.00    -0.550 OA
ENDBRANCH   6   7
ENDBRANCH   5   6
ENDBRANCH   4   5
ENDBRANCH   3   4
ENDBRANCH   2   3
ENDBRANCH   1   2
BRANCH   1  10
ATOM     10  C   UNL     1     123.740 124.032 125.506  1.00  0.00     0.027 C 
BRANCH  10  11
ATOM     11  C   UNL     1     122.651 124.877 124.901  1.00  0.00    -0.031 C 
ATOM     12  C   UNL     1     122.663 126.210 125.035  1.00  0.00    -0.031 C 
BRANCH  12  13
ATOM     13  C   UNL     1     121.586 127.075 124.437  1.00  0.00     0.027 C 
BRANCH  13  14
ATOM     14  C   UNL     1     120.335 126.267 124.047  1.00  0.00     0.004 C 
BRANCH  14  15
ATOM     15  C   UNL     1     119.656 126.771 122.753  1.00  0.00     0.000 C 
BRANCH  15  16
ATOM     16  C   UNL     1     120.088 126.005 121.488  1.00  0.00    -0.000 C 
BRANCH  16  17
ATOM     17  C   UNL     1     120.633 124.591 121.749  1.00  0.00    -0.003 C 
ATOM     18  C   UNL     1     119.609 123.495 121.450  1.00  0.00     0.004 C 
ENDBRANCH  16  17
ENDBRANCH  15  16
ENDBRANCH  14  15
ENDBRANCH  13  14
ENDBRANCH  12  13
ENDBRANCH  10  11
ENDBRANCH   1  10
TORSDOF 13
ENDMDL
