MODEL 1
REMARK VINA RESULT:    -4.462      0.000      0.000
REMARK INTER + INTRA:          -4.462
REMARK INTER:                  -4.462
REMARK INTRA:                   0.000
REMARK UNBOUND:                 0.000
REMARK SMILES CC1(C)[C@H]2CC[C@]1(C)C(=O)C2
REMARK SMILES IDX 1 1 2 2 4 3 5 4 6 5 7 6 9 7 10 8 11 9 8 10 3 11
REMARK H PARENT
REMARK Flexibility Score: inf
ROOT
ATOM      1  C   UNL     1      -5.521   4.401  13.624  1.00  0.00     0.012 C 
ATOM      2  C   UNL     1      -5.784   5.234  14.916  1.00  0.00    -0.020 C 
ATOM      3  C   UNL     1      -5.117   6.631  14.899  1.00  0.00     0.003 C 
ATOM      4  C   UNL     1      -5.390   7.157  16.336  1.00  0.00     0.005 C 
ATOM      5  C   UNL     1      -5.283   5.876  17.201  1.00  0.00     0.015 C 
ATOM      6  C   UNL     1      -4.974   4.782  16.151  1.00  0.00     0.032 C 
ATOM      7  C   UNL     1      -3.570   5.079  15.687  1.00  0.00     0.139 C 
ATOM      8  O   UNL     1      -2.562   4.474  16.019  1.00  0.00    -0.299 OA
ATOM      9  C   UNL     1      -3.598   6.308  14.833  1.00  0.00     0.080 C 
ATOM     10  C   UNL     1      -5.208   3.345  16.632  1.00  0.00     0.020 C 
ATOM     11  C   UNL     1      -7.330   5.277  15.106  1.00  0.00     0.012 C 
ENDROOT
TORSDOF 0
ENDMDL
MODEL 2
REMARK VINA RESULT:    -4.307      1.631      2.837
REMARK INTER + INTRA:          -4.307
REMARK INTER:                  -4.307
REMARK INTRA:                   0.000
REMARK UNBOUND:                 0.000
REMARK SMILES CC1(C)[C@H]2CC[C@]1(C)C(=O)C2
REMARK SMILES IDX 1 1 2 2 4 3 5 4 6 5 7 6 9 7 10 8 11 9 8 10 3 11
REMARK H PARENT
REMARK Flexibility Score: inf
ROOT
ATOM      1  C   UNL     1      -3.327   5.101  16.280  1.00  0.00     0.012 C 
ATOM      2  C   UNL     1      -4.807   4.825  15.872  1.00  0.00    -0.020 C 
ATOM      3  C   UNL     1      -5.068   4.972  14.353  1.00  0.00     0.003 C 
ATOM      4  C   UNL     1      -6.611   4.816  14.255  1.00  0.00     0.005 C 
ATOM      5  C   UNL     1      -7.113   5.504  15.549  1.00  0.00     0.015 C 
ATOM      6  C   UNL     1      -5.796   5.956  16.225  1.00  0.00     0.032 C 
ATOM      7  C   UNL     1      -5.274   7.067  15.349  1.00  0.00     0.139 C 
ATOM      8  O   UNL     1      -5.334   8.262  15.593  1.00  0.00    -0.299 OA
ATOM      9  C   UNL     1      -4.761   6.471  14.075  1.00  0.00     0.080 C 
ATOM     10  C   UNL     1      -5.925   6.309  17.712  1.00  0.00     0.020 C 
ATOM     11  C   UNL     1      -5.165   3.417  16.438  1.00  0.00     0.012 C 
ENDROOT
TORSDOF 0
ENDMDL
MODEL 3
REMARK VINA RESULT:    -4.246      1.476      2.951
REMARK INTER + INTRA:          -4.246
REMARK INTER:                  -4.246
REMARK INTRA:                   0.000
REMARK UNBOUND:                 0.000
REMARK SMILES CC1(C)[C@H]2CC[C@]1(C)C(=O)C2
REMARK SMILES IDX 1 1 2 2 4 3 5 4 6 5 7 6 9 7 10 8 11 9 8 10 3 11
REMARK H PARENT
REMARK Flexibility Score: inf
ROOT
ATOM      1  C   UNL     1      -7.467   5.160  14.722  1.00  0.00     0.012 C 
ATOM      2  C   UNL     1      -5.911   5.204  14.609  1.00  0.00    -0.020 C 
ATOM      3  C   UNL     1      -5.208   3.991  15.266  1.00  0.00     0.003 C 
ATOM      4  C   UNL     1      -3.704   4.370  15.161  1.00  0.00     0.005 C 
ATOM      5  C   UNL     1      -3.717   5.905  15.370  1.00  0.00     0.015 C 
ATOM      6  C   UNL     1      -5.223   6.209  15.557  1.00  0.00     0.032 C 
ATOM      7  C   UNL     1      -5.573   5.612  16.898  1.00  0.00     0.139 C 
ATOM      8  O   UNL     1      -5.733   6.231  17.939  1.00  0.00    -0.299 OA
ATOM      9  C   UNL     1      -5.588   4.121  16.768  1.00  0.00     0.080 C 
ATOM     10  C   UNL     1      -5.607   7.684  15.384  1.00  0.00     0.020 C 
ATOM     11  C   UNL     1      -5.584   5.377  13.095  1.00  0.00     0.012 C 
ENDROOT
TORSDOF 0
ENDMDL
MODEL 4
REMARK VINA RESULT:    -4.194      1.754      3.052
REMARK INTER + INTRA:          -4.194
REMARK INTER:                  -4.194
REMARK INTRA:                   0.000
REMARK UNBOUND:                 0.000
REMARK SMILES CC1(C)[C@H]2CC[C@]1(C)C(=O)C2
REMARK SMILES IDX 1 1 2 2 4 3 5 4 6 5 7 6 9 7 10 8 11 9 8 10 3 11
REMARK H PARENT
REMARK Flexibility Score: inf
ROOT
ATOM      1  C   UNL     1      -5.699   8.234  16.317  1.00  0.00     0.012 C 
ATOM      2  C   UNL     1      -5.660   6.711  16.654  1.00  0.00    -0.020 C 
ATOM      3  C   UNL     1      -4.299   6.042  16.344  1.00  0.00     0.003 C 
ATOM      4  C   UNL     1      -4.590   4.538  16.605  1.00  0.00     0.005 C 
ATOM      5  C   UNL     1      -6.053   4.378  16.119  1.00  0.00     0.015 C 
ATOM      6  C   UNL     1      -6.414   5.809  15.653  1.00  0.00     0.032 C 
ATOM      7  C   UNL     1      -5.592   6.027  14.407  1.00  0.00     0.139 C 
ATOM      8  O   UNL     1      -6.006   5.986  13.259  1.00  0.00    -0.299 OA
ATOM      9  C   UNL     1      -4.159   6.200  14.804  1.00  0.00     0.080 C 
ATOM     10  C   UNL     1      -7.916   6.072  15.494  1.00  0.00     0.020 C 
ATOM     11  C   UNL     1      -6.102   6.578  18.143  1.00  0.00     0.012 C 
ENDROOT
TORSDOF 0
ENDMDL
MODEL 5
REMARK VINA RESULT:    -4.192      1.321      2.574
REMARK INTER + INTRA:          -4.192
REMARK INTER:                  -4.192
REMARK INTRA:                   0.000
REMARK UNBOUND:                 0.000
REMARK SMILES CC1(C)[C@H]2CC[C@]1(C)C(=O)C2
REMARK SMILES IDX 1 1 2 2 4 3 5 4 6 5 7 6 9 7 10 8 11 9 8 10 3 11
REMARK H PARENT
REMARK Flexibility Score: inf
ROOT
ATOM      1  C   UNL     1      -3.790   6.370  14.863  1.00  0.00     0.012 C 
ATOM      2  C   UNL     1      -5.312   6.667  15.033  1.00  0.00    -0.020 C 
ATOM      3  C   UNL     1      -5.691   7.171  16.448  1.00  0.00     0.003 C 
ATOM      4  C   UNL     1      -7.243   7.220  16.388  1.00  0.00     0.005 C 
ATOM      5  C   UNL     1      -7.596   5.999  15.504  1.00  0.00     0.015 C 
ATOM      6  C   UNL     1      -6.205   5.414  15.162  1.00  0.00     0.032 C 
ATOM      7  C   UNL     1      -5.697   4.842  16.462  1.00  0.00     0.139 C 
ATOM      8  O   UNL     1      -5.671   3.659  16.765  1.00  0.00    -0.299 OA
ATOM      9  C   UNL     1      -5.325   5.974  17.369  1.00  0.00     0.080 C 
ATOM     10  C   UNL     1      -6.190   4.441  13.977  1.00  0.00     0.020 C 
ATOM     11  C   UNL     1      -5.700   7.653  13.890  1.00  0.00     0.012 C 
ENDROOT
TORSDOF 0
ENDMDL
MODEL 6
REMARK VINA RESULT:    -4.153      2.088      3.500
REMARK INTER + INTRA:          -4.153
REMARK INTER:                  -4.153
REMARK INTRA:                   0.000
REMARK UNBOUND:                 0.000
REMARK SMILES CC1(C)[C@H]2CC[C@]1(C)C(=O)C2
REMARK SMILES IDX 1 1 2 2 4 3 5 4 6 5 7 6 9 7 10 8 11 9 8 10 3 11
REMARK H PARENT
REMARK Flexibility Score: inf
ROOT
ATOM      1  C   UNL     1      -5.405   6.692  13.480  1.00  0.00     0.012 C 
ATOM      2  C   UNL     1      -5.157   6.092  14.899  1.00  0.00    -0.020 C 
ATOM      3  C   UNL     1      -5.891   4.751  15.142  1.00  0.00     0.003 C 
ATOM      4  C   UNL     1      -5.616   4.479  16.647  1.00  0.00     0.005 C 
ATOM      5  C   UNL     1      -5.642   5.898  17.267  1.00  0.00     0.015 C 
ATOM      6  C   UNL     1      -5.918   6.800  16.041  1.00  0.00     0.032 C 
ATOM      7  C   UNL     1      -7.345   6.498  15.654  1.00  0.00     0.139 C 
ATOM      8  O   UNL     1      -8.315   7.204  15.882  1.00  0.00    -0.299 OA
ATOM      9  C   UNL     1      -7.394   5.136  15.035  1.00  0.00     0.080 C 
ATOM     10  C   UNL     1      -5.604   8.286  16.252  1.00  0.00     0.020 C 
ATOM     11  C   UNL     1      -3.611   6.004  15.076  1.00  0.00     0.012 C 
ENDROOT
TORSDOF 0
ENDMDL
MODEL 7
REMARK VINA RESULT:    -4.145      1.878      3.246
REMARK INTER + INTRA:          -4.145
REMARK INTER:                  -4.145
REMARK INTRA:                   0.000
REMARK UNBOUND:                 0.000
REMARK SMILES CC1(C)[C@H]2CC[C@]1(C)C(=O)C2
REMARK SMILES IDX 1 1 2 2 4 3 5 4 6 5 7 6 9 7 10 8 11 9 8 10 3 11
REMARK H PARENT
REMARK Flexibility Score: inf
ROOT
ATOM      1  C   UNL     1      -5.274   3.761  16.535  1.00  0.00     0.012 C 
ATOM      2  C   UNL     1      -4.898   5.096  15.821  1.00  0.00    -0.020 C 
ATOM      3  C   UNL     1      -5.609   6.336  16.413  1.00  0.00     0.003 C 
ATOM      4  C   UNL     1      -5.197   7.468  15.430  1.00  0.00     0.005 C 
ATOM      5  C   UNL     1      -5.164   6.744  14.061  1.00  0.00     0.015 C 
ATOM      6  C   UNL     1      -5.550   5.293  14.435  1.00  0.00     0.032 C 
ATOM      7  C   UNL     1      -7.006   5.369  14.821  1.00  0.00     0.139 C 
ATOM      8  O   UNL     1      -7.951   5.012  14.133  1.00  0.00    -0.299 OA
ATOM      9  C   UNL     1      -7.114   6.053  16.148  1.00  0.00     0.080 C 
ATOM     10  C   UNL     1      -5.216   4.244  13.368  1.00  0.00     0.020 C 
ATOM     11  C   UNL     1      -3.342   5.188  15.850  1.00  0.00     0.012 C 
ENDROOT
TORSDOF 0
ENDMDL
MODEL 8
REMARK VINA RESULT:    -4.066      1.688      3.067
REMARK INTER + INTRA:          -4.066
REMARK INTER:                  -4.066
REMARK INTRA:                   0.000
REMARK UNBOUND:                 0.000
REMARK SMILES CC1(C)[C@H]2CC[C@]1(C)C(=O)C2
REMARK SMILES IDX 1 1 2 2 4 3 5 4 6 5 7 6 9 7 10 8 11 9 8 10 3 11
REMARK H PARENT
REMARK Flexibility Score: inf
ROOT
ATOM      1  C   UNL     1      -5.604   3.987  16.271  1.00  0.00     0.012 C 
ATOM      2  C   UNL     1      -6.004   5.480  16.060  1.00  0.00    -0.020 C 
ATOM      3  C   UNL     1      -7.443   5.665  15.517  1.00  0.00     0.003 C 
ATOM      4  C   UNL     1      -7.511   7.193  15.245  1.00  0.00     0.005 C 
ATOM      5  C   UNL     1      -6.079   7.524  14.756  1.00  0.00     0.015 C 
ATOM      6  C   UNL     1      -5.373   6.149  14.820  1.00  0.00     0.032 C 
ATOM      7  C   UNL     1      -6.004   5.339  13.714  1.00  0.00     0.139 C 
ATOM      8  O   UNL     1      -5.502   5.092  12.629  1.00  0.00    -0.299 OA
ATOM      9  C   UNL     1      -7.396   4.974  14.125  1.00  0.00     0.080 C 
ATOM     10  C   UNL     1      -3.841   6.211  14.784  1.00  0.00     0.020 C 
ATOM     11  C   UNL     1      -5.747   6.203  17.417  1.00  0.00     0.012 C 
ENDROOT
TORSDOF 0
ENDMDL
MODEL 9
REMARK VINA RESULT:    -4.052      1.112      2.870
REMARK INTER + INTRA:          -4.052
REMARK INTER:                  -4.052
REMARK INTRA:                   0.000
REMARK UNBOUND:                 0.000
REMARK SMILES CC1(C)[C@H]2CC[C@]1(C)C(=O)C2
REMARK SMILES IDX 1 1 2 2 4 3 5 4 6 5 7 6 9 7 10 8 11 9 8 10 3 11
REMARK H PARENT
REMARK Flexibility Score: inf
ROOT
ATOM      1  C   UNL     1      -5.717   6.113  17.436  1.00  0.00     0.012 C 
ATOM      2  C   UNL     1      -6.099   5.853  15.946  1.00  0.00    -0.020 C 
ATOM      3  C   UNL     1      -5.877   4.388  15.497  1.00  0.00     0.003 C 
ATOM      4  C   UNL     1      -6.165   4.452  13.971  1.00  0.00     0.005 C 
ATOM      5  C   UNL     1      -5.611   5.842  13.570  1.00  0.00     0.015 C 
ATOM      6  C   UNL     1      -5.087   6.398  14.916  1.00  0.00     0.032 C 
ATOM      7  C   UNL     1      -3.879   5.555  15.237  1.00  0.00     0.139 C 
ATOM      8  O   UNL     1      -2.712   5.893  15.107  1.00  0.00    -0.299 OA
ATOM      9  C   UNL     1      -4.342   4.191  15.644  1.00  0.00     0.080 C 
ATOM     10  C   UNL     1      -4.845   7.912  14.933  1.00  0.00     0.020 C 
ATOM     11  C   UNL     1      -7.566   6.348  15.775  1.00  0.00     0.012 C 
ENDROOT
TORSDOF 0
ENDMDL
