MODEL 1
REMARK VINA RESULT:    -3.793      0.000      0.000
REMARK INTER + INTRA:          -3.793
REMARK INTER:                  -3.793
REMARK INTRA:                   0.000
REMARK UNBOUND:                 0.000
REMARK SMILES CC1(C)[C@H]2CC[C@]1(C)C(=O)C2
REMARK SMILES IDX 1 1 2 2 4 3 5 4 6 5 7 6 9 7 10 8 11 9 8 10 3 11
REMARK H PARENT
REMARK Flexibility Score: inf
ROOT
ATOM      1  C   UNL     1     139.492 137.033 131.650  1.00  0.00     0.012 C 
ATOM      2  C   UNL     1     139.395 135.736 130.789  1.00  0.00    -0.020 C 
ATOM      3  C   UNL     1     140.234 135.790 129.490  1.00  0.00     0.003 C 
ATOM      4  C   UNL     1     139.826 134.477 128.764  1.00  0.00     0.005 C 
ATOM      5  C   UNL     1     138.325 134.336 129.122  1.00  0.00     0.015 C 
ATOM      6  C   UNL     1     138.071 135.576 130.012  1.00  0.00     0.032 C 
ATOM      7  C   UNL     1     138.155 136.751 129.070  1.00  0.00     0.139 C 
ATOM      8  O   UNL     1     137.210 137.382 128.622  1.00  0.00    -0.299 OA
ATOM      9  C   UNL     1     139.589 136.954 128.687  1.00  0.00     0.080 C 
ATOM     10  C   UNL     1     136.789 135.511 130.852  1.00  0.00     0.020 C 
ATOM     11  C   UNL     1     139.767 134.551 131.731  1.00  0.00     0.012 C 
ENDROOT
TORSDOF 0
ENDMDL
MODEL 2
REMARK VINA RESULT:    -3.789      2.405      3.754
REMARK INTER + INTRA:          -3.789
REMARK INTER:                  -3.789
REMARK INTRA:                   0.000
REMARK UNBOUND:                 0.000
REMARK SMILES CC1(C)[C@H]2CC[C@]1(C)C(=O)C2
REMARK SMILES IDX 1 1 2 2 4 3 5 4 6 5 7 6 9 7 10 8 11 9 8 10 3 11
REMARK H PARENT
REMARK Flexibility Score: inf
ROOT
ATOM      1  C   UNL     1     138.042 139.500 131.852  1.00  0.00     0.012 C 
ATOM      2  C   UNL     1     139.329 139.446 130.972  1.00  0.00    -0.020 C 
ATOM      3  C   UNL     1     139.227 140.279 129.672  1.00  0.00     0.003 C 
ATOM      4  C   UNL     1     140.542 139.915 128.927  1.00  0.00     0.005 C 
ATOM      5  C   UNL     1     140.741 138.421 129.286  1.00  0.00     0.015 C 
ATOM      6  C   UNL     1     139.524 138.126 130.195  1.00  0.00     0.032 C 
ATOM      7  C   UNL     1     138.333 138.167 129.270  1.00  0.00     0.139 C 
ATOM      8  O   UNL     1     137.728 137.199 128.834  1.00  0.00    -0.299 OA
ATOM      9  C   UNL     1     138.074 139.592 128.888  1.00  0.00     0.080 C 
ATOM     10  C   UNL     1     139.646 136.849 131.037  1.00  0.00     0.020 C 
ATOM     11  C   UNL     1     140.514 139.861 131.895  1.00  0.00     0.012 C 
ENDROOT
TORSDOF 0
ENDMDL
MODEL 3
REMARK VINA RESULT:    -3.786      3.612      5.212
REMARK INTER + INTRA:          -3.786
REMARK INTER:                  -3.786
REMARK INTRA:                   0.000
REMARK UNBOUND:                 0.000
REMARK SMILES CC1(C)[C@H]2CC[C@]1(C)C(=O)C2
REMARK SMILES IDX 1 1 2 2 4 3 5 4 6 5 7 6 9 7 10 8 11 9 8 10 3 11
REMARK H PARENT
REMARK Flexibility Score: inf
ROOT
ATOM      1  C   UNL     1     135.716 138.129 131.542  1.00  0.00     0.012 C 
ATOM      2  C   UNL     1     135.831 139.438 130.701  1.00  0.00    -0.020 C 
ATOM      3  C   UNL     1     135.054 139.387 129.364  1.00  0.00     0.003 C 
ATOM      4  C   UNL     1     135.473 140.714 128.673  1.00  0.00     0.005 C 
ATOM      5  C   UNL     1     136.953 140.875 129.101  1.00  0.00     0.015 C 
ATOM      6  C   UNL     1     137.187 139.629 129.988  1.00  0.00     0.032 C 
ATOM      7  C   UNL     1     137.165 138.464 129.029  1.00  0.00     0.139 C 
ATOM      8  O   UNL     1     138.141 137.854 128.618  1.00  0.00    -0.299 OA
ATOM      9  C   UNL     1     135.754 138.243 128.579  1.00  0.00     0.080 C 
ATOM     10  C   UNL     1     138.428 139.704 130.887  1.00  0.00     0.020 C 
ATOM     11  C   UNL     1     135.397 140.605 131.639  1.00  0.00     0.012 C 
ENDROOT
TORSDOF 0
ENDMDL
MODEL 4
REMARK VINA RESULT:    -3.781      1.519      2.870
REMARK INTER + INTRA:          -3.781
REMARK INTER:                  -3.781
REMARK INTRA:                   0.000
REMARK UNBOUND:                 0.000
REMARK SMILES CC1(C)[C@H]2CC[C@]1(C)C(=O)C2
REMARK SMILES IDX 1 1 2 2 4 3 5 4 6 5 7 6 9 7 10 8 11 9 8 10 3 11
REMARK H PARENT
REMARK Flexibility Score: inf
ROOT
ATOM      1  C   UNL     1     137.175 137.050 129.790  1.00  0.00     0.012 C 
ATOM      2  C   UNL     1     138.261 135.944 129.965  1.00  0.00    -0.020 C 
ATOM      3  C   UNL     1     138.799 135.828 131.411  1.00  0.00     0.003 C 
ATOM      4  C   UNL     1     139.956 134.800 131.265  1.00  0.00     0.005 C 
ATOM      5  C   UNL     1     140.547 135.140 129.874  1.00  0.00     0.015 C 
ATOM      6  C   UNL     1     139.650 136.308 129.400  1.00  0.00     0.032 C 
ATOM      7  C   UNL     1     140.021 137.466 130.294  1.00  0.00     0.139 C 
ATOM      8  O   UNL     1     140.724 138.416 129.984  1.00  0.00    -0.299 OA
ATOM      9  C   UNL     1     139.469 137.209 131.662  1.00  0.00     0.080 C 
ATOM     10  C   UNL     1     139.720 136.603 127.896  1.00  0.00     0.020 C 
ATOM     11  C   UNL     1     137.639 134.624 129.417  1.00  0.00     0.012 C 
ENDROOT
TORSDOF 0
ENDMDL
MODEL 5
REMARK VINA RESULT:    -3.763      2.310      3.612
REMARK INTER + INTRA:          -3.763
REMARK INTER:                  -3.763
REMARK INTRA:                   0.000
REMARK UNBOUND:                 0.000
REMARK SMILES CC1(C)[C@H]2CC[C@]1(C)C(=O)C2
REMARK SMILES IDX 1 1 2 2 4 3 5 4 6 5 7 6 9 7 10 8 11 9 8 10 3 11
REMARK H PARENT
REMARK Flexibility Score: inf
ROOT
ATOM      1  C   UNL     1     137.119 135.743 131.616  1.00  0.00     0.012 C 
ATOM      2  C   UNL     1     135.839 135.808 130.727  1.00  0.00    -0.020 C 
ATOM      3  C   UNL     1     135.972 135.042 129.389  1.00  0.00     0.003 C 
ATOM      4  C   UNL     1     134.655 135.409 128.650  1.00  0.00     0.005 C 
ATOM      5  C   UNL     1     134.416 136.879 129.079  1.00  0.00     0.015 C 
ATOM      6  C   UNL     1     135.617 137.159 130.013  1.00  0.00     0.032 C 
ATOM      7  C   UNL     1     136.817 137.192 129.099  1.00  0.00     0.139 C 
ATOM      8  O   UNL     1     137.401 138.195 128.716  1.00  0.00    -0.299 OA
ATOM      9  C   UNL     1     137.114 135.795 128.651  1.00  0.00     0.080 C 
ATOM     10  C   UNL     1     135.456 138.390 130.915  1.00  0.00     0.020 C 
ATOM     11  C   UNL     1     134.657 135.320 131.618  1.00  0.00     0.012 C 
ENDROOT
TORSDOF 0
ENDMDL
MODEL 6
REMARK VINA RESULT:    -3.757      3.543      5.160
REMARK INTER + INTRA:          -3.757
REMARK INTER:                  -3.757
REMARK INTRA:                   0.000
REMARK UNBOUND:                 0.000
REMARK SMILES CC1(C)[C@H]2CC[C@]1(C)C(=O)C2
REMARK SMILES IDX 1 1 2 2 4 3 5 4 6 5 7 6 9 7 10 8 11 9 8 10 3 11
REMARK H PARENT
REMARK Flexibility Score: inf
ROOT
ATOM      1  C   UNL     1     138.103 138.186 129.839  1.00  0.00     0.012 C 
ATOM      2  C   UNL     1     136.992 139.273 129.969  1.00  0.00    -0.020 C 
ATOM      3  C   UNL     1     136.415 139.402 131.399  1.00  0.00     0.003 C 
ATOM      4  C   UNL     1     135.242 140.405 131.206  1.00  0.00     0.005 C 
ATOM      5  C   UNL     1     134.693 140.030 129.806  1.00  0.00     0.015 C 
ATOM      6  C   UNL     1     135.625 138.872 129.375  1.00  0.00     0.032 C 
ATOM      7  C   UNL     1     135.254 137.722 130.279  1.00  0.00     0.139 C 
ATOM      8  O   UNL     1     134.577 136.754 129.968  1.00  0.00    -0.299 OA
ATOM      9  C   UNL     1     135.766 138.013 131.656  1.00  0.00     0.080 C 
ATOM     10  C   UNL     1     135.599 138.551 127.875  1.00  0.00     0.020 C 
ATOM     11  C   UNL     1     137.602 140.596 129.414  1.00  0.00     0.012 C 
ENDROOT
TORSDOF 0
ENDMDL
MODEL 7
REMARK VINA RESULT:    -3.746      2.596      4.031
REMARK INTER + INTRA:          -3.746
REMARK INTER:                  -3.746
REMARK INTRA:                   0.000
REMARK UNBOUND:                 0.000
REMARK SMILES CC1(C)[C@H]2CC[C@]1(C)C(=O)C2
REMARK SMILES IDX 1 1 2 2 4 3 5 4 6 5 7 6 9 7 10 8 11 9 8 10 3 11
REMARK H PARENT
REMARK Flexibility Score: inf
ROOT
ATOM      1  C   UNL     1     137.491 139.842 128.386  1.00  0.00     0.012 C 
ATOM      2  C   UNL     1     138.275 139.499 129.691  1.00  0.00    -0.020 C 
ATOM      3  C   UNL     1     139.663 140.177 129.778  1.00  0.00     0.003 C 
ATOM      4  C   UNL     1     140.275 139.542 131.057  1.00  0.00     0.005 C 
ATOM      5  C   UNL     1     139.741 138.088 131.012  1.00  0.00     0.015 C 
ATOM      6  C   UNL     1     138.885 138.081 129.722  1.00  0.00     0.032 C 
ATOM      7  C   UNL     1     139.885 138.183 128.596  1.00  0.00     0.139 C 
ATOM      8  O   UNL     1     140.249 137.267 127.875  1.00  0.00    -0.299 OA
ATOM      9  C   UNL     1     140.439 139.574 128.574  1.00  0.00     0.080 C 
ATOM     10  C   UNL     1     137.901 136.910 129.611  1.00  0.00     0.020 C 
ATOM     11  C   UNL     1     137.328 139.847 130.879  1.00  0.00     0.012 C 
ENDROOT
TORSDOF 0
ENDMDL
MODEL 8
REMARK VINA RESULT:    -3.722      2.451      3.574
REMARK INTER + INTRA:          -3.722
REMARK INTER:                  -3.722
REMARK INTRA:                   0.000
REMARK UNBOUND:                 0.000
REMARK SMILES CC1(C)[C@H]2CC[C@]1(C)C(=O)C2
REMARK SMILES IDX 1 1 2 2 4 3 5 4 6 5 7 6 9 7 10 8 11 9 8 10 3 11
REMARK H PARENT
REMARK Flexibility Score: inf
ROOT
ATOM      1  C   UNL     1     139.056 137.456 131.315  1.00  0.00     0.012 C 
ATOM      2  C   UNL     1     139.641 137.903 129.940  1.00  0.00    -0.020 C 
ATOM      3  C   UNL     1     140.639 139.082 130.044  1.00  0.00     0.003 C 
ATOM      4  C   UNL     1     140.922 139.423 128.555  1.00  0.00     0.005 C 
ATOM      5  C   UNL     1     139.552 139.173 127.875  1.00  0.00     0.015 C 
ATOM      6  C   UNL     1     138.666 138.712 129.057  1.00  0.00     0.032 C 
ATOM      7  C   UNL     1     138.481 139.947 129.904  1.00  0.00     0.139 C 
ATOM      8  O   UNL     1     137.477 140.642 129.951  1.00  0.00    -0.299 OA
ATOM      9  C   UNL     1     139.772 140.244 130.603  1.00  0.00     0.080 C 
ATOM     10  C   UNL     1     137.367 138.007 128.649  1.00  0.00     0.020 C 
ATOM     11  C   UNL     1     140.241 136.626 129.279  1.00  0.00     0.012 C 
ENDROOT
TORSDOF 0
ENDMDL
MODEL 9
REMARK VINA RESULT:    -3.719      1.928      3.225
REMARK INTER + INTRA:          -3.719
REMARK INTER:                  -3.719
REMARK INTRA:                   0.000
REMARK UNBOUND:                 0.000
REMARK SMILES CC1(C)[C@H]2CC[C@]1(C)C(=O)C2
REMARK SMILES IDX 1 1 2 2 4 3 5 4 6 5 7 6 9 7 10 8 11 9 8 10 3 11
REMARK H PARENT
REMARK Flexibility Score: inf
ROOT
ATOM      1  C   UNL     1     137.767 134.539 129.307  1.00  0.00     0.012 C 
ATOM      2  C   UNL     1     138.408 135.905 129.700  1.00  0.00    -0.020 C 
ATOM      3  C   UNL     1     139.832 136.110 129.128  1.00  0.00     0.003 C 
ATOM      4  C   UNL     1     140.284 137.436 129.800  1.00  0.00     0.005 C 
ATOM      5  C   UNL     1     139.646 137.346 131.210  1.00  0.00     0.015 C 
ATOM      6  C   UNL     1     138.905 135.988 131.160  1.00  0.00     0.032 C 
ATOM      7  C   UNL     1     140.001 134.951 131.142  1.00  0.00     0.139 C 
ATOM      8  O   UNL     1     140.354 134.263 132.087  1.00  0.00    -0.299 OA
ATOM      9  C   UNL     1     140.659 134.976 129.796  1.00  0.00     0.080 C 
ATOM     10  C   UNL     1     137.847 135.794 132.254  1.00  0.00     0.020 C 
ATOM     11  C   UNL     1     137.394 137.009 129.274  1.00  0.00     0.012 C 
ENDROOT
TORSDOF 0
ENDMDL
