MODEL 1
REMARK VINA RESULT:    -3.345      0.000      0.000
REMARK INTER + INTRA:          -4.934
REMARK INTER:                  -4.518
REMARK INTRA:                  -0.416
REMARK UNBOUND:                -0.416
REMARK SMILES CCCCCCCC(=O)[O-]
REMARK SMILES IDX 5 1 6 2 7 3 8 4 9 5 10 6 4 7 3 8 2 9 1 10
REMARK H PARENT
REMARK Flexibility Score: inf
ROOT
ATOM      1  C   UNL     1      92.252 101.330  89.739  1.00  0.00     0.000 C 
ENDROOT
BRANCH   1   2
ATOM      2  C   UNL     1      91.840 100.263  90.772  1.00  0.00     0.006 C 
BRANCH   2   3
ATOM      3  C   UNL     1      91.104 100.830  91.994  1.00  0.00     0.053 C 
BRANCH   3   4
ATOM      4  C   UNL     1      89.757 100.196  92.176  1.00  0.00     0.041 C 
ATOM      5  O   UNL     1      89.150  99.699  91.191  1.00  0.00    -0.550 OA
ATOM      6  O   UNL     1      89.166 100.171  93.432  1.00  0.00    -0.550 OA
ENDBRANCH   3   4
ENDBRANCH   2   3
ENDBRANCH   1   2
BRANCH   1   7
ATOM      7  C   UNL     1      92.287 102.764  90.316  1.00  0.00     0.000 C 
BRANCH   7   8
ATOM      8  C   UNL     1      93.525 103.547  89.850  1.00  0.00    -0.000 C 
BRANCH   8   9
ATOM      9  C   UNL     1      94.517 103.820  90.992  1.00  0.00    -0.003 C 
ATOM     10  C   UNL     1      94.098 103.169  92.309  1.00  0.00     0.004 C 
ENDBRANCH   8   9
ENDBRANCH   7   8
ENDBRANCH   1   7
TORSDOF 6
ENDMDL
MODEL 2
REMARK VINA RESULT:    -3.317     15.027     16.009
REMARK INTER + INTRA:          -4.896
REMARK INTER:                  -4.485
REMARK INTRA:                  -0.411
REMARK UNBOUND:                -0.416
REMARK SMILES CCCCCCCC(=O)[O-]
REMARK SMILES IDX 5 1 6 2 7 3 8 4 9 5 10 6 4 7 3 8 2 9 1 10
REMARK H PARENT
REMARK Flexibility Score: inf
ROOT
ATOM      1  C   UNL     1     105.696  96.765  89.880  1.00  0.00     0.000 C 
ENDROOT
BRANCH   1   2
ATOM      2  C   UNL     1     106.026  97.886  90.885  1.00  0.00     0.006 C 
BRANCH   2   3
ATOM      3  C   UNL     1     106.691  97.390  92.176  1.00  0.00     0.053 C 
BRANCH   3   4
ATOM      4  C   UNL     1     108.110  97.861  92.288  1.00  0.00     0.041 C 
ATOM      5  O   UNL     1     109.049  97.030  92.393  1.00  0.00    -0.550 OA
ATOM      6  O   UNL     1     108.391  99.221  92.295  1.00  0.00    -0.550 OA
ENDBRANCH   3   4
ENDBRANCH   2   3
ENDBRANCH   1   2
BRANCH   1   7
ATOM      7  C   UNL     1     105.757  95.349  90.496  1.00  0.00     0.000 C 
BRANCH   7   8
ATOM      8  C   UNL     1     104.643  94.434  89.961  1.00  0.00    -0.000 C 
BRANCH   8   9
ATOM      9  C   UNL     1     103.505  94.235  90.973  1.00  0.00    -0.003 C 
ATOM     10  C   UNL     1     103.841  94.784  92.359  1.00  0.00     0.004 C 
ENDBRANCH   8   9
ENDBRANCH   7   8
ENDBRANCH   1   7
TORSDOF 6
ENDMDL
MODEL 3
REMARK VINA RESULT:    -3.316     14.075     15.062
REMARK INTER + INTRA:          -4.895
REMARK INTER:                  -4.411
REMARK INTRA:                  -0.485
REMARK UNBOUND:                -0.416
REMARK SMILES CCCCCCCC(=O)[O-]
REMARK SMILES IDX 5 1 6 2 7 3 8 4 9 5 10 6 4 7 3 8 2 9 1 10
REMARK H PARENT
REMARK Flexibility Score: inf
ROOT
ATOM      1  C   UNL     1     104.468  98.387  90.905  1.00  0.00     0.000 C 
ENDROOT
BRANCH   1   2
ATOM      2  C   UNL     1     104.377  98.016  92.399  1.00  0.00     0.006 C 
BRANCH   2   3
ATOM      3  C   UNL     1     105.468  98.658  93.268  1.00  0.00     0.053 C 
BRANCH   3   4
ATOM      4  C   UNL     1     106.842  98.360  92.747  1.00  0.00     0.041 C 
ATOM      5  O   UNL     1     107.259  97.173  92.699  1.00  0.00    -0.550 OA
ATOM      6  O   UNL     1     107.667  99.396  92.332  1.00  0.00    -0.550 OA
ENDBRANCH   3   4
ENDBRANCH   2   3
ENDBRANCH   1   2
BRANCH   1   7
ATOM      7  C   UNL     1     104.176  97.200  89.959  1.00  0.00     0.000 C 
BRANCH   7   8
ATOM      8  C   UNL     1     105.451  96.425  89.589  1.00  0.00    -0.000 C 
BRANCH   8   9
ATOM      9  C   UNL     1     105.567  95.087  90.334  1.00  0.00    -0.003 C 
ATOM     10  C   UNL     1     104.371  94.168  90.091  1.00  0.00     0.004 C 
ENDBRANCH   8   9
ENDBRANCH   7   8
ENDBRANCH   1   7
TORSDOF 6
ENDMDL
MODEL 4
REMARK VINA RESULT:    -3.275      3.101      4.027
REMARK INTER + INTRA:          -4.840
REMARK INTER:                  -4.210
REMARK INTRA:                  -0.630
REMARK UNBOUND:                -0.416
REMARK SMILES CCCCCCCC(=O)[O-]
REMARK SMILES IDX 5 1 6 2 7 3 8 4 9 5 10 6 4 7 3 8 2 9 1 10
REMARK H PARENT
REMARK Flexibility Score: inf
ROOT
ATOM      1  C   UNL     1      89.330  99.773  91.814  1.00  0.00     0.000 C 
ENDROOT
BRANCH   1   2
ATOM      2  C   UNL     1      89.504  98.252  91.631  1.00  0.00     0.006 C 
BRANCH   2   3
ATOM      3  C   UNL     1      89.646  97.813  90.167  1.00  0.00     0.053 C 
BRANCH   3   4
ATOM      4  C   UNL     1      90.940  98.278  89.569  1.00  0.00     0.041 C 
ATOM      5  O   UNL     1      92.030  97.763  89.932  1.00  0.00    -0.550 OA
ATOM      6  O   UNL     1      90.942  99.295  88.624  1.00  0.00    -0.550 OA
ENDBRANCH   3   4
ENDBRANCH   2   3
ENDBRANCH   1   2
BRANCH   1   7
ATOM      7  C   UNL     1      90.360 100.397  92.783  1.00  0.00     0.000 C 
BRANCH   7   8
ATOM      8  C   UNL     1      91.610 100.910  92.050  1.00  0.00    -0.000 C 
BRANCH   8   9
ATOM      9  C   UNL     1      92.878 100.127  92.423  1.00  0.00    -0.003 C 
ATOM     10  C   UNL     1      92.629  99.078  93.507  1.00  0.00     0.004 C 
ENDBRANCH   8   9
ENDBRANCH   7   8
ENDBRANCH   1   7
TORSDOF 6
ENDMDL
MODEL 5
REMARK VINA RESULT:    -3.268     14.887     16.339
REMARK INTER + INTRA:          -4.831
REMARK INTER:                  -4.226
REMARK INTRA:                  -0.605
REMARK UNBOUND:                -0.416
REMARK SMILES CCCCCCCC(=O)[O-]
REMARK SMILES IDX 5 1 6 2 7 3 8 4 9 5 10 6 4 7 3 8 2 9 1 10
REMARK H PARENT
REMARK Flexibility Score: inf
ROOT
ATOM      1  C   UNL     1     108.970  98.402  92.176  1.00  0.00     0.000 C 
ENDROOT
BRANCH   1   2
ATOM      2  C   UNL     1     108.748  99.861  91.733  1.00  0.00     0.006 C 
BRANCH   2   3
ATOM      3  C   UNL     1     108.758 100.060  90.211  1.00  0.00     0.053 C 
BRANCH   3   4
ATOM      4  C   UNL     1     107.461  99.643  89.586  1.00  0.00     0.041 C 
ATOM      5  O   UNL     1     106.378 100.162  89.963  1.00  0.00    -0.550 OA
ATOM      6  O   UNL     1     107.448  98.666  88.599  1.00  0.00    -0.550 OA
ENDBRANCH   3   4
ENDBRANCH   2   3
ENDBRANCH   1   2
BRANCH   1   7
ATOM      7  C   UNL     1     107.834  97.850  93.067  1.00  0.00     0.000 C 
BRANCH   7   8
ATOM      8  C   UNL     1     106.707  97.208  92.241  1.00  0.00    -0.000 C 
BRANCH   8   9
ATOM      9  C   UNL     1     105.352  97.901  92.450  1.00  0.00    -0.003 C 
ATOM     10  C   UNL     1     105.411  99.013  93.497  1.00  0.00     0.004 C 
ENDBRANCH   8   9
ENDBRANCH   7   8
ENDBRANCH   1   7
TORSDOF 6
ENDMDL
MODEL 6
REMARK VINA RESULT:    -3.268      1.501      2.191
REMARK INTER + INTRA:          -4.830
REMARK INTER:                  -4.445
REMARK INTRA:                  -0.385
REMARK UNBOUND:                -0.416
REMARK SMILES CCCCCCCC(=O)[O-]
REMARK SMILES IDX 5 1 6 2 7 3 8 4 9 5 10 6 4 7 3 8 2 9 1 10
REMARK H PARENT
REMARK Flexibility Score: inf
ROOT
ATOM      1  C   UNL     1      92.521 100.765  91.906  1.00  0.00     0.000 C 
ENDROOT
BRANCH   1   2
ATOM      2  C   UNL     1      91.343 100.004  92.545  1.00  0.00     0.006 C 
BRANCH   2   3
ATOM      3  C   UNL     1      90.122  99.858  91.626  1.00  0.00     0.053 C 
BRANCH   3   4
ATOM      4  C   UNL     1      89.738  98.421  91.436  1.00  0.00     0.041 C 
ATOM      5  O   UNL     1      90.156  97.778  90.438  1.00  0.00    -0.550 OA
ATOM      6  O   UNL     1      88.901  97.800  92.353  1.00  0.00    -0.550 OA
ENDBRANCH   3   4
ENDBRANCH   2   3
ENDBRANCH   1   2
BRANCH   1   7
ATOM      7  C   UNL     1      92.733 100.427  90.413  1.00  0.00     0.000 C 
BRANCH   7   8
ATOM      8  C   UNL     1      92.523 101.650  89.506  1.00  0.00    -0.000 C 
BRANCH   8   9
ATOM      9  C   UNL     1      92.517 102.973  90.288  1.00  0.00    -0.003 C 
ATOM     10  C   UNL     1      93.733 103.846  89.984  1.00  0.00     0.004 C 
ENDBRANCH   8   9
ENDBRANCH   7   8
ENDBRANCH   1   7
TORSDOF 6
ENDMDL
MODEL 7
REMARK VINA RESULT:    -3.238     14.578     15.962
REMARK INTER + INTRA:          -4.789
REMARK INTER:                  -4.159
REMARK INTRA:                  -0.630
REMARK UNBOUND:                -0.416
REMARK SMILES CCCCCCCC(=O)[O-]
REMARK SMILES IDX 5 1 6 2 7 3 8 4 9 5 10 6 4 7 3 8 2 9 1 10
REMARK H PARENT
REMARK Flexibility Score: inf
ROOT
ATOM      1  C   UNL     1     107.261  98.204  92.874  1.00  0.00     0.000 C 
ENDROOT
BRANCH   1   2
ATOM      2  C   UNL     1     108.094  99.339  92.248  1.00  0.00     0.006 C 
BRANCH   2   3
ATOM      3  C   UNL     1     108.432  99.121  90.767  1.00  0.00     0.053 C 
BRANCH   3   4
ATOM      4  C   UNL     1     107.728 100.106  89.884  1.00  0.00     0.041 C 
ATOM      5  O   UNL     1     108.388 100.906  89.170  1.00  0.00    -0.550 OA
ATOM      6  O   UNL     1     106.340 100.153  89.865  1.00  0.00    -0.550 OA
ENDBRANCH   3   4
ENDBRANCH   2   3
ENDBRANCH   1   2
BRANCH   1   7
ATOM      7  C   UNL     1     105.786  98.591  93.126  1.00  0.00     0.000 C 
BRANCH   7   8
ATOM      8  C   UNL     1     104.831  97.917  92.127  1.00  0.00    -0.000 C 
BRANCH   8   9
ATOM      9  C   UNL     1     105.422  96.639  91.513  1.00  0.00    -0.003 C 
ATOM     10  C   UNL     1     105.456  96.677  89.986  1.00  0.00     0.004 C 
ENDBRANCH   8   9
ENDBRANCH   7   8
ENDBRANCH   1   7
TORSDOF 6
ENDMDL
MODEL 8
REMARK VINA RESULT:    -3.201      1.895      2.521
REMARK INTER + INTRA:          -4.740
REMARK INTER:                  -4.199
REMARK INTRA:                  -0.541
REMARK UNBOUND:                -0.416
REMARK SMILES CCCCCCCC(=O)[O-]
REMARK SMILES IDX 5 1 6 2 7 3 8 4 9 5 10 6 4 7 3 8 2 9 1 10
REMARK H PARENT
REMARK Flexibility Score: inf
ROOT
ATOM      1  C   UNL     1      94.975 100.198  91.693  1.00  0.00     0.000 C 
ENDROOT
BRANCH   1   2
ATOM      2  C   UNL     1      93.726  99.992  92.572  1.00  0.00     0.006 C 
BRANCH   2   3
ATOM      3  C   UNL     1      92.586  99.239  91.872  1.00  0.00     0.053 C 
BRANCH   3   4
ATOM      4  C   UNL     1      91.245  99.805  92.228  1.00  0.00     0.041 C 
ATOM      5  O   UNL     1      91.081 101.050  92.312  1.00  0.00    -0.550 OA
ATOM      6  O   UNL     1      90.179  98.953  92.487  1.00  0.00    -0.550 OA
ENDBRANCH   3   4
ENDBRANCH   2   3
ENDBRANCH   1   2
BRANCH   1   7
ATOM      7  C   UNL     1      95.404 101.678  91.573  1.00  0.00     0.000 C 
BRANCH   7   8
ATOM      8  C   UNL     1      94.265 102.644  91.935  1.00  0.00    -0.000 C 
BRANCH   8   9
ATOM      9  C   UNL     1      93.792 103.478  90.734  1.00  0.00    -0.003 C 
ATOM     10  C   UNL     1      92.805 102.725  89.843  1.00  0.00     0.004 C 
ENDBRANCH   8   9
ENDBRANCH   7   8
ENDBRANCH   1   7
TORSDOF 6
ENDMDL
MODEL 9
REMARK VINA RESULT:    -3.195      3.177      4.925
REMARK INTER + INTRA:          -4.731
REMARK INTER:                  -4.110
REMARK INTRA:                  -0.621
REMARK UNBOUND:                -0.416
REMARK SMILES CCCCCCCC(=O)[O-]
REMARK SMILES IDX 5 1 6 2 7 3 8 4 9 5 10 6 4 7 3 8 2 9 1 10
REMARK H PARENT
REMARK Flexibility Score: inf
ROOT
ATOM      1  C   UNL     1      88.942  99.813  92.037  1.00  0.00     0.000 C 
ENDROOT
BRANCH   1   2
ATOM      2  C   UNL     1      90.079 100.375  92.913  1.00  0.00     0.006 C 
BRANCH   2   3
ATOM      3  C   UNL     1      91.369 100.682  92.140  1.00  0.00     0.053 C 
BRANCH   3   4
ATOM      4  C   UNL     1      92.434  99.661  92.408  1.00  0.00     0.041 C 
ATOM      5  O   UNL     1      93.250  99.342  91.504  1.00  0.00    -0.550 OA
ATOM      6  O   UNL     1      92.511  99.048  93.651  1.00  0.00    -0.550 OA
ENDBRANCH   3   4
ENDBRANCH   2   3
ENDBRANCH   1   2
BRANCH   1   7
ATOM      7  C   UNL     1      89.031  98.286  91.819  1.00  0.00     0.000 C 
BRANCH   7   8
ATOM      8  C   UNL     1      89.042  97.912  90.327  1.00  0.00    -0.000 C 
BRANCH   8   9
ATOM      9  C   UNL     1      90.464  97.814  89.752  1.00  0.00    -0.003 C 
ATOM     10  C   UNL     1      90.820  98.994  88.849  1.00  0.00     0.004 C 
ENDBRANCH   8   9
ENDBRANCH   7   8
ENDBRANCH   1   7
TORSDOF 6
ENDMDL
