MODEL 1
REMARK VINA RESULT:    -0.311      0.000      0.000
REMARK INTER + INTRA:           5.583
REMARK INTER:                  -0.474
REMARK INTRA:                   6.057
REMARK UNBOUND:                 6.057
REMARK SMILES CC1=CCC[C@H](C)C(=O)C[C@@H](C(C)C)C(=O)C1
REMARK SMILES IDX 8 1 9 2 6 3 7 4 5 5 4 6 3 7 2 8 1 9 10 11 11 12 15 13 16 14
REMARK SMILES IDX 17 15 12 17 13 18 14 19
REMARK H PARENT
REMARK Flexibility Score: 70.00
ROOT
ATOM      1  C   UNL     1      27.602  12.443  22.695  1.00  0.00     0.136 C 
ATOM      2  O   UNL     1      26.511  11.934  22.907  1.00  0.00    -0.299 OA
ENDROOT
BRANCH   1   3
ATOM      3  C   UNL     1      28.415  12.014  21.490  1.00  0.00     0.053 C 
ATOM      4  C   UNL     1      28.361  13.113  20.424  1.00  0.00     0.016 C 
BRANCH   3   5
ATOM      5  C   UNL     1      29.883  11.703  21.865  1.00  0.00     0.015 C 
BRANCH   5   6
ATOM      6  C   UNL     1      30.125  11.653  23.382  1.00  0.00     0.028 C 
BRANCH   6   7
ATOM      7  C   UNL     1      29.954  10.252  23.918  1.00  0.00    -0.028 C 
ATOM      8  C   UNL     1      29.294   9.914  25.050  1.00  0.00    -0.070 CG0
ATOM      9  C   UNL     1      29.225   8.454  25.418  1.00  0.00     0.039 C 
ATOM     10  G   UNL     1      28.589  10.922  25.938  1.00  0.00     0.000 G0
ENDBRANCH   6   7
ENDBRANCH   5   6
ENDBRANCH   3   5
ENDBRANCH   1   3
BRANCH   1  11
ATOM     11  C   UNL     1      28.134  13.461  23.669  1.00  0.00     0.087 C 
BRANCH  11  12
ATOM     12  C   UNL     1      27.690  13.156  25.123  1.00  0.00     0.066 C 
BRANCH  12  13
ATOM     13  C   UNL     1      28.752  12.305  25.802  1.00  0.00     0.140 C 
ATOM     14  O   UNL     1      29.819  12.816  26.116  1.00  0.00    -0.299 OA
BRANCH  13  15
ATOM     15  C   UNL     1      28.560  10.826  26.014  1.00  0.00     0.106 CG0
ATOM     16  G   UNL     1      29.306  10.022  24.968  1.00  0.00     0.000 G0
ENDBRANCH  13  15
ENDBRANCH  12  13
BRANCH  12  17
ATOM     17  C   UNL     1      26.300  12.441  25.183  1.00  0.00    -0.006 C 
ATOM     18  C   UNL     1      25.291  13.203  26.066  1.00  0.00     0.008 C 
ATOM     19  C   UNL     1      26.428  11.001  25.719  1.00  0.00     0.008 C 
ENDBRANCH  12  17
ENDBRANCH  11  12
ENDBRANCH   1  11
TORSDOF 1
ENDMDL
