MODEL 1
REMARK VINA RESULT:    -4.042      0.000      0.000
REMARK INTER + INTRA:          -4.640
REMARK INTER:                  -4.397
REMARK INTRA:                  -0.243
REMARK UNBOUND:                -0.243
REMARK SMILES O=C([O-])c1ccccc1O
REMARK SMILES IDX 4 1 9 2 5 3 8 4 6 5 7 6 2 7 1 8 3 9 10 10
REMARK H PARENT 10 11
REMARK Flexibility Score: inf
ROOT
ATOM      1  C   UNL     1     -93.611 146.902 239.264  1.00  0.00     0.039 A 
ATOM      2  C   UNL     1     -94.028 146.154 240.396  1.00  0.00     0.124 A 
ATOM      3  C   UNL     1     -94.078 148.222 239.111  1.00  0.00     0.014 A 
ATOM      4  C   UNL     1     -94.939 146.716 241.299  1.00  0.00     0.047 A 
ATOM      5  C   UNL     1     -94.970 148.773 240.034  1.00  0.00     0.001 A 
ATOM      6  C   UNL     1     -95.408 148.018 241.121  1.00  0.00     0.004 A 
ENDROOT
BRANCH   1   7
ATOM      7  C   UNL     1     -92.728 146.345 238.215  1.00  0.00     0.075 C 
ATOM      8  O   UNL     1     -91.639 145.790 238.515  1.00  0.00    -0.545 OA
ATOM      9  O   UNL     1     -93.129 146.369 236.884  1.00  0.00    -0.545 OA
ENDBRANCH   1   7
BRANCH   2  10
ATOM     10  O   UNL     1     -93.541 144.876 240.677  1.00  0.00    -0.507 OA
ATOM     11  H   UNL     1     -94.064 144.028 240.507  1.00  0.00     0.293 HD
ENDBRANCH   2  10
TORSDOF 2
ENDMDL
MODEL 2
REMARK VINA RESULT:    -4.027      0.074      1.022
REMARK INTER + INTRA:          -4.623
REMARK INTER:                  -4.378
REMARK INTRA:                  -0.246
REMARK UNBOUND:                -0.243
REMARK SMILES O=C([O-])c1ccccc1O
REMARK SMILES IDX 4 1 9 2 5 3 8 4 6 5 7 6 2 7 1 8 3 9 10 10
REMARK H PARENT 10 11
REMARK Flexibility Score: inf
ROOT
ATOM      1  C   UNL     1     -93.645 146.883 239.205  1.00  0.00     0.039 A 
ATOM      2  C   UNL     1     -94.013 146.145 240.361  1.00  0.00     0.124 A 
ATOM      3  C   UNL     1     -94.131 148.196 239.054  1.00  0.00     0.014 A 
ATOM      4  C   UNL     1     -94.897 146.709 241.290  1.00  0.00     0.047 A 
ATOM      5  C   UNL     1     -94.994 148.750 240.001  1.00  0.00     0.001 A 
ATOM      6  C   UNL     1     -95.385 148.005 241.113  1.00  0.00     0.004 A 
ENDROOT
BRANCH   1   7
ATOM      7  C   UNL     1     -92.796 146.322 238.131  1.00  0.00     0.075 C 
ATOM      8  O   UNL     1     -93.118 146.448 236.921  1.00  0.00    -0.545 OA
ATOM      9  O   UNL     1     -91.591 145.706 238.448  1.00  0.00    -0.545 OA
ENDBRANCH   1   7
BRANCH   2  10
ATOM     10  O   UNL     1     -93.503 144.875 240.639  1.00  0.00    -0.507 OA
ATOM     11  H   UNL     1     -93.879 144.024 240.245  1.00  0.00     0.293 HD
ENDBRANCH   2  10
TORSDOF 2
ENDMDL
MODEL 3
REMARK VINA RESULT:    -3.807      1.763      2.549
REMARK INTER + INTRA:          -4.384
REMARK INTER:                  -4.167
REMARK INTRA:                  -0.217
REMARK UNBOUND:                -0.243
REMARK SMILES O=C([O-])c1ccccc1O
REMARK SMILES IDX 4 1 9 2 5 3 8 4 6 5 7 6 2 7 1 8 3 9 10 10
REMARK H PARENT 10 11
REMARK Flexibility Score: inf
ROOT
ATOM      1  C   UNL     1     -95.077 147.681 240.872  1.00  0.00     0.039 A 
ATOM      2  C   UNL     1     -95.905 146.951 241.764  1.00  0.00     0.124 A 
ATOM      3  C   UNL     1     -95.309 149.059 240.701  1.00  0.00     0.014 A 
ATOM      4  C   UNL     1     -96.971 147.598 242.404  1.00  0.00     0.047 A 
ATOM      5  C   UNL     1     -96.364 149.691 241.364  1.00  0.00     0.001 A 
ATOM      6  C   UNL     1     -97.199 148.960 242.206  1.00  0.00     0.004 A 
ENDROOT
BRANCH   1   7
ATOM      7  C   UNL     1     -93.993 147.050 240.085  1.00  0.00     0.075 C 
ATOM      8  O   UNL     1     -93.443 147.666 239.135  1.00  0.00    -0.545 OA
ATOM      9  O   UNL     1     -93.524 145.790 240.435  1.00  0.00    -0.545 OA
ENDBRANCH   1   7
BRANCH   2  10
ATOM     10  O   UNL     1     -95.687 145.606 242.067  1.00  0.00    -0.507 OA
ATOM     11  H   UNL     1     -95.512 145.265 243.002  1.00  0.00     0.293 HD
ENDBRANCH   2  10
TORSDOF 2
ENDMDL
MODEL 4
REMARK VINA RESULT:    -3.787      2.662      3.970
REMARK INTER + INTRA:          -4.362
REMARK INTER:                  -4.131
REMARK INTRA:                  -0.231
REMARK UNBOUND:                -0.243
REMARK SMILES O=C([O-])c1ccccc1O
REMARK SMILES IDX 4 1 9 2 5 3 8 4 6 5 7 6 2 7 1 8 3 9 10 10
REMARK H PARENT 10 11
REMARK Flexibility Score: inf
ROOT
ATOM      1  C   UNL     1     -95.371 148.012 240.737  1.00  0.00     0.039 A 
ATOM      2  C   UNL     1     -94.818 146.748 241.071  1.00  0.00     0.124 A 
ATOM      3  C   UNL     1     -94.906 148.674 239.584  1.00  0.00     0.014 A 
ATOM      4  C   UNL     1     -93.783 146.218 240.291  1.00  0.00     0.047 A 
ATOM      5  C   UNL     1     -93.888 148.120 238.806  1.00  0.00     0.001 A 
ATOM      6  C   UNL     1     -93.320 146.898 239.164  1.00  0.00     0.004 A 
ENDROOT
BRANCH   1   7
ATOM      7  C   UNL     1     -96.398 148.684 241.565  1.00  0.00     0.075 C 
ATOM      8  O   UNL     1     -97.157 148.018 242.317  1.00  0.00    -0.545 OA
ATOM      9  O   UNL     1     -96.488 150.071 241.571  1.00  0.00    -0.545 OA
ENDBRANCH   1   7
BRANCH   2  10
ATOM     10  O   UNL     1     -95.285 145.979 242.140  1.00  0.00    -0.507 OA
ATOM     11  H   UNL     1     -96.149 145.455 242.115  1.00  0.00     0.293 HD
ENDBRANCH   2  10
TORSDOF 2
ENDMDL
MODEL 5
REMARK VINA RESULT:    -3.755      1.109      1.215
REMARK INTER + INTRA:          -4.328
REMARK INTER:                  -4.080
REMARK INTRA:                  -0.249
REMARK UNBOUND:                -0.243
REMARK SMILES O=C([O-])c1ccccc1O
REMARK SMILES IDX 4 1 9 2 5 3 8 4 6 5 7 6 2 7 1 8 3 9 10 10
REMARK H PARENT 10 11
REMARK Flexibility Score: inf
ROOT
ATOM      1  C   UNL     1     -93.672 146.915 238.148  1.00  0.00     0.039 A 
ATOM      2  C   UNL     1     -93.524 146.423 239.471  1.00  0.00     0.124 A 
ATOM      3  C   UNL     1     -94.419 148.090 237.939  1.00  0.00     0.014 A 
ATOM      4  C   UNL     1     -94.171 147.074 240.528  1.00  0.00     0.047 A 
ATOM      5  C   UNL     1     -95.041 148.738 239.009  1.00  0.00     0.001 A 
ATOM      6  C   UNL     1     -94.926 148.226 240.300  1.00  0.00     0.004 A 
ENDROOT
BRANCH   1   7
ATOM      7  C   UNL     1     -93.100 146.229 236.967  1.00  0.00     0.075 C 
ATOM      8  O   UNL     1     -91.950 145.719 237.011  1.00  0.00    -0.545 OA
ATOM      9  O   UNL     1     -93.861 146.081 235.814  1.00  0.00    -0.545 OA
ENDBRANCH   1   7
BRANCH   2  10
ATOM     10  O   UNL     1     -92.723 145.322 239.781  1.00  0.00    -0.507 OA
ATOM     11  H   UNL     1     -92.537 145.014 240.726  1.00  0.00     0.293 HD
ENDBRANCH   2  10
TORSDOF 2
ENDMDL
MODEL 6
REMARK VINA RESULT:    -3.618      1.629      3.205
REMARK INTER + INTRA:          -4.179
REMARK INTER:                  -3.970
REMARK INTRA:                  -0.209
REMARK UNBOUND:                -0.243
REMARK SMILES O=C([O-])c1ccccc1O
REMARK SMILES IDX 4 1 9 2 5 3 8 4 6 5 7 6 2 7 1 8 3 9 10 10
REMARK H PARENT 10 11
REMARK Flexibility Score: inf
ROOT
ATOM      1  C   UNL     1     -93.539 146.868 238.261  1.00  0.00     0.039 A 
ATOM      2  C   UNL     1     -93.638 146.511 236.890  1.00  0.00     0.124 A 
ATOM      3  C   UNL     1     -94.216 148.016 238.715  1.00  0.00     0.014 A 
ATOM      4  C   UNL     1     -94.350 147.336 236.010  1.00  0.00     0.047 A 
ATOM      5  C   UNL     1     -94.938 148.816 237.826  1.00  0.00     0.001 A 
ATOM      6  C   UNL     1     -94.997 148.482 236.474  1.00  0.00     0.004 A 
ENDROOT
BRANCH   1   7
ATOM      7  C   UNL     1     -92.727 146.103 239.233  1.00  0.00     0.075 C 
ATOM      8  O   UNL     1     -91.495 145.922 239.045  1.00  0.00    -0.545 OA
ATOM      9  O   UNL     1     -93.307 145.633 240.406  1.00  0.00    -0.545 OA
ENDBRANCH   1   7
BRANCH   2  10
ATOM     10  O   UNL     1     -93.080 145.339 236.374  1.00  0.00    -0.507 OA
ATOM     11  H   UNL     1     -93.392 144.413 236.629  1.00  0.00     0.293 HD
ENDBRANCH   2  10
TORSDOF 2
ENDMDL
MODEL 7
REMARK VINA RESULT:    -3.504      2.032      3.880
REMARK INTER + INTRA:          -4.054
REMARK INTER:                  -3.805
REMARK INTRA:                  -0.250
REMARK UNBOUND:                -0.243
REMARK SMILES O=C([O-])c1ccccc1O
REMARK SMILES IDX 4 1 9 2 5 3 8 4 6 5 7 6 2 7 1 8 3 9 10 10
REMARK H PARENT 10 11
REMARK Flexibility Score: inf
ROOT
ATOM      1  C   UNL     1     -93.613 146.939 238.233  1.00  0.00     0.039 A 
ATOM      2  C   UNL     1     -92.461 146.111 238.211  1.00  0.00     0.124 A 
ATOM      3  C   UNL     1     -94.263 147.233 237.018  1.00  0.00     0.014 A 
ATOM      4  C   UNL     1     -91.958 145.657 236.986  1.00  0.00     0.047 A 
ATOM      5  C   UNL     1     -93.758 146.754 235.807  1.00  0.00     0.001 A 
ATOM      6  C   UNL     1     -92.602 145.976 235.789  1.00  0.00     0.004 A 
ENDROOT
BRANCH   1   7
ATOM      7  C   UNL     1     -94.149 147.537 239.477  1.00  0.00     0.075 C 
ATOM      8  O   UNL     1     -94.676 148.680 239.468  1.00  0.00    -0.545 OA
ATOM      9  O   UNL     1     -94.137 146.808 240.660  1.00  0.00    -0.545 OA
ENDBRANCH   1   7
BRANCH   2  10
ATOM     10  O   UNL     1     -91.812 145.691 239.375  1.00  0.00    -0.507 OA
ATOM     11  H   UNL     1     -91.830 144.739 239.712  1.00  0.00     0.293 HD
ENDBRANCH   2  10
TORSDOF 2
ENDMDL
MODEL 8
REMARK VINA RESULT:    -3.461      1.980      3.032
REMARK INTER + INTRA:          -4.008
REMARK INTER:                  -3.761
REMARK INTRA:                  -0.247
REMARK UNBOUND:                -0.243
REMARK SMILES O=C([O-])c1ccccc1O
REMARK SMILES IDX 4 1 9 2 5 3 8 4 6 5 7 6 2 7 1 8 3 9 10 10
REMARK H PARENT 10 11
REMARK Flexibility Score: inf
ROOT
ATOM      1  C   UNL     1     -93.446 147.003 238.118  1.00  0.00     0.039 A 
ATOM      2  C   UNL     1     -94.119 148.080 238.751  1.00  0.00     0.124 A 
ATOM      3  C   UNL     1     -93.651 146.787 236.741  1.00  0.00     0.014 A 
ATOM      4  C   UNL     1     -95.018 148.863 238.014  1.00  0.00     0.047 A 
ATOM      5  C   UNL     1     -94.535 147.591 236.018  1.00  0.00     0.001 A 
ATOM      6  C   UNL     1     -95.225 148.621 236.655  1.00  0.00     0.004 A 
ENDROOT
BRANCH   1   7
ATOM      7  C   UNL     1     -92.557 146.072 238.848  1.00  0.00     0.075 C 
ATOM      8  O   UNL     1     -92.886 145.614 239.974  1.00  0.00    -0.545 OA
ATOM      9  O   UNL     1     -91.374 145.637 238.262  1.00  0.00    -0.545 OA
ENDBRANCH   1   7
BRANCH   2  10
ATOM     10  O   UNL     1     -93.902 148.425 240.086  1.00  0.00    -0.507 OA
ATOM     11  H   UNL     1     -94.255 149.272 240.509  1.00  0.00     0.293 HD
ENDBRANCH   2  10
TORSDOF 2
ENDMDL
MODEL 9
REMARK VINA RESULT:    -3.450      1.046      2.458
REMARK INTER + INTRA:          -3.995
REMARK INTER:                  -3.748
REMARK INTRA:                  -0.247
REMARK UNBOUND:                -0.243
REMARK SMILES O=C([O-])c1ccccc1O
REMARK SMILES IDX 4 1 9 2 5 3 8 4 6 5 7 6 2 7 1 8 3 9 10 10
REMARK H PARENT 10 11
REMARK Flexibility Score: inf
ROOT
ATOM      1  C   UNL     1     -93.804 146.967 238.985  1.00  0.00     0.039 A 
ATOM      2  C   UNL     1     -94.544 148.158 238.763  1.00  0.00     0.124 A 
ATOM      3  C   UNL     1     -93.884 146.341 240.244  1.00  0.00     0.014 A 
ATOM      4  C   UNL     1     -95.284 148.719 239.812  1.00  0.00     0.047 A 
ATOM      5  C   UNL     1     -94.644 146.904 241.272  1.00  0.00     0.001 A 
ATOM      6  C   UNL     1     -95.335 148.096 241.060  1.00  0.00     0.004 A 
ENDROOT
BRANCH   1   7
ATOM      7  C   UNL     1     -92.923 146.366 237.959  1.00  0.00     0.075 C 
ATOM      8  O   UNL     1     -93.250 146.374 236.743  1.00  0.00    -0.545 OA
ATOM      9  O   UNL     1     -91.687 145.845 238.322  1.00  0.00    -0.545 OA
ENDBRANCH   1   7
BRANCH   2  10
ATOM     10  O   UNL     1     -94.599 148.791 237.519  1.00  0.00    -0.507 OA
ATOM     11  H   UNL     1     -94.994 149.710 237.378  1.00  0.00     0.293 HD
ENDBRANCH   2  10
TORSDOF 2
ENDMDL
