MODEL 1
REMARK VINA RESULT:    -2.704      0.000      0.000
REMARK INTER + INTRA:          -3.039
REMARK INTER:                  -3.020
REMARK INTRA:                  -0.019
REMARK UNBOUND:                -0.019
REMARK SMILES CCCC(=O)[O-]
REMARK SMILES IDX 3 1 4 2 5 3 6 4 2 5 1 6
REMARK H PARENT
REMARK Flexibility Score: inf
ROOT
ATOM      1  C   UNL     1     118.911 113.625 116.908  1.00  0.00     0.052 C 
ENDROOT
BRANCH   1   2
ATOM      2  C   UNL     1     117.580 114.289 116.735  1.00  0.00     0.041 C 
ATOM      3  O   UNL     1     116.530 113.714 117.128  1.00  0.00    -0.550 OA
ATOM      4  O   UNL     1     117.501 115.556 116.172  1.00  0.00    -0.550 OA
ENDBRANCH   1   2
BRANCH   1   5
ATOM      5  C   UNL     1     118.868 112.535 117.987  1.00  0.00     0.003 C 
ATOM      6  C   UNL     1     119.809 111.371 117.678  1.00  0.00     0.004 C 
ENDBRANCH   1   5
TORSDOF 2
ENDMDL
MODEL 2
REMARK VINA RESULT:    -2.575     12.777     13.094
REMARK INTER + INTRA:          -2.895
REMARK INTER:                  -2.889
REMARK INTRA:                  -0.006
REMARK UNBOUND:                -0.019
REMARK SMILES CCCC(=O)[O-]
REMARK SMILES IDX 3 1 4 2 5 3 6 4 2 5 1 6
REMARK H PARENT
REMARK Flexibility Score: inf
ROOT
ATOM      1  C   UNL     1     120.748 107.851 106.109  1.00  0.00     0.052 C 
ENDROOT
BRANCH   1   2
ATOM      2  C   UNL     1     120.119 106.857 105.181  1.00  0.00     0.041 C 
ATOM      3  O   UNL     1     120.381 106.889 103.949  1.00  0.00    -0.550 OA
ATOM      4  O   UNL     1     119.274 105.875 105.680  1.00  0.00    -0.550 OA
ENDBRANCH   1   2
BRANCH   1   5
ATOM      5  C   UNL     1     119.695 108.637 106.900  1.00  0.00     0.003 C 
ATOM      6  C   UNL     1     120.321 109.632 107.877  1.00  0.00     0.004 C 
ENDBRANCH   1   5
TORSDOF 2
ENDMDL
MODEL 3
REMARK VINA RESULT:    -2.542      2.843      3.679
REMARK INTER + INTRA:          -2.857
REMARK INTER:                  -2.852
REMARK INTRA:                  -0.005
REMARK UNBOUND:                -0.019
REMARK SMILES CCCC(=O)[O-]
REMARK SMILES IDX 3 1 4 2 5 3 6 4 2 5 1 6
REMARK H PARENT
REMARK Flexibility Score: inf
ROOT
ATOM      1  C   UNL     1     118.713 112.610 118.084  1.00  0.00     0.052 C 
ENDROOT
BRANCH   1   2
ATOM      2  C   UNL     1     119.982 111.863 117.810  1.00  0.00     0.041 C 
ATOM      3  O   UNL     1     119.939 110.692 117.347  1.00  0.00    -0.550 OA
ATOM      4  O   UNL     1     121.211 112.470 118.033  1.00  0.00    -0.550 OA
ENDBRANCH   1   2
BRANCH   1   5
ATOM      5  C   UNL     1     118.484 113.735 117.066  1.00  0.00     0.003 C 
ATOM      6  C   UNL     1     117.013 114.132 116.957  1.00  0.00     0.004 C 
ENDBRANCH   1   5
TORSDOF 2
ENDMDL
MODEL 4
REMARK VINA RESULT:    -2.519     12.393     13.004
REMARK INTER + INTRA:          -2.832
REMARK INTER:                  -2.821
REMARK INTRA:                  -0.012
REMARK UNBOUND:                -0.019
REMARK SMILES CCCC(=O)[O-]
REMARK SMILES IDX 3 1 4 2 5 3 6 4 2 5 1 6
REMARK H PARENT
REMARK Flexibility Score: inf
ROOT
ATOM      1  C   UNL     1     121.093 116.374 104.481  1.00  0.00     0.052 C 
ENDROOT
BRANCH   1   2
ATOM      2  C   UNL     1     120.425 117.707 104.335  1.00  0.00     0.041 C 
ATOM      3  O   UNL     1     119.168 117.783 104.287  1.00  0.00    -0.550 OA
ATOM      4  O   UNL     1     121.187 118.867 104.288  1.00  0.00    -0.550 OA
ENDBRANCH   1   2
BRANCH   1   5
ATOM      5  C   UNL     1     120.516 115.573 105.655  1.00  0.00     0.003 C 
ATOM      6  C   UNL     1     120.761 114.071 105.512  1.00  0.00     0.004 C 
ENDBRANCH   1   5
TORSDOF 2
ENDMDL
MODEL 5
REMARK VINA RESULT:    -2.506      2.187      3.373
REMARK INTER + INTRA:          -2.818
REMARK INTER:                  -2.804
REMARK INTRA:                  -0.014
REMARK UNBOUND:                -0.019
REMARK SMILES CCCC(=O)[O-]
REMARK SMILES IDX 3 1 4 2 5 3 6 4 2 5 1 6
REMARK H PARENT
REMARK Flexibility Score: inf
ROOT
ATOM      1  C   UNL     1     117.876 114.249 116.685  1.00  0.00     0.052 C 
ENDROOT
BRANCH   1   2
ATOM      2  C   UNL     1     118.721 113.196 117.334  1.00  0.00     0.041 C 
ATOM      3  O   UNL     1     118.187 112.309 118.052  1.00  0.00    -0.550 OA
ATOM      4  O   UNL     1     120.093 113.173 117.118  1.00  0.00    -0.550 OA
ENDBRANCH   1   2
BRANCH   1   5
ATOM      5  C   UNL     1     118.553 114.835 115.439  1.00  0.00     0.003 C 
ATOM      6  C   UNL     1     118.139 116.283 115.177  1.00  0.00     0.004 C 
ENDBRANCH   1   5
TORSDOF 2
ENDMDL
MODEL 6
REMARK VINA RESULT:    -2.438      2.279      3.015
REMARK INTER + INTRA:          -2.742
REMARK INTER:                  -2.727
REMARK INTRA:                  -0.015
REMARK UNBOUND:                -0.019
REMARK SMILES CCCC(=O)[O-]
REMARK SMILES IDX 3 1 4 2 5 3 6 4 2 5 1 6
REMARK H PARENT
REMARK Flexibility Score: inf
ROOT
ATOM      1  C   UNL     1     118.830 114.491 115.393  1.00  0.00     0.052 C 
ENDROOT
BRANCH   1   2
ATOM      2  C   UNL     1     118.747 115.735 114.561  1.00  0.00     0.041 C 
ATOM      3  O   UNL     1     118.333 116.810 115.070  1.00  0.00    -0.550 OA
ATOM      4  O   UNL     1     119.160 115.715 113.235  1.00  0.00    -0.550 OA
ENDBRANCH   1   2
BRANCH   1   5
ATOM      5  C   UNL     1     117.761 114.470 116.493  1.00  0.00     0.003 C 
ATOM      6  C   UNL     1     118.159 113.586 117.674  1.00  0.00     0.004 C 
ENDBRANCH   1   5
TORSDOF 2
ENDMDL
MODEL 7
REMARK VINA RESULT:    -2.430      9.026      9.292
REMARK INTER + INTRA:          -2.733
REMARK INTER:                  -2.724
REMARK INTRA:                  -0.009
REMARK UNBOUND:                -0.019
REMARK SMILES CCCC(=O)[O-]
REMARK SMILES IDX 3 1 4 2 5 3 6 4 2 5 1 6
REMARK H PARENT
REMARK Flexibility Score: inf
ROOT
ATOM      1  C   UNL     1     120.149 109.621 109.441  1.00  0.00     0.052 C 
ENDROOT
BRANCH   1   2
ATOM      2  C   UNL     1     120.050 109.964 107.986  1.00  0.00     0.041 C 
ATOM      3  O   UNL     1     120.042 111.169 107.620  1.00  0.00    -0.550 OA
ATOM      4  O   UNL     1     120.003 108.955 107.034  1.00  0.00    -0.550 OA
ENDBRANCH   1   2
BRANCH   1   5
ATOM      5  C   UNL     1     119.076 110.339 110.270  1.00  0.00     0.003 C 
ATOM      6  C   UNL     1     119.341 110.246 111.772  1.00  0.00     0.004 C 
ENDBRANCH   1   5
TORSDOF 2
ENDMDL
MODEL 8
REMARK VINA RESULT:    -2.404      4.175      5.135
REMARK INTER + INTRA:          -2.704
REMARK INTER:                  -2.665
REMARK INTRA:                  -0.039
REMARK UNBOUND:                -0.019
REMARK SMILES CCCC(=O)[O-]
REMARK SMILES IDX 3 1 4 2 5 3 6 4 2 5 1 6
REMARK H PARENT
REMARK Flexibility Score: inf
ROOT
ATOM      1  C   UNL     1     121.431 111.350 117.888  1.00  0.00     0.052 C 
ENDROOT
BRANCH   1   2
ATOM      2  C   UNL     1     121.766 110.780 119.232  1.00  0.00     0.041 C 
ATOM      3  O   UNL     1     122.256 109.623 119.325  1.00  0.00    -0.550 OA
ATOM      4  O   UNL     1     121.571 111.539 120.379  1.00  0.00    -0.550 OA
ENDBRANCH   1   2
BRANCH   1   5
ATOM      5  C   UNL     1     119.965 111.103 117.513  1.00  0.00     0.003 C 
ATOM      6  C   UNL     1     119.045 112.228 117.984  1.00  0.00     0.004 C 
ENDBRANCH   1   5
TORSDOF 2
ENDMDL
MODEL 9
REMARK VINA RESULT:    -2.387      7.045      7.317
REMARK INTER + INTRA:          -2.685
REMARK INTER:                  -2.654
REMARK INTRA:                  -0.031
REMARK UNBOUND:                -0.019
REMARK SMILES CCCC(=O)[O-]
REMARK SMILES IDX 3 1 4 2 5 3 6 4 2 5 1 6
REMARK H PARENT
REMARK Flexibility Score: inf
ROOT
ATOM      1  C   UNL     1     119.101 110.288 111.510  1.00  0.00     0.052 C 
ENDROOT
BRANCH   1   2
ATOM      2  C   UNL     1     119.428 110.568 110.075  1.00  0.00     0.041 C 
ATOM      3  O   UNL     1     119.518 111.757 109.668  1.00  0.00    -0.550 OA
ATOM      4  O   UNL     1     119.667 109.519 109.197  1.00  0.00    -0.550 OA
ENDBRANCH   1   2
BRANCH   1   5
ATOM      5  C   UNL     1     120.359 109.977 112.330  1.00  0.00     0.003 C 
ATOM      6  C   UNL     1     120.737 111.118 113.274  1.00  0.00     0.004 C 
ENDBRANCH   1   5
TORSDOF 2
ENDMDL
