MODEL 1
REMARK VINA RESULT:    -7.654      0.000      0.000
REMARK INTER + INTRA:         -10.330
REMARK INTER:                  -9.667
REMARK INTRA:                  -0.663
REMARK UNBOUND:                -0.663
REMARK SMILES CC(C)[C@@H](C)C=C[C@H](C)[C@H]1CC[C@@H]2C3=CC=C4C[C@@H](O)CC[C@]4(C)[C@@H]3CC[C@@]21C
REMARK SMILES IDX 8 1 9 2 7 3 6 4 4 5 5 6 2 7 1 8 3 9 10 10 11 11 28 12 12 13
REMARK SMILES IDX 13 14 27 15 29 16 14 17 26 18 25 19 15 20 23 21 16 22 17 23
REMARK SMILES IDX 22 24 24 25 18 26 21 27 19 28 20 29
REMARK H PARENT 20 30
REMARK Flexibility Score: inf
ROOT
ATOM      1  C   UNL     1      45.724   6.510 114.044  1.00  0.00     0.012 C 
ATOM      2  C   UNL     1      44.511   5.652 113.640  1.00  0.00     0.012 C 
ENDROOT
BRANCH   1   3
ATOM      3  C   UNL     1      46.703   6.547 112.877  1.00  0.00    -0.028 C 
ATOM      4  C   UNL     1      48.047   6.462 112.964  1.00  0.00    -0.028 C 
BRANCH   4   5
ATOM      5  C   UNL     1      48.940   6.492 111.737  1.00  0.00     0.011 C 
ATOM      6  C   UNL     1      48.262   7.304 110.620  1.00  0.00     0.012 C 
BRANCH   5   7
ATOM      7  C   UNL     1      49.349   5.058 111.282  1.00  0.00    -0.011 C 
ATOM      8  C   UNL     1      50.845   4.789 111.513  1.00  0.00     0.008 C 
ATOM      9  C   UNL     1      48.527   3.985 112.019  1.00  0.00     0.008 C 
ENDBRANCH   5   7
ENDBRANCH   4   5
ENDBRANCH   1   3
BRANCH   1  10
ATOM     10  C   UNL     1      45.362   7.920 114.660  1.00  0.00     0.002 C 
ATOM     11  C   UNL     1      43.849   8.151 114.716  1.00  0.00     0.005 C 
ATOM     12  C   UNL     1      45.867   8.247 116.114  1.00  0.00    -0.023 C 
ATOM     13  C   UNL     1      43.415   7.942 116.160  1.00  0.00     0.009 C 
ATOM     14  C   UNL     1      44.681   7.838 117.046  1.00  0.00     0.021 C 
ATOM     15  C   UNL     1      46.103   9.794 116.228  1.00  0.00     0.008 C 
ATOM     16  C   UNL     1      47.202   7.513 116.425  1.00  0.00     0.012 C 
ATOM     17  C   UNL     1      44.583   8.678 118.324  1.00  0.00    -0.063 C 
ATOM     18  C   UNL     1      46.294  10.347 117.668  1.00  0.00     0.009 C 
ATOM     19  C   UNL     1      45.828   9.395 118.796  1.00  0.00     0.025 C 
ATOM     20  C   UNL     1      43.409   8.873 118.949  1.00  0.00    -0.000 C 
ATOM     21  C   UNL     1      45.695  10.025 120.247  1.00  0.00    -0.005 C 
ATOM     22  C   UNL     1      43.241   9.929 119.957  1.00  0.00    -0.000 C 
ATOM     23  C   UNL     1      44.290  10.576 120.479  1.00  0.00    -0.061 C 
ATOM     24  C   UNL     1      46.770  11.133 120.495  1.00  0.00     0.014 C 
ATOM     25  C   UNL     1      45.914   8.890 121.286  1.00  0.00     0.017 C 
ATOM     26  C   UNL     1      44.035  11.571 121.593  1.00  0.00     0.063 C 
ATOM     27  C   UNL     1      46.523  11.949 121.769  1.00  0.00     0.033 C 
ATOM     28  C   UNL     1      45.144  12.621 121.704  1.00  0.00     0.118 C 
BRANCH  28  29
ATOM     29  O   UNL     1      44.934  13.389 122.860  1.00  0.00    -0.393 OA
ATOM     30  H   UNL     1      45.192  12.822 123.632  1.00  0.00     0.210 HD
ENDBRANCH  28  29
ENDBRANCH   1  10
TORSDOF 5
ENDMDL
MODEL 2
REMARK VINA RESULT:    -6.965      6.037      8.543
REMARK INTER + INTRA:          -9.460
REMARK INTER:                  -8.484
REMARK INTRA:                  -0.976
REMARK UNBOUND:                -0.663
REMARK SMILES CC(C)[C@@H](C)C=C[C@H](C)[C@H]1CC[C@@H]2C3=CC=C4C[C@@H](O)CC[C@]4(C)[C@@H]3CC[C@@]21C
REMARK SMILES IDX 8 1 9 2 7 3 6 4 4 5 5 6 2 7 1 8 3 9 10 10 11 11 28 12 12 13
REMARK SMILES IDX 13 14 27 15 29 16 14 17 26 18 25 19 15 20 23 21 16 22 17 23
REMARK SMILES IDX 22 24 24 25 18 26 21 27 19 28 20 29
REMARK H PARENT 20 30
REMARK Flexibility Score: inf
ROOT
ATOM      1  C   UNL     1      39.342  13.054 111.781  1.00  0.00     0.012 C 
ATOM      2  C   UNL     1      38.826  14.310 112.506  1.00  0.00     0.012 C 
ENDROOT
BRANCH   1   3
ATOM      3  C   UNL     1      38.835  13.081 110.343  1.00  0.00    -0.028 C 
ATOM      4  C   UNL     1      39.438  12.514 109.278  1.00  0.00    -0.028 C 
BRANCH   4   5
ATOM      5  C   UNL     1      38.844  12.581 107.883  1.00  0.00     0.011 C 
ATOM      6  C   UNL     1      37.889  11.394 107.667  1.00  0.00     0.012 C 
BRANCH   5   7
ATOM      7  C   UNL     1      39.948  12.678 106.787  1.00  0.00    -0.011 C 
ATOM      8  C   UNL     1      41.357  12.764 107.397  1.00  0.00     0.008 C 
ATOM      9  C   UNL     1      39.889  11.474 105.830  1.00  0.00     0.008 C 
ENDBRANCH   5   7
ENDBRANCH   4   5
ENDBRANCH   1   3
BRANCH   1  10
ATOM     10  C   UNL     1      40.892  12.788 111.939  1.00  0.00     0.002 C 
ATOM     11  C   UNL     1      41.551  13.784 112.898  1.00  0.00     0.005 C 
ATOM     12  C   UNL     1      41.354  11.375 112.456  1.00  0.00    -0.023 C 
ATOM     13  C   UNL     1      41.776  13.058 114.217  1.00  0.00     0.009 C 
ATOM     14  C   UNL     1      41.501  11.548 114.003  1.00  0.00     0.021 C 
ATOM     15  C   UNL     1      42.758  11.048 111.839  1.00  0.00     0.008 C 
ATOM     16  C   UNL     1      40.351  10.265 112.034  1.00  0.00     0.012 C 
ATOM     17  C   UNL     1      42.578  10.654 114.624  1.00  0.00    -0.063 C 
ATOM     18  C   UNL     1      43.518   9.851 112.476  1.00  0.00     0.009 C 
ATOM     19  C   UNL     1      42.992   9.413 113.864  1.00  0.00     0.025 C 
ATOM     20  C   UNL     1      43.224  11.008 115.749  1.00  0.00    -0.000 C 
ATOM     21  C   UNL     1      43.919   8.429 114.697  1.00  0.00    -0.005 C 
ATOM     22  C   UNL     1      44.467  10.344 116.162  1.00  0.00    -0.000 C 
ATOM     23  C   UNL     1      44.882   9.206 115.590  1.00  0.00    -0.061 C 
ATOM     24  C   UNL     1      44.701   7.447 113.764  1.00  0.00     0.014 C 
ATOM     25  C   UNL     1      43.007   7.591 115.636  1.00  0.00     0.017 C 
ATOM     26  C   UNL     1      46.116   8.530 116.152  1.00  0.00     0.063 C 
ATOM     27  C   UNL     1      45.797   6.659 114.491  1.00  0.00     0.033 C 
ATOM     28  C   UNL     1      46.806   7.626 115.127  1.00  0.00     0.118 C 
BRANCH  28  29
ATOM     29  O   UNL     1      47.823   6.900 115.767  1.00  0.00    -0.393 OA
ATOM     30  H   UNL     1      48.514   7.557 116.041  1.00  0.00     0.210 HD
ENDBRANCH  28  29
ENDBRANCH   1  10
TORSDOF 5
ENDMDL
MODEL 3
REMARK VINA RESULT:    -6.590      6.546      9.509
REMARK INTER + INTRA:          -8.987
REMARK INTER:                  -8.286
REMARK INTRA:                  -0.700
REMARK UNBOUND:                -0.663
REMARK SMILES CC(C)[C@@H](C)C=C[C@H](C)[C@H]1CC[C@@H]2C3=CC=C4C[C@@H](O)CC[C@]4(C)[C@@H]3CC[C@@]21C
REMARK SMILES IDX 8 1 9 2 7 3 6 4 4 5 5 6 2 7 1 8 3 9 10 10 11 11 28 12 12 13
REMARK SMILES IDX 13 14 27 15 29 16 14 17 26 18 25 19 15 20 23 21 16 22 17 23
REMARK SMILES IDX 22 24 24 25 18 26 21 27 19 28 20 29
REMARK H PARENT 20 30
REMARK Flexibility Score: inf
ROOT
ATOM      1  C   UNL     1      39.270  13.099 111.953  1.00  0.00     0.012 C 
ATOM      2  C   UNL     1      38.801  14.392 112.644  1.00  0.00     0.012 C 
ENDROOT
BRANCH   1   3
ATOM      3  C   UNL     1      38.680  13.059 110.547  1.00  0.00    -0.028 C 
ATOM      4  C   UNL     1      37.369  13.096 110.235  1.00  0.00    -0.028 C 
BRANCH   4   5
ATOM      5  C   UNL     1      36.879  13.068 108.799  1.00  0.00     0.011 C 
ATOM      6  C   UNL     1      36.657  14.506 108.297  1.00  0.00     0.012 C 
BRANCH   5   7
ATOM      7  C   UNL     1      35.617  12.167 108.634  1.00  0.00    -0.011 C 
ATOM      8  C   UNL     1      35.033  11.745 109.992  1.00  0.00     0.008 C 
ATOM      9  C   UNL     1      34.525  12.883 107.818  1.00  0.00     0.008 C 
ENDBRANCH   5   7
ENDBRANCH   4   5
ENDBRANCH   1   3
BRANCH   1  10
ATOM     10  C   UNL     1      40.825  12.831 112.035  1.00  0.00     0.002 C 
ATOM     11  C   UNL     1      41.528  13.812 112.977  1.00  0.00     0.005 C 
ATOM     12  C   UNL     1      41.311  11.411 112.506  1.00  0.00    -0.023 C 
ATOM     13  C   UNL     1      41.815  13.065 114.273  1.00  0.00     0.009 C 
ATOM     14  C   UNL     1      41.529  11.559 114.047  1.00  0.00     0.021 C 
ATOM     15  C   UNL     1      42.684  11.094 111.819  1.00  0.00     0.008 C 
ATOM     16  C   UNL     1      40.289  10.307 112.113  1.00  0.00     0.012 C 
ATOM     17  C   UNL     1      42.634  10.655 114.603  1.00  0.00    -0.063 C 
ATOM     18  C   UNL     1      43.473   9.888 112.401  1.00  0.00     0.009 C 
ATOM     19  C   UNL     1      43.012   9.427 113.805  1.00  0.00     0.025 C 
ATOM     20  C   UNL     1      43.332  10.991 115.702  1.00  0.00    -0.000 C 
ATOM     21  C   UNL     1      43.976   8.430 114.577  1.00  0.00    -0.005 C 
ATOM     22  C   UNL     1      44.593  10.322 116.046  1.00  0.00    -0.000 C 
ATOM     23  C   UNL     1      44.981   9.194 115.436  1.00  0.00    -0.061 C 
ATOM     24  C   UNL     1      44.714   7.464 113.593  1.00  0.00     0.014 C 
ATOM     25  C   UNL     1      43.110   7.577 115.544  1.00  0.00     0.017 C 
ATOM     26  C   UNL     1      46.239   8.510 115.930  1.00  0.00     0.063 C 
ATOM     27  C   UNL     1      45.844   6.666 114.255  1.00  0.00     0.033 C 
ATOM     28  C   UNL     1      46.880   7.622 114.859  1.00  0.00     0.118 C 
BRANCH  28  29
ATOM     29  O   UNL     1      47.926   6.887 115.439  1.00  0.00    -0.393 OA
ATOM     30  H   UNL     1      48.736   7.459 115.398  1.00  0.00     0.210 HD
ENDBRANCH  28  29
ENDBRANCH   1  10
TORSDOF 5
ENDMDL
MODEL 4
REMARK VINA RESULT:    -6.536      3.388      8.945
REMARK INTER + INTRA:          -8.919
REMARK INTER:                  -8.107
REMARK INTRA:                  -0.812
REMARK UNBOUND:                -0.663
REMARK SMILES CC(C)[C@@H](C)C=C[C@H](C)[C@H]1CC[C@@H]2C3=CC=C4C[C@@H](O)CC[C@]4(C)[C@@H]3CC[C@@]21C
REMARK SMILES IDX 8 1 9 2 7 3 6 4 4 5 5 6 2 7 1 8 3 9 10 10 11 11 28 12 12 13
REMARK SMILES IDX 13 14 27 15 29 16 14 17 26 18 25 19 15 20 23 21 16 22 17 23
REMARK SMILES IDX 22 24 24 25 18 26 21 27 19 28 20 29
REMARK H PARENT 20 30
REMARK Flexibility Score: inf
ROOT
ATOM      1  C   UNL     1      43.983  10.172 116.660  1.00  0.00     0.012 C 
ATOM      2  C   UNL     1      43.009  10.741 115.612  1.00  0.00     0.012 C 
ENDROOT
BRANCH   1   3
ATOM      3  C   UNL     1      43.342  10.300 118.038  1.00  0.00    -0.028 C 
ATOM      4  C   UNL     1      43.995  10.319 119.218  1.00  0.00    -0.028 C 
BRANCH   4   5
ATOM      5  C   UNL     1      43.268  10.468 120.541  1.00  0.00     0.011 C 
ATOM      6  C   UNL     1      41.856   9.867 120.429  1.00  0.00     0.012 C 
BRANCH   5   7
ATOM      7  C   UNL     1      43.260  11.946 121.036  1.00  0.00    -0.011 C 
ATOM      8  C   UNL     1      44.677  12.543 121.080  1.00  0.00     0.008 C 
ATOM      9  C   UNL     1      42.372  12.828 120.140  1.00  0.00     0.008 C 
ENDBRANCH   5   7
ENDBRANCH   4   5
ENDBRANCH   1   3
BRANCH   1  10
ATOM     10  C   UNL     1      44.558   8.739 116.319  1.00  0.00     0.002 C 
ATOM     11  C   UNL     1      43.839   8.100 115.128  1.00  0.00     0.005 C 
ATOM     12  C   UNL     1      46.087   8.616 115.973  1.00  0.00    -0.023 C 
ATOM     13  C   UNL     1      44.760   8.232 113.923  1.00  0.00     0.009 C 
ATOM     14  C   UNL     1      46.149   8.714 114.413  1.00  0.00     0.021 C 
ATOM     15  C   UNL     1      46.593   7.201 116.421  1.00  0.00     0.008 C 
ATOM     16  C   UNL     1      46.921   9.702 116.710  1.00  0.00     0.012 C 
ATOM     17  C   UNL     1      47.305   7.925 113.791  1.00  0.00    -0.063 C 
ATOM     18  C   UNL     1      47.985   6.774 115.877  1.00  0.00     0.009 C 
ATOM     19  C   UNL     1      48.492   7.599 114.670  1.00  0.00     0.025 C 
ATOM     20  C   UNL     1      47.231   7.435 112.541  1.00  0.00    -0.000 C 
ATOM     21  C   UNL     1      49.735   7.008 113.878  1.00  0.00    -0.005 C 
ATOM     22  C   UNL     1      48.167   6.410 112.061  1.00  0.00    -0.000 C 
ATOM     23  C   UNL     1      49.278   6.098 112.740  1.00  0.00    -0.061 C 
ATOM     24  C   UNL     1      50.718   6.251 114.830  1.00  0.00     0.014 C 
ATOM     25  C   UNL     1      50.499   8.196 113.229  1.00  0.00     0.017 C 
ATOM     26  C   UNL     1      50.245   5.112 112.118  1.00  0.00     0.063 C 
ATOM     27  C   UNL     1      51.788   5.444 114.085  1.00  0.00     0.033 C 
ATOM     28  C   UNL     1      51.123   4.415 113.161  1.00  0.00     0.118 C 
BRANCH  28  29
ATOM     29  O   UNL     1      52.106   3.660 112.503  1.00  0.00    -0.393 OA
ATOM     30  H   UNL     1      52.973   3.880 112.933  1.00  0.00     0.210 HD
ENDBRANCH  28  29
ENDBRANCH   1  10
TORSDOF 5
ENDMDL
MODEL 5
REMARK VINA RESULT:    -6.522      8.100     11.361
REMARK INTER + INTRA:          -8.901
REMARK INTER:                  -8.502
REMARK INTRA:                  -0.399
REMARK UNBOUND:                -0.663
REMARK SMILES CC(C)[C@@H](C)C=C[C@H](C)[C@H]1CC[C@@H]2C3=CC=C4C[C@@H](O)CC[C@]4(C)[C@@H]3CC[C@@]21C
REMARK SMILES IDX 8 1 9 2 7 3 6 4 4 5 5 6 2 7 1 8 3 9 10 10 11 11 28 12 12 13
REMARK SMILES IDX 13 14 27 15 29 16 14 17 26 18 25 19 15 20 23 21 16 22 17 23
REMARK SMILES IDX 22 24 24 25 18 26 21 27 19 28 20 29
REMARK H PARENT 20 30
REMARK Flexibility Score: inf
ROOT
ATOM      1  C   UNL     1      42.359  12.493 114.366  1.00  0.00     0.012 C 
ATOM      2  C   UNL     1      42.298  13.292 115.681  1.00  0.00     0.012 C 
ENDROOT
BRANCH   1   3
ATOM      3  C   UNL     1      42.563  11.020 114.703  1.00  0.00    -0.028 C 
ATOM      4  C   UNL     1      43.499  10.517 115.533  1.00  0.00    -0.028 C 
BRANCH   4   5
ATOM      5  C   UNL     1      43.613   9.031 115.818  1.00  0.00     0.011 C 
ATOM      6  C   UNL     1      43.541   8.786 117.336  1.00  0.00     0.012 C 
BRANCH   5   7
ATOM      7  C   UNL     1      44.884   8.410 115.163  1.00  0.00    -0.011 C 
ATOM      8  C   UNL     1      44.834   8.489 113.628  1.00  0.00     0.008 C 
ATOM      9  C   UNL     1      46.163   9.107 115.660  1.00  0.00     0.008 C 
ENDBRANCH   5   7
ENDBRANCH   4   5
ENDBRANCH   1   3
BRANCH   1  10
ATOM     10  C   UNL     1      41.183  12.792 113.354  1.00  0.00     0.002 C 
ATOM     11  C   UNL     1      40.771  14.267 113.372  1.00  0.00     0.005 C 
ATOM     12  C   UNL     1      41.410  12.462 111.833  1.00  0.00    -0.023 C 
ATOM     13  C   UNL     1      41.366  14.915 112.129  1.00  0.00     0.009 C 
ATOM     14  C   UNL     1      41.924  13.800 111.210  1.00  0.00     0.021 C 
ATOM     15  C   UNL     1      40.030  12.089 111.187  1.00  0.00     0.008 C 
ATOM     16  C   UNL     1      42.384  11.263 111.656  1.00  0.00     0.012 C 
ATOM     17  C   UNL     1      41.529  13.989 109.741  1.00  0.00    -0.063 C 
ATOM     18  C   UNL     1      39.997  12.044 109.634  1.00  0.00     0.009 C 
ATOM     19  C   UNL     1      41.183  12.755 108.938  1.00  0.00     0.025 C 
ATOM     20  C   UNL     1      41.381  15.212 109.204  1.00  0.00    -0.000 C 
ATOM     21  C   UNL     1      41.036  13.022 107.380  1.00  0.00    -0.005 C 
ATOM     22  C   UNL     1      40.689  15.410 107.924  1.00  0.00    -0.000 C 
ATOM     23  C   UNL     1      40.396  14.383 107.116  1.00  0.00    -0.061 C 
ATOM     24  C   UNL     1      40.227  11.885 106.675  1.00  0.00     0.014 C 
ATOM     25  C   UNL     1      42.462  13.065 106.764  1.00  0.00     0.017 C 
ATOM     26  C   UNL     1      39.782  14.687 105.765  1.00  0.00     0.063 C 
ATOM     27  C   UNL     1      39.833  12.223 105.231  1.00  0.00     0.033 C 
ATOM     28  C   UNL     1      38.989  13.504 105.202  1.00  0.00     0.118 C 
BRANCH  28  29
ATOM     29  O   UNL     1      38.608  13.793 103.883  1.00  0.00    -0.393 OA
ATOM     30  H   UNL     1      37.827  14.404 103.937  1.00  0.00     0.210 HD
ENDBRANCH  28  29
ENDBRANCH   1  10
TORSDOF 5
ENDMDL
MODEL 6
REMARK VINA RESULT:    -6.477      9.360     11.932
REMARK INTER + INTRA:          -8.844
REMARK INTER:                  -8.112
REMARK INTRA:                  -0.732
REMARK UNBOUND:                -0.663
REMARK SMILES CC(C)[C@@H](C)C=C[C@H](C)[C@H]1CC[C@@H]2C3=CC=C4C[C@@H](O)CC[C@]4(C)[C@@H]3CC[C@@]21C
REMARK SMILES IDX 8 1 9 2 7 3 6 4 4 5 5 6 2 7 1 8 3 9 10 10 11 11 28 12 12 13
REMARK SMILES IDX 13 14 27 15 29 16 14 17 26 18 25 19 15 20 23 21 16 22 17 23
REMARK SMILES IDX 22 24 24 25 18 26 21 27 19 28 20 29
REMARK H PARENT 20 30
REMARK Flexibility Score: inf
ROOT
ATOM      1  C   UNL     1      42.233  12.874 113.494  1.00  0.00     0.012 C 
ATOM      2  C   UNL     1      41.703  13.603 114.742  1.00  0.00     0.012 C 
ENDROOT
BRANCH   1   3
ATOM      3  C   UNL     1      42.609  11.450 113.887  1.00  0.00    -0.028 C 
ATOM      4  C   UNL     1      43.037  11.047 115.101  1.00  0.00    -0.028 C 
BRANCH   4   5
ATOM      5  C   UNL     1      43.371   9.598 115.401  1.00  0.00     0.011 C 
ATOM      6  C   UNL     1      44.677   9.523 116.211  1.00  0.00     0.012 C 
BRANCH   5   7
ATOM      7  C   UNL     1      43.410   8.731 114.106  1.00  0.00    -0.011 C 
ATOM      8  C   UNL     1      44.843   8.556 113.577  1.00  0.00     0.008 C 
ATOM      9  C   UNL     1      42.791   7.343 114.348  1.00  0.00     0.008 C 
ENDBRANCH   5   7
ENDBRANCH   4   5
ENDBRANCH   1   3
BRANCH   1  10
ATOM     10  C   UNL     1      41.313  12.996 112.215  1.00  0.00     0.002 C 
ATOM     11  C   UNL     1      39.919  13.528 112.559  1.00  0.00     0.005 C 
ATOM     12  C   UNL     1      41.805  13.907 111.031  1.00  0.00    -0.023 C 
ATOM     13  C   UNL     1      39.879  14.991 112.139  1.00  0.00     0.009 C 
ATOM     14  C   UNL     1      41.146  15.299 111.303  1.00  0.00     0.021 C 
ATOM     15  C   UNL     1      41.246  13.328 109.684  1.00  0.00     0.008 C 
ATOM     16  C   UNL     1      43.357  13.943 110.954  1.00  0.00     0.012 C 
ATOM     17  C   UNL     1      40.839  16.095 110.030  1.00  0.00    -0.063 C 
ATOM     18  C   UNL     1      41.355  14.261 108.446  1.00  0.00     0.009 C 
ATOM     19  C   UNL     1      41.612  15.751 108.777  1.00  0.00     0.025 C 
ATOM     20  C   UNL     1      39.840  16.994 109.987  1.00  0.00    -0.000 C 
ATOM     21  C   UNL     1      41.408  16.787 107.591  1.00  0.00    -0.005 C 
ATOM     22  C   UNL     1      39.324  17.507 108.711  1.00  0.00    -0.000 C 
ATOM     23  C   UNL     1      39.973  17.305 107.557  1.00  0.00    -0.061 C 
ATOM     24  C   UNL     1      41.805  16.168 106.211  1.00  0.00     0.014 C 
ATOM     25  C   UNL     1      42.326  18.012 107.861  1.00  0.00     0.017 C 
ATOM     26  C   UNL     1      39.429  17.964 106.305  1.00  0.00     0.063 C 
ATOM     27  C   UNL     1      41.383  17.028 105.013  1.00  0.00     0.033 C 
ATOM     28  C   UNL     1      39.863  17.240 105.028  1.00  0.00     0.118 C 
BRANCH  28  29
ATOM     29  O   UNL     1      39.478  18.003 103.915  1.00  0.00    -0.393 OA
ATOM     30  H   UNL     1      40.283  18.103 103.343  1.00  0.00     0.210 HD
ENDBRANCH  28  29
ENDBRANCH   1  10
TORSDOF 5
ENDMDL
MODEL 7
REMARK VINA RESULT:    -6.309      3.486      9.123
REMARK INTER + INTRA:          -8.632
REMARK INTER:                  -8.357
REMARK INTRA:                  -0.275
REMARK UNBOUND:                -0.663
REMARK SMILES CC(C)[C@@H](C)C=C[C@H](C)[C@H]1CC[C@@H]2C3=CC=C4C[C@@H](O)CC[C@]4(C)[C@@H]3CC[C@@]21C
REMARK SMILES IDX 8 1 9 2 7 3 6 4 4 5 5 6 2 7 1 8 3 9 10 10 11 11 28 12 12 13
REMARK SMILES IDX 13 14 27 15 29 16 14 17 26 18 25 19 15 20 23 21 16 22 17 23
REMARK SMILES IDX 22 24 24 25 18 26 21 27 19 28 20 29
REMARK H PARENT 20 30
REMARK Flexibility Score: inf
ROOT
ATOM      1  C   UNL     1      44.043   8.660 117.150  1.00  0.00     0.012 C 
ATOM      2  C   UNL     1      44.599   7.656 118.176  1.00  0.00     0.012 C 
ENDROOT
BRANCH   1   3
ATOM      3  C   UNL     1      43.368   9.800 117.903  1.00  0.00    -0.028 C 
ATOM      4  C   UNL     1      43.386   9.990 119.239  1.00  0.00    -0.028 C 
BRANCH   4   5
ATOM      5  C   UNL     1      42.695  11.170 119.897  1.00  0.00     0.011 C 
ATOM      6  C   UNL     1      43.733  12.248 120.252  1.00  0.00     0.012 C 
BRANCH   5   7
ATOM      7  C   UNL     1      41.834  10.730 121.120  1.00  0.00    -0.011 C 
ATOM      8  C   UNL     1      41.146   9.376 120.879  1.00  0.00     0.008 C 
ATOM      9  C   UNL     1      42.688  10.638 122.397  1.00  0.00     0.008 C 
ENDBRANCH   5   7
ENDBRANCH   4   5
ENDBRANCH   1   3
BRANCH   1  10
ATOM     10  C   UNL     1      45.073   9.109 116.038  1.00  0.00     0.002 C 
ATOM     11  C   UNL     1      46.046  10.173 116.553  1.00  0.00     0.005 C 
ATOM     12  C   UNL     1      45.993   8.009 115.390  1.00  0.00    -0.023 C 
ATOM     13  C   UNL     1      47.373   9.476 116.823  1.00  0.00     0.009 C 
ATOM     14  C   UNL     1      47.307   8.044 116.236  1.00  0.00     0.021 C 
ATOM     15  C   UNL     1      46.319   8.431 113.915  1.00  0.00     0.008 C 
ATOM     16  C   UNL     1      45.287   6.624 115.369  1.00  0.00     0.012 C 
ATOM     17  C   UNL     1      48.562   7.668 115.443  1.00  0.00    -0.063 C 
ATOM     18  C   UNL     1      47.465   7.643 113.221  1.00  0.00     0.009 C 
ATOM     19  C   UNL     1      48.384   6.851 114.182  1.00  0.00     0.025 C 
ATOM     20  C   UNL     1      49.775   8.139 115.781  1.00  0.00    -0.000 C 
ATOM     21  C   UNL     1      49.744   6.303 113.574  1.00  0.00    -0.005 C 
ATOM     22  C   UNL     1      50.912   8.068 114.854  1.00  0.00    -0.000 C 
ATOM     23  C   UNL     1      50.870   7.320 113.743  1.00  0.00    -0.061 C 
ATOM     24  C   UNL     1      49.583   5.903 112.071  1.00  0.00     0.014 C 
ATOM     25  C   UNL     1      50.153   5.037 114.378  1.00  0.00     0.017 C 
ATOM     26  C   UNL     1      52.125   7.216 112.902  1.00  0.00     0.063 C 
ATOM     27  C   UNL     1      50.917   5.618 111.370  1.00  0.00     0.033 C 
ATOM     28  C   UNL     1      51.825   6.853 111.445  1.00  0.00     0.118 C 
BRANCH  28  29
ATOM     29  O   UNL     1      53.033   6.597 110.778  1.00  0.00    -0.393 OA
ATOM     30  H   UNL     1      53.020   5.639 110.518  1.00  0.00     0.210 HD
ENDBRANCH  28  29
ENDBRANCH   1  10
TORSDOF 5
ENDMDL
MODEL 8
REMARK VINA RESULT:    -6.186      2.032      2.762
REMARK INTER + INTRA:          -8.476
REMARK INTER:                  -7.588
REMARK INTRA:                  -0.888
REMARK UNBOUND:                -0.663
REMARK SMILES CC(C)[C@@H](C)C=C[C@H](C)[C@H]1CC[C@@H]2C3=CC=C4C[C@@H](O)CC[C@]4(C)[C@@H]3CC[C@@]21C
REMARK SMILES IDX 8 1 9 2 7 3 6 4 4 5 5 6 2 7 1 8 3 9 10 10 11 11 28 12 12 13
REMARK SMILES IDX 13 14 27 15 29 16 14 17 26 18 25 19 15 20 23 21 16 22 17 23
REMARK SMILES IDX 22 24 24 25 18 26 21 27 19 28 20 29
REMARK H PARENT 20 30
REMARK Flexibility Score: inf
ROOT
ATOM      1  C   UNL     1      48.231   6.729 113.577  1.00  0.00     0.012 C 
ATOM      2  C   UNL     1      47.556   5.821 112.533  1.00  0.00     0.012 C 
ENDROOT
BRANCH   1   3
ATOM      3  C   UNL     1      49.627   7.087 113.079  1.00  0.00    -0.028 C 
ATOM      4  C   UNL     1      50.787   6.559 113.520  1.00  0.00    -0.028 C 
BRANCH   4   5
ATOM      5  C   UNL     1      52.131   6.969 112.948  1.00  0.00     0.011 C 
ATOM      6  C   UNL     1      52.827   5.745 112.326  1.00  0.00     0.012 C 
BRANCH   5   7
ATOM      7  C   UNL     1      53.015   7.695 114.007  1.00  0.00    -0.011 C 
ATOM      8  C   UNL     1      52.602   9.166 114.187  1.00  0.00     0.008 C 
ATOM      9  C   UNL     1      52.946   6.985 115.371  1.00  0.00     0.008 C 
ENDBRANCH   5   7
ENDBRANCH   4   5
ENDBRANCH   1   3
BRANCH   1  10
ATOM     10  C   UNL     1      47.355   7.955 114.053  1.00  0.00     0.002 C 
ATOM     11  C   UNL     1      45.892   7.818 113.623  1.00  0.00     0.005 C 
ATOM     12  C   UNL     1      47.288   8.266 115.594  1.00  0.00    -0.023 C 
ATOM     13  C   UNL     1      45.100   7.388 114.850  1.00  0.00     0.009 C 
ATOM     14  C   UNL     1      46.015   7.510 116.095  1.00  0.00     0.021 C 
ATOM     15  C   UNL     1      47.081   9.809 115.788  1.00  0.00     0.008 C 
ATOM     16  C   UNL     1      48.601   7.844 116.312  1.00  0.00     0.012 C 
ATOM     17  C   UNL     1      45.319   8.190 117.279  1.00  0.00    -0.063 C 
ATOM     18  C   UNL     1      46.672  10.265 117.216  1.00  0.00     0.009 C 
ATOM     19  C   UNL     1      46.136   9.137 118.130  1.00  0.00     0.025 C 
ATOM     20  C   UNL     1      44.000   8.048 117.496  1.00  0.00    -0.000 C 
ATOM     21  C   UNL     1      45.408   9.591 119.466  1.00  0.00    -0.005 C 
ATOM     22  C   UNL     1      43.270   8.943 118.403  1.00  0.00    -0.000 C 
ATOM     23  C   UNL     1      43.909   9.772 119.239  1.00  0.00    -0.061 C 
ATOM     24  C   UNL     1      46.039  10.895 120.051  1.00  0.00     0.014 C 
ATOM     25  C   UNL     1      45.573   8.453 120.512  1.00  0.00     0.017 C 
ATOM     26  C   UNL     1      43.082  10.579 120.218  1.00  0.00     0.063 C 
ATOM     27  C   UNL     1      45.214  11.517 121.184  1.00  0.00     0.033 C 
ATOM     28  C   UNL     1      43.801  11.848 120.685  1.00  0.00     0.118 C 
BRANCH  28  29
ATOM     29  O   UNL     1      43.058  12.442 121.718  1.00  0.00    -0.393 OA
ATOM     30  H   UNL     1      42.103  12.242 121.535  1.00  0.00     0.210 HD
ENDBRANCH  28  29
ENDBRANCH   1  10
TORSDOF 5
ENDMDL
MODEL 9
REMARK VINA RESULT:    -6.143      8.649     10.692
REMARK INTER + INTRA:          -8.422
REMARK INTER:                  -8.026
REMARK INTRA:                  -0.396
REMARK UNBOUND:                -0.663
REMARK SMILES CC(C)[C@@H](C)C=C[C@H](C)[C@H]1CC[C@@H]2C3=CC=C4C[C@@H](O)CC[C@]4(C)[C@@H]3CC[C@@]21C
REMARK SMILES IDX 8 1 9 2 7 3 6 4 4 5 5 6 2 7 1 8 3 9 10 10 11 11 28 12 12 13
REMARK SMILES IDX 13 14 27 15 29 16 14 17 26 18 25 19 15 20 23 21 16 22 17 23
REMARK SMILES IDX 22 24 24 25 18 26 21 27 19 28 20 29
REMARK H PARENT 20 30
REMARK Flexibility Score: inf
ROOT
ATOM      1  C   UNL     1      37.333  10.477 107.983  1.00  0.00     0.012 C 
ATOM      2  C   UNL     1      38.694  10.498 107.265  1.00  0.00     0.012 C 
ENDROOT
BRANCH   1   3
ATOM      3  C   UNL     1      36.678   9.122 107.742  1.00  0.00    -0.028 C 
ATOM      4  C   UNL     1      37.266   8.043 107.186  1.00  0.00    -0.028 C 
BRANCH   4   5
ATOM      5  C   UNL     1      36.534   6.727 107.003  1.00  0.00     0.011 C 
ATOM      6  C   UNL     1      35.524   6.530 108.147  1.00  0.00     0.012 C 
BRANCH   5   7
ATOM      7  C   UNL     1      37.521   5.530 106.852  1.00  0.00    -0.011 C 
ATOM      8  C   UNL     1      37.142   4.619 105.673  1.00  0.00     0.008 C 
ATOM      9  C   UNL     1      38.967   6.022 106.661  1.00  0.00     0.008 C 
ENDBRANCH   5   7
ENDBRANCH   4   5
ENDBRANCH   1   3
BRANCH   1  10
ATOM     10  C   UNL     1      37.373  10.943 109.493  1.00  0.00     0.002 C 
ATOM     11  C   UNL     1      38.032   9.898 110.399  1.00  0.00     0.005 C 
ATOM     12  C   UNL     1      38.112  12.288 109.836  1.00  0.00    -0.023 C 
ATOM     13  C   UNL     1      39.439  10.392 110.707  1.00  0.00     0.009 C 
ATOM     14  C   UNL     1      39.567  11.855 110.213  1.00  0.00     0.021 C 
ATOM     15  C   UNL     1      37.426  12.934 111.090  1.00  0.00     0.008 C 
ATOM     16  C   UNL     1      38.036  13.291 108.651  1.00  0.00     0.012 C 
ATOM     17  C   UNL     1      40.236  12.772 111.242  1.00  0.00    -0.063 C 
ATOM     18  C   UNL     1      38.207  14.093 111.770  1.00  0.00     0.009 C 
ATOM     19  C   UNL     1      39.704  14.180 111.386  1.00  0.00     0.025 C 
ATOM     20  C   UNL     1      41.189  12.318 112.075  1.00  0.00    -0.000 C 
ATOM     21  C   UNL     1      40.614  15.123 112.283  1.00  0.00    -0.005 C 
ATOM     22  C   UNL     1      41.591  13.075 113.268  1.00  0.00    -0.000 C 
ATOM     23  C   UNL     1      41.220  14.349 113.451  1.00  0.00    -0.061 C 
ATOM     24  C   UNL     1      39.821  16.368 112.799  1.00  0.00     0.014 C 
ATOM     25  C   UNL     1      41.797  15.623 111.408  1.00  0.00     0.017 C 
ATOM     26  C   UNL     1      41.771  15.089 114.653  1.00  0.00     0.063 C 
ATOM     27  C   UNL     1      40.569  17.165 113.874  1.00  0.00     0.033 C 
ATOM     28  C   UNL     1      40.882  16.262 115.075  1.00  0.00     0.118 C 
BRANCH  28  29
ATOM     29  O   UNL     1      41.542  17.002 116.069  1.00  0.00    -0.393 OA
ATOM     30  H   UNL     1      41.142  17.911 116.063  1.00  0.00     0.210 HD
ENDBRANCH  28  29
ENDBRANCH   1  10
TORSDOF 5
ENDMDL
