MODEL 1
REMARK VINA RESULT:    -4.401      0.000      0.000
REMARK INTER + INTRA:          -4.530
REMARK INTER:                  -4.530
REMARK INTRA:                   0.000
REMARK UNBOUND:                 0.000
REMARK SMILES Nc1ncnc2nc[nH]c12
REMARK SMILES IDX 8 1 7 2 6 3 5 4 4 5 3 6 2 7 10 8 9 9 1 11
REMARK H PARENT 9 10 1 12 1 13
REMARK Flexibility Score: inf
ROOT
ATOM      1  C   UNL     1      -3.864   4.000  41.362  1.00  0.00     0.199 A 
ATOM      2  N   UNL     1      -3.166   3.760  40.217  1.00  0.00    -0.217 NA
ATOM      3  C   UNL     1      -2.050   3.172  40.681  1.00  0.00     0.182 A 
ATOM      4  N   UNL     1      -1.007   2.725  39.943  1.00  0.00    -0.215 NA
ATOM      5  C   UNL     1       0.047   2.150  40.599  1.00  0.00     0.226 A 
ATOM      6  N   UNL     1       0.037   2.033  41.966  1.00  0.00    -0.217 NA
ATOM      7  C   UNL     1      -1.016   2.484  42.712  1.00  0.00     0.152 A 
ATOM      8  C   UNL     1      -2.080   3.066  42.030  1.00  0.00     0.127 A 
ATOM      9  N   UNL     1      -3.226   3.588  42.487  1.00  0.00    -0.340 N 
ATOM     10  H   UNL     1      -3.561   3.664  43.471  1.00  0.00     0.168 HD
ENDROOT
BRANCH   7  11
ATOM     11  N   UNL     1      -1.004   2.351  44.133  1.00  0.00    -0.382 N 
ATOM     12  H   UNL     1      -0.959   3.201  44.737  1.00  0.00     0.158 HD
ATOM     13  H   UNL     1      -1.039   1.414  44.592  1.00  0.00     0.158 HD
ENDBRANCH   7  11
TORSDOF 1
ENDMDL
MODEL 2
REMARK VINA RESULT:    -4.368      1.372      2.765
REMARK INTER + INTRA:          -4.495
REMARK INTER:                  -4.495
REMARK INTRA:                   0.000
REMARK UNBOUND:                 0.000
REMARK SMILES Nc1ncnc2nc[nH]c12
REMARK SMILES IDX 8 1 7 2 6 3 5 4 4 5 3 6 2 7 10 8 9 9 1 11
REMARK H PARENT 9 10 1 12 1 13
REMARK Flexibility Score: inf
ROOT
ATOM      1  C   UNL     1      -1.785   3.241  39.936  1.00  0.00     0.199 A 
ATOM      2  N   UNL     1      -2.497   3.120  41.091  1.00  0.00    -0.217 NA
ATOM      3  C   UNL     1      -1.656   2.421  41.872  1.00  0.00     0.182 A 
ATOM      4  N   UNL     1      -1.881   2.026  43.148  1.00  0.00    -0.215 NA
ATOM      5  C   UNL     1      -0.899   1.318  43.785  1.00  0.00     0.226 A 
ATOM      6  N   UNL     1       0.276   1.021  43.142  1.00  0.00    -0.217 NA
ATOM      7  C   UNL     1       0.503   1.419  41.854  1.00  0.00     0.152 A 
ATOM      8  C   UNL     1      -0.504   2.139  41.220  1.00  0.00     0.127 A 
ATOM      9  N   UNL     1      -0.563   2.651  39.983  1.00  0.00    -0.340 N 
ATOM     10  H   UNL     1       0.154   2.612  39.227  1.00  0.00     0.168 HD
ENDROOT
BRANCH   7  11
ATOM     11  N   UNL     1       1.734   1.099  41.205  1.00  0.00    -0.382 N 
ATOM     12  H   UNL     1       2.158   1.770  40.528  1.00  0.00     0.158 HD
ATOM     13  H   UNL     1       2.229   0.199  41.393  1.00  0.00     0.158 HD
ENDBRANCH   7  11
TORSDOF 1
ENDMDL
MODEL 3
REMARK VINA RESULT:    -4.174      1.081      2.991
REMARK INTER + INTRA:          -4.296
REMARK INTER:                  -4.296
REMARK INTRA:                   0.000
REMARK UNBOUND:                 0.000
REMARK SMILES Nc1ncnc2nc[nH]c12
REMARK SMILES IDX 8 1 7 2 6 3 5 4 4 5 3 6 2 7 10 8 9 9 1 11
REMARK H PARENT 9 10 1 12 1 13
REMARK Flexibility Score: inf
ROOT
ATOM      1  C   UNL     1      -0.900   1.287  43.391  1.00  0.00     0.199 A 
ATOM      2  N   UNL     1      -0.099   1.424  42.299  1.00  0.00    -0.217 NA
ATOM      3  C   UNL     1      -0.866   2.153  41.471  1.00  0.00     0.182 A 
ATOM      4  N   UNL     1      -0.537   2.575  40.227  1.00  0.00    -0.215 NA
ATOM      5  C   UNL     1      -1.456   3.312  39.533  1.00  0.00     0.226 A 
ATOM      6  N   UNL     1      -2.675   3.610  40.089  1.00  0.00    -0.217 NA
ATOM      7  C   UNL     1      -3.008   3.185  41.344  1.00  0.00     0.152 A 
ATOM      8  C   UNL     1      -2.062   2.437  42.039  1.00  0.00     0.127 A 
ATOM      9  N   UNL     1      -2.107   1.895  43.262  1.00  0.00    -0.340 N 
ATOM     10  H   UNL     1      -2.881   1.926  43.961  1.00  0.00     0.168 HD
ENDROOT
BRANCH   7  11
ATOM     11  N   UNL     1      -4.281   3.508  41.903  1.00  0.00    -0.382 N 
ATOM     12  H   UNL     1      -4.950   2.747  42.154  1.00  0.00     0.158 HD
ATOM     13  H   UNL     1      -4.566   4.499  42.070  1.00  0.00     0.158 HD
ENDBRANCH   7  11
TORSDOF 1
ENDMDL
MODEL 4
REMARK VINA RESULT:    -4.151      2.917      3.466
REMARK INTER + INTRA:          -4.272
REMARK INTER:                  -4.272
REMARK INTRA:                   0.000
REMARK UNBOUND:                 0.000
REMARK SMILES Nc1ncnc2nc[nH]c12
REMARK SMILES IDX 8 1 7 2 6 3 5 4 4 5 3 6 2 7 10 8 9 9 1 11
REMARK H PARENT 9 10 1 12 1 13
REMARK Flexibility Score: inf
ROOT
ATOM      1  C   UNL     1      -1.061   2.447  43.919  1.00  0.00     0.199 A 
ATOM      2  N   UNL     1      -1.293   1.177  43.487  1.00  0.00    -0.217 NA
ATOM      3  C   UNL     1      -0.302   0.992  42.599  1.00  0.00     0.182 A 
ATOM      4  N   UNL     1      -0.070  -0.125  41.869  1.00  0.00    -0.215 NA
ATOM      5  C   UNL     1       0.996  -0.125  41.011  1.00  0.00     0.226 A 
ATOM      6  N   UNL     1       1.801   0.980  40.900  1.00  0.00    -0.217 NA
ATOM      7  C   UNL     1       1.568   2.108  41.636  1.00  0.00     0.152 A 
ATOM      8  C   UNL     1       0.481   2.092  42.505  1.00  0.00     0.127 A 
ATOM      9  N   UNL     1       0.016   3.034  43.336  1.00  0.00    -0.340 N 
ATOM     10  H   UNL     1       0.386   3.994  43.506  1.00  0.00     0.168 HD
ENDROOT
BRANCH   7  11
ATOM     11  N   UNL     1       2.420   3.246  41.505  1.00  0.00    -0.382 N 
ATOM     12  H   UNL     1       2.873   3.660  42.349  1.00  0.00     0.158 HD
ATOM     13  H   UNL     1       2.605   3.682  40.574  1.00  0.00     0.158 HD
ENDBRANCH   7  11
TORSDOF 1
ENDMDL
MODEL 5
REMARK VINA RESULT:    -4.102      1.899      4.401
REMARK INTER + INTRA:          -4.222
REMARK INTER:                  -4.222
REMARK INTRA:                   0.000
REMARK UNBOUND:                 0.000
REMARK SMILES Nc1ncnc2nc[nH]c12
REMARK SMILES IDX 8 1 7 2 6 3 5 4 4 5 3 6 2 7 10 8 9 9 1 11
REMARK H PARENT 9 10 1 12 1 13
REMARK Flexibility Score: inf
ROOT
ATOM      1  C   UNL     1       2.380   1.006  41.829  1.00  0.00     0.199 A 
ATOM      2  N   UNL     1       1.749   0.623  42.974  1.00  0.00    -0.217 NA
ATOM      3  C   UNL     1       0.505   1.093  42.785  1.00  0.00     0.182 A 
ATOM      4  N   UNL     1      -0.539   0.980  43.640  1.00  0.00    -0.215 NA
ATOM      5  C   UNL     1      -1.737   1.527  43.271  1.00  0.00     0.226 A 
ATOM      6  N   UNL     1      -1.868   2.170  42.067  1.00  0.00    -0.217 NA
ATOM      7  C   UNL     1      -0.815   2.286  41.203  1.00  0.00     0.152 A 
ATOM      8  C   UNL     1       0.397   1.723  41.592  1.00  0.00     0.127 A 
ATOM      9  N   UNL     1       1.580   1.682  40.965  1.00  0.00    -0.340 N 
ATOM     10  H   UNL     1       1.837   2.071  40.033  1.00  0.00     0.168 HD
ENDROOT
BRANCH   7  11
ATOM     11  N   UNL     1      -0.974   2.960  39.955  1.00  0.00    -0.382 N 
ATOM     12  H   UNL     1      -0.155   3.419  39.500  1.00  0.00     0.158 HD
ATOM     13  H   UNL     1      -1.901   3.007  39.477  1.00  0.00     0.158 HD
ENDBRANCH   7  11
TORSDOF 1
ENDMDL
MODEL 6
REMARK VINA RESULT:    -4.052     12.850     14.533
REMARK INTER + INTRA:          -4.170
REMARK INTER:                  -4.170
REMARK INTRA:                   0.000
REMARK UNBOUND:                 0.000
REMARK SMILES Nc1ncnc2nc[nH]c12
REMARK SMILES IDX 8 1 7 2 6 3 5 4 4 5 3 6 2 7 10 8 9 9 1 11
REMARK H PARENT 9 10 1 12 1 13
REMARK Flexibility Score: inf
ROOT
ATOM      1  C   UNL     1      10.265   8.258  32.023  1.00  0.00     0.199 A 
ATOM      2  N   UNL     1       9.528   8.757  33.055  1.00  0.00    -0.217 NA
ATOM      3  C   UNL     1       9.236   7.649  33.757  1.00  0.00     0.182 A 
ATOM      4  N   UNL     1       8.510   7.586  34.899  1.00  0.00    -0.215 NA
ATOM      5  C   UNL     1       8.318   6.360  35.473  1.00  0.00     0.226 A 
ATOM      6  N   UNL     1       8.850   5.231  34.902  1.00  0.00    -0.217 NA
ATOM      7  C   UNL     1       9.582   5.294  33.749  1.00  0.00     0.152 A 
ATOM      8  C   UNL     1       9.770   6.549  33.177  1.00  0.00     0.127 A 
ATOM      9  N   UNL     1      10.429   6.912  32.070  1.00  0.00    -0.340 N 
ATOM     10  H   UNL     1      10.951   6.311  31.395  1.00  0.00     0.168 HD
ENDROOT
BRANCH   7  11
ATOM     11  N   UNL     1      10.126   4.106  33.173  1.00  0.00    -0.382 N 
ATOM     12  H   UNL     1       9.516   3.470  32.614  1.00  0.00     0.158 HD
ATOM     13  H   UNL     1      11.131   3.853  33.295  1.00  0.00     0.158 HD
ENDBRANCH   7  11
TORSDOF 1
ENDMDL
MODEL 7
REMARK VINA RESULT:    -3.951     13.015     14.657
REMARK INTER + INTRA:          -4.067
REMARK INTER:                  -4.067
REMARK INTRA:                   0.000
REMARK UNBOUND:                 0.000
REMARK SMILES Nc1ncnc2nc[nH]c12
REMARK SMILES IDX 8 1 7 2 6 3 5 4 4 5 3 6 2 7 10 8 9 9 1 11
REMARK H PARENT 9 10 1 12 1 13
REMARK Flexibility Score: inf
ROOT
ATOM      1  C   UNL     1       8.351   6.283  35.438  1.00  0.00     0.199 A 
ATOM      2  N   UNL     1       8.502   7.588  35.078  1.00  0.00    -0.217 NA
ATOM      3  C   UNL     1       9.161   7.487  33.912  1.00  0.00     0.182 A 
ATOM      4  N   UNL     1       9.565   8.510  33.122  1.00  0.00    -0.215 NA
ATOM      5  C   UNL     1      10.227   8.208  31.963  1.00  0.00     0.226 A 
ATOM      6  N   UNL     1      10.471   6.903  31.620  1.00  0.00    -0.217 NA
ATOM      7  C   UNL     1      10.064   5.869  32.417  1.00  0.00     0.152 A 
ATOM      8  C   UNL     1       9.391   6.192  33.592  1.00  0.00     0.127 A 
ATOM      9  N   UNL     1       8.885   5.406  34.550  1.00  0.00    -0.340 N 
ATOM     10  H   UNL     1       8.891   4.365  34.610  1.00  0.00     0.168 HD
ENDROOT
BRANCH   7  11
ATOM     11  N   UNL     1      10.329   4.518  32.039  1.00  0.00    -0.382 N 
ATOM     12  H   UNL     1      10.737   3.852  32.732  1.00  0.00     0.158 HD
ATOM     13  H   UNL     1      10.122   4.172  31.076  1.00  0.00     0.158 HD
ENDBRANCH   7  11
TORSDOF 1
ENDMDL
MODEL 8
REMARK VINA RESULT:    -3.886     11.260     12.644
REMARK INTER + INTRA:          -4.000
REMARK INTER:                  -4.000
REMARK INTRA:                   0.000
REMARK UNBOUND:                 0.000
REMARK SMILES Nc1ncnc2nc[nH]c12
REMARK SMILES IDX 8 1 7 2 6 3 5 4 4 5 3 6 2 7 10 8 9 9 1 11
REMARK H PARENT 9 10 1 12 1 13
REMARK Flexibility Score: inf
ROOT
ATOM      1  C   UNL     1       1.153   7.234  32.246  1.00  0.00     0.199 A 
ATOM      2  N   UNL     1       1.968   7.580  31.212  1.00  0.00    -0.217 NA
ATOM      3  C   UNL     1       1.274   7.151  30.145  1.00  0.00     0.182 A 
ATOM      4  N   UNL     1       1.645   7.251  28.846  1.00  0.00    -0.215 NA
ATOM      5  C   UNL     1       0.799   6.753  27.894  1.00  0.00     0.226 A 
ATOM      6  N   UNL     1      -0.390   6.170  28.253  1.00  0.00    -0.217 NA
ATOM      7  C   UNL     1      -0.765   6.068  29.564  1.00  0.00     0.152 A 
ATOM      8  C   UNL     1       0.105   6.580  30.521  1.00  0.00     0.127 A 
ATOM      9  N   UNL     1       0.006   6.621  31.856  1.00  0.00    -0.340 N 
ATOM     10  H   UNL     1      -0.765   6.269  32.463  1.00  0.00     0.168 HD
ENDROOT
BRANCH   7  11
ATOM     11  N   UNL     1      -2.007   5.458  29.914  1.00  0.00    -0.382 N 
ATOM     12  H   UNL     1      -2.661   5.135  29.166  1.00  0.00     0.158 HD
ATOM     13  H   UNL     1      -2.284   5.322  30.912  1.00  0.00     0.158 HD
ENDBRANCH   7  11
TORSDOF 1
ENDMDL
MODEL 9
REMARK VINA RESULT:    -3.872     12.815     14.712
REMARK INTER + INTRA:          -3.985
REMARK INTER:                  -3.985
REMARK INTRA:                   0.000
REMARK UNBOUND:                 0.000
REMARK SMILES Nc1ncnc2nc[nH]c12
REMARK SMILES IDX 8 1 7 2 6 3 5 4 4 5 3 6 2 7 10 8 9 9 1 11
REMARK H PARENT 9 10 1 12 1 13
REMARK Flexibility Score: inf
ROOT
ATOM      1  C   UNL     1      11.393   4.274  33.180  1.00  0.00     0.199 A 
ATOM      2  N   UNL     1      10.614   3.960  34.253  1.00  0.00    -0.217 NA
ATOM      3  C   UNL     1       9.913   5.091  34.437  1.00  0.00     0.182 A 
ATOM      4  N   UNL     1       8.978   5.316  35.391  1.00  0.00    -0.215 NA
ATOM      5  C   UNL     1       8.367   6.539  35.419  1.00  0.00     0.226 A 
ATOM      6  N   UNL     1       8.698   7.505  34.503  1.00  0.00    -0.217 NA
ATOM      7  C   UNL     1       9.642   7.280  33.540  1.00  0.00     0.152 A 
ATOM      8  C   UNL     1      10.254   6.030  33.523  1.00  0.00     0.127 A 
ATOM      9  N   UNL     1      11.196   5.533  32.712  1.00  0.00    -0.340 N 
ATOM     10  H   UNL     1      11.673   5.993  31.907  1.00  0.00     0.168 HD
ENDROOT
BRANCH   7  11
ATOM     11  N   UNL     1       9.969   8.300  32.597  1.00  0.00    -0.382 N 
ATOM     12  H   UNL     1       9.569   9.259  32.703  1.00  0.00     0.158 HD
ATOM     13  H   UNL     1      10.608   8.112  31.792  1.00  0.00     0.158 HD
ENDBRANCH   7  11
TORSDOF 1
ENDMDL
