MODEL 1
REMARK VINA RESULT:    -6.896      0.000      0.000
REMARK INTER + INTRA:          -9.055
REMARK INTER:                  -9.315
REMARK INTRA:                   0.260
REMARK UNBOUND:                 0.260
REMARK SMILES O=c1c(-c2ccc(O)cc2)coc2c([C@@H]3O[C@H](CO)[C@H](O)[C@H](O)[C@@H]3O)c(O)ccc12
REMARK SMILES IDX 3 1 11 2 12 3 13 4 30 5 2 6 1 7 29 8 28 9 26 10 14 11 4 12
REMARK SMILES IDX 5 13 6 14 7 15 10 16 9 17 8 18 15 20 24 21 16 22 22 23 17 24
REMARK SMILES IDX 20 25 25 26 23 28 18 30 19 31 21 33 27 35
REMARK H PARENT 8 19 25 27 23 29 19 32 21 34 27 36
REMARK Flexibility Score: inf
ROOT
ATOM      1  C   UNL     1      -1.231  13.232   5.627  1.00  0.00     0.065 A 
ATOM      2  C   UNL     1      -1.406  13.829   4.371  1.00  0.00     0.208 A 
ATOM      3  O   UNL     1      -0.362  14.149   3.615  1.00  0.00    -0.463 OA
ATOM      4  C   UNL     1       0.898  13.934   3.984  1.00  0.00     0.147 A 
ATOM      5  C   UNL     1       1.167  13.346   5.243  1.00  0.00     0.066 A 
ATOM      6  C   UNL     1       0.084  12.996   6.070  1.00  0.00     0.200 A 
ATOM      7  O   UNL     1       0.289  12.495   7.210  1.00  0.00    -0.288 OA
ATOM      8  C   UNL     1       2.496  13.139   5.640  1.00  0.00     0.020 A 
ATOM      9  C   UNL     1       3.545  13.520   4.807  1.00  0.00     0.047 A 
ATOM     10  C   UNL     1       3.292  14.106   3.561  1.00  0.00     0.125 A 
ATOM     11  C   UNL     1       1.959  14.297   3.122  1.00  0.00     0.069 A 
ENDROOT
BRANCH   1  12
ATOM     12  C   UNL     1      -2.413  12.875   6.449  1.00  0.00    -0.011 A 
ATOM     13  C   UNL     1      -2.469  11.646   7.131  1.00  0.00     0.013 A 
ATOM     14  C   UNL     1      -3.588  11.311   7.897  1.00  0.00     0.047 A 
ATOM     15  C   UNL     1      -4.670  12.198   7.987  1.00  0.00     0.115 A 
ATOM     16  C   UNL     1      -3.506  13.755   6.541  1.00  0.00     0.013 A 
ATOM     17  C   UNL     1      -4.625  13.418   7.308  1.00  0.00     0.047 A 
BRANCH  15  18
ATOM     18  O   UNL     1      -5.791  11.874   8.749  1.00  0.00    -0.508 OA
ATOM     19  H   UNL     1      -6.646  12.414   8.689  1.00  0.00     0.293 HD
ENDBRANCH  15  18
ENDBRANCH   1  12
BRANCH  11  20
ATOM     20  C   UNL     1       1.652  14.953   1.782  1.00  0.00     0.188 C 
ATOM     21  C   UNL     1       2.136  14.059   0.617  1.00  0.00     0.179 C 
ATOM     22  O   UNL     1       0.263  15.225   1.670  1.00  0.00    -0.362 OA
ATOM     23  C   UNL     1       1.807  14.744  -0.722  1.00  0.00     0.177 C 
ATOM     24  C   UNL     1      -0.010  15.987   0.504  1.00  0.00     0.176 C 
ATOM     25  C   UNL     1       0.324  15.172  -0.768  1.00  0.00     0.177 C 
BRANCH  21  26
ATOM     26  O   UNL     1       1.517  12.798   0.690  1.00  0.00    -0.387 OA
ATOM     27  H   UNL     1       2.069  12.172   0.152  1.00  0.00     0.211 HD
ENDBRANCH  21  26
BRANCH  23  28
ATOM     28  O   UNL     1       2.111  13.882  -1.789  1.00  0.00    -0.387 OA
ATOM     29  H   UNL     1       2.659  13.145  -1.413  1.00  0.00     0.211 HD
ENDBRANCH  23  28
BRANCH  24  30
ATOM     30  C   UNL     1      -1.485  16.414   0.538  1.00  0.00     0.191 C 
BRANCH  30  31
ATOM     31  O   UNL     1      -2.237  15.547   1.345  1.00  0.00    -0.394 OA
ATOM     32  H   UNL     1      -1.829  14.647   1.261  1.00  0.00     0.210 HD
ENDBRANCH  30  31
ENDBRANCH  24  30
BRANCH  25  33
ATOM     33  O   UNL     1      -0.512  14.043  -0.845  1.00  0.00    -0.388 OA
ATOM     34  H   UNL     1      -1.335  14.325  -1.322  1.00  0.00     0.211 HD
ENDBRANCH  25  33
ENDBRANCH  11  20
BRANCH  10  35
ATOM     35  O   UNL     1       4.366  14.504   2.764  1.00  0.00    -0.507 OA
ATOM     36  H   UNL     1       5.288  14.661   3.152  1.00  0.00     0.293 HD
ENDBRANCH  10  35
TORSDOF 9
ENDMDL
MODEL 2
REMARK VINA RESULT:    -6.311      2.652      7.194
REMARK INTER + INTRA:          -8.264
REMARK INTER:                  -8.449
REMARK INTRA:                   0.185
REMARK UNBOUND:                 0.260
REMARK SMILES O=c1c(-c2ccc(O)cc2)coc2c([C@@H]3O[C@H](CO)[C@H](O)[C@H](O)[C@@H]3O)c(O)ccc12
REMARK SMILES IDX 3 1 11 2 12 3 13 4 30 5 2 6 1 7 29 8 28 9 26 10 14 11 4 12
REMARK SMILES IDX 5 13 6 14 7 15 10 16 9 17 8 18 15 20 24 21 16 22 22 23 17 24
REMARK SMILES IDX 20 25 25 26 23 28 18 30 19 31 21 33 27 35
REMARK H PARENT 8 19 25 27 23 29 19 32 21 34 27 36
REMARK Flexibility Score: inf
ROOT
ATOM      1  C   UNL     1      -0.288  13.534   5.169  1.00  0.00     0.065 A 
ATOM      2  C   UNL     1      -1.240  14.374   4.574  1.00  0.00     0.208 A 
ATOM      3  O   UNL     1      -2.504  14.369   4.979  1.00  0.00    -0.463 OA
ATOM      4  C   UNL     1      -2.953  13.584   5.955  1.00  0.00     0.147 A 
ATOM      5  C   UNL     1      -2.063  12.695   6.603  1.00  0.00     0.066 A 
ATOM      6  C   UNL     1      -0.716  12.674   6.197  1.00  0.00     0.200 A 
ATOM      7  O   UNL     1       0.099  11.873   6.735  1.00  0.00    -0.288 OA
ATOM      8  C   UNL     1      -2.542  11.853   7.618  1.00  0.00     0.020 A 
ATOM      9  C   UNL     1      -3.887  11.882   7.978  1.00  0.00     0.047 A 
ATOM     10  C   UNL     1      -4.778  12.755   7.341  1.00  0.00     0.125 A 
ATOM     11  C   UNL     1      -4.314  13.638   6.336  1.00  0.00     0.069 A 
ENDROOT
BRANCH   1  12
ATOM     12  C   UNL     1       1.121  13.565   4.705  1.00  0.00    -0.011 A 
ATOM     13  C   UNL     1       1.425  13.737   3.342  1.00  0.00     0.013 A 
ATOM     14  C   UNL     1       2.753  13.757   2.911  1.00  0.00     0.047 A 
ATOM     15  C   UNL     1       3.796  13.601   3.834  1.00  0.00     0.115 A 
ATOM     16  C   UNL     1       2.174  13.402   5.623  1.00  0.00     0.013 A 
ATOM     17  C   UNL     1       3.502  13.423   5.188  1.00  0.00     0.047 A 
BRANCH  15  18
ATOM     18  O   UNL     1       5.124  13.619   3.414  1.00  0.00    -0.508 OA
ATOM     19  H   UNL     1       5.506  12.886   2.829  1.00  0.00     0.293 HD
ENDBRANCH  15  18
ENDBRANCH   1  12
BRANCH  11  20
ATOM     20  C   UNL     1      -5.265  14.581   5.611  1.00  0.00     0.188 C 
ATOM     21  C   UNL     1      -5.067  16.033   6.102  1.00  0.00     0.179 C 
ATOM     22  O   UNL     1      -5.077  14.491   4.206  1.00  0.00    -0.362 OA
ATOM     23  C   UNL     1      -6.035  16.964   5.347  1.00  0.00     0.177 C 
ATOM     24  C   UNL     1      -6.068  15.235   3.514  1.00  0.00     0.176 C 
ATOM     25  C   UNL     1      -5.927  16.744   3.822  1.00  0.00     0.177 C 
BRANCH  21  26
ATOM     26  O   UNL     1      -3.736  16.436   5.892  1.00  0.00    -0.387 OA
ATOM     27  H   UNL     1      -3.523  17.111   6.588  1.00  0.00     0.211 HD
ENDBRANCH  21  26
BRANCH  23  28
ATOM     28  O   UNL     1      -5.770  18.303   5.678  1.00  0.00    -0.387 OA
ATOM     29  H   UNL     1      -5.808  18.820   4.831  1.00  0.00     0.211 HD
ENDBRANCH  23  28
BRANCH  24  30
ATOM     30  C   UNL     1      -5.934  14.943   2.012  1.00  0.00     0.191 C 
BRANCH  30  31
ATOM     31  O   UNL     1      -4.616  14.584   1.690  1.00  0.00    -0.394 OA
ATOM     32  H   UNL     1      -4.019  15.210   2.175  1.00  0.00     0.210 HD
ENDBRANCH  30  31
ENDBRANCH  24  30
BRANCH  25  33
ATOM     33  O   UNL     1      -4.692  17.216   3.344  1.00  0.00    -0.388 OA
ATOM     34  H   UNL     1      -4.859  17.603   2.445  1.00  0.00     0.211 HD
ENDBRANCH  25  33
ENDBRANCH  11  20
BRANCH  10  35
ATOM     35  O   UNL     1      -6.125  12.737   7.705  1.00  0.00    -0.507 OA
ATOM     36  H   UNL     1      -6.865  12.741   7.013  1.00  0.00     0.293 HD
ENDBRANCH  10  35
TORSDOF 9
ENDMDL
MODEL 3
REMARK VINA RESULT:    -5.928      2.710      7.420
REMARK INTER + INTRA:          -7.747
REMARK INTER:                  -7.138
REMARK INTRA:                  -0.609
REMARK UNBOUND:                 0.260
REMARK SMILES O=c1c(-c2ccc(O)cc2)coc2c([C@@H]3O[C@H](CO)[C@H](O)[C@H](O)[C@@H]3O)c(O)ccc12
REMARK SMILES IDX 3 1 11 2 12 3 13 4 30 5 2 6 1 7 29 8 28 9 26 10 14 11 4 12
REMARK SMILES IDX 5 13 6 14 7 15 10 16 9 17 8 18 15 20 24 21 16 22 22 23 17 24
REMARK SMILES IDX 20 25 25 26 23 28 18 30 19 31 21 33 27 35
REMARK H PARENT 8 19 25 27 23 29 19 32 21 34 27 36
REMARK Flexibility Score: inf
ROOT
ATOM      1  C   UNL     1       0.287  14.816   2.074  1.00  0.00     0.065 A 
ATOM      2  C   UNL     1      -1.042  15.256   1.997  1.00  0.00     0.208 A 
ATOM      3  O   UNL     1      -1.903  15.004   2.975  1.00  0.00    -0.463 OA
ATOM      4  C   UNL     1      -1.578  14.330   4.076  1.00  0.00     0.147 A 
ATOM      5  C   UNL     1      -0.261  13.839   4.231  1.00  0.00     0.066 A 
ATOM      6  C   UNL     1       0.676  14.086   3.212  1.00  0.00     0.200 A 
ATOM      7  O   UNL     1       1.853  13.638   3.306  1.00  0.00    -0.288 OA
ATOM      8  C   UNL     1       0.074  13.110   5.383  1.00  0.00     0.020 A 
ATOM      9  C   UNL     1      -0.885  12.862   6.360  1.00  0.00     0.047 A 
ATOM     10  C   UNL     1      -2.194  13.340   6.216  1.00  0.00     0.125 A 
ATOM     11  C   UNL     1      -2.550  14.105   5.079  1.00  0.00     0.069 A 
ENDROOT
BRANCH   1  12
ATOM     12  C   UNL     1       1.233  15.119   0.972  1.00  0.00    -0.011 A 
ATOM     13  C   UNL     1       1.242  14.342  -0.200  1.00  0.00     0.013 A 
ATOM     14  C   UNL     1       2.141  14.626  -1.231  1.00  0.00     0.047 A 
ATOM     15  C   UNL     1       3.046  15.688  -1.103  1.00  0.00     0.115 A 
ATOM     16  C   UNL     1       2.150  16.178   1.095  1.00  0.00     0.013 A 
ATOM     17  C   UNL     1       3.048  16.460   0.061  1.00  0.00     0.047 A 
BRANCH  15  18
ATOM     18  O   UNL     1       3.947  15.980  -2.125  1.00  0.00    -0.508 OA
ATOM     19  H   UNL     1       4.583  16.765  -2.062  1.00  0.00     0.293 HD
ENDBRANCH  15  18
ENDBRANCH   1  12
BRANCH  11  20
ATOM     20  C   UNL     1      -3.971  14.618   4.884  1.00  0.00     0.188 C 
ATOM     21  C   UNL     1      -4.094  16.076   5.383  1.00  0.00     0.179 C 
ATOM     22  O   UNL     1      -4.352  14.515   3.519  1.00  0.00    -0.362 OA
ATOM     23  C   UNL     1      -5.537  16.569   5.166  1.00  0.00     0.177 C 
ATOM     24  C   UNL     1      -5.726  14.830   3.353  1.00  0.00     0.176 C 
ATOM     25  C   UNL     1      -5.991  16.311   3.714  1.00  0.00     0.177 C 
BRANCH  21  26
ATOM     26  O   UNL     1      -3.185  16.899   4.694  1.00  0.00    -0.387 OA
ATOM     27  H   UNL     1      -2.843  17.565   5.347  1.00  0.00     0.211 HD
ENDBRANCH  21  26
BRANCH  23  28
ATOM     28  O   UNL     1      -5.630  17.935   5.483  1.00  0.00    -0.387 OA
ATOM     29  H   UNL     1      -4.711  18.239   5.705  1.00  0.00     0.211 HD
ENDBRANCH  23  28
BRANCH  24  30
ATOM     30  C   UNL     1      -6.124  14.514   1.904  1.00  0.00     0.191 C 
BRANCH  30  31
ATOM     31  O   UNL     1      -5.050  14.744   1.030  1.00  0.00    -0.394 OA
ATOM     32  H   UNL     1      -4.998  15.724   0.888  1.00  0.00     0.210 HD
ENDBRANCH  30  31
ENDBRANCH  24  30
BRANCH  25  33
ATOM     33  O   UNL     1      -5.297  17.150   2.824  1.00  0.00    -0.388 OA
ATOM     34  H   UNL     1      -4.675  17.698   3.370  1.00  0.00     0.211 HD
ENDBRANCH  25  33
ENDBRANCH  11  20
BRANCH  10  35
ATOM     35  O   UNL     1      -3.138  13.047   7.200  1.00  0.00    -0.507 OA
ATOM     36  H   UNL     1      -2.940  13.178   8.185  1.00  0.00     0.293 HD
ENDBRANCH  10  35
TORSDOF 9
ENDMDL
MODEL 4
REMARK VINA RESULT:    -5.388      2.930      6.482
REMARK INTER + INTRA:          -7.018
REMARK INTER:                  -6.720
REMARK INTRA:                  -0.298
REMARK UNBOUND:                 0.260
REMARK SMILES O=c1c(-c2ccc(O)cc2)coc2c([C@@H]3O[C@H](CO)[C@H](O)[C@H](O)[C@@H]3O)c(O)ccc12
REMARK SMILES IDX 3 1 11 2 12 3 13 4 30 5 2 6 1 7 29 8 28 9 26 10 14 11 4 12
REMARK SMILES IDX 5 13 6 14 7 15 10 16 9 17 8 18 15 20 24 21 16 22 22 23 17 24
REMARK SMILES IDX 20 25 25 26 23 28 18 30 19 31 21 33 27 35
REMARK H PARENT 8 19 25 27 23 29 19 32 21 34 27 36
REMARK Flexibility Score: inf
ROOT
ATOM      1  C   UNL     1       0.025  14.103   3.309  1.00  0.00     0.065 A 
ATOM      2  C   UNL     1      -0.673  14.106   2.093  1.00  0.00     0.208 A 
ATOM      3  O   UNL     1      -1.956  14.443   2.043  1.00  0.00    -0.463 OA
ATOM      4  C   UNL     1      -2.660  14.794   3.116  1.00  0.00     0.147 A 
ATOM      5  C   UNL     1      -2.037  14.807   4.386  1.00  0.00     0.066 A 
ATOM      6  C   UNL     1      -0.679  14.453   4.476  1.00  0.00     0.200 A 
ATOM      7  O   UNL     1      -0.100  14.428   5.598  1.00  0.00    -0.288 OA
ATOM      8  C   UNL     1      -2.786  15.158   5.520  1.00  0.00     0.020 A 
ATOM      9  C   UNL     1      -4.136  15.478   5.399  1.00  0.00     0.047 A 
ATOM     10  C   UNL     1      -4.764  15.464   4.147  1.00  0.00     0.125 A 
ATOM     11  C   UNL     1      -4.023  15.146   2.983  1.00  0.00     0.069 A 
ENDROOT
BRANCH   1  12
ATOM     12  C   UNL     1       1.461  13.732   3.339  1.00  0.00    -0.011 A 
ATOM     13  C   UNL     1       1.867  12.469   3.807  1.00  0.00     0.013 A 
ATOM     14  C   UNL     1       3.222  12.128   3.840  1.00  0.00     0.047 A 
ATOM     15  C   UNL     1       4.189  13.047   3.410  1.00  0.00     0.115 A 
ATOM     16  C   UNL     1       2.440  14.649   2.916  1.00  0.00     0.013 A 
ATOM     17  C   UNL     1       3.794  14.305   2.950  1.00  0.00     0.047 A 
BRANCH  15  18
ATOM     18  O   UNL     1       5.543  12.717   3.439  1.00  0.00    -0.508 OA
ATOM     19  H   UNL     1       6.223  13.222   2.885  1.00  0.00     0.293 HD
ENDBRANCH  15  18
ENDBRANCH   1  12
BRANCH  11  20
ATOM     20  C   UNL     1      -4.685  15.100   1.612  1.00  0.00     0.188 C 
ATOM     21  C   UNL     1      -4.433  16.419   0.844  1.00  0.00     0.179 C 
ATOM     22  O   UNL     1      -4.213  13.984   0.871  1.00  0.00    -0.362 OA
ATOM     23  C   UNL     1      -5.107  16.341  -0.539  1.00  0.00     0.177 C 
ATOM     24  C   UNL     1      -4.944  13.834  -0.337  1.00  0.00     0.176 C 
ATOM     25  C   UNL     1      -4.702  15.043  -1.271  1.00  0.00     0.177 C 
BRANCH  21  26
ATOM     26  O   UNL     1      -3.051  16.639   0.706  1.00  0.00    -0.387 OA
ATOM     27  H   UNL     1      -2.895  17.609   0.847  1.00  0.00     0.211 HD
ENDBRANCH  21  26
BRANCH  23  28
ATOM     28  O   UNL     1      -4.768  17.471  -1.301  1.00  0.00    -0.387 OA
ATOM     29  H   UNL     1      -5.411  18.186  -1.053  1.00  0.00     0.211 HD
ENDBRANCH  23  28
BRANCH  24  30
ATOM     30  C   UNL     1      -4.527  12.511  -0.995  1.00  0.00     0.191 C 
BRANCH  30  31
ATOM     31  O   UNL     1      -4.594  11.453  -0.075  1.00  0.00    -0.394 OA
ATOM     32  H   UNL     1      -4.234  11.794   0.784  1.00  0.00     0.210 HD
ENDBRANCH  30  31
ENDBRANCH  24  30
BRANCH  25  33
ATOM     33  O   UNL     1      -3.348  15.093  -1.648  1.00  0.00    -0.388 OA
ATOM     34  H   UNL     1      -3.108  16.051  -1.739  1.00  0.00     0.211 HD
ENDBRANCH  25  33
ENDBRANCH  11  20
BRANCH  10  35
ATOM     35  O   UNL     1      -6.124  15.762   4.065  1.00  0.00    -0.507 OA
ATOM     36  H   UNL     1      -6.544  16.110   3.211  1.00  0.00     0.293 HD
ENDBRANCH  10  35
TORSDOF 9
ENDMDL
MODEL 5
REMARK VINA RESULT:    -5.216      3.403      5.587
REMARK INTER + INTRA:          -6.786
REMARK INTER:                  -6.566
REMARK INTRA:                  -0.220
REMARK UNBOUND:                 0.260
REMARK SMILES O=c1c(-c2ccc(O)cc2)coc2c([C@@H]3O[C@H](CO)[C@H](O)[C@H](O)[C@@H]3O)c(O)ccc12
REMARK SMILES IDX 3 1 11 2 12 3 13 4 30 5 2 6 1 7 29 8 28 9 26 10 14 11 4 12
REMARK SMILES IDX 5 13 6 14 7 15 10 16 9 17 8 18 15 20 24 21 16 22 22 23 17 24
REMARK SMILES IDX 20 25 25 26 23 28 18 30 19 31 21 33 27 35
REMARK H PARENT 8 19 25 27 23 29 19 32 21 34 27 36
REMARK Flexibility Score: inf
ROOT
ATOM      1  C   UNL     1      -3.836  15.852   2.792  1.00  0.00     0.065 A 
ATOM      2  C   UNL     1      -2.449  15.843   2.584  1.00  0.00     0.208 A 
ATOM      3  O   UNL     1      -1.905  15.087   1.638  1.00  0.00    -0.463 OA
ATOM      4  C   UNL     1      -2.618  14.300   0.835  1.00  0.00     0.147 A 
ATOM      5  C   UNL     1      -4.023  14.240   0.983  1.00  0.00     0.066 A 
ATOM      6  C   UNL     1      -4.632  15.026   1.978  1.00  0.00     0.200 A 
ATOM      7  O   UNL     1      -5.881  14.975   2.154  1.00  0.00    -0.288 OA
ATOM      8  C   UNL     1      -4.771  13.393   0.150  1.00  0.00     0.020 A 
ATOM      9  C   UNL     1      -4.133  12.609  -0.808  1.00  0.00     0.047 A 
ATOM     10  C   UNL     1      -2.742  12.657  -0.961  1.00  0.00     0.125 A 
ATOM     11  C   UNL     1      -1.968  13.526  -0.155  1.00  0.00     0.069 A 
ENDROOT
BRANCH   1  12
ATOM     12  C   UNL     1      -4.421  16.713   3.849  1.00  0.00    -0.011 A 
ATOM     13  C   UNL     1      -5.584  17.465   3.602  1.00  0.00     0.013 A 
ATOM     14  C   UNL     1      -6.125  18.280   4.599  1.00  0.00     0.047 A 
ATOM     15  C   UNL     1      -5.509  18.358   5.855  1.00  0.00     0.115 A 
ATOM     16  C   UNL     1      -3.806  16.803   5.112  1.00  0.00     0.013 A 
ATOM     17  C   UNL     1      -4.350  17.619   6.107  1.00  0.00     0.047 A 
BRANCH  15  18
ATOM     18  O   UNL     1      -6.041  19.168   6.857  1.00  0.00    -0.508 OA
ATOM     19  H   UNL     1      -6.649  18.793   7.575  1.00  0.00     0.293 HD
ENDBRANCH  15  18
ENDBRANCH   1  12
BRANCH  11  20
ATOM     20  C   UNL     1      -0.451  13.583  -0.282  1.00  0.00     0.188 C 
ATOM     21  C   UNL     1      -0.030  14.719  -1.242  1.00  0.00     0.179 C 
ATOM     22  O   UNL     1       0.148  13.749   0.995  1.00  0.00    -0.362 OA
ATOM     23  C   UNL     1       1.507  14.757  -1.346  1.00  0.00     0.177 C 
ATOM     24  C   UNL     1       1.560  13.633   0.909  1.00  0.00     0.176 C 
ATOM     25  C   UNL     1       2.149  14.783   0.058  1.00  0.00     0.177 C 
BRANCH  21  26
ATOM     26  O   UNL     1      -0.521  15.952  -0.774  1.00  0.00    -0.387 OA
ATOM     27  H   UNL     1      -0.148  16.086   0.136  1.00  0.00     0.211 HD
ENDBRANCH  21  26
BRANCH  23  28
ATOM     28  O   UNL     1       1.910  15.871  -2.100  1.00  0.00    -0.387 OA
ATOM     29  H   UNL     1       2.157  16.581  -1.452  1.00  0.00     0.211 HD
ENDBRANCH  23  28
BRANCH  24  30
ATOM     30  C   UNL     1       2.133  13.626   2.334  1.00  0.00     0.191 C 
BRANCH  30  31
ATOM     31  O   UNL     1       1.358  14.426   3.188  1.00  0.00    -0.394 OA
ATOM     32  H   UNL     1       1.794  15.316   3.225  1.00  0.00     0.210 HD
ENDBRANCH  30  31
ENDBRANCH  24  30
BRANCH  25  33
ATOM     33  O   UNL     1       1.904  16.017   0.688  1.00  0.00    -0.388 OA
ATOM     34  H   UNL     1       1.083  15.905   1.234  1.00  0.00     0.211 HD
ENDBRANCH  25  33
ENDBRANCH  11  20
BRANCH  10  35
ATOM     35  O   UNL     1      -2.132  11.836  -1.910  1.00  0.00    -0.507 OA
ATOM     36  H   UNL     1      -1.666  12.217  -2.724  1.00  0.00     0.293 HD
ENDBRANCH  10  35
TORSDOF 9
ENDMDL
MODEL 6
REMARK VINA RESULT:    -4.774      3.764      7.415
REMARK INTER + INTRA:          -6.189
REMARK INTER:                  -6.025
REMARK INTRA:                  -0.164
REMARK UNBOUND:                 0.260
REMARK SMILES O=c1c(-c2ccc(O)cc2)coc2c([C@@H]3O[C@H](CO)[C@H](O)[C@H](O)[C@@H]3O)c(O)ccc12
REMARK SMILES IDX 3 1 11 2 12 3 13 4 30 5 2 6 1 7 29 8 28 9 26 10 14 11 4 12
REMARK SMILES IDX 5 13 6 14 7 15 10 16 9 17 8 18 15 20 24 21 16 22 22 23 17 24
REMARK SMILES IDX 20 25 25 26 23 28 18 30 19 31 21 33 27 35
REMARK H PARENT 8 19 25 27 23 29 19 32 21 34 27 36
REMARK Flexibility Score: inf
ROOT
ATOM      1  C   UNL     1       1.977  15.367   1.960  1.00  0.00     0.065 A 
ATOM      2  C   UNL     1       0.943  14.534   2.410  1.00  0.00     0.208 A 
ATOM      3  O   UNL     1      -0.159  14.363   1.690  1.00  0.00    -0.463 OA
ATOM      4  C   UNL     1      -0.362  14.957   0.516  1.00  0.00     0.147 A 
ATOM      5  C   UNL     1       0.625  15.825  -0.008  1.00  0.00     0.066 A 
ATOM      6  C   UNL     1       1.804  16.029   0.730  1.00  0.00     0.200 A 
ATOM      7  O   UNL     1       2.693  16.819   0.305  1.00  0.00    -0.288 OA
ATOM      8  C   UNL     1       0.400  16.467  -1.235  1.00  0.00     0.020 A 
ATOM      9  C   UNL     1      -0.790  16.261  -1.928  1.00  0.00     0.047 A 
ATOM     10  C   UNL     1      -1.776  15.408  -1.417  1.00  0.00     0.125 A 
ATOM     11  C   UNL     1      -1.561  14.723  -0.197  1.00  0.00     0.069 A 
ENDROOT
BRANCH   1  12
ATOM     12  C   UNL     1       3.203  15.534   2.777  1.00  0.00    -0.011 A 
ATOM     13  C   UNL     1       3.626  14.517   3.653  1.00  0.00     0.013 A 
ATOM     14  C   UNL     1       4.778  14.684   4.427  1.00  0.00     0.047 A 
ATOM     15  C   UNL     1       5.519  15.869   4.340  1.00  0.00     0.115 A 
ATOM     16  C   UNL     1       3.951  16.723   2.701  1.00  0.00     0.013 A 
ATOM     17  C   UNL     1       5.102  16.886   3.477  1.00  0.00     0.047 A 
BRANCH  15  18
ATOM     18  O   UNL     1       6.669  16.045   5.106  1.00  0.00    -0.508 OA
ATOM     19  H   UNL     1       6.677  16.647   5.921  1.00  0.00     0.293 HD
ENDBRANCH  15  18
ENDBRANCH   1  12
BRANCH  11  20
ATOM     20  C   UNL     1      -2.625  13.807   0.395  1.00  0.00     0.188 C 
ATOM     21  C   UNL     1      -3.723  14.635   1.101  1.00  0.00     0.179 C 
ATOM     22  O   UNL     1      -3.184  12.980  -0.615  1.00  0.00    -0.362 OA
ATOM     23  C   UNL     1      -4.786  13.684   1.682  1.00  0.00     0.177 C 
ATOM     24  C   UNL     1      -4.051  12.008  -0.050  1.00  0.00     0.176 C 
ATOM     25  C   UNL     1      -5.274  12.689   0.608  1.00  0.00     0.177 C 
BRANCH  21  26
ATOM     26  O   UNL     1      -4.311  15.531   0.190  1.00  0.00    -0.387 OA
ATOM     27  H   UNL     1      -5.249  15.237   0.057  1.00  0.00     0.211 HD
ENDBRANCH  21  26
BRANCH  23  28
ATOM     28  O   UNL     1      -5.860  14.425   2.202  1.00  0.00    -0.387 OA
ATOM     29  H   UNL     1      -5.532  15.354   2.328  1.00  0.00     0.211 HD
ENDBRANCH  23  28
BRANCH  24  30
ATOM     30  C   UNL     1      -4.468  11.028  -1.156  1.00  0.00     0.191 C 
BRANCH  30  31
ATOM     31  O   UNL     1      -4.587   9.725  -0.650  1.00  0.00    -0.394 OA
ATOM     32  H   UNL     1      -5.394   9.712  -0.072  1.00  0.00     0.210 HD
ENDBRANCH  30  31
ENDBRANCH  24  30
BRANCH  25  33
ATOM     33  O   UNL     1      -6.034  13.354  -0.371  1.00  0.00    -0.388 OA
ATOM     34  H   UNL     1      -5.742  14.303  -0.368  1.00  0.00     0.211 HD
ENDBRANCH  25  33
ENDBRANCH  11  20
BRANCH  10  35
ATOM     35  O   UNL     1      -2.970  15.248  -2.122  1.00  0.00    -0.507 OA
ATOM     36  H   UNL     1      -3.158  15.760  -2.975  1.00  0.00     0.293 HD
ENDBRANCH  10  35
TORSDOF 9
ENDMDL
MODEL 7
REMARK VINA RESULT:    -4.704      1.258      1.980
REMARK INTER + INTRA:          -6.093
REMARK INTER:                  -8.439
REMARK INTRA:                   2.346
REMARK UNBOUND:                 0.260
REMARK SMILES O=c1c(-c2ccc(O)cc2)coc2c([C@@H]3O[C@H](CO)[C@H](O)[C@H](O)[C@@H]3O)c(O)ccc12
REMARK SMILES IDX 3 1 11 2 12 3 13 4 30 5 2 6 1 7 29 8 28 9 26 10 14 11 4 12
REMARK SMILES IDX 5 13 6 14 7 15 10 16 9 17 8 18 15 20 24 21 16 22 22 23 17 24
REMARK SMILES IDX 20 25 25 26 23 28 18 30 19 31 21 33 27 35
REMARK H PARENT 8 19 25 27 23 29 19 32 21 34 27 36
REMARK Flexibility Score: inf
ROOT
ATOM      1  C   UNL     1      -1.525  13.244   5.672  1.00  0.00     0.065 A 
ATOM      2  C   UNL     1      -1.684  13.869   4.428  1.00  0.00     0.208 A 
ATOM      3  O   UNL     1      -0.638  14.113   3.647  1.00  0.00    -0.463 OA
ATOM      4  C   UNL     1       0.610  13.792   3.980  1.00  0.00     0.147 A 
ATOM      5  C   UNL     1       0.863  13.168   5.224  1.00  0.00     0.066 A 
ATOM      6  C   UNL     1      -0.223  12.897   6.076  1.00  0.00     0.200 A 
ATOM      7  O   UNL     1      -0.029  12.366   7.205  1.00  0.00    -0.288 OA
ATOM      8  C   UNL     1       2.181  12.848   5.583  1.00  0.00     0.020 A 
ATOM      9  C   UNL     1       3.236  13.154   4.726  1.00  0.00     0.047 A 
ATOM     10  C   UNL     1       2.998  13.775   3.493  1.00  0.00     0.125 A 
ATOM     11  C   UNL     1       1.674  14.079   3.093  1.00  0.00     0.069 A 
ENDROOT
BRANCH   1  12
ATOM     12  C   UNL     1      -2.710  12.973   6.522  1.00  0.00    -0.011 A 
ATOM     13  C   UNL     1      -2.809  11.778   7.257  1.00  0.00     0.013 A 
ATOM     14  C   UNL     1      -3.932  11.524   8.049  1.00  0.00     0.047 A 
ATOM     15  C   UNL     1      -4.973  12.460   8.114  1.00  0.00     0.115 A 
ATOM     16  C   UNL     1      -3.764  13.903   6.589  1.00  0.00     0.013 A 
ATOM     17  C   UNL     1      -4.886  13.647   7.382  1.00  0.00     0.047 A 
BRANCH  15  18
ATOM     18  O   UNL     1      -6.097  12.217   8.901  1.00  0.00    -0.508 OA
ATOM     19  H   UNL     1      -6.541  12.955   9.434  1.00  0.00     0.293 HD
ENDBRANCH  15  18
ENDBRANCH   1  12
BRANCH  11  20
ATOM     20  C   UNL     1       1.387  14.775   1.769  1.00  0.00     0.188 C 
ATOM     21  C   UNL     1       2.356  15.961   1.559  1.00  0.00     0.179 C 
ATOM     22  O   UNL     1       1.474  13.852   0.694  1.00  0.00    -0.362 OA
ATOM     23  C   UNL     1       2.047  16.640   0.211  1.00  0.00     0.177 C 
ATOM     24  C   UNL     1       1.044  14.447  -0.520  1.00  0.00     0.176 C 
ATOM     25  C   UNL     1       1.994  15.598  -0.927  1.00  0.00     0.177 C 
BRANCH  21  26
ATOM     26  O   UNL     1       3.687  15.505   1.585  1.00  0.00    -0.387 OA
ATOM     27  H   UNL     1       4.268  16.308   1.640  1.00  0.00     0.211 HD
ENDBRANCH  21  26
BRANCH  23  28
ATOM     28  O   UNL     1       3.009  17.628  -0.060  1.00  0.00    -0.387 OA
ATOM     29  H   UNL     1       3.448  17.843   0.804  1.00  0.00     0.211 HD
ENDBRANCH  23  28
BRANCH  24  30
ATOM     30  C   UNL     1       0.974  13.356  -1.598  1.00  0.00     0.191 C 
BRANCH  30  31
ATOM     31  O   UNL     1       0.929  12.080  -1.015  1.00  0.00    -0.394 OA
ATOM     32  H   UNL     1       1.564  12.089  -0.252  1.00  0.00     0.210 HD
ENDBRANCH  30  31
ENDBRANCH  24  30
BRANCH  25  33
ATOM     33  O   UNL     1       3.279  15.088  -1.186  1.00  0.00    -0.388 OA
ATOM     34  H   UNL     1       3.722  15.721  -1.809  1.00  0.00     0.211 HD
ENDBRANCH  25  33
ENDBRANCH  11  20
BRANCH  10  35
ATOM     35  O   UNL     1       4.079  14.095   2.672  1.00  0.00    -0.507 OA
ATOM     36  H   UNL     1       4.605  13.381   2.181  1.00  0.00     0.293 HD
ENDBRANCH  10  35
TORSDOF 9
ENDMDL
MODEL 8
REMARK VINA RESULT:    -4.562      1.160      2.028
REMARK INTER + INTRA:          -5.902
REMARK INTER:                  -7.134
REMARK INTRA:                   1.232
REMARK UNBOUND:                 0.260
REMARK SMILES O=c1c(-c2ccc(O)cc2)coc2c([C@@H]3O[C@H](CO)[C@H](O)[C@H](O)[C@@H]3O)c(O)ccc12
REMARK SMILES IDX 3 1 11 2 12 3 13 4 30 5 2 6 1 7 29 8 28 9 26 10 14 11 4 12
REMARK SMILES IDX 5 13 6 14 7 15 10 16 9 17 8 18 15 20 24 21 16 22 22 23 17 24
REMARK SMILES IDX 20 25 25 26 23 28 18 30 19 31 21 33 27 35
REMARK H PARENT 8 19 25 27 23 29 19 32 21 34 27 36
REMARK Flexibility Score: inf
ROOT
ATOM      1  C   UNL     1      -1.174  13.001   5.646  1.00  0.00     0.065 A 
ATOM      2  C   UNL     1      -1.326  13.177   4.264  1.00  0.00     0.208 A 
ATOM      3  O   UNL     1      -0.277  13.416   3.486  1.00  0.00    -0.463 OA
ATOM      4  C   UNL     1       0.968  13.505   3.949  1.00  0.00     0.147 A 
ATOM      5  C   UNL     1       1.211  13.351   5.334  1.00  0.00     0.066 A 
ATOM      6  C   UNL     1       0.121  13.099   6.187  1.00  0.00     0.200 A 
ATOM      7  O   UNL     1       0.300  12.984   7.431  1.00  0.00    -0.288 OA
ATOM      8  C   UNL     1       2.521  13.465   5.823  1.00  0.00     0.020 A 
ATOM      9  C   UNL     1       3.574  13.741   4.954  1.00  0.00     0.047 A 
ATOM     10  C   UNL     1       3.345  13.899   3.581  1.00  0.00     0.125 A 
ATOM     11  C   UNL     1       2.037  13.757   3.057  1.00  0.00     0.069 A 
ENDROOT
BRANCH   1  12
ATOM     12  C   UNL     1      -2.360  12.725   6.493  1.00  0.00    -0.011 A 
ATOM     13  C   UNL     1      -2.454  11.532   7.232  1.00  0.00     0.013 A 
ATOM     14  C   UNL     1      -3.578  11.274   8.021  1.00  0.00     0.047 A 
ATOM     15  C   UNL     1      -4.625  12.203   8.079  1.00  0.00     0.115 A 
ATOM     16  C   UNL     1      -3.420  13.649   6.553  1.00  0.00     0.013 A 
ATOM     17  C   UNL     1      -4.543  13.388   7.343  1.00  0.00     0.047 A 
BRANCH  15  18
ATOM     18  O   UNL     1      -5.750  11.956   8.863  1.00  0.00    -0.508 OA
ATOM     19  H   UNL     1      -5.818  11.132   9.448  1.00  0.00     0.293 HD
ENDBRANCH  15  18
ENDBRANCH   1  12
BRANCH  11  20
ATOM     20  C   UNL     1       1.754  13.946   1.572  1.00  0.00     0.188 C 
ATOM     21  C   UNL     1       0.243  14.171   1.333  1.00  0.00     0.179 C 
ATOM     22  O   UNL     1       2.516  15.028   1.057  1.00  0.00    -0.362 OA
ATOM     23  C   UNL     1      -0.011  14.367  -0.173  1.00  0.00     0.177 C 
ATOM     24  C   UNL     1       2.390  15.107  -0.355  1.00  0.00     0.176 C 
ATOM     25  C   UNL     1       0.933  15.441  -0.753  1.00  0.00     0.177 C 
BRANCH  21  26
ATOM     26  O   UNL     1      -0.196  15.296   2.056  1.00  0.00    -0.387 OA
ATOM     27  H   UNL     1       0.512  15.986   1.979  1.00  0.00     0.211 HD
ENDBRANCH  21  26
BRANCH  23  28
ATOM     28  O   UNL     1      -1.355  14.713  -0.392  1.00  0.00    -0.387 OA
ATOM     29  H   UNL     1      -1.397  15.705  -0.398  1.00  0.00     0.211 HD
ENDBRANCH  23  28
BRANCH  24  30
ATOM     30  C   UNL     1       3.380  16.160  -0.872  1.00  0.00     0.191 C 
BRANCH  30  31
ATOM     31  O   UNL     1       3.673  17.103   0.126  1.00  0.00    -0.394 OA
ATOM     32  H   UNL     1       4.657  17.091   0.255  1.00  0.00     0.210 HD
ENDBRANCH  30  31
ENDBRANCH  24  30
BRANCH  25  33
ATOM     33  O   UNL     1       0.586  16.715  -0.267  1.00  0.00    -0.388 OA
ATOM     34  H   UNL     1       0.938  17.378  -0.916  1.00  0.00     0.211 HD
ENDBRANCH  25  33
ENDBRANCH  11  20
BRANCH  10  35
ATOM     35  O   UNL     1       4.417  14.204   2.742  1.00  0.00    -0.507 OA
ATOM     36  H   UNL     1       4.897  13.488   2.209  1.00  0.00     0.293 HD
ENDBRANCH  10  35
TORSDOF 9
ENDMDL
MODEL 9
REMARK VINA RESULT:    -4.551      2.571      5.012
REMARK INTER + INTRA:          -5.887
REMARK INTER:                  -6.192
REMARK INTRA:                   0.305
REMARK UNBOUND:                 0.260
REMARK SMILES O=c1c(-c2ccc(O)cc2)coc2c([C@@H]3O[C@H](CO)[C@H](O)[C@H](O)[C@@H]3O)c(O)ccc12
REMARK SMILES IDX 3 1 11 2 12 3 13 4 30 5 2 6 1 7 29 8 28 9 26 10 14 11 4 12
REMARK SMILES IDX 5 13 6 14 7 15 10 16 9 17 8 18 15 20 24 21 16 22 22 23 17 24
REMARK SMILES IDX 20 25 25 26 23 28 18 30 19 31 21 33 27 35
REMARK H PARENT 8 19 25 27 23 29 19 32 21 34 27 36
REMARK Flexibility Score: inf
ROOT
ATOM      1  C   UNL     1      -0.336  13.871   3.652  1.00  0.00     0.065 A 
ATOM      2  C   UNL     1      -1.672  13.957   3.235  1.00  0.00     0.208 A 
ATOM      3  O   UNL     1      -1.987  14.482   2.057  1.00  0.00    -0.463 OA
ATOM      4  C   UNL     1      -1.081  14.957   1.206  1.00  0.00     0.147 A 
ATOM      5  C   UNL     1       0.290  14.920   1.551  1.00  0.00     0.066 A 
ATOM      6  C   UNL     1       0.659  14.372   2.793  1.00  0.00     0.200 A 
ATOM      7  O   UNL     1       1.871  14.349   3.144  1.00  0.00    -0.288 OA
ATOM      8  C   UNL     1       1.242  15.440   0.661  1.00  0.00     0.020 A 
ATOM      9  C   UNL     1       0.840  15.999  -0.549  1.00  0.00     0.047 A 
ATOM     10  C   UNL     1      -0.515  16.045  -0.900  1.00  0.00     0.125 A 
ATOM     11  C   UNL     1      -1.493  15.498  -0.035  1.00  0.00     0.069 A 
ENDROOT
BRANCH   1  12
ATOM     12  C   UNL     1      -0.008  13.270   4.969  1.00  0.00    -0.011 A 
ATOM     13  C   UNL     1       1.188  13.601   5.631  1.00  0.00     0.013 A 
ATOM     14  C   UNL     1       1.495  13.026   6.867  1.00  0.00     0.047 A 
ATOM     15  C   UNL     1       0.614  12.108   7.455  1.00  0.00     0.115 A 
ATOM     16  C   UNL     1      -0.884  12.343   5.564  1.00  0.00     0.013 A 
ATOM     17  C   UNL     1      -0.573  11.770   6.800  1.00  0.00     0.047 A 
BRANCH  15  18
ATOM     18  O   UNL     1       0.910  11.529   8.687  1.00  0.00    -0.508 OA
ATOM     19  H   UNL     1       0.928  12.076   9.539  1.00  0.00     0.293 HD
ENDBRANCH  15  18
ENDBRANCH   1  12
BRANCH  11  20
ATOM     20  C   UNL     1      -2.976  15.554  -0.380  1.00  0.00     0.188 C 
ATOM     21  C   UNL     1      -3.391  14.303  -1.188  1.00  0.00     0.179 C 
ATOM     22  O   UNL     1      -3.755  15.677   0.801  1.00  0.00    -0.362 OA
ATOM     23  C   UNL     1      -4.894  14.384  -1.516  1.00  0.00     0.177 C 
ATOM     24  C   UNL     1      -5.120  15.900   0.484  1.00  0.00     0.176 C 
ATOM     25  C   UNL     1      -5.717  14.671  -0.241  1.00  0.00     0.177 C 
BRANCH  21  26
ATOM     26  O   UNL     1      -3.111  13.138  -0.451  1.00  0.00    -0.387 OA
ATOM     27  H   UNL     1      -2.910  13.423   0.478  1.00  0.00     0.211 HD
ENDBRANCH  21  26
BRANCH  23  28
ATOM     28  O   UNL     1      -5.317  13.190  -2.125  1.00  0.00    -0.387 OA
ATOM     29  H   UNL     1      -4.674  12.486  -1.849  1.00  0.00     0.211 HD
ENDBRANCH  23  28
BRANCH  24  30
ATOM     30  C   UNL     1      -5.874  16.218   1.784  1.00  0.00     0.191 C 
BRANCH  30  31
ATOM     31  O   UNL     1      -5.006  16.760   2.745  1.00  0.00    -0.394 OA
ATOM     32  H   UNL     1      -5.563  17.022   3.522  1.00  0.00     0.210 HD
ENDBRANCH  30  31
ENDBRANCH  24  30
BRANCH  25  33
ATOM     33  O   UNL     1      -5.701  13.556   0.616  1.00  0.00    -0.388 OA
ATOM     34  H   UNL     1      -5.847  13.897   1.537  1.00  0.00     0.211 HD
ENDBRANCH  25  33
ENDBRANCH  11  20
BRANCH  10  35
ATOM     35  O   UNL     1      -0.886  16.638  -2.107  1.00  0.00    -0.507 OA
ATOM     36  H   UNL     1      -0.198  16.944  -2.785  1.00  0.00     0.293 HD
ENDBRANCH  10  35
TORSDOF 9
ENDMDL
