MODEL 1
REMARK VINA RESULT:    -4.321      0.000      0.000
REMARK INTER + INTRA:          -5.005
REMARK INTER:                  -4.952
REMARK INTRA:                  -0.053
REMARK UNBOUND:                -0.053
REMARK SMILES O=C([O-])c1cc(O)c(O)c(O)c1
REMARK SMILES IDX 4 1 5 2 12 3 6 4 10 5 8 6 2 7 1 8 3 9 7 10 11 12 9 14
REMARK H PARENT 7 11 11 13 9 15
REMARK Flexibility Score: inf
ROOT
ATOM      1  C   UNL     1       4.361 -18.864   7.099  1.00  0.00     0.005 A 
ATOM      2  C   UNL     1       5.574 -19.568   7.188  1.00  0.00     0.060 A 
ATOM      3  C   UNL     1       3.225 -19.524   6.597  1.00  0.00     0.060 A 
ATOM      4  C   UNL     1       5.653 -20.909   6.783  1.00  0.00     0.162 A 
ATOM      5  C   UNL     1       3.299 -20.863   6.191  1.00  0.00     0.162 A 
ATOM      6  C   UNL     1       4.511 -21.557   6.284  1.00  0.00     0.200 A 
ENDROOT
BRANCH   1   7
ATOM      7  C   UNL     1       4.284 -17.450   7.527  1.00  0.00     0.072 C 
ATOM      8  O   UNL     1       3.214 -16.800   7.403  1.00  0.00    -0.545 OA
ATOM      9  O   UNL     1       5.396 -16.819   8.075  1.00  0.00    -0.545 OA
ENDBRANCH   1   7
BRANCH   4  10
ATOM     10  O   UNL     1       6.861 -21.597   6.876  1.00  0.00    -0.504 OA
ATOM     11  H   UNL     1       7.398 -21.615   7.736  1.00  0.00     0.293 HD
ENDBRANCH   4  10
BRANCH   5  12
ATOM     12  O   UNL     1       2.170 -21.512   5.695  1.00  0.00    -0.504 OA
ATOM     13  H   UNL     1       2.176 -22.505   5.491  1.00  0.00     0.293 HD
ENDBRANCH   5  12
BRANCH   6  14
ATOM     14  O   UNL     1       4.566 -22.891   5.874  1.00  0.00    -0.502 OA
ATOM     15  H   UNL     1       4.217 -23.646   6.453  1.00  0.00     0.293 HD
ENDBRANCH   6  14
TORSDOF 4
ENDMDL
MODEL 2
REMARK VINA RESULT:    -4.276      0.279      2.436
REMARK INTER + INTRA:          -4.954
REMARK INTER:                  -4.902
REMARK INTRA:                  -0.052
REMARK UNBOUND:                -0.053
REMARK SMILES O=C([O-])c1cc(O)c(O)c(O)c1
REMARK SMILES IDX 4 1 5 2 12 3 6 4 10 5 8 6 2 7 1 8 3 9 7 10 11 12 9 14
REMARK H PARENT 7 11 11 13 9 15
REMARK Flexibility Score: inf
ROOT
ATOM      1  C   UNL     1       4.495 -18.716   7.078  1.00  0.00     0.005 A 
ATOM      2  C   UNL     1       3.323 -19.326   6.600  1.00  0.00     0.060 A 
ATOM      3  C   UNL     1       5.671 -19.480   7.176  1.00  0.00     0.060 A 
ATOM      4  C   UNL     1       3.323 -20.678   6.227  1.00  0.00     0.162 A 
ATOM      5  C   UNL     1       5.676 -20.832   6.804  1.00  0.00     0.162 A 
ATOM      6  C   UNL     1       4.503 -21.432   6.330  1.00  0.00     0.200 A 
ENDROOT
BRANCH   1   7
ATOM      7  C   UNL     1       4.489 -17.289   7.470  1.00  0.00     0.072 C 
ATOM      8  O   UNL     1       3.409 -16.707   7.756  1.00  0.00    -0.545 OA
ATOM      9  O   UNL     1       5.677 -16.570   7.529  1.00  0.00    -0.545 OA
ENDBRANCH   1   7
BRANCH   4  10
ATOM     10  O   UNL     1       2.154 -21.273   5.755  1.00  0.00    -0.504 OA
ATOM     11  H   UNL     1       2.146 -22.222   5.401  1.00  0.00     0.293 HD
ENDBRANCH   4  10
BRANCH   5  12
ATOM     12  O   UNL     1       6.844 -21.585   6.903  1.00  0.00    -0.504 OA
ATOM     13  H   UNL     1       7.714 -21.176   7.224  1.00  0.00     0.293 HD
ENDBRANCH   5  12
BRANCH   6  14
ATOM     14  O   UNL     1       4.527 -22.779   5.964  1.00  0.00    -0.502 OA
ATOM     15  H   UNL     1       5.285 -23.176   5.420  1.00  0.00     0.293 HD
ENDBRANCH   6  14
TORSDOF 4
ENDMDL
MODEL 3
REMARK VINA RESULT:    -4.210     13.666     15.325
REMARK INTER + INTRA:          -4.878
REMARK INTER:                  -4.834
REMARK INTRA:                  -0.045
REMARK UNBOUND:                -0.053
REMARK SMILES O=C([O-])c1cc(O)c(O)c(O)c1
REMARK SMILES IDX 4 1 5 2 12 3 6 4 10 5 8 6 2 7 1 8 3 9 7 10 11 12 9 14
REMARK H PARENT 7 11 11 13 9 15
REMARK Flexibility Score: inf
ROOT
ATOM      1  C   UNL     1      15.551 -14.047  14.203  1.00  0.00     0.005 A 
ATOM      2  C   UNL     1      14.953 -13.702  12.979  1.00  0.00     0.060 A 
ATOM      3  C   UNL     1      15.660 -13.071  15.208  1.00  0.00     0.060 A 
ATOM      4  C   UNL     1      14.471 -12.402  12.761  1.00  0.00     0.162 A 
ATOM      5  C   UNL     1      15.180 -11.771  14.995  1.00  0.00     0.162 A 
ATOM      6  C   UNL     1      14.586 -11.435  13.773  1.00  0.00     0.200 A 
ENDROOT
BRANCH   1   7
ATOM      7  C   UNL     1      16.057 -15.420  14.426  1.00  0.00     0.072 C 
ATOM      8  O   UNL     1      17.259 -15.707  14.187  1.00  0.00    -0.545 OA
ATOM      9  O   UNL     1      15.209 -16.413  14.905  1.00  0.00    -0.545 OA
ENDBRANCH   1   7
BRANCH   4  10
ATOM     10  O   UNL     1      13.881 -12.071  11.543  1.00  0.00    -0.504 OA
ATOM     11  H   UNL     1      13.770 -11.106  11.251  1.00  0.00     0.293 HD
ENDBRANCH   4  10
BRANCH   5  12
ATOM     12  O   UNL     1      15.290 -10.806  15.996  1.00  0.00    -0.504 OA
ATOM     13  H   UNL     1      14.716 -10.840  16.830  1.00  0.00     0.293 HD
ENDBRANCH   5  12
BRANCH   6  14
ATOM     14  O   UNL     1      14.114 -10.135  13.579  1.00  0.00    -0.502 OA
ATOM     15  H   UNL     1      14.512  -9.516  12.883  1.00  0.00     0.293 HD
ENDBRANCH   6  14
TORSDOF 4
ENDMDL
MODEL 4
REMARK VINA RESULT:    -4.208     13.666     15.211
REMARK INTER + INTRA:          -4.876
REMARK INTER:                  -4.832
REMARK INTRA:                  -0.045
REMARK UNBOUND:                -0.053
REMARK SMILES O=C([O-])c1cc(O)c(O)c(O)c1
REMARK SMILES IDX 4 1 5 2 12 3 6 4 10 5 8 6 2 7 1 8 3 9 7 10 11 12 9 14
REMARK H PARENT 7 11 11 13 9 15
REMARK Flexibility Score: inf
ROOT
ATOM      1  C   UNL     1      15.532 -14.075  14.213  1.00  0.00     0.005 A 
ATOM      2  C   UNL     1      15.631 -13.102  15.222  1.00  0.00     0.060 A 
ATOM      3  C   UNL     1      14.952 -13.724  12.982  1.00  0.00     0.060 A 
ATOM      4  C   UNL     1      15.158 -11.799  15.007  1.00  0.00     0.162 A 
ATOM      5  C   UNL     1      14.478 -12.424  12.761  1.00  0.00     0.162 A 
ATOM      6  C   UNL     1      14.580 -11.460  13.772  1.00  0.00     0.200 A 
ENDROOT
BRANCH   1   7
ATOM      7  C   UNL     1      16.034 -15.447  14.447  1.00  0.00     0.072 C 
ATOM      8  O   UNL     1      17.225 -15.750  14.175  1.00  0.00    -0.545 OA
ATOM      9  O   UNL     1      15.194 -16.423  14.973  1.00  0.00    -0.545 OA
ENDBRANCH   1   7
BRANCH   4  10
ATOM     10  O   UNL     1      15.261 -10.842  16.015  1.00  0.00    -0.504 OA
ATOM     11  H   UNL     1      14.440 -10.400  16.414  1.00  0.00     0.293 HD
ENDBRANCH   4  10
BRANCH   5  12
ATOM     12  O   UNL     1      13.903 -12.081  11.539  1.00  0.00    -0.504 OA
ATOM     13  H   UNL     1      12.909 -12.186  11.371  1.00  0.00     0.293 HD
ENDBRANCH   5  12
BRANCH   6  14
ATOM     14  O   UNL     1      14.102 -10.170  13.534  1.00  0.00    -0.502 OA
ATOM     15  H   UNL     1      13.246  -9.827  13.955  1.00  0.00     0.293 HD
ENDBRANCH   6  14
TORSDOF 4
ENDMDL
MODEL 5
REMARK VINA RESULT:    -4.150      1.716      2.210
REMARK INTER + INTRA:          -4.809
REMARK INTER:                  -4.757
REMARK INTRA:                  -0.053
REMARK UNBOUND:                -0.053
REMARK SMILES O=C([O-])c1cc(O)c(O)c(O)c1
REMARK SMILES IDX 4 1 5 2 12 3 6 4 10 5 8 6 2 7 1 8 3 9 7 10 11 12 9 14
REMARK H PARENT 7 11 11 13 9 15
REMARK Flexibility Score: inf
ROOT
ATOM      1  C   UNL     1       5.152 -19.397   7.117  1.00  0.00     0.005 A 
ATOM      2  C   UNL     1       4.526 -20.063   8.184  1.00  0.00     0.060 A 
ATOM      3  C   UNL     1       5.487 -20.124   5.962  1.00  0.00     0.060 A 
ATOM      4  C   UNL     1       4.239 -21.434   8.101  1.00  0.00     0.162 A 
ATOM      5  C   UNL     1       5.203 -21.494   5.874  1.00  0.00     0.162 A 
ATOM      6  C   UNL     1       4.579 -22.150   6.942  1.00  0.00     0.200 A 
ENDROOT
BRANCH   1   7
ATOM      7  C   UNL     1       5.451 -17.951   7.211  1.00  0.00     0.072 C 
ATOM      8  O   UNL     1       5.076 -17.282   8.209  1.00  0.00    -0.545 OA
ATOM      9  O   UNL     1       6.154 -17.310   6.197  1.00  0.00    -0.545 OA
ENDBRANCH   1   7
BRANCH   4  10
ATOM     10  O   UNL     1       3.618 -22.084   9.166  1.00  0.00    -0.504 OA
ATOM     11  H   UNL     1       2.885 -22.768   9.017  1.00  0.00     0.293 HD
ENDBRANCH   4  10
BRANCH   5  12
ATOM     12  O   UNL     1       5.538 -22.211   4.726  1.00  0.00    -0.504 OA
ATOM     13  H   UNL     1       5.074 -23.081   4.490  1.00  0.00     0.293 HD
ENDBRANCH   5  12
BRANCH   6  14
ATOM     14  O   UNL     1       4.304 -23.515   6.836  1.00  0.00    -0.502 OA
ATOM     15  H   UNL     1       4.513 -24.042   5.996  1.00  0.00     0.293 HD
ENDBRANCH   6  14
TORSDOF 4
ENDMDL
MODEL 6
REMARK VINA RESULT:    -4.147      1.699      2.030
REMARK INTER + INTRA:          -4.806
REMARK INTER:                  -4.753
REMARK INTRA:                  -0.053
REMARK UNBOUND:                -0.053
REMARK SMILES O=C([O-])c1cc(O)c(O)c(O)c1
REMARK SMILES IDX 4 1 5 2 12 3 6 4 10 5 8 6 2 7 1 8 3 9 7 10 11 12 9 14
REMARK H PARENT 7 11 11 13 9 15
REMARK Flexibility Score: inf
ROOT
ATOM      1  C   UNL     1       5.122 -19.388   7.069  1.00  0.00     0.005 A 
ATOM      2  C   UNL     1       5.448 -20.140   5.927  1.00  0.00     0.060 A 
ATOM      3  C   UNL     1       4.503 -20.031   8.155  1.00  0.00     0.060 A 
ATOM      4  C   UNL     1       5.161 -21.512   5.869  1.00  0.00     0.162 A 
ATOM      5  C   UNL     1       4.214 -21.401   8.102  1.00  0.00     0.162 A 
ATOM      6  C   UNL     1       4.542 -22.143   6.960  1.00  0.00     0.200 A 
ENDROOT
BRANCH   1   7
ATOM      7  C   UNL     1       5.428 -17.941   7.123  1.00  0.00     0.072 C 
ATOM      8  O   UNL     1       6.147 -17.404   6.240  1.00  0.00    -0.545 OA
ATOM      9  O   UNL     1       4.925 -17.154   8.152  1.00  0.00    -0.545 OA
ENDBRANCH   1   7
BRANCH   4  10
ATOM     10  O   UNL     1       5.489 -22.247   4.732  1.00  0.00    -0.504 OA
ATOM     11  H   UNL     1       6.372 -22.119   4.252  1.00  0.00     0.293 HD
ENDBRANCH   4  10
BRANCH   5  12
ATOM     12  O   UNL     1       3.600 -22.034   9.181  1.00  0.00    -0.504 OA
ATOM     13  H   UNL     1       2.597 -22.179   9.211  1.00  0.00     0.293 HD
ENDBRANCH   5  12
BRANCH   6  14
ATOM     14  O   UNL     1       4.246 -23.507   6.926  1.00  0.00    -0.502 OA
ATOM     15  H   UNL     1       4.185 -24.066   7.769  1.00  0.00     0.293 HD
ENDBRANCH   6  14
TORSDOF 4
ENDMDL
MODEL 7
REMARK VINA RESULT:    -4.079      3.243      4.381
REMARK INTER + INTRA:          -4.728
REMARK INTER:                  -4.675
REMARK INTRA:                  -0.053
REMARK UNBOUND:                -0.053
REMARK SMILES O=C([O-])c1cc(O)c(O)c(O)c1
REMARK SMILES IDX 4 1 5 2 12 3 6 4 10 5 8 6 2 7 1 8 3 9 7 10 11 12 9 14
REMARK H PARENT 7 11 11 13 9 15
REMARK Flexibility Score: inf
ROOT
ATOM      1  C   UNL     1       4.706 -14.781   7.344  1.00  0.00     0.005 A 
ATOM      2  C   UNL     1       5.281 -15.369   8.483  1.00  0.00     0.060 A 
ATOM      3  C   UNL     1       4.486 -15.574   6.204  1.00  0.00     0.060 A 
ATOM      4  C   UNL     1       5.633 -16.727   8.486  1.00  0.00     0.162 A 
ATOM      5  C   UNL     1       4.836 -16.931   6.202  1.00  0.00     0.162 A 
ATOM      6  C   UNL     1       5.409 -17.509   7.341  1.00  0.00     0.200 A 
ENDROOT
BRANCH   1   7
ATOM      7  C   UNL     1       4.337 -13.348   7.348  1.00  0.00     0.072 C 
ATOM      8  O   UNL     1       3.820 -12.816   6.331  1.00  0.00    -0.545 OA
ATOM      9  O   UNL     1       4.558 -12.567   8.478  1.00  0.00    -0.545 OA
ENDBRANCH   1   7
BRANCH   4  10
ATOM     10  O   UNL     1       6.203 -17.299   9.621  1.00  0.00    -0.504 OA
ATOM     11  H   UNL     1       5.634 -17.716  10.350  1.00  0.00     0.293 HD
ENDBRANCH   4  10
BRANCH   5  12
ATOM     12  O   UNL     1       4.616 -17.713   5.069  1.00  0.00    -0.504 OA
ATOM     13  H   UNL     1       5.253 -18.457   4.806  1.00  0.00     0.293 HD
ENDBRANCH   5  12
BRANCH   6  14
ATOM     14  O   UNL     1       5.751 -18.863   7.319  1.00  0.00    -0.502 OA
ATOM     15  H   UNL     1       5.488 -19.496   8.065  1.00  0.00     0.293 HD
ENDBRANCH   6  14
TORSDOF 4
ENDMDL
MODEL 8
REMARK VINA RESULT:    -4.048      3.226      4.720
REMARK INTER + INTRA:          -4.693
REMARK INTER:                  -4.640
REMARK INTRA:                  -0.053
REMARK UNBOUND:                -0.053
REMARK SMILES O=C([O-])c1cc(O)c(O)c(O)c1
REMARK SMILES IDX 4 1 5 2 12 3 6 4 10 5 8 6 2 7 1 8 3 9 7 10 11 12 9 14
REMARK H PARENT 7 11 11 13 9 15
REMARK Flexibility Score: inf
ROOT
ATOM      1  C   UNL     1       4.677 -14.794   7.345  1.00  0.00     0.005 A 
ATOM      2  C   UNL     1       4.456 -15.572   6.197  1.00  0.00     0.060 A 
ATOM      3  C   UNL     1       5.252 -15.397   8.478  1.00  0.00     0.060 A 
ATOM      4  C   UNL     1       4.803 -16.932   6.177  1.00  0.00     0.162 A 
ATOM      5  C   UNL     1       5.601 -16.755   8.463  1.00  0.00     0.162 A 
ATOM      6  C   UNL     1       5.377 -17.523   7.315  1.00  0.00     0.200 A 
ENDROOT
BRANCH   1   7
ATOM      7  C   UNL     1       4.309 -13.361   7.359  1.00  0.00     0.072 C 
ATOM      8  O   UNL     1       3.949 -12.781   6.301  1.00  0.00    -0.545 OA
ATOM      9  O   UNL     1       4.355 -12.634   8.543  1.00  0.00    -0.545 OA
ENDBRANCH   1   7
BRANCH   4  10
ATOM     10  O   UNL     1       4.579 -17.694   5.033  1.00  0.00    -0.504 OA
ATOM     11  H   UNL     1       5.323 -18.224   4.592  1.00  0.00     0.293 HD
ENDBRANCH   4  10
BRANCH   5  12
ATOM     12  O   UNL     1       6.171 -17.348   9.588  1.00  0.00    -0.504 OA
ATOM     13  H   UNL     1       5.960 -18.304   9.848  1.00  0.00     0.293 HD
ENDBRANCH   5  12
BRANCH   6  14
ATOM     14  O   UNL     1       5.731 -18.874   7.319  1.00  0.00    -0.502 OA
ATOM     15  H   UNL     1       6.468 -19.235   7.913  1.00  0.00     0.293 HD
ENDBRANCH   6  14
TORSDOF 4
ENDMDL
MODEL 9
REMARK VINA RESULT:    -3.965      2.174      2.892
REMARK INTER + INTRA:          -4.597
REMARK INTER:                  -4.552
REMARK INTRA:                  -0.045
REMARK UNBOUND:                -0.053
REMARK SMILES O=C([O-])c1cc(O)c(O)c(O)c1
REMARK SMILES IDX 4 1 5 2 12 3 6 4 10 5 8 6 2 7 1 8 3 9 7 10 11 12 9 14
REMARK H PARENT 7 11 11 13 9 15
REMARK Flexibility Score: inf
ROOT
ATOM      1  C   UNL     1       5.403 -17.239   7.571  1.00  0.00     0.005 A 
ATOM      2  C   UNL     1       5.601 -17.099   6.187  1.00  0.00     0.060 A 
ATOM      3  C   UNL     1       5.063 -18.501   8.088  1.00  0.00     0.060 A 
ATOM      4  C   UNL     1       5.462 -18.201   5.331  1.00  0.00     0.162 A 
ATOM      5  C   UNL     1       4.922 -19.606   7.236  1.00  0.00     0.162 A 
ATOM      6  C   UNL     1       5.121 -19.458   5.858  1.00  0.00     0.200 A 
ENDROOT
BRANCH   1   7
ATOM      7  C   UNL     1       5.552 -16.072   8.469  1.00  0.00     0.072 C 
ATOM      8  O   UNL     1       6.668 -15.796   8.982  1.00  0.00    -0.545 OA
ATOM      9  O   UNL     1       4.460 -15.262   8.758  1.00  0.00    -0.545 OA
ENDBRANCH   1   7
BRANCH   4  10
ATOM     10  O   UNL     1       5.660 -18.051   3.960  1.00  0.00    -0.504 OA
ATOM     11  H   UNL     1       6.583 -18.115   3.546  1.00  0.00     0.293 HD
ENDBRANCH   4  10
BRANCH   5  12
ATOM     12  O   UNL     1       4.585 -20.855   7.753  1.00  0.00    -0.504 OA
ATOM     13  H   UNL     1       4.532 -21.677   7.162  1.00  0.00     0.293 HD
ENDBRANCH   5  12
BRANCH   6  14
ATOM     14  O   UNL     1       4.976 -20.569   5.026  1.00  0.00    -0.502 OA
ATOM     15  H   UNL     1       4.797 -21.497   5.393  1.00  0.00     0.293 HD
ENDBRANCH   6  14
TORSDOF 4
ENDMDL
