MODEL 1
REMARK VINA RESULT:    -4.417      0.000      0.000
REMARK INTER + INTRA:          -5.758
REMARK INTER:                  -6.224
REMARK INTRA:                   0.466
REMARK UNBOUND:                 0.466
REMARK SMILES CC1=CCC(=C(C)C)C(=O)CC(C)=CCC1
REMARK SMILES IDX 12 1 14 2 13 3 15 4 16 5 2 6 1 7 3 8 11 10 9 11 10 12 5 13
REMARK SMILES IDX 6 14 7 15 8 16 4 17
REMARK H PARENT
REMARK Flexibility Score: 60.00
ROOT
ATOM      1  C   UNL     1      36.111  10.926  28.323  1.00  0.00    -0.070 C 
ATOM      2  C   UNL     1      34.987  10.507  27.697  1.00  0.00    -0.027 C 
ATOM      3  C   UNL     1      36.146  12.341  28.841  1.00  0.00     0.039 C 
ENDROOT
BRANCH   2   4
ATOM      4  C   UNL     1      34.799   9.146  27.063  1.00  0.00     0.032 C 
BRANCH   4   5
ATOM      5  C   UNL     1      35.467   9.068  25.682  1.00  0.00     0.034 C 
BRANCH   5   6
ATOM      6  C   UNL     1      36.383   7.864  25.517  1.00  0.00    -0.077 C 
ATOM      7  C   UNL     1      35.771   6.487  25.448  1.00  0.00     0.039 C 
ATOM      8  C   UNL     1      37.731   7.958  25.447  1.00  0.00    -0.023 CG0
ATOM      9  G   UNL     1      38.519   9.248  25.429  1.00  0.00     0.000 G0
ENDBRANCH   5   6
ENDBRANCH   4   5
ENDBRANCH   2   4
BRANCH   1  10
ATOM     10  C   UNL     1      37.324  10.040  28.524  1.00  0.00     0.111 C 
BRANCH  10  11
ATOM     11  C   UNL     1      38.486  10.515  27.698  1.00  0.00     0.163 C 
ATOM     12  O   UNL     1      38.858  11.716  27.788  1.00  0.00    -0.294 OA
BRANCH  11  13
ATOM     13  C   UNL     1      39.189   9.604  26.758  1.00  0.00    -0.002 C 
ATOM     14  C   UNL     1      40.409   9.096  27.080  1.00  0.00    -0.069 C 
ATOM     15  C   UNL     1      41.121   9.511  28.348  1.00  0.00     0.039 C 
ATOM     16  C   UNL     1      41.117   8.126  26.161  1.00  0.00     0.039 C 
BRANCH  13  17
ATOM     17  C   UNL     1      38.527   9.250  25.431  1.00  0.00     0.066 CG0
ATOM     18  G   UNL     1      37.739   7.961  25.469  1.00  0.00     0.000 G0
ENDBRANCH  13  17
ENDBRANCH  11  13
ENDBRANCH  10  11
ENDBRANCH   1  10
TORSDOF 0
ENDMDL
MODEL 2
REMARK VINA RESULT:    -4.415      2.041      5.086
REMARK INTER + INTRA:          -5.756
REMARK INTER:                  -6.350
REMARK INTRA:                   0.594
REMARK UNBOUND:                 0.466
REMARK SMILES CC1=CCC(=C(C)C)C(=O)CC(C)=CCC1
REMARK SMILES IDX 12 1 14 2 13 3 15 4 16 5 2 6 1 7 3 8 11 10 9 11 10 12 5 13
REMARK SMILES IDX 6 14 7 15 8 16 4 17
REMARK H PARENT
REMARK Flexibility Score: 60.00
ROOT
ATOM      1  C   UNL     1      37.704   8.262  25.487  1.00  0.00    -0.070 C 
ATOM      2  C   UNL     1      38.943   8.805  25.531  1.00  0.00    -0.027 C 
ATOM      3  C   UNL     1      37.591   6.775  25.275  1.00  0.00     0.039 C 
ENDROOT
BRANCH   2   4
ATOM      4  C   UNL     1      39.243  10.281  25.674  1.00  0.00     0.032 C 
BRANCH   4   5
ATOM      5  C   UNL     1      40.010  10.580  26.971  1.00  0.00     0.034 C 
BRANCH   5   6
ATOM      6  C   UNL     1      39.541   9.752  28.159  1.00  0.00    -0.077 C 
ATOM      7  C   UNL     1      40.475   8.718  28.739  1.00  0.00     0.039 C 
ATOM      8  C   UNL     1      38.316   9.878  28.718  1.00  0.00    -0.023 CG0
ATOM      9  G   UNL     1      37.274  10.900  28.323  1.00  0.00     0.000 G0
ENDBRANCH   5   6
ENDBRANCH   4   5
ENDBRANCH   2   4
BRANCH   1  10
ATOM     10  C   UNL     1      36.438   9.081  25.642  1.00  0.00     0.111 C 
BRANCH  10  11
ATOM     11  C   UNL     1      35.954   9.068  27.065  1.00  0.00     0.163 C 
ATOM     12  O   UNL     1      35.529   7.991  27.562  1.00  0.00    -0.294 OA
BRANCH  11  13
ATOM     13  C   UNL     1      35.944  10.304  27.888  1.00  0.00    -0.002 C 
ATOM     14  C   UNL     1      34.763  10.883  28.240  1.00  0.00    -0.069 C 
ATOM     15  C   UNL     1      33.444  10.346  27.731  1.00  0.00     0.039 C 
ATOM     16  C   UNL     1      34.730  12.111  29.122  1.00  0.00     0.039 C 
BRANCH  13  17
ATOM     17  C   UNL     1      37.269  10.914  28.331  1.00  0.00     0.066 CG0
ATOM     18  G   UNL     1      38.308   9.890  28.727  1.00  0.00     0.000 G0
ENDBRANCH  13  17
ENDBRANCH  11  13
ENDBRANCH  10  11
ENDBRANCH   1  10
TORSDOF 0
ENDMDL
MODEL 3
REMARK VINA RESULT:    -4.328      2.013      5.020
REMARK INTER + INTRA:          -5.633
REMARK INTER:                  -6.120
REMARK INTRA:                   0.487
REMARK UNBOUND:                 0.466
REMARK SMILES CC1=CCC(=C(C)C)C(=O)CC(C)=CCC1
REMARK SMILES IDX 12 1 14 2 13 3 15 4 16 5 2 6 1 7 3 8 11 10 9 11 10 12 5 13
REMARK SMILES IDX 6 14 7 15 8 16 4 17
REMARK H PARENT
REMARK Flexibility Score: 60.00
ROOT
ATOM      1  C   UNL     1      38.248   7.357  26.894  1.00  0.00    -0.070 C 
ATOM      2  C   UNL     1      39.479   7.527  27.430  1.00  0.00    -0.027 C 
ATOM      3  C   UNL     1      38.140   6.604  25.593  1.00  0.00     0.039 C 
ENDROOT
BRANCH   2   4
ATOM      4  C   UNL     1      39.781   8.305  28.692  1.00  0.00     0.032 C 
BRANCH   4   5
ATOM      5  C   UNL     1      40.707   9.497  28.414  1.00  0.00     0.034 C 
BRANCH   5   6
ATOM      6  C   UNL     1      40.234  10.380  27.267  1.00  0.00    -0.077 C 
ATOM      7  C   UNL     1      41.112  10.523  26.049  1.00  0.00     0.039 C 
ATOM      8  C   UNL     1      39.068  11.065  27.288  1.00  0.00    -0.023 CG0
ATOM      9  G   UNL     1      38.029  10.995  28.384  1.00  0.00     0.000 G0
ENDBRANCH   5   6
ENDBRANCH   4   5
ENDBRANCH   2   4
BRANCH   1  10
ATOM     10  C   UNL     1      36.985   7.887  27.544  1.00  0.00     0.111 C 
BRANCH  10  11
ATOM     11  C   UNL     1      36.642   9.255  27.027  1.00  0.00     0.163 C 
ATOM     12  O   UNL     1      36.341   9.399  25.811  1.00  0.00    -0.294 OA
BRANCH  11  13
ATOM     13  C   UNL     1      36.676  10.446  27.914  1.00  0.00    -0.002 C 
ATOM     14  C   UNL     1      35.516  11.039  28.309  1.00  0.00    -0.069 C 
ATOM     15  C   UNL     1      34.177  10.566  27.789  1.00  0.00     0.039 C 
ATOM     16  C   UNL     1      35.526  12.219  29.254  1.00  0.00     0.039 C 
BRANCH  13  17
ATOM     17  C   UNL     1      38.022  10.995  28.372  1.00  0.00     0.066 CG0
ATOM     18  G   UNL     1      39.058  11.060  27.273  1.00  0.00     0.000 G0
ENDBRANCH  13  17
ENDBRANCH  11  13
ENDBRANCH  10  11
ENDBRANCH   1  10
TORSDOF 0
ENDMDL
MODEL 4
REMARK VINA RESULT:    -4.118      1.525      3.600
REMARK INTER + INTRA:          -5.337
REMARK INTER:                  -5.912
REMARK INTRA:                   0.575
REMARK UNBOUND:                 0.466
REMARK SMILES CC1=CCC(=C(C)C)C(=O)CC(C)=CCC1
REMARK SMILES IDX 12 1 14 2 13 3 15 4 16 5 2 6 1 7 3 8 11 10 9 11 10 12 5 13
REMARK SMILES IDX 6 14 7 15 8 16 4 17
REMARK H PARENT
REMARK Flexibility Score: 60.00
ROOT
ATOM      1  C   UNL     1      36.560   8.328  25.537  1.00  0.00    -0.070 C 
ATOM      2  C   UNL     1      35.412   8.586  26.205  1.00  0.00    -0.027 C 
ATOM      3  C   UNL     1      36.974   6.889  25.370  1.00  0.00     0.039 C 
ENDROOT
BRANCH   2   4
ATOM      4  C   UNL     1      34.878   9.966  26.519  1.00  0.00     0.032 C 
BRANCH   4   5
ATOM      5  C   UNL     1      34.889  10.247  28.029  1.00  0.00     0.034 C 
BRANCH   5   6
ATOM      6  C   UNL     1      35.999  11.193  28.464  1.00  0.00    -0.077 C 
ATOM      7  C   UNL     1      35.659  12.637  28.736  1.00  0.00     0.039 C 
ATOM      8  C   UNL     1      37.290  10.812  28.602  1.00  0.00    -0.023 CG0
ATOM      9  G   UNL     1      37.810   9.402  28.441  1.00  0.00     0.000 G0
ENDBRANCH   5   6
ENDBRANCH   4   5
ENDBRANCH   2   4
BRANCH   1  10
ATOM     10  C   UNL     1      37.439   9.418  24.955  1.00  0.00     0.111 C 
BRANCH  10  11
ATOM     11  C   UNL     1      38.405   9.942  25.980  1.00  0.00     0.163 C 
ATOM     12  O   UNL     1      38.996  11.035  25.770  1.00  0.00    -0.294 OA
BRANCH  11  13
ATOM     13  C   UNL     1      38.697   9.184  27.224  1.00  0.00    -0.002 C 
ATOM     14  C   UNL     1      39.742   8.314  27.267  1.00  0.00    -0.069 C 
ATOM     15  C   UNL     1      40.573   8.026  26.036  1.00  0.00     0.039 C 
ATOM     16  C   UNL     1      40.088   7.573  28.539  1.00  0.00     0.039 C 
BRANCH  13  17
ATOM     17  C   UNL     1      37.810   9.392  28.446  1.00  0.00     0.066 CG0
ATOM     18  G   UNL     1      37.305  10.808  28.598  1.00  0.00     0.000 G0
ENDBRANCH  13  17
ENDBRANCH  11  13
ENDBRANCH  10  11
ENDBRANCH   1  10
TORSDOF 0
ENDMDL
MODEL 5
REMARK VINA RESULT:    -4.116      2.028      2.914
REMARK INTER + INTRA:          -5.334
REMARK INTER:                  -5.766
REMARK INTRA:                   0.433
REMARK UNBOUND:                 0.466
REMARK SMILES CC1=CCC(=C(C)C)C(=O)CC(C)=CCC1
REMARK SMILES IDX 12 1 14 2 13 3 15 4 16 5 2 6 1 7 3 8 11 10 9 11 10 12 5 13
REMARK SMILES IDX 6 14 7 15 8 16 4 17
REMARK H PARENT
REMARK Flexibility Score: 60.00
ROOT
ATOM      1  C   UNL     1      35.184   9.087  26.541  1.00  0.00    -0.070 C 
ATOM      2  C   UNL     1      35.115   7.738  26.467  1.00  0.00    -0.027 C 
ATOM      3  C   UNL     1      33.923   9.843  26.875  1.00  0.00     0.039 C 
ENDROOT
BRANCH   2   4
ATOM      4  C   UNL     1      36.262   6.827  26.085  1.00  0.00     0.032 C 
BRANCH   4   5
ATOM      5  C   UNL     1      36.875   6.144  27.316  1.00  0.00     0.034 C 
BRANCH   5   6
ATOM      6  C   UNL     1      38.396   6.201  27.348  1.00  0.00    -0.077 C 
ATOM      7  C   UNL     1      39.179   5.147  26.606  1.00  0.00     0.039 C 
ATOM      8  C   UNL     1      39.091   7.142  28.028  1.00  0.00    -0.023 CG0
ATOM      9  G   UNL     1      38.487   8.312  28.770  1.00  0.00     0.000 G0
ENDBRANCH   5   6
ENDBRANCH   4   5
ENDBRANCH   2   4
BRANCH   1  10
ATOM     10  C   UNL     1      36.464   9.863  26.306  1.00  0.00     0.111 C 
BRANCH  10  11
ATOM     11  C   UNL     1      37.140  10.202  27.604  1.00  0.00     0.163 C 
ATOM     12  O   UNL     1      36.592  11.020  28.391  1.00  0.00    -0.294 OA
BRANCH  11  13
ATOM     13  C   UNL     1      38.454   9.611  27.968  1.00  0.00    -0.002 C 
ATOM     14  C   UNL     1      39.609  10.219  27.583  1.00  0.00    -0.069 C 
ATOM     15  C   UNL     1      39.591  11.450  26.703  1.00  0.00     0.039 C 
ATOM     16  C   UNL     1      40.955   9.664  27.988  1.00  0.00     0.039 C 
BRANCH  13  17
ATOM     17  C   UNL     1      38.490   8.318  28.774  1.00  0.00     0.066 CG0
ATOM     18  G   UNL     1      39.098   7.153  28.027  1.00  0.00     0.000 G0
ENDBRANCH  13  17
ENDBRANCH  11  13
ENDBRANCH  10  11
ENDBRANCH   1  10
TORSDOF 0
ENDMDL
MODEL 6
REMARK VINA RESULT:    -3.903      1.795      3.360
REMARK INTER + INTRA:          -5.034
REMARK INTER:                  -5.602
REMARK INTRA:                   0.568
REMARK UNBOUND:                 0.466
REMARK SMILES CC1=CCC(=C(C)C)C(=O)CC(C)=CCC1
REMARK SMILES IDX 12 1 14 2 13 3 15 4 16 5 2 6 1 7 3 8 11 10 9 11 10 12 5 13
REMARK SMILES IDX 6 14 7 15 8 16 4 17
REMARK H PARENT
REMARK Flexibility Score: 60.00
ROOT
ATOM      1  C   UNL     1      37.704   6.719  26.417  1.00  0.00    -0.070 C 
ATOM      2  C   UNL     1      36.560   7.104  25.805  1.00  0.00    -0.027 C 
ATOM      3  C   UNL     1      38.830   6.207  25.556  1.00  0.00     0.039 C 
ENDROOT
BRANCH   2   4
ATOM      4  C   UNL     1      35.312   7.583  26.513  1.00  0.00     0.032 C 
BRANCH   4   5
ATOM      5  C   UNL     1      35.080   9.086  26.297  1.00  0.00     0.034 C 
BRANCH   5   6
ATOM      6  C   UNL     1      35.497   9.943  27.484  1.00  0.00    -0.077 C 
ATOM      7  C   UNL     1      34.461  10.306  28.518  1.00  0.00     0.039 C 
ATOM      8  C   UNL     1      36.752  10.417  27.655  1.00  0.00    -0.023 CG0
ATOM      9  G   UNL     1      37.936  10.106  26.768  1.00  0.00     0.000 G0
ENDBRANCH   5   6
ENDBRANCH   4   5
ENDBRANCH   2   4
BRANCH   1  10
ATOM     10  C   UNL     1      37.899   6.783  27.919  1.00  0.00     0.111 C 
BRANCH  10  11
ATOM     11  C   UNL     1      38.431   8.123  28.341  1.00  0.00     0.163 C 
ATOM     12  O   UNL     1      38.440   8.427  29.564  1.00  0.00    -0.294 OA
BRANCH  11  13
ATOM     13  C   UNL     1      38.924   9.107  27.343  1.00  0.00    -0.002 C 
ATOM     14  C   UNL     1      40.228   9.096  26.956  1.00  0.00    -0.069 C 
ATOM     15  C   UNL     1      41.227   8.154  27.591  1.00  0.00     0.039 C 
ATOM     16  C   UNL     1      40.737  10.054  25.903  1.00  0.00     0.039 C 
BRANCH  13  17
ATOM     17  C   UNL     1      37.951  10.127  26.762  1.00  0.00     0.066 CG0
ATOM     18  G   UNL     1      36.750  10.392  27.642  1.00  0.00     0.000 G0
ENDBRANCH  13  17
ENDBRANCH  11  13
ENDBRANCH  10  11
ENDBRANCH   1  10
TORSDOF 0
ENDMDL
MODEL 7
REMARK VINA RESULT:    -3.899      2.030      4.021
REMARK INTER + INTRA:          -5.029
REMARK INTER:                  -5.532
REMARK INTRA:                   0.503
REMARK UNBOUND:                 0.466
REMARK SMILES CC1=CCC(=C(C)C)C(=O)CC(C)=CCC1
REMARK SMILES IDX 12 1 14 2 13 3 15 4 16 5 2 6 1 7 3 8 11 10 9 11 10 12 5 13
REMARK SMILES IDX 6 14 7 15 8 16 4 17
REMARK H PARENT
REMARK Flexibility Score: 60.00
ROOT
ATOM      1  C   UNL     1      35.835   9.158  27.557  1.00  0.00    -0.070 C 
ATOM      2  C   UNL     1      36.867   9.681  28.259  1.00  0.00    -0.027 C 
ATOM      3  C   UNL     1      34.688  10.068  27.201  1.00  0.00     0.039 C 
ENDROOT
BRANCH   2   4
ATOM      4  C   UNL     1      38.067   8.904  28.753  1.00  0.00     0.032 C 
BRANCH   4   5
ATOM      5  C   UNL     1      39.385   9.537  28.282  1.00  0.00     0.034 C 
BRANCH   5   6
ATOM      6  C   UNL     1      39.477   9.696  26.771  1.00  0.00    -0.077 C 
ATOM      7  C   UNL     1      39.760  11.063  26.200  1.00  0.00     0.039 C 
ATOM      8  C   UNL     1      39.300   8.674  25.903  1.00  0.00    -0.023 CG0
ATOM      9  G   UNL     1      39.077   7.228  26.285  1.00  0.00     0.000 G0
ENDBRANCH   5   6
ENDBRANCH   4   5
ENDBRANCH   2   4
BRANCH   1  10
ATOM     10  C   UNL     1      35.787   7.708  27.116  1.00  0.00     0.111 C 
BRANCH  10  11
ATOM     11  C   UNL     1      36.532   7.509  25.826  1.00  0.00     0.163 C 
ATOM     12  O   UNL     1      36.103   8.054  24.774  1.00  0.00    -0.294 OA
BRANCH  11  13
ATOM     13  C   UNL     1      37.750   6.660  25.761  1.00  0.00    -0.002 C 
ATOM     14  C   UNL     1      37.679   5.397  25.261  1.00  0.00    -0.069 C 
ATOM     15  C   UNL     1      36.357   4.791  24.846  1.00  0.00     0.039 C 
ATOM     16  C   UNL     1      38.917   4.537  25.137  1.00  0.00     0.039 C 
BRANCH  13  17
ATOM     17  C   UNL     1      39.075   7.223  26.264  1.00  0.00     0.066 CG0
ATOM     18  G   UNL     1      39.295   8.674  25.905  1.00  0.00     0.000 G0
ENDBRANCH  13  17
ENDBRANCH  11  13
ENDBRANCH  10  11
ENDBRANCH   1  10
TORSDOF 0
ENDMDL
MODEL 8
REMARK VINA RESULT:    -3.746      2.328      4.210
REMARK INTER + INTRA:          -4.812
REMARK INTER:                  -5.759
REMARK INTRA:                   0.946
REMARK UNBOUND:                 0.466
REMARK SMILES CC1=CCC(=C(C)C)C(=O)CC(C)=CCC1
REMARK SMILES IDX 12 1 14 2 13 3 15 4 16 5 2 6 1 7 3 8 11 10 9 11 10 12 5 13
REMARK SMILES IDX 6 14 7 15 8 16 4 17
REMARK H PARENT
REMARK Flexibility Score: 60.00
ROOT
ATOM      1  C   UNL     1      34.292   9.493  26.626  1.00  0.00    -0.070 C 
ATOM      2  C   UNL     1      33.408   9.989  27.523  1.00  0.00    -0.027 C 
ATOM      3  C   UNL     1      33.962   8.183  25.957  1.00  0.00     0.039 C 
ENDROOT
BRANCH   2   4
ATOM      4  C   UNL     1      33.604  11.254  28.330  1.00  0.00     0.032 C 
BRANCH   4   5
ATOM      5  C   UNL     1      34.917  11.220  29.125  1.00  0.00     0.034 C 
BRANCH   5   6
ATOM      6  C   UNL     1      35.765  12.472  28.952  1.00  0.00    -0.077 C 
ATOM      7  C   UNL     1      35.093  13.820  29.014  1.00  0.00     0.039 C 
ATOM      8  C   UNL     1      37.099  12.442  28.724  1.00  0.00    -0.023 CG0
ATOM      9  G   UNL     1      37.956  11.197  28.697  1.00  0.00     0.000 G0
ENDBRANCH   5   6
ENDBRANCH   4   5
ENDBRANCH   2   4
BRANCH   1  10
ATOM     10  C   UNL     1      35.587  10.194  26.268  1.00  0.00     0.111 C 
BRANCH  10  11
ATOM     11  C   UNL     1      36.746   9.614  27.027  1.00  0.00     0.163 C 
ATOM     12  O   UNL     1      36.701   8.410  27.399  1.00  0.00    -0.294 OA
BRANCH  11  13
ATOM     13  C   UNL     1      37.935  10.437  27.370  1.00  0.00    -0.002 C 
ATOM     14  C   UNL     1      38.986  10.514  26.510  1.00  0.00    -0.069 C 
ATOM     15  C   UNL     1      39.018   9.700  25.235  1.00  0.00     0.039 C 
ATOM     16  C   UNL     1      40.181  11.388  26.816  1.00  0.00     0.039 C 
BRANCH  13  17
ATOM     17  C   UNL     1      37.960  11.189  28.696  1.00  0.00     0.066 CG0
ATOM     18  G   UNL     1      37.104  12.434  28.706  1.00  0.00     0.000 G0
ENDBRANCH  13  17
ENDBRANCH  11  13
ENDBRANCH  10  11
ENDBRANCH   1  10
TORSDOF 0
ENDMDL
MODEL 9
REMARK VINA RESULT:    -3.636      2.030      4.601
REMARK INTER + INTRA:          -4.658
REMARK INTER:                  -5.236
REMARK INTRA:                   0.578
REMARK UNBOUND:                 0.466
REMARK SMILES CC1=CCC(=C(C)C)C(=O)CC(C)=CCC1
REMARK SMILES IDX 12 1 14 2 13 3 15 4 16 5 2 6 1 7 3 8 11 10 9 11 10 12 5 13
REMARK SMILES IDX 6 14 7 15 8 16 4 17
REMARK H PARENT
REMARK Flexibility Score: 60.00
ROOT
ATOM      1  C   UNL     1      38.450   9.928  25.613  1.00  0.00    -0.070 C 
ATOM      2  C   UNL     1      39.777   9.840  25.366  1.00  0.00    -0.027 C 
ATOM      3  C   UNL     1      37.505   9.876  24.440  1.00  0.00     0.039 C 
ENDROOT
BRANCH   2   4
ATOM      4  C   UNL     1      40.867   9.936  26.410  1.00  0.00     0.032 C 
BRANCH   4   5
ATOM      5  C   UNL     1      41.597   8.597  26.590  1.00  0.00     0.034 C 
BRANCH   5   6
ATOM      6  C   UNL     1      41.198   7.852  27.856  1.00  0.00    -0.077 C 
ATOM      7  C   UNL     1      42.019   8.049  29.106  1.00  0.00     0.039 C 
ATOM      8  C   UNL     1      40.149   7.000  27.918  1.00  0.00    -0.023 CG0
ATOM      9  G   UNL     1      39.173   6.727  26.796  1.00  0.00     0.000 G0
ENDBRANCH   5   6
ENDBRANCH   4   5
ENDBRANCH   2   4
BRANCH   1  10
ATOM     10  C   UNL     1      37.879  10.074  27.010  1.00  0.00     0.111 C 
BRANCH  10  11
ATOM     11  C   UNL     1      37.794   8.743  27.703  1.00  0.00     0.163 C 
ATOM     12  O   UNL     1      37.708   8.706  28.960  1.00  0.00    -0.294 OA
BRANCH  11  13
ATOM     13  C   UNL     1      37.837   7.470  26.939  1.00  0.00    -0.002 C 
ATOM     14  C   UNL     1      36.704   6.974  26.371  1.00  0.00    -0.069 C 
ATOM     15  C   UNL     1      35.364   7.646  26.577  1.00  0.00     0.039 C 
ATOM     16  C   UNL     1      36.736   5.708  25.545  1.00  0.00     0.039 C 
BRANCH  13  17
ATOM     17  C   UNL     1      39.162   6.729  26.801  1.00  0.00     0.066 CG0
ATOM     18  G   UNL     1      40.129   6.998  27.932  1.00  0.00     0.000 G0
ENDBRANCH  13  17
ENDBRANCH  11  13
ENDBRANCH  10  11
ENDBRANCH   1  10
TORSDOF 0
ENDMDL
