MODEL 1
REMARK VINA RESULT:     2.767      0.000      0.000
REMARK INTER + INTRA:           3.081
REMARK INTER:                   3.009
REMARK INTRA:                   0.072
REMARK UNBOUND:                 0.072
REMARK SMILES C[C@@H]1[C@H](C)CC[C@@]2(C(=O)[O-])CC[C@]3(C)C(=CC[C@@H]4[C@@]5(C)CC[C@H](O)C(C)(C)[C@H]5CC[C@@]43C)[C@@H]12
REMARK SMILES IDX 7 1 6 2 11 3 33 4 5 5 12 6 15 7 2 8 3 9 13 10 16 11 1 12
REMARK SMILES IDX 4 13 14 14 31 15 17 16 18 17 30 18 32 19 19 20 29 21 28 22
REMARK SMILES IDX 21 23 20 24 25 25 22 26 23 27 26 28 27 29 8 30 9 31 10 32
REMARK SMILES IDX 24 33
REMARK H PARENT 24 34
REMARK Flexibility Score: inf
ROOT
ATOM      1  C   UNL     1      10.871  -3.553 -30.738  1.00  0.00     0.017 C 
ATOM      2  C   UNL     1      10.173  -2.544 -31.707  1.00  0.00     0.014 C 
ATOM      3  C   UNL     1      10.238  -3.354 -29.315  1.00  0.00     0.014 C 
ATOM      4  C   UNL     1      10.681  -5.036 -31.231  1.00  0.00     0.030 C 
ATOM      5  C   UNL     1      10.469  -2.769 -33.196  1.00  0.00     0.004 C 
ATOM      6  C   UNL     1      10.159  -4.648 -28.468  1.00  0.00     0.013 C 
ATOM      7  C   UNL     1       9.403  -5.685 -30.646  1.00  0.00    -0.063 C 
ATOM      8  C   UNL     1      10.924  -5.245 -32.770  1.00  0.00    -0.003 C 
ATOM      9  C   UNL     1      10.132  -4.205 -33.613  1.00  0.00    -0.011 C 
ATOM     10  C   UNL     1       9.302  -5.814 -29.106  1.00  0.00    -0.006 C 
ATOM     11  C   UNL     1       8.492  -6.314 -31.422  1.00  0.00    -0.027 C 
ATOM     12  C   UNL     1      12.426  -5.294 -33.127  1.00  0.00     0.008 C 
ATOM     13  C   UNL     1      10.322  -4.388 -35.125  1.00  0.00     0.008 C 
ATOM     14  C   UNL     1      10.087  -7.125 -28.765  1.00  0.00     0.017 C 
ATOM     15  C   UNL     1       7.734  -5.883 -28.566  1.00  0.00    -0.020 C 
ATOM     16  C   UNL     1       7.406  -7.125 -30.822  1.00  0.00     0.032 C 
ATOM     17  C   UNL     1       6.695  -6.340 -29.706  1.00  0.00     0.006 C 
ATOM     18  C   UNL     1       7.259  -4.532 -27.894  1.00  0.00     0.008 C 
ATOM     19  C   UNL     1       7.618  -6.932 -27.408  1.00  0.00     0.012 C 
ATOM     20  C   UNL     1       5.672  -5.232 -30.196  1.00  0.00    -0.025 C 
ATOM     21  C   UNL     1       5.751  -4.330 -27.723  1.00  0.00     0.005 C 
ATOM     22  C   UNL     1       4.852  -4.700 -28.942  1.00  0.00     0.003 C 
ATOM     23  C   UNL     1       4.662  -5.730 -31.286  1.00  0.00     0.010 C 
ATOM     24  C   UNL     1       6.427  -4.062 -30.914  1.00  0.00     0.012 C 
ATOM     25  C   UNL     1       3.546  -5.521 -28.499  1.00  0.00    -0.006 C 
ATOM     26  C   UNL     1       3.584  -6.673 -30.776  1.00  0.00     0.033 C 
ATOM     27  C   UNL     1       2.710  -5.956 -29.741  1.00  0.00     0.120 C 
ATOM     28  C   UNL     1       2.661  -4.588 -27.624  1.00  0.00     0.014 C 
ATOM     29  C   UNL     1       3.810  -6.798 -27.633  1.00  0.00     0.014 C 
ENDROOT
BRANCH   1  30
ATOM     30  C   UNL     1      12.369  -3.234 -30.616  1.00  0.00     0.048 C 
ATOM     31  O   UNL     1      13.063  -3.779 -29.706  1.00  0.00    -0.550 OA
ATOM     32  O   UNL     1      13.007  -2.373 -31.506  1.00  0.00    -0.550 OA
ENDBRANCH   1  30
BRANCH  27  33
ATOM     33  O   UNL     1       2.069  -4.843 -30.330  1.00  0.00    -0.393 OA
ATOM     34  H   UNL     1       1.634  -5.158 -31.168  1.00  0.00     0.210 HD
ENDBRANCH  27  33
TORSDOF 2
ENDMDL
MODEL 2
REMARK VINA RESULT:     4.337      2.188      6.708
REMARK INTER + INTRA:           4.790
REMARK INTER:                   4.626
REMARK INTRA:                   0.164
REMARK UNBOUND:                 0.072
REMARK SMILES C[C@@H]1[C@H](C)CC[C@@]2(C(=O)[O-])CC[C@]3(C)C(=CC[C@@H]4[C@@]5(C)CC[C@H](O)C(C)(C)[C@H]5CC[C@@]43C)[C@@H]12
REMARK SMILES IDX 7 1 6 2 11 3 33 4 5 5 12 6 15 7 2 8 3 9 13 10 16 11 1 12
REMARK SMILES IDX 4 13 14 14 31 15 17 16 18 17 30 18 32 19 19 20 29 21 28 22
REMARK SMILES IDX 21 23 20 24 25 25 22 26 23 27 26 28 27 29 8 30 9 31 10 32
REMARK SMILES IDX 24 33
REMARK H PARENT 24 34
REMARK Flexibility Score: inf
ROOT
ATOM      1  C   UNL     1       4.396  -5.962 -30.980  1.00  0.00     0.017 C 
ATOM      2  C   UNL     1       4.990  -7.125 -31.840  1.00  0.00     0.014 C 
ATOM      3  C   UNL     1       4.651  -6.315 -29.471  1.00  0.00     0.014 C 
ATOM      4  C   UNL     1       5.062  -4.585 -31.352  1.00  0.00     0.030 C 
ATOM      5  C   UNL     1       5.073  -6.837 -33.346  1.00  0.00     0.004 C 
ATOM      6  C   UNL     1       4.890  -5.083 -28.563  1.00  0.00     0.013 C 
ATOM      7  C   UNL     1       6.318  -4.295 -30.494  1.00  0.00    -0.063 C 
ATOM      8  C   UNL     1       5.201  -4.327 -32.896  1.00  0.00    -0.003 C 
ATOM      9  C   UNL     1       5.850  -5.543 -33.616  1.00  0.00    -0.011 C 
ATOM     10  C   UNL     1       6.132  -4.190 -28.960  1.00  0.00    -0.006 C 
ATOM     11  C   UNL     1       7.499  -3.933 -31.042  1.00  0.00    -0.027 C 
ATOM     12  C   UNL     1       3.869  -3.883 -33.541  1.00  0.00     0.008 C 
ATOM     13  C   UNL     1       6.026  -5.324 -35.125  1.00  0.00     0.008 C 
ATOM     14  C   UNL     1       5.663  -2.716 -28.716  1.00  0.00     0.017 C 
ATOM     15  C   UNL     1       7.520  -4.535 -28.118  1.00  0.00    -0.020 C 
ATOM     16  C   UNL     1       8.613  -3.436 -30.199  1.00  0.00     0.032 C 
ATOM     17  C   UNL     1       8.852  -4.376 -29.005  1.00  0.00     0.006 C 
ATOM     18  C   UNL     1       7.480  -5.961 -27.432  1.00  0.00     0.008 C 
ATOM     19  C   UNL     1       7.666  -3.549 -26.910  1.00  0.00     0.012 C 
ATOM     20  C   UNL     1       9.629  -5.718 -29.337  1.00  0.00    -0.025 C 
ATOM     21  C   UNL     1       8.815  -6.554 -26.977  1.00  0.00     0.005 C 
ATOM     22  C   UNL     1      10.009  -6.441 -27.973  1.00  0.00     0.003 C 
ATOM     23  C   UNL     1      10.934  -5.510 -30.180  1.00  0.00     0.010 C 
ATOM     24  C   UNL     1       8.759  -6.649 -30.247  1.00  0.00     0.012 C 
ATOM     25  C   UNL     1      11.365  -5.994 -27.240  1.00  0.00    -0.006 C 
ATOM     26  C   UNL     1      12.093  -4.884 -29.421  1.00  0.00     0.033 C 
ATOM     27  C   UNL     1      12.520  -5.802 -28.269  1.00  0.00     0.120 C 
ATOM     28  C   UNL     1      11.778  -7.123 -26.254  1.00  0.00     0.014 C 
ATOM     29  C   UNL     1      11.271  -4.688 -26.382  1.00  0.00     0.014 C 
ENDROOT
BRANCH   1  30
ATOM     30  C   UNL     1       2.875  -5.873 -31.173  1.00  0.00     0.048 C 
ATOM     31  O   UNL     1       2.162  -5.246 -30.331  1.00  0.00    -0.550 OA
ATOM     32  O   UNL     1       2.244  -6.442 -32.277  1.00  0.00    -0.550 OA
ENDBRANCH   1  30
BRANCH  27  33
ATOM     33  O   UNL     1      12.955  -7.047 -28.774  1.00  0.00    -0.393 OA
ATOM     34  H   UNL     1      13.426  -7.521 -28.036  1.00  0.00     0.210 HD
ENDBRANCH  27  33
TORSDOF 2
ENDMDL
MODEL 3
REMARK VINA RESULT:     4.404      1.968      3.966
REMARK INTER + INTRA:           4.862
REMARK INTER:                   4.801
REMARK INTRA:                   0.061
REMARK UNBOUND:                 0.072
REMARK SMILES C[C@@H]1[C@H](C)CC[C@@]2(C(=O)[O-])CC[C@]3(C)C(=CC[C@@H]4[C@@]5(C)CC[C@H](O)C(C)(C)[C@H]5CC[C@@]43C)[C@@H]12
REMARK SMILES IDX 7 1 6 2 11 3 33 4 5 5 12 6 15 7 2 8 3 9 13 10 16 11 1 12
REMARK SMILES IDX 4 13 14 14 31 15 17 16 18 17 30 18 32 19 19 20 29 21 28 22
REMARK SMILES IDX 21 23 20 24 25 25 22 26 23 27 26 28 27 29 8 30 9 31 10 32
REMARK SMILES IDX 24 33
REMARK H PARENT 24 34
REMARK Flexibility Score: inf
ROOT
ATOM      1  C   UNL     1      10.742  -6.398 -31.768  1.00  0.00     0.017 C 
ATOM      2  C   UNL     1      11.006  -7.124 -30.409  1.00  0.00     0.014 C 
ATOM      3  C   UNL     1       9.491  -7.079 -32.431  1.00  0.00     0.014 C 
ATOM      4  C   UNL     1      10.489  -4.860 -31.550  1.00  0.00     0.030 C 
ATOM      5  C   UNL     1      12.023  -6.429 -29.493  1.00  0.00     0.004 C 
ATOM      6  C   UNL     1       8.614  -6.118 -33.271  1.00  0.00     0.013 C 
ATOM      7  C   UNL     1       8.990  -4.541 -31.331  1.00  0.00    -0.063 C 
ATOM      8  C   UNL     1      11.497  -4.170 -30.561  1.00  0.00    -0.003 C 
ATOM      9  C   UNL     1      11.625  -4.972 -29.234  1.00  0.00    -0.011 C 
ATOM     10  C   UNL     1       8.004  -4.898 -32.471  1.00  0.00    -0.006 C 
ATOM     11  C   UNL     1       8.554  -3.793 -30.293  1.00  0.00    -0.027 C 
ATOM     12  C   UNL     1      12.862  -3.876 -31.222  1.00  0.00     0.008 C 
ATOM     13  C   UNL     1      12.583  -4.320 -28.229  1.00  0.00     0.008 C 
ATOM     14  C   UNL     1       8.086  -3.686 -33.460  1.00  0.00     0.017 C 
ATOM     15  C   UNL     1       6.454  -5.141 -31.931  1.00  0.00    -0.020 C 
ATOM     16  C   UNL     1       7.155  -3.307 -30.234  1.00  0.00     0.032 C 
ATOM     17  C   UNL     1       6.170  -4.457 -30.504  1.00  0.00     0.006 C 
ATOM     18  C   UNL     1       6.050  -6.671 -31.901  1.00  0.00     0.008 C 
ATOM     19  C   UNL     1       5.436  -4.511 -32.941  1.00  0.00     0.012 C 
ATOM     20  C   UNL     1       5.934  -5.453 -29.292  1.00  0.00    -0.025 C 
ATOM     21  C   UNL     1       4.827  -7.054 -31.065  1.00  0.00     0.005 C 
ATOM     22  C   UNL     1       4.719  -6.414 -29.647  1.00  0.00     0.003 C 
ATOM     23  C   UNL     1       5.633  -4.741 -27.928  1.00  0.00     0.010 C 
ATOM     24  C   UNL     1       7.233  -6.273 -28.990  1.00  0.00     0.012 C 
ATOM     25  C   UNL     1       3.234  -5.893 -29.334  1.00  0.00    -0.006 C 
ATOM     26  C   UNL     1       4.257  -4.102 -27.829  1.00  0.00     0.033 C 
ATOM     27  C   UNL     1       3.171  -5.179 -27.950  1.00  0.00     0.120 C 
ATOM     28  C   UNL     1       2.287  -7.125 -29.285  1.00  0.00     0.014 C 
ATOM     29  C   UNL     1       2.620  -4.921 -30.397  1.00  0.00     0.014 C 
ENDROOT
BRANCH   1  30
ATOM     30  C   UNL     1      11.926  -6.599 -32.725  1.00  0.00     0.048 C 
ATOM     31  O   UNL     1      13.006  -7.113 -32.302  1.00  0.00    -0.550 OA
ATOM     32  O   UNL     1      11.842  -6.257 -34.073  1.00  0.00    -0.550 OA
ENDBRANCH   1  30
BRANCH  27  33
ATOM     33  O   UNL     1       3.292  -6.113 -26.897  1.00  0.00    -0.393 OA
ATOM     34  H   UNL     1       2.453  -6.649 -26.876  1.00  0.00     0.210 HD
ENDBRANCH  27  33
TORSDOF 2
ENDMDL
MODEL 4
REMARK VINA RESULT:     4.876      2.258      7.578
REMARK INTER + INTRA:           5.376
REMARK INTER:                   4.827
REMARK INTRA:                   0.549
REMARK UNBOUND:                 0.072
REMARK SMILES C[C@@H]1[C@H](C)CC[C@@]2(C(=O)[O-])CC[C@]3(C)C(=CC[C@@H]4[C@@]5(C)CC[C@H](O)C(C)(C)[C@H]5CC[C@@]43C)[C@@H]12
REMARK SMILES IDX 7 1 6 2 11 3 33 4 5 5 12 6 15 7 2 8 3 9 13 10 16 11 1 12
REMARK SMILES IDX 4 13 14 14 31 15 17 16 18 17 30 18 32 19 19 20 29 21 28 22
REMARK SMILES IDX 21 23 20 24 25 25 22 26 23 27 26 28 27 29 8 30 9 31 10 32
REMARK SMILES IDX 24 33
REMARK H PARENT 24 34
REMARK Flexibility Score: inf
ROOT
ATOM      1  C   UNL     1       4.635  -4.496 -33.508  1.00  0.00     0.017 C 
ATOM      2  C   UNL     1       4.387  -3.672 -32.204  1.00  0.00     0.014 C 
ATOM      3  C   UNL     1       5.781  -3.779 -34.308  1.00  0.00     0.014 C 
ATOM      4  C   UNL     1       5.036  -5.981 -33.173  1.00  0.00     0.030 C 
ATOM      5  C   UNL     1       3.489  -4.360 -31.166  1.00  0.00     0.004 C 
ATOM      6  C   UNL     1       6.690  -4.738 -35.116  1.00  0.00     0.013 C 
ATOM      7  C   UNL     1       6.567  -6.153 -33.025  1.00  0.00    -0.063 C 
ATOM      8  C   UNL     1       4.151  -6.657 -32.063  1.00  0.00    -0.003 C 
ATOM      9  C   UNL     1       4.029  -5.749 -30.806  1.00  0.00    -0.011 C 
ATOM     10  C   UNL     1       7.450  -5.824 -34.254  1.00  0.00    -0.006 C 
ATOM     11  C   UNL     1       7.126  -6.763 -31.955  1.00  0.00    -0.027 C 
ATOM     12  C   UNL     1       2.782  -7.124 -32.606  1.00  0.00     0.008 C 
ATOM     13  C   UNL     1       3.191  -6.381 -29.687  1.00  0.00     0.008 C 
ATOM     14  C   UNL     1       7.419  -7.125 -35.125  1.00  0.00     0.017 C 
ATOM     15  C   UNL     1       9.001  -5.403 -33.839  1.00  0.00    -0.020 C 
ATOM     16  C   UNL     1       8.564  -7.123 -31.945  1.00  0.00     0.032 C 
ATOM     17  C   UNL     1       9.426  -5.926 -32.379  1.00  0.00     0.006 C 
ATOM     18  C   UNL     1       9.269  -3.850 -33.970  1.00  0.00     0.008 C 
ATOM     19  C   UNL     1      10.011  -6.039 -34.854  1.00  0.00     0.012 C 
ATOM     20  C   UNL     1       9.642  -4.806 -31.277  1.00  0.00    -0.025 C 
ATOM     21  C   UNL     1      10.500  -3.290 -33.253  1.00  0.00     0.005 C 
ATOM     22  C   UNL     1      10.746  -3.784 -31.794  1.00  0.00     0.003 C 
ATOM     23  C   UNL     1      10.083  -5.360 -29.879  1.00  0.00     0.010 C 
ATOM     24  C   UNL     1       8.295  -4.072 -30.965  1.00  0.00     0.012 C 
ATOM     25  C   UNL     1      12.286  -4.150 -31.534  1.00  0.00    -0.006 C 
ATOM     26  C   UNL     1      11.513  -5.871 -29.814  1.00  0.00     0.033 C 
ATOM     27  C   UNL     1      12.491  -4.724 -30.099  1.00  0.00     0.120 C 
ATOM     28  C   UNL     1      13.122  -2.844 -31.656  1.00  0.00     0.014 C 
ATOM     29  C   UNL     1      12.922  -5.161 -32.545  1.00  0.00     0.014 C 
ENDROOT
BRANCH   1  30
ATOM     30  C   UNL     1       3.385  -4.484 -34.400  1.00  0.00     0.048 C 
ATOM     31  O   UNL     1       2.867  -3.382 -34.754  1.00  0.00    -0.550 OA
ATOM     32  O   UNL     1       2.808  -5.664 -34.864  1.00  0.00    -0.550 OA
ENDBRANCH   1  30
BRANCH  27  33
ATOM     33  O   UNL     1      12.348  -3.709 -29.127  1.00  0.00    -0.393 OA
ATOM     34  H   UNL     1      12.485  -2.835 -29.586  1.00  0.00     0.210 HD
ENDBRANCH  27  33
TORSDOF 2
ENDMDL
MODEL 5
REMARK VINA RESULT:     5.057      2.203      3.931
REMARK INTER + INTRA:           5.573
REMARK INTER:                   5.736
REMARK INTRA:                  -0.163
REMARK UNBOUND:                 0.072
REMARK SMILES C[C@@H]1[C@H](C)CC[C@@]2(C(=O)[O-])CC[C@]3(C)C(=CC[C@@H]4[C@@]5(C)CC[C@H](O)C(C)(C)[C@H]5CC[C@@]43C)[C@@H]12
REMARK SMILES IDX 7 1 6 2 11 3 33 4 5 5 12 6 15 7 2 8 3 9 13 10 16 11 1 12
REMARK SMILES IDX 4 13 14 14 31 15 17 16 18 17 30 18 32 19 19 20 29 21 28 22
REMARK SMILES IDX 21 23 20 24 25 25 22 26 23 27 26 28 27 29 8 30 9 31 10 32
REMARK SMILES IDX 24 33
REMARK H PARENT 24 34
REMARK Flexibility Score: inf
ROOT
ATOM      1  C   UNL     1      10.976  -6.013 -32.454  1.00  0.00     0.017 C 
ATOM      2  C   UNL     1      11.935  -5.962 -31.220  1.00  0.00     0.014 C 
ATOM      3  C   UNL     1       9.884  -7.102 -32.157  1.00  0.00     0.014 C 
ATOM      4  C   UNL     1      10.308  -4.611 -32.711  1.00  0.00     0.030 C 
ATOM      5  C   UNL     1      12.908  -4.775 -31.208  1.00  0.00     0.004 C 
ATOM      6  C   UNL     1       8.495  -6.794 -32.769  1.00  0.00     0.013 C 
ATOM      7  C   UNL     1       8.972  -4.451 -31.946  1.00  0.00    -0.063 C 
ATOM      8  C   UNL     1      11.301  -3.395 -32.634  1.00  0.00    -0.003 C 
ATOM      9  C   UNL     1      12.156  -3.445 -31.336  1.00  0.00    -0.011 C 
ATOM     10  C   UNL     1       7.831  -5.446 -32.276  1.00  0.00    -0.006 C 
ATOM     11  C   UNL     1       8.705  -3.375 -31.173  1.00  0.00    -0.027 C 
ATOM     12  C   UNL     1      12.154  -3.250 -33.914  1.00  0.00     0.008 C 
ATOM     13  C   UNL     1      13.125  -2.262 -31.208  1.00  0.00     0.008 C 
ATOM     14  C   UNL     1       7.139  -4.849 -33.547  1.00  0.00     0.017 C 
ATOM     15  C   UNL     1       6.756  -5.632 -31.025  1.00  0.00    -0.020 C 
ATOM     16  C   UNL     1       7.342  -3.132 -30.643  1.00  0.00     0.032 C 
ATOM     17  C   UNL     1       6.781  -4.405 -29.985  1.00  0.00     0.006 C 
ATOM     18  C   UNL     1       6.937  -7.006 -30.262  1.00  0.00     0.008 C 
ATOM     19  C   UNL     1       5.297  -5.712 -31.589  1.00  0.00     0.012 C 
ATOM     20  C   UNL     1       7.345  -4.732 -28.540  1.00  0.00    -0.025 C 
ATOM     21  C   UNL     1       6.298  -7.125 -28.876  1.00  0.00     0.005 C 
ATOM     22  C   UNL     1       6.489  -5.915 -27.911  1.00  0.00     0.003 C 
ATOM     23  C   UNL     1       7.324  -3.514 -27.554  1.00  0.00     0.010 C 
ATOM     24  C   UNL     1       8.863  -5.110 -28.612  1.00  0.00     0.012 C 
ATOM     25  C   UNL     1       5.129  -5.534 -27.149  1.00  0.00    -0.006 C 
ATOM     26  C   UNL     1       5.943  -3.116 -27.058  1.00  0.00     0.033 C 
ATOM     27  C   UNL     1       5.322  -4.268 -26.259  1.00  0.00     0.120 C 
ATOM     28  C   UNL     1       4.742  -6.721 -26.223  1.00  0.00     0.014 C 
ATOM     29  C   UNL     1       3.886  -5.283 -28.068  1.00  0.00     0.014 C 
ENDROOT
BRANCH   1  30
ATOM     30  C   UNL     1      11.736  -6.464 -33.709  1.00  0.00     0.048 C 
ATOM     31  O   UNL     1      12.902  -6.955 -33.606  1.00  0.00    -0.550 OA
ATOM     32  O   UNL     1      11.167  -6.379 -34.978  1.00  0.00    -0.550 OA
ENDBRANCH   1  30
BRANCH  27  33
ATOM     33  O   UNL     1       6.119  -4.565 -25.131  1.00  0.00    -0.393 OA
ATOM     34  H   UNL     1       6.367  -5.528 -25.186  1.00  0.00     0.210 HD
ENDBRANCH  27  33
TORSDOF 2
ENDMDL
MODEL 6
REMARK VINA RESULT:     5.430      1.884      7.098
REMARK INTER + INTRA:           5.979
REMARK INTER:                   5.871
REMARK INTRA:                   0.107
REMARK UNBOUND:                 0.072
REMARK SMILES C[C@@H]1[C@H](C)CC[C@@]2(C(=O)[O-])CC[C@]3(C)C(=CC[C@@H]4[C@@]5(C)CC[C@H](O)C(C)(C)[C@H]5CC[C@@]43C)[C@@H]12
REMARK SMILES IDX 7 1 6 2 11 3 33 4 5 5 12 6 15 7 2 8 3 9 13 10 16 11 1 12
REMARK SMILES IDX 4 13 14 14 31 15 17 16 18 17 30 18 32 19 19 20 29 21 28 22
REMARK SMILES IDX 21 23 20 24 25 25 22 26 23 27 26 28 27 29 8 30 9 31 10 32
REMARK SMILES IDX 24 33
REMARK H PARENT 24 34
REMARK Flexibility Score: inf
ROOT
ATOM      1  C   UNL     1       4.356  -5.932 -29.185  1.00  0.00     0.017 C 
ATOM      2  C   UNL     1       4.434  -7.125 -30.192  1.00  0.00     0.014 C 
ATOM      3  C   UNL     1       5.332  -6.254 -27.997  1.00  0.00     0.014 C 
ATOM      4  C   UNL     1       4.752  -4.576 -29.880  1.00  0.00     0.030 C 
ATOM      5  C   UNL     1       3.753  -6.873 -31.545  1.00  0.00     0.004 C 
ATOM      6  C   UNL     1       5.999  -5.007 -27.367  1.00  0.00     0.013 C 
ATOM      7  C   UNL     1       6.270  -4.289 -29.776  1.00  0.00    -0.063 C 
ATOM      8  C   UNL     1       4.100  -4.356 -31.293  1.00  0.00    -0.003 C 
ATOM      9  C   UNL     1       4.295  -5.601 -32.205  1.00  0.00    -0.011 C 
ATOM     10  C   UNL     1       6.879  -4.145 -28.358  1.00  0.00    -0.006 C 
ATOM     11  C   UNL     1       7.020  -3.963 -30.852  1.00  0.00    -0.027 C 
ATOM     12  C   UNL     1       2.626  -3.903 -31.196  1.00  0.00     0.008 C 
ATOM     13  C   UNL     1       3.692  -5.420 -33.605  1.00  0.00     0.008 C 
ATOM     14  C   UNL     1       6.602  -2.658 -27.956  1.00  0.00     0.017 C 
ATOM     15  C   UNL     1       8.500  -4.497 -28.315  1.00  0.00    -0.020 C 
ATOM     16  C   UNL     1       8.408  -3.467 -30.695  1.00  0.00     0.032 C 
ATOM     17  C   UNL     1       9.209  -4.383 -29.754  1.00  0.00     0.006 C 
ATOM     18  C   UNL     1       8.803  -5.905 -27.660  1.00  0.00     0.008 C 
ATOM     19  C   UNL     1       9.236  -3.487 -27.372  1.00  0.00     0.012 C 
ATOM     20  C   UNL     1       9.709  -5.746 -30.392  1.00  0.00    -0.025 C 
ATOM     21  C   UNL     1      10.184  -6.513 -27.918  1.00  0.00     0.005 C 
ATOM     22  C   UNL     1      10.718  -6.445 -29.381  1.00  0.00     0.003 C 
ATOM     23  C   UNL     1      10.417  -5.582 -31.780  1.00  0.00     0.010 C 
ATOM     24  C   UNL     1       8.496  -6.682 -30.715  1.00  0.00     0.012 C 
ATOM     25  C   UNL     1      12.260  -6.006 -29.439  1.00  0.00    -0.006 C 
ATOM     26  C   UNL     1      11.803  -4.960 -31.723  1.00  0.00     0.033 C 
ATOM     27  C   UNL     1      12.746  -5.859 -30.914  1.00  0.00     0.120 C 
ATOM     28  C   UNL     1      13.108  -7.120 -28.761  1.00  0.00     0.014 C 
ATOM     29  C   UNL     1      12.615  -4.679 -28.688  1.00  0.00     0.014 C 
ENDROOT
BRANCH   1  30
ATOM     30  C   UNL     1       2.944  -5.819 -28.592  1.00  0.00     0.048 C 
ATOM     31  O   UNL     1       2.741  -5.107 -27.562  1.00  0.00    -0.550 OA
ATOM     32  O   UNL     1       1.854  -6.459 -29.176  1.00  0.00    -0.550 OA
ENDBRANCH   1  30
BRANCH  27  33
ATOM     33  O   UNL     1      12.863  -7.124 -31.532  1.00  0.00    -0.393 OA
ATOM     34  H   UNL     1      13.824  -7.386 -31.496  1.00  0.00     0.210 HD
ENDBRANCH  27  33
TORSDOF 2
ENDMDL
