MODEL 1
REMARK VINA RESULT:    29.058      0.000      0.000
REMARK INTER + INTRA:          75.569
REMARK INTER:                  76.623
REMARK INTRA:                  -1.054
REMARK UNBOUND:                -1.054
REMARK SMILES CCCCCCCCCCCCCCCCCCCCCCCCCCCCCC(=O)[O-]
REMARK SMILES IDX 16 1 17 2 18 3 19 4 20 5 21 6 22 7 23 8 24 9 25 10 26 11
REMARK SMILES IDX 27 12 28 13 29 14 30 15 31 16 32 17 15 18 14 19 13 20 12 21
REMARK SMILES IDX 11 22 10 23 9 24 8 25 7 26 6 27 5 28 4 29 3 30 2 31 1 32
REMARK H PARENT
REMARK Flexibility Score: inf
ROOT
ATOM      1  C   UNL     1     -16.703 -13.997 -22.728  1.00  0.00     0.000 C 
ENDROOT
BRANCH   1   2
ATOM      2  C   UNL     1     -16.230 -13.727 -21.291  1.00  0.00     0.000 C 
BRANCH   2   3
ATOM      3  C   UNL     1     -16.050 -15.016 -20.475  1.00  0.00     0.000 C 
BRANCH   3   4
ATOM      4  C   UNL     1     -17.272 -15.275 -19.585  1.00  0.00     0.000 C 
BRANCH   4   5
ATOM      5  C   UNL     1     -16.889 -16.091 -18.341  1.00  0.00     0.000 C 
BRANCH   5   6
ATOM      6  C   UNL     1     -17.305 -15.407 -17.027  1.00  0.00     0.000 C 
BRANCH   6   7
ATOM      7  C   UNL     1     -17.238 -16.307 -15.778  1.00  0.00     0.000 C 
BRANCH   7   8
ATOM      8  C   UNL     1     -18.585 -16.916 -15.339  1.00  0.00     0.000 C 
BRANCH   8   9
ATOM      9  C   UNL     1     -19.382 -17.604 -16.460  1.00  0.00     0.000 C 
BRANCH   9  10
ATOM     10  C   UNL     1     -20.540 -18.461 -15.928  1.00  0.00     0.000 C 
BRANCH  10  11
ATOM     11  C   UNL     1     -21.785 -17.605 -15.656  1.00  0.00     0.000 C 
BRANCH  11  12
ATOM     12  C   UNL     1     -21.532 -16.553 -14.556  1.00  0.00     0.000 C 
BRANCH  12  13
ATOM     13  C   UNL     1     -22.694 -16.405 -13.556  1.00  0.00     0.006 C 
BRANCH  13  14
ATOM     14  C   UNL     1     -23.512 -15.112 -13.727  1.00  0.00     0.053 C 
BRANCH  14  15
ATOM     15  C   UNL     1     -23.790 -14.422 -12.424  1.00  0.00     0.041 C 
ATOM     16  O   UNL     1     -22.852 -14.203 -11.613  1.00  0.00    -0.550 OA
ATOM     17  O   UNL     1     -25.091 -14.087 -12.070  1.00  0.00    -0.550 OA
ENDBRANCH  14  15
ENDBRANCH  13  14
ENDBRANCH  12  13
ENDBRANCH  11  12
ENDBRANCH  10  11
ENDBRANCH   9  10
ENDBRANCH   8   9
ENDBRANCH   7   8
ENDBRANCH   6   7
ENDBRANCH   5   6
ENDBRANCH   4   5
ENDBRANCH   3   4
ENDBRANCH   2   3
ENDBRANCH   1   2
BRANCH   1  18
ATOM     18  C   UNL     1     -15.826 -13.295 -23.777  1.00  0.00     0.000 C 
BRANCH  18  19
ATOM     19  C   UNL     1     -14.593 -12.612 -23.160  1.00  0.00     0.000 C 
BRANCH  19  20
ATOM     20  C   UNL     1     -14.148 -11.306 -23.853  1.00  0.00     0.000 C 
BRANCH  20  21
ATOM     21  C   UNL     1     -14.816 -10.013 -23.338  1.00  0.00     0.000 C 
BRANCH  21  22
ATOM     22  C   UNL     1     -14.063  -8.709 -23.686  1.00  0.00     0.000 C 
BRANCH  22  23
ATOM     23  C   UNL     1     -14.986  -7.535 -24.060  1.00  0.00     0.000 C 
BRANCH  23  24
ATOM     24  C   UNL     1     -14.314  -6.149 -24.050  1.00  0.00    -0.000 C 
BRANCH  24  25
ATOM     25  C   UNL     1     -13.567  -5.796 -22.747  1.00  0.00    -0.000 C 
BRANCH  25  26
ATOM     26  C   UNL     1     -14.420  -5.858 -21.464  1.00  0.00    -0.000 C 
BRANCH  26  27
ATOM     27  C   UNL     1     -13.830  -6.712 -20.326  1.00  0.00    -0.000 C 
BRANCH  27  28
ATOM     28  C   UNL     1     -13.065  -7.943 -20.842  1.00  0.00    -0.000 C 
BRANCH  28  29
ATOM     29  C   UNL     1     -11.982  -8.418 -19.859  1.00  0.00    -0.000 C 
BRANCH  29  30
ATOM     30  C   UNL     1     -12.252  -7.968 -18.415  1.00  0.00    -0.000 C 
BRANCH  30  31
ATOM     31  C   UNL     1     -13.266  -8.893 -17.734  1.00  0.00    -0.003 C 
ATOM     32  C   UNL     1     -12.912 -10.361 -17.955  1.00  0.00     0.004 C 
ENDBRANCH  30  31
ENDBRANCH  29  30
ENDBRANCH  28  29
ENDBRANCH  27  28
ENDBRANCH  26  27
ENDBRANCH  25  26
ENDBRANCH  24  25
ENDBRANCH  23  24
ENDBRANCH  22  23
ENDBRANCH  21  22
ENDBRANCH  20  21
ENDBRANCH  19  20
ENDBRANCH  18  19
ENDBRANCH   1  18
TORSDOF 28
ENDMDL
MODEL 2
REMARK VINA RESULT:    29.166      1.232      2.924
REMARK INTER + INTRA:          75.854
REMARK INTER:                  76.377
REMARK INTRA:                  -0.523
REMARK UNBOUND:                -1.054
REMARK SMILES CCCCCCCCCCCCCCCCCCCCCCCCCCCCCC(=O)[O-]
REMARK SMILES IDX 16 1 17 2 18 3 19 4 20 5 21 6 22 7 23 8 24 9 25 10 26 11
REMARK SMILES IDX 27 12 28 13 29 14 30 15 31 16 32 17 15 18 14 19 13 20 12 21
REMARK SMILES IDX 11 22 10 23 9 24 8 25 7 26 6 27 5 28 4 29 3 30 2 31 1 32
REMARK H PARENT
REMARK Flexibility Score: inf
ROOT
ATOM      1  C   UNL     1     -15.144 -12.974 -23.977  1.00  0.00     0.000 C 
ENDROOT
BRANCH   1   2
ATOM      2  C   UNL     1     -16.290 -13.618 -23.181  1.00  0.00     0.000 C 
BRANCH   2   3
ATOM      3  C   UNL     1     -16.151 -13.405 -21.667  1.00  0.00     0.000 C 
BRANCH   3   4
ATOM      4  C   UNL     1     -16.930 -14.475 -20.891  1.00  0.00     0.000 C 
BRANCH   4   5
ATOM      5  C   UNL     1     -16.085 -15.056 -19.748  1.00  0.00     0.000 C 
BRANCH   5   6
ATOM      6  C   UNL     1     -16.859 -16.070 -18.888  1.00  0.00     0.000 C 
BRANCH   6   7
ATOM      7  C   UNL     1     -17.564 -15.471 -17.655  1.00  0.00     0.000 C 
BRANCH   7   8
ATOM      8  C   UNL     1     -17.151 -16.088 -16.303  1.00  0.00     0.000 C 
BRANCH   8   9
ATOM      9  C   UNL     1     -18.224 -16.967 -15.637  1.00  0.00     0.000 C 
BRANCH   9  10
ATOM     10  C   UNL     1     -19.547 -16.984 -16.414  1.00  0.00     0.000 C 
BRANCH  10  11
ATOM     11  C   UNL     1     -20.434 -18.158 -15.976  1.00  0.00     0.000 C 
BRANCH  11  12
ATOM     12  C   UNL     1     -21.483 -17.729 -14.929  1.00  0.00     0.000 C 
BRANCH  12  13
ATOM     13  C   UNL     1     -21.672 -16.204 -14.825  1.00  0.00     0.006 C 
BRANCH  13  14
ATOM     14  C   UNL     1     -23.130 -15.765 -14.594  1.00  0.00     0.053 C 
BRANCH  14  15
ATOM     15  C   UNL     1     -23.384 -15.309 -13.187  1.00  0.00     0.041 C 
ATOM     16  O   UNL     1     -22.466 -15.370 -12.328  1.00  0.00    -0.550 OA
ATOM     17  O   UNL     1     -24.651 -14.885 -12.805  1.00  0.00    -0.550 OA
ENDBRANCH  14  15
ENDBRANCH  13  14
ENDBRANCH  12  13
ENDBRANCH  11  12
ENDBRANCH  10  11
ENDBRANCH   9  10
ENDBRANCH   8   9
ENDBRANCH   7   8
ENDBRANCH   6   7
ENDBRANCH   5   6
ENDBRANCH   4   5
ENDBRANCH   3   4
ENDBRANCH   2   3
ENDBRANCH   1   2
BRANCH   1  18
ATOM     18  C   UNL     1     -14.353 -11.951 -23.145  1.00  0.00     0.000 C 
BRANCH  18  19
ATOM     19  C   UNL     1     -14.023 -10.672 -23.934  1.00  0.00     0.000 C 
BRANCH  19  20
ATOM     20  C   UNL     1     -14.837  -9.423 -23.533  1.00  0.00     0.000 C 
BRANCH  20  21
ATOM     21  C   UNL     1     -14.050  -8.096 -23.490  1.00  0.00     0.000 C 
BRANCH  21  22
ATOM     22  C   UNL     1     -13.366  -7.788 -22.139  1.00  0.00     0.000 C 
BRANCH  22  23
ATOM     23  C   UNL     1     -12.042  -8.546 -21.922  1.00  0.00     0.000 C 
BRANCH  23  24
ATOM     24  C   UNL     1     -11.918  -9.262 -20.564  1.00  0.00    -0.000 C 
BRANCH  24  25
ATOM     25  C   UNL     1     -11.986  -8.338 -19.331  1.00  0.00    -0.000 C 
BRANCH  25  26
ATOM     26  C   UNL     1     -12.773  -8.901 -18.131  1.00  0.00    -0.000 C 
BRANCH  26  27
ATOM     27  C   UNL     1     -13.849  -7.961 -17.555  1.00  0.00    -0.000 C 
BRANCH  27  28
ATOM     28  C   UNL     1     -14.942  -7.609 -18.580  1.00  0.00    -0.000 C 
BRANCH  28  29
ATOM     29  C   UNL     1     -14.437  -6.656 -19.675  1.00  0.00    -0.000 C 
BRANCH  29  30
ATOM     30  C   UNL     1     -15.433  -6.503 -20.835  1.00  0.00    -0.000 C 
BRANCH  30  31
ATOM     31  C   UNL     1     -16.789  -7.123 -20.478  1.00  0.00    -0.003 C 
ATOM     32  C   UNL     1     -17.807  -6.906 -21.595  1.00  0.00     0.004 C 
ENDBRANCH  30  31
ENDBRANCH  29  30
ENDBRANCH  28  29
ENDBRANCH  27  28
ENDBRANCH  26  27
ENDBRANCH  25  26
ENDBRANCH  24  25
ENDBRANCH  23  24
ENDBRANCH  22  23
ENDBRANCH  21  22
ENDBRANCH  20  21
ENDBRANCH  19  20
ENDBRANCH  18  19
ENDBRANCH   1  18
TORSDOF 28
ENDMDL
MODEL 3
REMARK VINA RESULT:    29.428      1.621      3.294
REMARK INTER + INTRA:          76.544
REMARK INTER:                  74.906
REMARK INTRA:                   1.639
REMARK UNBOUND:                -1.054
REMARK SMILES CCCCCCCCCCCCCCCCCCCCCCCCCCCCCC(=O)[O-]
REMARK SMILES IDX 16 1 17 2 18 3 19 4 20 5 21 6 22 7 23 8 24 9 25 10 26 11
REMARK SMILES IDX 27 12 28 13 29 14 30 15 31 16 32 17 15 18 14 19 13 20 12 21
REMARK SMILES IDX 11 22 10 23 9 24 8 25 7 26 6 27 5 28 4 29 3 30 2 31 1 32
REMARK H PARENT
REMARK Flexibility Score: inf
ROOT
ATOM      1  C   UNL     1     -16.452 -15.593 -19.496  1.00  0.00     0.000 C 
ENDROOT
BRANCH   1   2
ATOM      2  C   UNL     1     -17.431 -15.926 -18.359  1.00  0.00     0.000 C 
BRANCH   2   3
ATOM      3  C   UNL     1     -16.845 -15.635 -16.970  1.00  0.00     0.000 C 
BRANCH   3   4
ATOM      4  C   UNL     1     -17.206 -16.749 -15.980  1.00  0.00     0.000 C 
BRANCH   4   5
ATOM      5  C   UNL     1     -18.653 -16.603 -15.485  1.00  0.00     0.000 C 
BRANCH   5   6
ATOM      6  C   UNL     1     -19.657 -17.405 -16.331  1.00  0.00     0.000 C 
BRANCH   6   7
ATOM      7  C   UNL     1     -20.739 -18.148 -15.523  1.00  0.00     0.000 C 
BRANCH   7   8
ATOM      8  C   UNL     1     -22.091 -17.415 -15.413  1.00  0.00     0.000 C 
BRANCH   8   9
ATOM      9  C   UNL     1     -22.046 -16.080 -14.648  1.00  0.00     0.000 C 
BRANCH   9  10
ATOM     10  C   UNL     1     -23.383 -15.326 -14.687  1.00  0.00     0.000 C 
BRANCH  10  11
ATOM     11  C   UNL     1     -23.876 -14.997 -13.270  1.00  0.00     0.000 C 
BRANCH  11  12
ATOM     12  C   UNL     1     -23.154 -15.839 -12.199  1.00  0.00     0.000 C 
BRANCH  12  13
ATOM     13  C   UNL     1     -22.207 -15.023 -11.298  1.00  0.00     0.006 C 
BRANCH  13  14
ATOM     14  C   UNL     1     -21.144 -15.869 -10.572  1.00  0.00     0.053 C 
BRANCH  14  15
ATOM     15  C   UNL     1     -21.502 -17.324 -10.509  1.00  0.00     0.041 C 
ATOM     16  O   UNL     1     -22.197 -17.844 -11.422  1.00  0.00    -0.550 OA
ATOM     17  O   UNL     1     -21.134 -18.091  -9.410  1.00  0.00    -0.550 OA
ENDBRANCH  14  15
ENDBRANCH  13  14
ENDBRANCH  12  13
ENDBRANCH  11  12
ENDBRANCH  10  11
ENDBRANCH   9  10
ENDBRANCH   8   9
ENDBRANCH   7   8
ENDBRANCH   6   7
ENDBRANCH   5   6
ENDBRANCH   4   5
ENDBRANCH   3   4
ENDBRANCH   2   3
ENDBRANCH   1   2
BRANCH   1  18
ATOM     18  C   UNL     1     -17.004 -14.522 -20.453  1.00  0.00     0.000 C 
BRANCH  18  19
ATOM     19  C   UNL     1     -16.132 -14.340 -21.707  1.00  0.00     0.000 C 
BRANCH  19  20
ATOM     20  C   UNL     1     -16.009 -12.889 -22.218  1.00  0.00     0.000 C 
BRANCH  20  21
ATOM     21  C   UNL     1     -15.066 -12.680 -23.422  1.00  0.00     0.000 C 
BRANCH  21  22
ATOM     22  C   UNL     1     -14.021 -11.555 -23.243  1.00  0.00     0.000 C 
BRANCH  22  23
ATOM     23  C   UNL     1     -14.404 -10.231 -23.930  1.00  0.00     0.000 C 
BRANCH  23  24
ATOM     24  C   UNL     1     -13.725  -8.977 -23.349  1.00  0.00    -0.000 C 
BRANCH  24  25
ATOM     25  C   UNL     1     -14.622  -7.724 -23.274  1.00  0.00    -0.000 C 
BRANCH  25  26
ATOM     26  C   UNL     1     -15.754  -7.789 -22.230  1.00  0.00    -0.000 C 
BRANCH  26  27
ATOM     27  C   UNL     1     -15.678  -6.730 -21.115  1.00  0.00    -0.000 C 
BRANCH  27  28
ATOM     28  C   UNL     1     -14.404  -6.856 -20.260  1.00  0.00    -0.000 C 
BRANCH  28  29
ATOM     29  C   UNL     1     -13.261  -7.562 -21.007  1.00  0.00    -0.000 C 
BRANCH  29  30
ATOM     30  C   UNL     1     -12.434  -8.481 -20.095  1.00  0.00    -0.000 C 
BRANCH  30  31
ATOM     31  C   UNL     1     -12.660  -8.135 -18.619  1.00  0.00    -0.003 C 
ATOM     32  C   UNL     1     -12.892  -9.393 -17.785  1.00  0.00     0.004 C 
ENDBRANCH  30  31
ENDBRANCH  29  30
ENDBRANCH  28  29
ENDBRANCH  27  28
ENDBRANCH  26  27
ENDBRANCH  25  26
ENDBRANCH  24  25
ENDBRANCH  23  24
ENDBRANCH  22  23
ENDBRANCH  21  22
ENDBRANCH  20  21
ENDBRANCH  19  20
ENDBRANCH  18  19
ENDBRANCH   1  18
TORSDOF 28
ENDMDL
MODEL 4
REMARK VINA RESULT:    29.453      0.954      1.654
REMARK INTER + INTRA:          76.611
REMARK INTER:                  77.223
REMARK INTRA:                  -0.612
REMARK UNBOUND:                -1.054
REMARK SMILES CCCCCCCCCCCCCCCCCCCCCCCCCCCCCC(=O)[O-]
REMARK SMILES IDX 16 1 17 2 18 3 19 4 20 5 21 6 22 7 23 8 24 9 25 10 26 11
REMARK SMILES IDX 27 12 28 13 29 14 30 15 31 16 32 17 15 18 14 19 13 20 12 21
REMARK SMILES IDX 11 22 10 23 9 24 8 25 7 26 6 27 5 28 4 29 3 30 2 31 1 32
REMARK H PARENT
REMARK Flexibility Score: inf
ROOT
ATOM      1  C   UNL     1     -16.481 -13.761 -21.075  1.00  0.00     0.000 C 
ENDROOT
BRANCH   1   2
ATOM      2  C   UNL     1     -16.286 -14.974 -20.150  1.00  0.00     0.000 C 
BRANCH   2   3
ATOM      3  C   UNL     1     -17.545 -15.304 -19.335  1.00  0.00     0.000 C 
BRANCH   3   4
ATOM      4  C   UNL     1     -17.204 -16.210 -18.145  1.00  0.00     0.000 C 
BRANCH   4   5
ATOM      5  C   UNL     1     -17.181 -15.415 -16.831  1.00  0.00     0.000 C 
BRANCH   5   6
ATOM      6  C   UNL     1     -18.116 -16.004 -15.761  1.00  0.00     0.000 C 
BRANCH   6   7
ATOM      7  C   UNL     1     -18.387 -17.515 -15.896  1.00  0.00     0.000 C 
BRANCH   7   8
ATOM      8  C   UNL     1     -19.854 -17.894 -16.179  1.00  0.00     0.000 C 
BRANCH   8   9
ATOM      9  C   UNL     1     -20.899 -16.932 -15.586  1.00  0.00     0.000 C 
BRANCH   9  10
ATOM     10  C   UNL     1     -22.184 -17.647 -15.145  1.00  0.00     0.000 C 
BRANCH  10  11
ATOM     11  C   UNL     1     -21.920 -18.581 -13.955  1.00  0.00     0.000 C 
BRANCH  11  12
ATOM     12  C   UNL     1     -22.799 -18.228 -12.739  1.00  0.00     0.000 C 
BRANCH  12  13
ATOM     13  C   UNL     1     -22.525 -16.828 -12.157  1.00  0.00     0.006 C 
BRANCH  13  14
ATOM     14  C   UNL     1     -23.234 -15.685 -12.908  1.00  0.00     0.053 C 
BRANCH  14  15
ATOM     15  C   UNL     1     -23.596 -14.537 -12.011  1.00  0.00     0.041 C 
ATOM     16  O   UNL     1     -22.709 -13.970 -11.322  1.00  0.00    -0.550 OA
ATOM     17  O   UNL     1     -24.922 -14.141 -11.880  1.00  0.00    -0.550 OA
ENDBRANCH  14  15
ENDBRANCH  13  14
ENDBRANCH  12  13
ENDBRANCH  11  12
ENDBRANCH  10  11
ENDBRANCH   9  10
ENDBRANCH   8   9
ENDBRANCH   7   8
ENDBRANCH   6   7
ENDBRANCH   5   6
ENDBRANCH   4   5
ENDBRANCH   3   4
ENDBRANCH   2   3
ENDBRANCH   1   2
BRANCH   1  18
ATOM     18  C   UNL     1     -16.124 -14.074 -22.538  1.00  0.00     0.000 C 
BRANCH  18  19
ATOM     19  C   UNL     1     -15.784 -12.812 -23.349  1.00  0.00     0.000 C 
BRANCH  19  20
ATOM     20  C   UNL     1     -14.321 -12.332 -23.237  1.00  0.00     0.000 C 
BRANCH  20  21
ATOM     21  C   UNL     1     -13.933 -11.147 -24.147  1.00  0.00     0.000 C 
BRANCH  21  22
ATOM     22  C   UNL     1     -13.947  -9.764 -23.456  1.00  0.00     0.000 C 
BRANCH  22  23
ATOM     23  C   UNL     1     -14.835  -8.721 -24.161  1.00  0.00     0.000 C 
BRANCH  23  24
ATOM     24  C   UNL     1     -14.750  -7.297 -23.582  1.00  0.00    -0.000 C 
BRANCH  24  25
ATOM     25  C   UNL     1     -14.999  -7.194 -22.064  1.00  0.00    -0.000 C 
BRANCH  25  26
ATOM     26  C   UNL     1     -13.729  -7.172 -21.190  1.00  0.00    -0.000 C 
BRANCH  26  27
ATOM     27  C   UNL     1     -12.624  -8.155 -21.617  1.00  0.00    -0.000 C 
BRANCH  27  28
ATOM     28  C   UNL     1     -11.936  -8.834 -20.419  1.00  0.00    -0.000 C 
BRANCH  28  29
ATOM     29  C   UNL     1     -12.326  -8.196 -19.077  1.00  0.00    -0.000 C 
BRANCH  29  30
ATOM     30  C   UNL     1     -12.755  -9.234 -18.028  1.00  0.00    -0.000 C 
BRANCH  30  31
ATOM     31  C   UNL     1     -14.043  -8.798 -17.321  1.00  0.00    -0.003 C 
ATOM     32  C   UNL     1     -14.597  -7.510 -17.926  1.00  0.00     0.004 C 
ENDBRANCH  30  31
ENDBRANCH  29  30
ENDBRANCH  28  29
ENDBRANCH  27  28
ENDBRANCH  26  27
ENDBRANCH  25  26
ENDBRANCH  24  25
ENDBRANCH  23  24
ENDBRANCH  22  23
ENDBRANCH  21  22
ENDBRANCH  20  21
ENDBRANCH  19  20
ENDBRANCH  18  19
ENDBRANCH   1  18
TORSDOF 28
ENDMDL
MODEL 5
REMARK VINA RESULT:    29.456      3.842      6.696
REMARK INTER + INTRA:          76.618
REMARK INTER:                  77.825
REMARK INTRA:                  -1.207
REMARK UNBOUND:                -1.054
REMARK SMILES CCCCCCCCCCCCCCCCCCCCCCCCCCCCCC(=O)[O-]
REMARK SMILES IDX 16 1 17 2 18 3 19 4 20 5 21 6 22 7 23 8 24 9 25 10 26 11
REMARK SMILES IDX 27 12 28 13 29 14 30 15 31 16 32 17 15 18 14 19 13 20 12 21
REMARK SMILES IDX 11 22 10 23 9 24 8 25 7 26 6 27 5 28 4 29 3 30 2 31 1 32
REMARK H PARENT
REMARK Flexibility Score: inf
ROOT
ATOM      1  C   UNL     1     -18.009 -16.735 -15.551  1.00  0.00     0.000 C 
ENDROOT
BRANCH   1   2
ATOM      2  C   UNL     1     -19.135 -17.557 -16.199  1.00  0.00     0.000 C 
BRANCH   2   3
ATOM      3  C   UNL     1     -20.532 -17.027 -15.846  1.00  0.00     0.000 C 
BRANCH   3   4
ATOM      4  C   UNL     1     -21.378 -18.119 -15.179  1.00  0.00     0.000 C 
BRANCH   4   5
ATOM      5  C   UNL     1     -22.431 -17.510 -14.241  1.00  0.00     0.000 C 
BRANCH   5   6
ATOM      6  C   UNL     1     -22.518 -15.978 -14.357  1.00  0.00     0.000 C 
BRANCH   6   7
ATOM      7  C   UNL     1     -23.583 -15.319 -13.459  1.00  0.00     0.000 C 
BRANCH   7   8
ATOM      8  C   UNL     1     -23.649 -15.861 -12.017  1.00  0.00     0.000 C 
BRANCH   8   9
ATOM      9  C   UNL     1     -25.048 -16.302 -11.553  1.00  0.00     0.000 C 
BRANCH   9  10
ATOM     10  C   UNL     1     -25.003 -17.449 -10.533  1.00  0.00     0.000 C 
BRANCH  10  11
ATOM     11  C   UNL     1     -26.335 -18.211 -10.495  1.00  0.00     0.000 C 
BRANCH  11  12
ATOM     12  C   UNL     1     -26.385 -19.227  -9.335  1.00  0.00     0.000 C 
BRANCH  12  13
ATOM     13  C   UNL     1     -27.767 -19.877  -9.135  1.00  0.00     0.006 C 
BRANCH  13  14
ATOM     14  C   UNL     1     -28.843 -18.915  -8.597  1.00  0.00     0.053 C 
BRANCH  14  15
ATOM     15  C   UNL     1     -30.110 -19.618  -8.209  1.00  0.00     0.041 C 
ATOM     16  O   UNL     1     -30.530 -19.556  -7.024  1.00  0.00    -0.550 OA
ATOM     17  O   UNL     1     -30.790 -20.401  -9.135  1.00  0.00    -0.550 OA
ENDBRANCH  14  15
ENDBRANCH  13  14
ENDBRANCH  12  13
ENDBRANCH  11  12
ENDBRANCH  10  11
ENDBRANCH   9  10
ENDBRANCH   8   9
ENDBRANCH   7   8
ENDBRANCH   6   7
ENDBRANCH   5   6
ENDBRANCH   4   5
ENDBRANCH   3   4
ENDBRANCH   2   3
ENDBRANCH   1   2
BRANCH   1  18
ATOM     18  C   UNL     1     -17.371 -15.736 -16.531  1.00  0.00     0.000 C 
BRANCH  18  19
ATOM     19  C   UNL     1     -17.434 -16.215 -17.992  1.00  0.00     0.000 C 
BRANCH  19  20
ATOM     20  C   UNL     1     -16.434 -15.533 -18.951  1.00  0.00     0.000 C 
BRANCH  20  21
ATOM     21  C   UNL     1     -17.034 -14.979 -20.261  1.00  0.00     0.000 C 
BRANCH  21  22
ATOM     22  C   UNL     1     -15.999 -14.426 -21.267  1.00  0.00     0.000 C 
BRANCH  22  23
ATOM     23  C   UNL     1     -16.601 -13.490 -22.332  1.00  0.00     0.000 C 
BRANCH  23  24
ATOM     24  C   UNL     1     -15.827 -12.178 -22.558  1.00  0.00    -0.000 C 
BRANCH  24  25
ATOM     25  C   UNL     1     -14.691 -12.262 -23.598  1.00  0.00    -0.000 C 
BRANCH  25  26
ATOM     26  C   UNL     1     -13.592 -11.190 -23.458  1.00  0.00    -0.000 C 
BRANCH  26  27
ATOM     27  C   UNL     1     -13.943  -9.811 -24.045  1.00  0.00    -0.000 C 
BRANCH  27  28
ATOM     28  C   UNL     1     -14.383  -8.801 -22.971  1.00  0.00    -0.000 C 
BRANCH  28  29
ATOM     29  C   UNL     1     -13.206  -7.989 -22.408  1.00  0.00    -0.000 C 
BRANCH  29  30
ATOM     30  C   UNL     1     -12.571  -8.644 -21.171  1.00  0.00    -0.000 C 
BRANCH  30  31
ATOM     31  C   UNL     1     -12.880  -7.838 -19.905  1.00  0.00    -0.003 C 
ATOM     32  C   UNL     1     -12.579  -8.649 -18.647  1.00  0.00     0.004 C 
ENDBRANCH  30  31
ENDBRANCH  29  30
ENDBRANCH  28  29
ENDBRANCH  27  28
ENDBRANCH  26  27
ENDBRANCH  25  26
ENDBRANCH  24  25
ENDBRANCH  23  24
ENDBRANCH  22  23
ENDBRANCH  21  22
ENDBRANCH  20  21
ENDBRANCH  19  20
ENDBRANCH  18  19
ENDBRANCH   1  18
TORSDOF 28
ENDMDL
MODEL 6
REMARK VINA RESULT:    29.523      3.486     11.978
REMARK INTER + INTRA:          76.794
REMARK INTER:                  75.997
REMARK INTRA:                   0.797
REMARK UNBOUND:                -1.054
REMARK SMILES CCCCCCCCCCCCCCCCCCCCCCCCCCCCCC(=O)[O-]
REMARK SMILES IDX 16 1 17 2 18 3 19 4 20 5 21 6 22 7 23 8 24 9 25 10 26 11
REMARK SMILES IDX 27 12 28 13 29 14 30 15 31 16 32 17 15 18 14 19 13 20 12 21
REMARK SMILES IDX 11 22 10 23 9 24 8 25 7 26 6 27 5 28 4 29 3 30 2 31 1 32
REMARK H PARENT
REMARK Flexibility Score: inf
ROOT
ATOM      1  C   UNL     1     -16.666 -13.339 -21.557  1.00  0.00     0.000 C 
ENDROOT
BRANCH   1   2
ATOM      2  C   UNL     1     -16.580 -13.754 -23.034  1.00  0.00     0.000 C 
BRANCH   2   3
ATOM      3  C   UNL     1     -15.370 -13.137 -23.751  1.00  0.00     0.000 C 
BRANCH   3   4
ATOM      4  C   UNL     1     -14.822 -11.938 -22.967  1.00  0.00     0.000 C 
BRANCH   4   5
ATOM      5  C   UNL     1     -13.822 -11.134 -23.811  1.00  0.00     0.000 C 
BRANCH   5   6
ATOM      6  C   UNL     1     -13.863  -9.626 -23.509  1.00  0.00     0.000 C 
BRANCH   6   7
ATOM      7  C   UNL     1     -15.229  -8.954 -23.745  1.00  0.00     0.000 C 
BRANCH   7   8
ATOM      8  C   UNL     1     -15.242  -7.421 -23.575  1.00  0.00     0.000 C 
BRANCH   8   9
ATOM      9  C   UNL     1     -14.839  -6.626 -24.829  1.00  0.00     0.000 C 
BRANCH   9  10
ATOM     10  C   UNL     1     -13.928  -5.432 -24.510  1.00  0.00     0.000 C 
BRANCH  10  11
ATOM     11  C   UNL     1     -13.242  -5.605 -23.147  1.00  0.00     0.000 C 
BRANCH  11  12
ATOM     12  C   UNL     1     -14.200  -6.193 -22.090  1.00  0.00     0.000 C 
BRANCH  12  13
ATOM     13  C   UNL     1     -13.566  -6.355 -20.695  1.00  0.00     0.006 C 
BRANCH  13  14
ATOM     14  C   UNL     1     -12.944  -7.741 -20.443  1.00  0.00     0.053 C 
BRANCH  14  15
ATOM     15  C   UNL     1     -13.071  -8.184 -19.016  1.00  0.00     0.041 C 
ATOM     16  O   UNL     1     -12.355  -9.124 -18.580  1.00  0.00    -0.550 OA
ATOM     17  O   UNL     1     -14.028  -7.612 -18.185  1.00  0.00    -0.550 OA
ENDBRANCH  14  15
ENDBRANCH  13  14
ENDBRANCH  12  13
ENDBRANCH  11  12
ENDBRANCH  10  11
ENDBRANCH   9  10
ENDBRANCH   8   9
ENDBRANCH   7   8
ENDBRANCH   6   7
ENDBRANCH   5   6
ENDBRANCH   4   5
ENDBRANCH   3   4
ENDBRANCH   2   3
ENDBRANCH   1   2
BRANCH   1  18
ATOM     18  C   UNL     1     -15.692 -14.128 -20.666  1.00  0.00     0.000 C 
BRANCH  18  19
ATOM     19  C   UNL     1     -15.972 -15.640 -20.673  1.00  0.00     0.000 C 
BRANCH  19  20
ATOM     20  C   UNL     1     -16.344 -16.247 -19.303  1.00  0.00     0.000 C 
BRANCH  20  21
ATOM     21  C   UNL     1     -17.626 -15.690 -18.649  1.00  0.00     0.000 C 
BRANCH  21  22
ATOM     22  C   UNL     1     -17.470 -15.262 -17.172  1.00  0.00     0.000 C 
BRANCH  22  23
ATOM     23  C   UNL     1     -16.343 -15.998 -16.424  1.00  0.00     0.000 C 
BRANCH  23  24
ATOM     24  C   UNL     1     -16.818 -17.014 -15.368  1.00  0.00    -0.000 C 
BRANCH  24  25
ATOM     25  C   UNL     1     -18.340 -17.033 -15.119  1.00  0.00    -0.000 C 
BRANCH  25  26
ATOM     26  C   UNL     1     -19.193 -17.527 -16.304  1.00  0.00    -0.000 C 
BRANCH  26  27
ATOM     27  C   UNL     1     -20.577 -18.085 -15.925  1.00  0.00    -0.000 C 
BRANCH  27  28
ATOM     28  C   UNL     1     -21.619 -16.979 -15.682  1.00  0.00    -0.000 C 
BRANCH  28  29
ATOM     29  C   UNL     1     -22.446 -17.218 -14.409  1.00  0.00    -0.000 C 
BRANCH  29  30
ATOM     30  C   UNL     1     -22.430 -16.014 -13.455  1.00  0.00    -0.000 C 
BRANCH  30  31
ATOM     31  C   UNL     1     -23.720 -15.195 -13.584  1.00  0.00    -0.003 C 
ATOM     32  C   UNL     1     -23.950 -14.328 -12.350  1.00  0.00     0.004 C 
ENDBRANCH  30  31
ENDBRANCH  29  30
ENDBRANCH  28  29
ENDBRANCH  27  28
ENDBRANCH  26  27
ENDBRANCH  25  26
ENDBRANCH  24  25
ENDBRANCH  23  24
ENDBRANCH  22  23
ENDBRANCH  21  22
ENDBRANCH  20  21
ENDBRANCH  19  20
ENDBRANCH  18  19
ENDBRANCH   1  18
TORSDOF 28
ENDMDL
MODEL 7
REMARK VINA RESULT:    29.609      3.517     12.284
REMARK INTER + INTRA:          77.022
REMARK INTER:                  78.931
REMARK INTRA:                  -1.909
REMARK UNBOUND:                -1.054
REMARK SMILES CCCCCCCCCCCCCCCCCCCCCCCCCCCCCC(=O)[O-]
REMARK SMILES IDX 16 1 17 2 18 3 19 4 20 5 21 6 22 7 23 8 24 9 25 10 26 11
REMARK SMILES IDX 27 12 28 13 29 14 30 15 31 16 32 17 15 18 14 19 13 20 12 21
REMARK SMILES IDX 11 22 10 23 9 24 8 25 7 26 6 27 5 28 4 29 3 30 2 31 1 32
REMARK H PARENT
REMARK Flexibility Score: inf
ROOT
ATOM      1  C   UNL     1     -16.141 -16.278 -19.470  1.00  0.00     0.000 C 
ENDROOT
BRANCH   1   2
ATOM      2  C   UNL     1     -15.808 -15.489 -20.746  1.00  0.00     0.000 C 
BRANCH   2   3
ATOM      3  C   UNL     1     -16.260 -14.023 -20.671  1.00  0.00     0.000 C 
BRANCH   3   4
ATOM      4  C   UNL     1     -16.906 -13.581 -21.990  1.00  0.00     0.000 C 
BRANCH   4   5
ATOM      5  C   UNL     1     -15.844 -13.338 -23.073  1.00  0.00     0.000 C 
BRANCH   5   6
ATOM      6  C   UNL     1     -14.916 -12.156 -22.745  1.00  0.00     0.000 C 
BRANCH   6   7
ATOM      7  C   UNL     1     -13.959 -11.747 -23.881  1.00  0.00     0.000 C 
BRANCH   7   8
ATOM      8  C   UNL     1     -13.930 -10.239 -24.201  1.00  0.00     0.000 C 
BRANCH   8   9
ATOM      9  C   UNL     1     -14.938  -9.388 -23.408  1.00  0.00     0.000 C 
BRANCH   9  10
ATOM     10  C   UNL     1     -14.576  -7.896 -23.392  1.00  0.00     0.000 C 
BRANCH  10  11
ATOM     11  C   UNL     1     -13.608  -7.572 -22.245  1.00  0.00     0.000 C 
BRANCH  11  12
ATOM     12  C   UNL     1     -12.545  -8.675 -22.059  1.00  0.00     0.000 C 
BRANCH  12  13
ATOM     13  C   UNL     1     -11.929  -8.714 -20.647  1.00  0.00     0.006 C 
BRANCH  13  14
ATOM     14  C   UNL     1     -12.716  -7.913 -19.594  1.00  0.00     0.053 C 
BRANCH  14  15
ATOM     15  C   UNL     1     -12.700  -8.558 -18.240  1.00  0.00     0.041 C 
ATOM     16  O   UNL     1     -12.432  -7.875 -17.218  1.00  0.00    -0.550 OA
ATOM     17  O   UNL     1     -12.908  -9.927 -18.113  1.00  0.00    -0.550 OA
ENDBRANCH  14  15
ENDBRANCH  13  14
ENDBRANCH  12  13
ENDBRANCH  11  12
ENDBRANCH  10  11
ENDBRANCH   9  10
ENDBRANCH   8   9
ENDBRANCH   7   8
ENDBRANCH   6   7
ENDBRANCH   5   6
ENDBRANCH   4   5
ENDBRANCH   3   4
ENDBRANCH   2   3
ENDBRANCH   1   2
BRANCH   1  18
ATOM     18  C   UNL     1     -17.522 -15.915 -18.898  1.00  0.00     0.000 C 
BRANCH  18  19
ATOM     19  C   UNL     1     -17.435 -15.258 -17.510  1.00  0.00     0.000 C 
BRANCH  19  20
ATOM     20  C   UNL     1     -16.468 -15.940 -16.518  1.00  0.00     0.000 C 
BRANCH  20  21
ATOM     21  C   UNL     1     -17.126 -16.598 -15.286  1.00  0.00     0.000 C 
BRANCH  21  22
ATOM     22  C   UNL     1     -18.671 -16.570 -15.281  1.00  0.00     0.000 C 
BRANCH  22  23
ATOM     23  C   UNL     1     -19.322 -17.853 -15.833  1.00  0.00     0.000 C 
BRANCH  23  24
ATOM     24  C   UNL     1     -20.830 -17.744 -16.126  1.00  0.00    -0.000 C 
BRANCH  24  25
ATOM     25  C   UNL     1     -21.680 -17.177 -14.970  1.00  0.00    -0.000 C 
BRANCH  25  26
ATOM     26  C   UNL     1     -22.530 -18.215 -14.211  1.00  0.00    -0.000 C 
BRANCH  26  27
ATOM     27  C   UNL     1     -22.477 -18.107 -12.675  1.00  0.00    -0.000 C 
BRANCH  27  28
ATOM     28  C   UNL     1     -22.445 -16.649 -12.182  1.00  0.00    -0.000 C 
BRANCH  28  29
ATOM     29  C   UNL     1     -23.829 -16.147 -11.740  1.00  0.00    -0.000 C 
BRANCH  29  30
ATOM     30  C   UNL     1     -24.071 -14.674 -12.107  1.00  0.00    -0.000 C 
BRANCH  30  31
ATOM     31  C   UNL     1     -24.011 -14.471 -13.625  1.00  0.00    -0.003 C 
ATOM     32  C   UNL     1     -24.918 -15.461 -14.351  1.00  0.00     0.004 C 
ENDBRANCH  30  31
ENDBRANCH  29  30
ENDBRANCH  28  29
ENDBRANCH  27  28
ENDBRANCH  26  27
ENDBRANCH  25  26
ENDBRANCH  24  25
ENDBRANCH  23  24
ENDBRANCH  22  23
ENDBRANCH  21  22
ENDBRANCH  20  21
ENDBRANCH  19  20
ENDBRANCH  18  19
ENDBRANCH   1  18
TORSDOF 28
ENDMDL
MODEL 8
REMARK VINA RESULT:    29.633      0.892      2.677
REMARK INTER + INTRA:          77.086
REMARK INTER:                  76.656
REMARK INTRA:                   0.430
REMARK UNBOUND:                -1.054
REMARK SMILES CCCCCCCCCCCCCCCCCCCCCCCCCCCCCC(=O)[O-]
REMARK SMILES IDX 16 1 17 2 18 3 19 4 20 5 21 6 22 7 23 8 24 9 25 10 26 11
REMARK SMILES IDX 27 12 28 13 29 14 30 15 31 16 32 17 15 18 14 19 13 20 12 21
REMARK SMILES IDX 11 22 10 23 9 24 8 25 7 26 6 27 5 28 4 29 3 30 2 31 1 32
REMARK H PARENT
REMARK Flexibility Score: inf
ROOT
ATOM      1  C   UNL     1     -17.361 -15.432 -19.486  1.00  0.00     0.000 C 
ENDROOT
BRANCH   1   2
ATOM      2  C   UNL     1     -17.108 -16.372 -18.296  1.00  0.00     0.000 C 
BRANCH   2   3
ATOM      3  C   UNL     1     -16.802 -15.612 -16.997  1.00  0.00     0.000 C 
BRANCH   3   4
ATOM      4  C   UNL     1     -15.446 -16.040 -16.421  1.00  0.00     0.000 C 
BRANCH   4   5
ATOM      5  C   UNL     1     -15.626 -17.012 -15.245  1.00  0.00     0.000 C 
BRANCH   5   6
ATOM      6  C   UNL     1     -17.099 -17.376 -14.992  1.00  0.00     0.000 C 
BRANCH   6   7
ATOM      7  C   UNL     1     -18.076 -16.185 -15.017  1.00  0.00     0.000 C 
BRANCH   7   8
ATOM      8  C   UNL     1     -19.402 -16.443 -15.759  1.00  0.00     0.000 C 
BRANCH   8   9
ATOM      9  C   UNL     1     -19.607 -17.892 -16.236  1.00  0.00     0.000 C 
BRANCH   9  10
ATOM     10  C   UNL     1     -20.878 -18.534 -15.661  1.00  0.00     0.000 C 
BRANCH  10  11
ATOM     11  C   UNL     1     -22.012 -17.506 -15.535  1.00  0.00     0.000 C 
BRANCH  11  12
ATOM     12  C   UNL     1     -22.302 -17.146 -14.064  1.00  0.00     0.000 C 
BRANCH  12  13
ATOM     13  C   UNL     1     -22.491 -15.637 -13.818  1.00  0.00     0.006 C 
BRANCH  13  14
ATOM     14  C   UNL     1     -23.914 -15.243 -13.380  1.00  0.00     0.053 C 
BRANCH  14  15
ATOM     15  C   UNL     1     -23.939 -14.512 -12.071  1.00  0.00     0.041 C 
ATOM     16  O   UNL     1     -25.037 -14.162 -11.563  1.00  0.00    -0.550 OA
ATOM     17  O   UNL     1     -22.751 -14.151 -11.445  1.00  0.00    -0.550 OA
ENDBRANCH  14  15
ENDBRANCH  13  14
ENDBRANCH  12  13
ENDBRANCH  11  12
ENDBRANCH  10  11
ENDBRANCH   9  10
ENDBRANCH   8   9
ENDBRANCH   7   8
ENDBRANCH   6   7
ENDBRANCH   5   6
ENDBRANCH   4   5
ENDBRANCH   3   4
ENDBRANCH   2   3
ENDBRANCH   1   2
BRANCH   1  18
ATOM     18  C   UNL     1     -16.070 -15.083 -20.245  1.00  0.00     0.000 C 
BRANCH  18  19
ATOM     19  C   UNL     1     -16.157 -13.732 -20.975  1.00  0.00     0.000 C 
BRANCH  19  20
ATOM     20  C   UNL     1     -16.705 -13.798 -22.417  1.00  0.00     0.000 C 
BRANCH  20  21
ATOM     21  C   UNL     1     -15.835 -13.121 -23.497  1.00  0.00     0.000 C 
BRANCH  21  22
ATOM     22  C   UNL     1     -14.881 -12.024 -22.970  1.00  0.00     0.000 C 
BRANCH  22  23
ATOM     23  C   UNL     1     -13.920 -11.466 -24.036  1.00  0.00     0.000 C 
BRANCH  23  24
ATOM     24  C   UNL     1     -13.666  -9.950 -23.953  1.00  0.00    -0.000 C 
BRANCH  24  25
ATOM     25  C   UNL     1     -14.909  -9.097 -23.628  1.00  0.00    -0.000 C 
BRANCH  25  26
ATOM     26  C   UNL     1     -14.614  -7.659 -23.155  1.00  0.00    -0.000 C 
BRANCH  26  27
ATOM     27  C   UNL     1     -13.513  -7.536 -22.085  1.00  0.00    -0.000 C 
BRANCH  27  28
ATOM     28  C   UNL     1     -13.905  -6.592 -20.934  1.00  0.00    -0.000 C 
BRANCH  28  29
ATOM     29  C   UNL     1     -13.991  -7.317 -19.582  1.00  0.00    -0.000 C 
BRANCH  29  30
ATOM     30  C   UNL     1     -12.809  -8.269 -19.342  1.00  0.00    -0.000 C 
BRANCH  30  31
ATOM     31  C   UNL     1     -12.611  -8.530 -17.844  1.00  0.00    -0.003 C 
ATOM     32  C   UNL     1     -11.609  -7.549 -17.241  1.00  0.00     0.004 C 
ENDBRANCH  30  31
ENDBRANCH  29  30
ENDBRANCH  28  29
ENDBRANCH  27  28
ENDBRANCH  26  27
ENDBRANCH  25  26
ENDBRANCH  24  25
ENDBRANCH  23  24
ENDBRANCH  22  23
ENDBRANCH  21  22
ENDBRANCH  20  21
ENDBRANCH  19  20
ENDBRANCH  18  19
ENDBRANCH   1  18
TORSDOF 28
ENDMDL
MODEL 9
REMARK VINA RESULT:    29.938      3.621     11.467
REMARK INTER + INTRA:          77.890
REMARK INTER:                  79.486
REMARK INTRA:                  -1.596
REMARK UNBOUND:                -1.054
REMARK SMILES CCCCCCCCCCCCCCCCCCCCCCCCCCCCCC(=O)[O-]
REMARK SMILES IDX 16 1 17 2 18 3 19 4 20 5 21 6 22 7 23 8 24 9 25 10 26 11
REMARK SMILES IDX 27 12 28 13 29 14 30 15 31 16 32 17 15 18 14 19 13 20 12 21
REMARK SMILES IDX 11 22 10 23 9 24 8 25 7 26 6 27 5 28 4 29 3 30 2 31 1 32
REMARK H PARENT
REMARK Flexibility Score: inf
ROOT
ATOM      1  C   UNL     1     -16.154 -12.389 -22.168  1.00  0.00     0.000 C 
ENDROOT
BRANCH   1   2
ATOM      2  C   UNL     1     -14.671 -12.242 -22.545  1.00  0.00     0.000 C 
BRANCH   2   3
ATOM      3  C   UNL     1     -14.468 -11.905 -24.029  1.00  0.00     0.000 C 
BRANCH   3   4
ATOM      4  C   UNL     1     -13.961 -10.467 -24.199  1.00  0.00     0.000 C 
BRANCH   4   5
ATOM      5  C   UNL     1     -14.772  -9.488 -23.335  1.00  0.00     0.000 C 
BRANCH   5   6
ATOM      6  C   UNL     1     -14.237  -8.048 -23.405  1.00  0.00     0.000 C 
BRANCH   6   7
ATOM      7  C   UNL     1     -13.303  -7.645 -22.247  1.00  0.00     0.000 C 
BRANCH   7   8
ATOM      8  C   UNL     1     -12.130  -8.612 -21.988  1.00  0.00     0.000 C 
BRANCH   8   9
ATOM      9  C   UNL     1     -12.122  -9.264 -20.594  1.00  0.00     0.000 C 
BRANCH   9  10
ATOM     10  C   UNL     1     -12.249  -8.240 -19.457  1.00  0.00     0.000 C 
BRANCH  10  11
ATOM     11  C   UNL     1     -12.552  -8.930 -18.119  1.00  0.00     0.000 C 
BRANCH  11  12
ATOM     12  C   UNL     1     -13.899  -8.469 -17.525  1.00  0.00     0.000 C 
BRANCH  12  13
ATOM     13  C   UNL     1     -14.537  -7.283 -18.273  1.00  0.00     0.006 C 
BRANCH  13  14
ATOM     14  C   UNL     1     -15.858  -7.626 -18.985  1.00  0.00     0.053 C 
BRANCH  14  15
ATOM     15  C   UNL     1     -16.090  -6.795 -20.213  1.00  0.00     0.041 C 
ATOM     16  O   UNL     1     -17.128  -6.966 -20.904  1.00  0.00    -0.550 OA
ATOM     17  O   UNL     1     -15.129  -5.885 -20.636  1.00  0.00    -0.550 OA
ENDBRANCH  14  15
ENDBRANCH  13  14
ENDBRANCH  12  13
ENDBRANCH  11  12
ENDBRANCH  10  11
ENDBRANCH   9  10
ENDBRANCH   8   9
ENDBRANCH   7   8
ENDBRANCH   6   7
ENDBRANCH   5   6
ENDBRANCH   4   5
ENDBRANCH   3   4
ENDBRANCH   2   3
ENDBRANCH   1   2
BRANCH   1  18
ATOM     18  C   UNL     1     -16.571 -13.857 -21.983  1.00  0.00     0.000 C 
BRANCH  18  19
ATOM     19  C   UNL     1     -15.824 -14.546 -20.828  1.00  0.00     0.000 C 
BRANCH  19  20
ATOM     20  C   UNL     1     -16.506 -15.812 -20.267  1.00  0.00     0.000 C 
BRANCH  20  21
ATOM     21  C   UNL     1     -16.185 -16.149 -18.795  1.00  0.00     0.000 C 
BRANCH  21  22
ATOM     22  C   UNL     1     -17.344 -15.899 -17.803  1.00  0.00     0.000 C 
BRANCH  22  23
ATOM     23  C   UNL     1     -16.926 -15.972 -16.322  1.00  0.00     0.000 C 
BRANCH  23  24
ATOM     24  C   UNL     1     -17.812 -16.870 -15.440  1.00  0.00    -0.000 C 
BRANCH  24  25
ATOM     25  C   UNL     1     -19.330 -16.637 -15.587  1.00  0.00    -0.000 C 
BRANCH  25  26
ATOM     26  C   UNL     1     -20.176 -17.912 -15.777  1.00  0.00    -0.000 C 
BRANCH  26  27
ATOM     27  C   UNL     1     -21.564 -17.880 -15.113  1.00  0.00    -0.000 C 
BRANCH  27  28
ATOM     28  C   UNL     1     -22.219 -16.489 -15.167  1.00  0.00    -0.000 C 
BRANCH  28  29
ATOM     29  C   UNL     1     -22.605 -15.965 -13.774  1.00  0.00    -0.000 C 
BRANCH  29  30
ATOM     30  C   UNL     1     -24.001 -15.325 -13.747  1.00  0.00    -0.000 C 
BRANCH  30  31
ATOM     31  C   UNL     1     -24.340 -14.810 -12.343  1.00  0.00    -0.003 C 
ATOM     32  C   UNL     1     -23.129 -14.152 -11.688  1.00  0.00     0.004 C 
ENDBRANCH  30  31
ENDBRANCH  29  30
ENDBRANCH  28  29
ENDBRANCH  27  28
ENDBRANCH  26  27
ENDBRANCH  25  26
ENDBRANCH  24  25
ENDBRANCH  23  24
ENDBRANCH  22  23
ENDBRANCH  21  22
ENDBRANCH  20  21
ENDBRANCH  19  20
ENDBRANCH  18  19
ENDBRANCH   1  18
TORSDOF 28
ENDMDL
