MODEL 1
REMARK VINA RESULT:    -3.983      0.000      0.000
REMARK INTER + INTRA:          -5.414
REMARK INTER:                  -4.914
REMARK INTRA:                  -0.500
REMARK UNBOUND:                -0.500
REMARK SMILES CCCCC(=O)c1ccccc1
REMARK SMILES IDX 4 1 3 2 2 3 1 4 5 5 6 6 7 7 8 8 12 9 9 10 11 11 10 12
REMARK H PARENT
REMARK Flexibility Score: inf
ROOT
ATOM      1  C   UNL     1      16.232  17.269  29.365  1.00  0.00     0.081 C 
ENDROOT
BRANCH   1   2
ATOM      2  C   UNL     1      17.279  17.617  30.433  1.00  0.00     0.008 C 
BRANCH   2   3
ATOM      3  C   UNL     1      16.850  18.798  31.316  1.00  0.00    -0.003 C 
ATOM      4  C   UNL     1      16.329  18.356  32.684  1.00  0.00     0.004 C 
ENDBRANCH   2   3
ENDBRANCH   1   2
BRANCH   1   5
ATOM      5  C   UNL     1      15.514  15.994  29.718  1.00  0.00     0.162 C 
ATOM      6  O   UNL     1      16.182  14.924  29.726  1.00  0.00    -0.294 OA
BRANCH   5   7
ATOM      7  C   UNL     1      14.070  15.957  30.084  1.00  0.00     0.017 A 
ATOM      8  C   UNL     1      13.475  16.969  30.868  1.00  0.00     0.012 A 
ATOM      9  C   UNL     1      13.265  14.885  29.647  1.00  0.00     0.012 A 
ATOM     10  C   UNL     1      12.118  16.907  31.196  1.00  0.00     0.001 A 
ATOM     11  C   UNL     1      11.909  14.830  29.979  1.00  0.00     0.001 A 
ATOM     12  C   UNL     1      11.335  15.840  30.752  1.00  0.00     0.000 A 
ENDBRANCH   5   7
ENDBRANCH   1   5
TORSDOF 4
ENDMDL
MODEL 2
REMARK VINA RESULT:    -3.972      0.154      1.405
REMARK INTER + INTRA:          -5.401
REMARK INTER:                  -4.903
REMARK INTRA:                  -0.498
REMARK UNBOUND:                -0.500
REMARK SMILES CCCCC(=O)c1ccccc1
REMARK SMILES IDX 4 1 3 2 2 3 1 4 5 5 6 6 7 7 8 8 12 9 9 10 11 11 10 12
REMARK H PARENT
REMARK Flexibility Score: inf
ROOT
ATOM      1  C   UNL     1      16.305  17.256  29.542  1.00  0.00     0.081 C 
ENDROOT
BRANCH   1   2
ATOM      2  C   UNL     1      17.223  17.559  30.736  1.00  0.00     0.008 C 
BRANCH   2   3
ATOM      3  C   UNL     1      16.781  18.804  31.519  1.00  0.00    -0.003 C 
ATOM      4  C   UNL     1      16.206  18.464  32.895  1.00  0.00     0.004 C 
ENDBRANCH   2   3
ENDBRANCH   1   2
BRANCH   1   5
ATOM      5  C   UNL     1      15.553  15.970  29.761  1.00  0.00     0.162 C 
ATOM      6  O   UNL     1      16.197  14.889  29.674  1.00  0.00    -0.294 OA
BRANCH   5   7
ATOM      7  C   UNL     1      14.104  15.933  30.103  1.00  0.00     0.017 A 
ATOM      8  C   UNL     1      13.264  14.885  29.669  1.00  0.00     0.012 A 
ATOM      9  C   UNL     1      13.540  16.969  30.876  1.00  0.00     0.012 A 
ATOM     10  C   UNL     1      11.907  14.876  30.004  1.00  0.00     0.001 A 
ATOM     11  C   UNL     1      12.183  16.954  31.207  1.00  0.00     0.001 A 
ATOM     12  C   UNL     1      11.367  15.909  30.772  1.00  0.00     0.000 A 
ENDBRANCH   5   7
ENDBRANCH   1   5
TORSDOF 4
ENDMDL
MODEL 3
REMARK VINA RESULT:    -3.953      2.262      3.876
REMARK INTER + INTRA:          -5.378
REMARK INTER:                  -5.051
REMARK INTRA:                  -0.327
REMARK UNBOUND:                -0.500
REMARK SMILES CCCCC(=O)c1ccccc1
REMARK SMILES IDX 4 1 3 2 2 3 1 4 5 5 6 6 7 7 8 8 12 9 9 10 11 11 10 12
REMARK H PARENT
REMARK Flexibility Score: inf
ROOT
ATOM      1  C   UNL     1      12.317  16.671  31.028  1.00  0.00     0.081 C 
ENDROOT
BRANCH   1   2
ATOM      2  C   UNL     1      13.790  16.878  31.412  1.00  0.00     0.008 C 
BRANCH   2   3
ATOM      3  C   UNL     1      14.605  17.536  30.289  1.00  0.00    -0.003 C 
ATOM      4  C   UNL     1      15.190  16.518  29.309  1.00  0.00     0.004 C 
ENDBRANCH   2   3
ENDBRANCH   1   2
BRANCH   1   5
ATOM      5  C   UNL     1      12.035  15.216  30.765  1.00  0.00     0.162 C 
ATOM      6  O   UNL     1      12.826  14.364  31.255  1.00  0.00    -0.294 OA
BRANCH   5   7
ATOM      7  C   UNL     1      10.852  14.753  29.985  1.00  0.00     0.017 A 
ATOM      8  C   UNL     1      10.929  14.500  28.598  1.00  0.00     0.012 A 
ATOM      9  C   UNL     1       9.616  14.563  30.635  1.00  0.00     0.012 A 
ATOM     10  C   UNL     1       9.803  14.068  27.892  1.00  0.00     0.001 A 
ATOM     11  C   UNL     1       8.494  14.131  29.923  1.00  0.00     0.001 A 
ATOM     12  C   UNL     1       8.588  13.883  28.553  1.00  0.00     0.000 A 
ENDBRANCH   5   7
ENDBRANCH   1   5
TORSDOF 4
ENDMDL
MODEL 4
REMARK VINA RESULT:    -3.829      1.635      5.071
REMARK INTER + INTRA:          -5.225
REMARK INTER:                  -4.876
REMARK INTRA:                  -0.348
REMARK UNBOUND:                -0.500
REMARK SMILES CCCCC(=O)c1ccccc1
REMARK SMILES IDX 4 1 3 2 2 3 1 4 5 5 6 6 7 7 8 8 12 9 9 10 11 11 10 12
REMARK H PARENT
REMARK Flexibility Score: inf
ROOT
ATOM      1  C   UNL     1      11.759  16.502  30.908  1.00  0.00     0.081 C 
ENDROOT
BRANCH   1   2
ATOM      2  C   UNL     1      11.020  15.192  30.598  1.00  0.00     0.008 C 
BRANCH   2   3
ATOM      3  C   UNL     1      11.411  14.603  29.235  1.00  0.00    -0.003 C 
ATOM      4  C   UNL     1      10.200  14.312  28.347  1.00  0.00     0.004 C 
ENDBRANCH   2   3
ENDBRANCH   1   2
BRANCH   1   5
ATOM      5  C   UNL     1      13.080  16.224  31.574  1.00  0.00     0.162 C 
ATOM      6  O   UNL     1      13.095  15.408  32.535  1.00  0.00    -0.294 OA
BRANCH   5   7
ATOM      7  C   UNL     1      14.356  16.847  31.123  1.00  0.00     0.017 A 
ATOM      8  C   UNL     1      15.179  17.579  32.006  1.00  0.00     0.012 A 
ATOM      9  C   UNL     1      14.763  16.716  29.779  1.00  0.00     0.012 A 
ATOM     10  C   UNL     1      16.371  18.154  31.554  1.00  0.00     0.001 A 
ATOM     11  C   UNL     1      15.955  17.292  29.335  1.00  0.00     0.001 A 
ATOM     12  C   UNL     1      16.759  18.010  30.221  1.00  0.00     0.000 A 
ENDBRANCH   5   7
ENDBRANCH   1   5
TORSDOF 4
ENDMDL
MODEL 5
REMARK VINA RESULT:    -3.755      2.724      4.208
REMARK INTER + INTRA:          -5.134
REMARK INTER:                  -4.730
REMARK INTRA:                  -0.403
REMARK UNBOUND:                -0.500
REMARK SMILES CCCCC(=O)c1ccccc1
REMARK SMILES IDX 4 1 3 2 2 3 1 4 5 5 6 6 7 7 8 8 12 9 9 10 11 11 10 12
REMARK H PARENT
REMARK Flexibility Score: inf
ROOT
ATOM      1  C   UNL     1      11.459  16.759  33.034  1.00  0.00     0.081 C 
ENDROOT
BRANCH   1   2
ATOM      2  C   UNL     1      12.407  16.107  34.052  1.00  0.00     0.008 C 
BRANCH   2   3
ATOM      3  C   UNL     1      13.376  17.117  34.686  1.00  0.00    -0.003 C 
ATOM      4  C   UNL     1      12.704  18.003  35.735  1.00  0.00     0.004 C 
ENDBRANCH   2   3
ENDBRANCH   1   2
BRANCH   1   5
ATOM      5  C   UNL     1      11.599  16.107  31.684  1.00  0.00     0.162 C 
ATOM      6  O   UNL     1      10.607  15.474  31.230  1.00  0.00    -0.294 OA
BRANCH   5   7
ATOM      7  C   UNL     1      12.839  16.209  30.865  1.00  0.00     0.017 A 
ATOM      8  C   UNL     1      13.677  17.344  30.922  1.00  0.00     0.012 A 
ATOM      9  C   UNL     1      13.196  15.154  30.000  1.00  0.00     0.012 A 
ATOM     10  C   UNL     1      14.834  17.413  30.140  1.00  0.00     0.001 A 
ATOM     11  C   UNL     1      14.353  15.230  29.222  1.00  0.00     0.001 A 
ATOM     12  C   UNL     1      15.172  16.357  29.292  1.00  0.00     0.000 A 
ENDBRANCH   5   7
ENDBRANCH   1   5
TORSDOF 4
ENDMDL
MODEL 6
REMARK VINA RESULT:    -3.725      1.710      4.600
REMARK INTER + INTRA:          -5.096
REMARK INTER:                  -4.653
REMARK INTRA:                  -0.443
REMARK UNBOUND:                -0.500
REMARK SMILES CCCCC(=O)c1ccccc1
REMARK SMILES IDX 4 1 3 2 2 3 1 4 5 5 6 6 7 7 8 8 12 9 9 10 11 11 10 12
REMARK H PARENT
REMARK Flexibility Score: inf
ROOT
ATOM      1  C   UNL     1      12.068  16.963  31.237  1.00  0.00     0.081 C 
ENDROOT
BRANCH   1   2
ATOM      2  C   UNL     1      11.608  16.069  32.398  1.00  0.00     0.008 C 
BRANCH   2   3
ATOM      3  C   UNL     1      11.128  16.879  33.612  1.00  0.00    -0.003 C 
ATOM      4  C   UNL     1      12.231  17.104  34.647  1.00  0.00     0.004 C 
ENDBRANCH   2   3
ENDBRANCH   1   2
BRANCH   1   5
ATOM      5  C   UNL     1      13.401  16.505  30.709  1.00  0.00     0.162 C 
ATOM      6  O   UNL     1      13.421  15.488  29.962  1.00  0.00    -0.294 OA
BRANCH   5   7
ATOM      7  C   UNL     1      14.674  17.220  31.006  1.00  0.00     0.017 A 
ATOM      8  C   UNL     1      15.030  17.589  32.322  1.00  0.00     0.012 A 
ATOM      9  C   UNL     1      15.555  17.548  29.955  1.00  0.00     0.012 A 
ATOM     10  C   UNL     1      16.231  18.260  32.571  1.00  0.00     0.001 A 
ATOM     11  C   UNL     1      16.753  18.219  30.212  1.00  0.00     0.001 A 
ATOM     12  C   UNL     1      17.091  18.574  31.518  1.00  0.00     0.000 A 
ENDBRANCH   5   7
ENDBRANCH   1   5
TORSDOF 4
ENDMDL
MODEL 7
REMARK VINA RESULT:    -3.683      1.223      4.982
REMARK INTER + INTRA:          -5.045
REMARK INTER:                  -4.719
REMARK INTRA:                  -0.326
REMARK UNBOUND:                -0.500
REMARK SMILES CCCCC(=O)c1ccccc1
REMARK SMILES IDX 4 1 3 2 2 3 1 4 5 5 6 6 7 7 8 8 12 9 9 10 11 11 10 12
REMARK H PARENT
REMARK Flexibility Score: inf
ROOT
ATOM      1  C   UNL     1      13.038  15.229  30.903  1.00  0.00     0.081 C 
ENDROOT
BRANCH   1   2
ATOM      2  C   UNL     1      11.722  15.943  30.559  1.00  0.00     0.008 C 
BRANCH   2   3
ATOM      3  C   UNL     1      10.591  14.961  30.219  1.00  0.00    -0.003 C 
ATOM      4  C   UNL     1      10.654  14.464  28.774  1.00  0.00     0.004 C 
ENDBRANCH   2   3
ENDBRANCH   1   2
BRANCH   1   5
ATOM      5  C   UNL     1      14.181  15.810  30.114  1.00  0.00     0.162 C 
ATOM      6  O   UNL     1      14.341  15.412  28.928  1.00  0.00    -0.294 OA
BRANCH   5   7
ATOM      7  C   UNL     1      15.097  16.847  30.668  1.00  0.00     0.017 A 
ATOM      8  C   UNL     1      16.061  17.494  29.864  1.00  0.00     0.012 A 
ATOM      9  C   UNL     1      15.015  17.198  32.031  1.00  0.00     0.012 A 
ATOM     10  C   UNL     1      16.908  18.462  30.411  1.00  0.00     0.001 A 
ATOM     11  C   UNL     1      15.864  18.167  32.571  1.00  0.00     0.001 A 
ATOM     12  C   UNL     1      16.810  18.799  31.762  1.00  0.00     0.000 A 
ENDBRANCH   5   7
ENDBRANCH   1   5
TORSDOF 4
ENDMDL
MODEL 8
REMARK VINA RESULT:    -3.666      2.885      5.002
REMARK INTER + INTRA:          -5.023
REMARK INTER:                  -4.570
REMARK INTRA:                  -0.453
REMARK UNBOUND:                -0.500
REMARK SMILES CCCCC(=O)c1ccccc1
REMARK SMILES IDX 4 1 3 2 2 3 1 4 5 5 6 6 7 7 8 8 12 9 9 10 11 11 10 12
REMARK H PARENT
REMARK Flexibility Score: inf
ROOT
ATOM      1  C   UNL     1      11.963  15.946  33.638  1.00  0.00     0.081 C 
ENDROOT
BRANCH   1   2
ATOM      2  C   UNL     1      11.045  17.015  34.249  1.00  0.00     0.008 C 
BRANCH   2   3
ATOM      3  C   UNL     1      11.379  17.310  35.719  1.00  0.00    -0.003 C 
ATOM      4  C   UNL     1      12.689  18.081  35.884  1.00  0.00     0.004 C 
ENDBRANCH   2   3
ENDBRANCH   1   2
BRANCH   1   5
ATOM      5  C   UNL     1      12.302  16.288  32.211  1.00  0.00     0.162 C 
ATOM      6  O   UNL     1      11.411  16.111  31.335  1.00  0.00    -0.294 OA
BRANCH   5   7
ATOM      7  C   UNL     1      13.622  16.848  31.809  1.00  0.00     0.017 A 
ATOM      8  C   UNL     1      13.973  17.026  30.453  1.00  0.00     0.012 A 
ATOM      9  C   UNL     1      14.561  17.208  32.798  1.00  0.00     0.012 A 
ATOM     10  C   UNL     1      15.220  17.553  30.105  1.00  0.00     0.001 A 
ATOM     11  C   UNL     1      15.805  17.734  32.443  1.00  0.00     0.001 A 
ATOM     12  C   UNL     1      16.135  17.907  31.098  1.00  0.00     0.000 A 
ENDBRANCH   5   7
ENDBRANCH   1   5
TORSDOF 4
ENDMDL
MODEL 9
REMARK VINA RESULT:    -3.611      2.905      3.869
REMARK INTER + INTRA:          -4.956
REMARK INTER:                  -4.513
REMARK INTRA:                  -0.442
REMARK UNBOUND:                -0.500
REMARK SMILES CCCCC(=O)c1ccccc1
REMARK SMILES IDX 4 1 3 2 2 3 1 4 5 5 6 6 7 7 8 8 12 9 9 10 11 11 10 12
REMARK H PARENT
REMARK Flexibility Score: inf
ROOT
ATOM      1  C   UNL     1      13.930  16.154  30.975  1.00  0.00     0.081 C 
ENDROOT
BRANCH   1   2
ATOM      2  C   UNL     1      14.480  17.421  30.303  1.00  0.00     0.008 C 
BRANCH   2   3
ATOM      3  C   UNL     1      15.979  17.624  30.565  1.00  0.00    -0.003 C 
ATOM      4  C   UNL     1      16.253  18.461  31.816  1.00  0.00     0.004 C 
ENDBRANCH   2   3
ENDBRANCH   1   2
BRANCH   1   5
ATOM      5  C   UNL     1      12.589  16.422  31.604  1.00  0.00     0.162 C 
ATOM      6  O   UNL     1      11.562  16.285  30.884  1.00  0.00    -0.294 OA
BRANCH   5   7
ATOM      7  C   UNL     1      12.434  16.810  33.034  1.00  0.00     0.017 A 
ATOM      8  C   UNL     1      13.544  17.145  33.839  1.00  0.00     0.012 A 
ATOM      9  C   UNL     1      11.149  16.840  33.615  1.00  0.00     0.012 A 
ATOM     10  C   UNL     1      13.367  17.504  35.179  1.00  0.00     0.001 A 
ATOM     11  C   UNL     1      10.980  17.199  34.955  1.00  0.00     0.001 A 
ATOM     12  C   UNL     1      12.088  17.531  35.736  1.00  0.00     0.000 A 
ENDBRANCH   5   7
ENDBRANCH   1   5
TORSDOF 4
ENDMDL
