MODEL 1
REMARK VINA RESULT:    -4.990      0.000      0.000
REMARK INTER + INTRA:          -5.630
REMARK INTER:                  -5.573
REMARK INTRA:                  -0.057
REMARK UNBOUND:                -0.057
REMARK SMILES COc1cc2ccc(=O)oc2c(O)c1O
REMARK SMILES IDX 3 1 14 2 12 3 11 4 5 5 4 6 6 7 7 8 8 9 9 10 10 11 2 12 1 13
REMARK SMILES IDX 15 14 13 16
REMARK H PARENT 15 15 13 17
REMARK Flexibility Score: inf
ROOT
ATOM      1  C   UNL     1     -20.260  25.112  51.549  1.00  0.00     0.165 A 
ATOM      2  C   UNL     1     -19.033  24.693  51.007  1.00  0.00     0.204 A 
ATOM      3  C   UNL     1     -17.820  25.008  51.668  1.00  0.00     0.205 A 
ATOM      4  C   UNL     1     -17.852  25.740  52.862  1.00  0.00     0.184 A 
ATOM      5  C   UNL     1     -19.085  26.160  53.404  1.00  0.00     0.025 A 
ATOM      6  C   UNL     1     -20.281  25.847  52.750  1.00  0.00     0.062 A 
ATOM      7  C   UNL     1     -19.077  26.889  54.598  1.00  0.00     0.020 A 
ATOM      8  C   UNL     1     -17.863  27.178  55.217  1.00  0.00     0.094 A 
ATOM      9  C   UNL     1     -16.679  26.731  54.624  1.00  0.00     0.336 A 
ATOM     10  O   UNL     1     -15.571  26.981  55.166  1.00  0.00    -0.246 OA
ATOM     11  O   UNL     1     -16.715  26.039  53.488  1.00  0.00    -0.419 OA
ENDROOT
BRANCH   1  12
ATOM     12  O   UNL     1     -21.439  24.779  50.863  1.00  0.00    -0.493 OA
ATOM     13  C   UNL     1     -22.673  24.445  51.490  1.00  0.00     0.278 C 
ENDBRANCH   1  12
BRANCH   2  14
ATOM     14  O   UNL     1     -19.066  23.966  49.814  1.00  0.00    -0.502 OA
ATOM     15  H   UNL     1     -18.403  23.244  49.570  1.00  0.00     0.293 HD
ENDBRANCH   2  14
BRANCH   3  16
ATOM     16  O   UNL     1     -16.573  24.616  51.175  1.00  0.00    -0.502 OA
ATOM     17  H   UNL     1     -15.954  23.969  51.642  1.00  0.00     0.293 HD
ENDBRANCH   3  16
TORSDOF 3
ENDMDL
MODEL 2
REMARK VINA RESULT:    -4.880      1.881      3.973
REMARK INTER + INTRA:          -5.507
REMARK INTER:                  -5.451
REMARK INTRA:                  -0.055
REMARK UNBOUND:                -0.057
REMARK SMILES COc1cc2ccc(=O)oc2c(O)c1O
REMARK SMILES IDX 3 1 14 2 12 3 11 4 5 5 4 6 6 7 7 8 8 9 9 10 10 11 2 12 1 13
REMARK SMILES IDX 15 14 13 16
REMARK H PARENT 15 15 13 17
REMARK Flexibility Score: inf
ROOT
ATOM      1  C   UNL     1     -17.990  25.015  52.085  1.00  0.00     0.165 A 
ATOM      2  C   UNL     1     -19.149  24.760  51.332  1.00  0.00     0.204 A 
ATOM      3  C   UNL     1     -20.408  25.229  51.786  1.00  0.00     0.205 A 
ATOM      4  C   UNL     1     -20.487  25.946  52.986  1.00  0.00     0.184 A 
ATOM      5  C   UNL     1     -19.322  26.200  53.739  1.00  0.00     0.025 A 
ATOM      6  C   UNL     1     -18.082  25.736  53.289  1.00  0.00     0.062 A 
ATOM      7  C   UNL     1     -19.441  26.920  54.934  1.00  0.00     0.020 A 
ATOM      8  C   UNL     1     -20.696  27.363  55.345  1.00  0.00     0.094 A 
ATOM      9  C   UNL     1     -21.809  27.075  54.549  1.00  0.00     0.336 A 
ATOM     10  O   UNL     1     -22.952  27.467  54.901  1.00  0.00    -0.246 OA
ATOM     11  O   UNL     1     -21.667  26.390  53.417  1.00  0.00    -0.419 OA
ENDROOT
BRANCH   1  12
ATOM     12  O   UNL     1     -16.764  24.533  51.600  1.00  0.00    -0.493 OA
ATOM     13  C   UNL     1     -15.674  24.125  52.420  1.00  0.00     0.278 C 
ENDBRANCH   1  12
BRANCH   2  14
ATOM     14  O   UNL     1     -19.006  24.040  50.143  1.00  0.00    -0.502 OA
ATOM     15  H   UNL     1     -19.769  23.597  49.651  1.00  0.00     0.293 HD
ENDBRANCH   2  14
BRANCH   3  16
ATOM     16  O   UNL     1     -21.591  25.005  51.078  1.00  0.00    -0.502 OA
ATOM     17  H   UNL     1     -22.506  25.295  51.393  1.00  0.00     0.293 HD
ENDBRANCH   3  16
TORSDOF 3
ENDMDL
MODEL 3
REMARK VINA RESULT:    -4.835      1.027      4.564
REMARK INTER + INTRA:          -5.457
REMARK INTER:                  -5.402
REMARK INTRA:                  -0.054
REMARK UNBOUND:                -0.057
REMARK SMILES COc1cc2ccc(=O)oc2c(O)c1O
REMARK SMILES IDX 3 1 14 2 12 3 11 4 5 5 4 6 6 7 7 8 8 9 9 10 10 11 2 12 1 13
REMARK SMILES IDX 15 14 13 16
REMARK H PARENT 15 15 13 17
REMARK Flexibility Score: inf
ROOT
ATOM      1  C   UNL     1     -17.214  25.741  53.106  1.00  0.00     0.165 A 
ATOM      2  C   UNL     1     -17.280  25.124  51.846  1.00  0.00     0.204 A 
ATOM      3  C   UNL     1     -18.536  24.908  51.225  1.00  0.00     0.205 A 
ATOM      4  C   UNL     1     -19.708  25.314  51.877  1.00  0.00     0.184 A 
ATOM      5  C   UNL     1     -19.638  25.934  53.141  1.00  0.00     0.025 A 
ATOM      6  C   UNL     1     -18.397  26.145  53.751  1.00  0.00     0.062 A 
ATOM      7  C   UNL     1     -20.830  26.325  53.761  1.00  0.00     0.020 A 
ATOM      8  C   UNL     1     -22.045  26.095  53.118  1.00  0.00     0.094 A 
ATOM      9  C   UNL     1     -22.039  25.476  51.865  1.00  0.00     0.336 A 
ATOM     10  O   UNL     1     -23.125  25.259  51.266  1.00  0.00    -0.246 OA
ATOM     11  O   UNL     1     -20.891  25.114  51.298  1.00  0.00    -0.419 OA
ENDROOT
BRANCH   1  12
ATOM     12  O   UNL     1     -15.950  25.936  53.685  1.00  0.00    -0.493 OA
ATOM     13  C   UNL     1     -15.637  26.967  54.616  1.00  0.00     0.278 C 
ENDBRANCH   1  12
BRANCH   2  14
ATOM     14  O   UNL     1     -16.076  24.741  51.247  1.00  0.00    -0.502 OA
ATOM     15  H   UNL     1     -15.297  24.335  51.745  1.00  0.00     0.293 HD
ENDBRANCH   2  14
BRANCH   3  16
ATOM     16  O   UNL     1     -18.660  24.299  49.974  1.00  0.00    -0.502 OA
ATOM     17  H   UNL     1     -19.540  24.140  49.504  1.00  0.00     0.293 HD
ENDBRANCH   3  16
TORSDOF 3
ENDMDL
MODEL 4
REMARK VINA RESULT:    -4.801      1.426      2.184
REMARK INTER + INTRA:          -5.419
REMARK INTER:                  -5.367
REMARK INTRA:                  -0.052
REMARK UNBOUND:                -0.057
REMARK SMILES COc1cc2ccc(=O)oc2c(O)c1O
REMARK SMILES IDX 3 1 14 2 12 3 11 4 5 5 4 6 6 7 7 8 8 9 9 10 10 11 2 12 1 13
REMARK SMILES IDX 15 14 13 16
REMARK H PARENT 15 15 13 17
REMARK Flexibility Score: inf
ROOT
ATOM      1  C   UNL     1     -21.225  25.731  52.364  1.00  0.00     0.165 A 
ATOM      2  C   UNL     1     -20.829  24.851  51.343  1.00  0.00     0.204 A 
ATOM      3  C   UNL     1     -19.470  24.471  51.221  1.00  0.00     0.205 A 
ATOM      4  C   UNL     1     -18.526  24.977  52.123  1.00  0.00     0.184 A 
ATOM      5  C   UNL     1     -18.926  25.861  53.147  1.00  0.00     0.025 A 
ATOM      6  C   UNL     1     -20.269  26.234  53.265  1.00  0.00     0.062 A 
ATOM      7  C   UNL     1     -17.954  26.346  54.030  1.00  0.00     0.020 A 
ATOM      8  C   UNL     1     -16.628  25.948  53.876  1.00  0.00     0.094 A 
ATOM      9  C   UNL     1     -16.302  25.070  52.838  1.00  0.00     0.336 A 
ATOM     10  O   UNL     1     -15.111  24.697  52.681  1.00  0.00    -0.246 OA
ATOM     11  O   UNL     1     -17.246  24.623  52.014  1.00  0.00    -0.419 OA
ENDROOT
BRANCH   1  12
ATOM     12  O   UNL     1     -22.582  26.083  52.450  1.00  0.00    -0.493 OA
ATOM     13  C   UNL     1     -23.125  26.984  53.409  1.00  0.00     0.278 C 
ENDBRANCH   1  12
BRANCH   2  14
ATOM     14  O   UNL     1     -21.817  24.379  50.474  1.00  0.00    -0.502 OA
ATOM     15  H   UNL     1     -22.118  24.862  49.639  1.00  0.00     0.293 HD
ENDBRANCH   2  14
BRANCH   3  16
ATOM     16  O   UNL     1     -19.021  23.599  50.226  1.00  0.00    -0.502 OA
ATOM     17  H   UNL     1     -18.739  23.888  49.300  1.00  0.00     0.293 HD
ENDBRANCH   3  16
TORSDOF 3
ENDMDL
MODEL 5
REMARK VINA RESULT:    -4.453      9.007     10.138
REMARK INTER + INTRA:          -5.030
REMARK INTER:                  -4.970
REMARK INTRA:                  -0.060
REMARK UNBOUND:                -0.057
REMARK SMILES COc1cc2ccc(=O)oc2c(O)c1O
REMARK SMILES IDX 3 1 14 2 12 3 11 4 5 5 4 6 6 7 7 8 8 9 9 10 10 11 2 12 1 13
REMARK SMILES IDX 15 14 13 16
REMARK H PARENT 15 15 13 17
REMARK Flexibility Score: inf
ROOT
ATOM      1  C   UNL     1     -11.832  31.134  54.398  1.00  0.00     0.165 A 
ATOM      2  C   UNL     1     -13.000  31.866  54.675  1.00  0.00     0.204 A 
ATOM      3  C   UNL     1     -13.619  32.630  53.655  1.00  0.00     0.205 A 
ATOM      4  C   UNL     1     -13.060  32.651  52.371  1.00  0.00     0.184 A 
ATOM      5  C   UNL     1     -11.888  31.917  52.095  1.00  0.00     0.025 A 
ATOM      6  C   UNL     1     -11.279  31.163  53.104  1.00  0.00     0.062 A 
ATOM      7  C   UNL     1     -11.359  31.962  50.800  1.00  0.00     0.020 A 
ATOM      8  C   UNL     1     -11.998  32.726  49.825  1.00  0.00     0.094 A 
ATOM      9  C   UNL     1     -13.156  33.429  50.169  1.00  0.00     0.336 A 
ATOM     10  O   UNL     1     -13.749  34.125  49.304  1.00  0.00    -0.246 OA
ATOM     11  O   UNL     1     -13.637  33.368  51.408  1.00  0.00    -0.419 OA
ENDROOT
BRANCH   1  12
ATOM     12  O   UNL     1     -11.251  30.390  55.436  1.00  0.00    -0.493 OA
ATOM     13  C   UNL     1     -10.784  29.051  55.310  1.00  0.00     0.278 C 
ENDBRANCH   1  12
BRANCH   2  14
ATOM     14  O   UNL     1     -13.510  31.804  55.975  1.00  0.00    -0.502 OA
ATOM     15  H   UNL     1     -13.089  31.276  56.726  1.00  0.00     0.293 HD
ENDBRANCH   2  14
BRANCH   3  16
ATOM     16  O   UNL     1     -14.780  33.375  53.875  1.00  0.00    -0.502 OA
ATOM     17  H   UNL     1     -15.063  34.167  53.316  1.00  0.00     0.293 HD
ENDBRANCH   3  16
TORSDOF 3
ENDMDL
MODEL 6
REMARK VINA RESULT:    -4.289      1.368      1.681
REMARK INTER + INTRA:          -4.848
REMARK INTER:                  -4.784
REMARK INTRA:                  -0.063
REMARK UNBOUND:                -0.057
REMARK SMILES COc1cc2ccc(=O)oc2c(O)c1O
REMARK SMILES IDX 3 1 14 2 12 3 11 4 5 5 4 6 6 7 7 8 8 9 9 10 10 11 2 12 1 13
REMARK SMILES IDX 15 14 13 16
REMARK H PARENT 15 15 13 17
REMARK Flexibility Score: inf
ROOT
ATOM      1  C   UNL     1     -19.118  25.109  52.669  1.00  0.00     0.165 A 
ATOM      2  C   UNL     1     -18.062  24.407  52.065  1.00  0.00     0.204 A 
ATOM      3  C   UNL     1     -16.723  24.670  52.449  1.00  0.00     0.205 A 
ATOM      4  C   UNL     1     -16.461  25.631  53.433  1.00  0.00     0.184 A 
ATOM      5  C   UNL     1     -17.523  26.335  54.038  1.00  0.00     0.025 A 
ATOM      6  C   UNL     1     -18.844  26.074  53.657  1.00  0.00     0.062 A 
ATOM      7  C   UNL     1     -17.223  27.288  55.017  1.00  0.00     0.020 A 
ATOM      8  C   UNL     1     -15.894  27.516  55.367  1.00  0.00     0.094 A 
ATOM      9  C   UNL     1     -14.891  26.783  54.726  1.00  0.00     0.336 A 
ATOM     10  O   UNL     1     -13.684  26.973  55.027  1.00  0.00    -0.246 OA
ATOM     11  O   UNL     1     -15.205  25.882  53.799  1.00  0.00    -0.419 OA
ENDROOT
BRANCH   1  12
ATOM     12  O   UNL     1     -20.429  24.820  52.260  1.00  0.00    -0.493 OA
ATOM     13  C   UNL     1     -21.376  25.792  51.830  1.00  0.00     0.278 C 
ENDBRANCH   1  12
BRANCH   2  14
ATOM     14  O   UNL     1     -18.386  23.460  51.090  1.00  0.00    -0.502 OA
ATOM     15  H   UNL     1     -18.055  23.490  50.136  1.00  0.00     0.293 HD
ENDBRANCH   2  14
BRANCH   3  16
ATOM     16  O   UNL     1     -15.635  24.001  51.882  1.00  0.00    -0.502 OA
ATOM     17  H   UNL     1     -15.205  23.177  52.276  1.00  0.00     0.293 HD
ENDBRANCH   3  16
TORSDOF 3
ENDMDL
MODEL 7
REMARK VINA RESULT:    -4.200      2.209      4.314
REMARK INTER + INTRA:          -4.748
REMARK INTER:                  -4.679
REMARK INTRA:                  -0.069
REMARK UNBOUND:                -0.057
REMARK SMILES COc1cc2ccc(=O)oc2c(O)c1O
REMARK SMILES IDX 3 1 14 2 12 3 11 4 5 5 4 6 6 7 7 8 8 9 9 10 10 11 2 12 1 13
REMARK SMILES IDX 15 14 13 16
REMARK H PARENT 15 15 13 17
REMARK Flexibility Score: inf
ROOT
ATOM      1  C   UNL     1     -16.231  25.634  53.540  1.00  0.00     0.165 A 
ATOM      2  C   UNL     1     -17.191  24.993  52.739  1.00  0.00     0.204 A 
ATOM      3  C   UNL     1     -18.571  25.246  52.944  1.00  0.00     0.205 A 
ATOM      4  C   UNL     1     -18.968  26.139  53.948  1.00  0.00     0.184 A 
ATOM      5  C   UNL     1     -18.002  26.780  54.750  1.00  0.00     0.025 A 
ATOM      6  C   UNL     1     -16.642  26.528  54.546  1.00  0.00     0.062 A 
ATOM      7  C   UNL     1     -18.438  27.665  55.743  1.00  0.00     0.020 A 
ATOM      8  C   UNL     1     -19.802  27.887  55.912  1.00  0.00     0.094 A 
ATOM      9  C   UNL     1     -20.705  27.217  55.081  1.00  0.00     0.336 A 
ATOM     10  O   UNL     1     -21.942  27.403  55.217  1.00  0.00    -0.246 OA
ATOM     11  O   UNL     1     -20.263  26.381  54.145  1.00  0.00    -0.419 OA
ENDROOT
BRANCH   1  12
ATOM     12  O   UNL     1     -14.875  25.355  53.304  1.00  0.00    -0.493 OA
ATOM     13  C   UNL     1     -14.073  24.501  54.113  1.00  0.00     0.278 C 
ENDBRANCH   1  12
BRANCH   2  14
ATOM     14  O   UNL     1     -16.732  24.114  51.754  1.00  0.00    -0.502 OA
ATOM     15  H   UNL     1     -16.288  23.227  51.946  1.00  0.00     0.293 HD
ENDBRANCH   2  14
BRANCH   3  16
ATOM     16  O   UNL     1     -19.567  24.637  52.178  1.00  0.00    -0.502 OA
ATOM     17  H   UNL     1     -20.219  25.138  51.590  1.00  0.00     0.293 HD
ENDBRANCH   3  16
TORSDOF 3
ENDMDL
MODEL 8
REMARK VINA RESULT:    -4.185      1.859      5.004
REMARK INTER + INTRA:          -4.731
REMARK INTER:                  -4.661
REMARK INTRA:                  -0.070
REMARK UNBOUND:                -0.057
REMARK SMILES COc1cc2ccc(=O)oc2c(O)c1O
REMARK SMILES IDX 3 1 14 2 12 3 11 4 5 5 4 6 6 7 7 8 8 9 9 10 10 11 2 12 1 13
REMARK SMILES IDX 15 14 13 16
REMARK H PARENT 15 15 13 17
REMARK Flexibility Score: inf
ROOT
ATOM      1  C   UNL     1     -16.625  24.993  52.904  1.00  0.00     0.165 A 
ATOM      2  C   UNL     1     -16.998  25.873  53.934  1.00  0.00     0.204 A 
ATOM      3  C   UNL     1     -18.333  26.342  54.020  1.00  0.00     0.205 A 
ATOM      4  C   UNL     1     -19.275  25.921  53.073  1.00  0.00     0.184 A 
ATOM      5  C   UNL     1     -18.899  25.038  52.041  1.00  0.00     0.025 A 
ATOM      6  C   UNL     1     -17.581  24.578  51.958  1.00  0.00     0.062 A 
ATOM      7  C   UNL     1     -19.868  24.640  51.113  1.00  0.00     0.020 A 
ATOM      8  C   UNL     1     -21.170  25.123  51.233  1.00  0.00     0.094 A 
ATOM      9  C   UNL     1     -21.473  25.996  52.282  1.00  0.00     0.336 A 
ATOM     10  O   UNL     1     -22.642  26.444  52.408  1.00  0.00    -0.246 OA
ATOM     11  O   UNL     1     -20.532  26.358  53.150  1.00  0.00    -0.419 OA
ENDROOT
BRANCH   1  12
ATOM     12  O   UNL     1     -15.293  24.554  52.855  1.00  0.00    -0.493 OA
ATOM     13  C   UNL     1     -14.859  23.245  53.211  1.00  0.00     0.278 C 
ENDBRANCH   1  12
BRANCH   2  14
ATOM     14  O   UNL     1     -16.012  26.256  54.849  1.00  0.00    -0.502 OA
ATOM     15  H   UNL     1     -15.479  25.610  55.414  1.00  0.00     0.293 HD
ENDBRANCH   2  14
BRANCH   3  16
ATOM     16  O   UNL     1     -18.758  27.217  55.023  1.00  0.00    -0.502 OA
ATOM     17  H   UNL     1     -18.558  27.096  56.006  1.00  0.00     0.293 HD
ENDBRANCH   3  16
TORSDOF 3
ENDMDL
MODEL 9
REMARK VINA RESULT:    -4.103      2.261      4.685
REMARK INTER + INTRA:          -4.639
REMARK INTER:                  -4.586
REMARK INTRA:                  -0.053
REMARK UNBOUND:                -0.057
REMARK SMILES COc1cc2ccc(=O)oc2c(O)c1O
REMARK SMILES IDX 3 1 14 2 12 3 11 4 5 5 4 6 6 7 7 8 8 9 9 10 10 11 2 12 1 13
REMARK SMILES IDX 15 14 13 16
REMARK H PARENT 15 15 13 17
REMARK Flexibility Score: inf
ROOT
ATOM      1  C   UNL     1     -17.096  26.236  54.257  1.00  0.00     0.165 A 
ATOM      2  C   UNL     1     -17.864  25.571  53.286  1.00  0.00     0.204 A 
ATOM      3  C   UNL     1     -19.271  25.733  53.260  1.00  0.00     0.205 A 
ATOM      4  C   UNL     1     -19.890  26.559  54.207  1.00  0.00     0.184 A 
ATOM      5  C   UNL     1     -19.117  27.226  55.180  1.00  0.00     0.025 A 
ATOM      6  C   UNL     1     -17.728  27.064  55.203  1.00  0.00     0.062 A 
ATOM      7  C   UNL     1     -19.771  28.043  56.109  1.00  0.00     0.020 A 
ATOM      8  C   UNL     1     -21.156  28.176  56.050  1.00  0.00     0.094 A 
ATOM      9  C   UNL     1     -21.860  27.485  55.058  1.00  0.00     0.336 A 
ATOM     10  O   UNL     1     -23.112  27.592  54.986  1.00  0.00    -0.246 OA
ATOM     11  O   UNL     1     -21.213  26.716  54.187  1.00  0.00    -0.419 OA
ENDROOT
BRANCH   1  12
ATOM     12  O   UNL     1     -15.705  26.048  54.248  1.00  0.00    -0.493 OA
ATOM     13  C   UNL     1     -14.766  26.924  54.864  1.00  0.00     0.278 C 
ENDBRANCH   1  12
BRANCH   2  14
ATOM     14  O   UNL     1     -17.189  24.761  52.369  1.00  0.00    -0.502 OA
ATOM     15  H   UNL     1     -16.484  25.095  51.726  1.00  0.00     0.293 HD
ENDBRANCH   2  14
BRANCH   3  16
ATOM     16  O   UNL     1     -20.083  25.096  52.318  1.00  0.00    -0.502 OA
ATOM     17  H   UNL     1     -20.803  24.426  52.547  1.00  0.00     0.293 HD
ENDBRANCH   3  16
TORSDOF 3
ENDMDL
