MODEL 1
REMARK VINA RESULT:    -4.419      0.000      0.000
REMARK INTER + INTRA:          -4.934
REMARK INTER:                  -4.807
REMARK INTRA:                  -0.127
REMARK UNBOUND:                -0.127
REMARK SMILES Cc1ccc(C(C)C)cc1O
REMARK SMILES IDX 1 1 2 2 10 3 9 4 5 5 4 6 3 7 11 8 6 10 7 11 8 12
REMARK H PARENT 11 9
REMARK Flexibility Score: inf
ROOT
ATOM      1  C   UNL     1     -33.285 -19.173 -28.632  1.00  0.00     0.048 C 
ATOM      2  C   UNL     1     -32.348 -19.518 -29.755  1.00  0.00    -0.009 A 
ATOM      3  C   UNL     1     -31.327 -20.480 -29.587  1.00  0.00     0.118 A 
ATOM      4  C   UNL     1     -30.469 -20.778 -30.653  1.00  0.00     0.050 A 
ATOM      5  C   UNL     1     -30.608 -20.132 -31.895  1.00  0.00    -0.042 A 
ATOM      6  C   UNL     1     -31.625 -19.179 -32.054  1.00  0.00     0.004 A 
ATOM      7  C   UNL     1     -32.485 -18.875 -30.995  1.00  0.00     0.007 A 
ENDROOT
BRANCH   3   8
ATOM      8  O   UNL     1     -31.138 -21.154 -28.378  1.00  0.00    -0.508 OA
ATOM      9  H   UNL     1     -31.895 -21.584 -27.862  1.00  0.00     0.293 HD
ENDBRANCH   3   8
BRANCH   5  10
ATOM     10  C   UNL     1     -29.682 -20.453 -33.052  1.00  0.00     0.013 C 
ATOM     11  C   UNL     1     -30.445 -21.121 -34.203  1.00  0.00     0.012 C 
ATOM     12  C   UNL     1     -28.944 -19.199 -33.535  1.00  0.00     0.012 C 
ENDBRANCH   5  10
TORSDOF 2
ENDMDL
MODEL 2
REMARK VINA RESULT:    -3.890      2.114      3.353
REMARK INTER + INTRA:          -4.359
REMARK INTER:                  -4.231
REMARK INTRA:                  -0.127
REMARK UNBOUND:                -0.127
REMARK SMILES Cc1ccc(C(C)C)cc1O
REMARK SMILES IDX 1 1 2 2 10 3 9 4 5 5 4 6 3 7 11 8 6 10 7 11 8 12
REMARK H PARENT 11 9
REMARK Flexibility Score: inf
ROOT
ATOM      1  C   UNL     1     -28.376 -18.877 -31.074  1.00  0.00     0.048 C 
ATOM      2  C   UNL     1     -29.290 -19.664 -31.972  1.00  0.00    -0.009 A 
ATOM      3  C   UNL     1     -30.298 -20.499 -31.441  1.00  0.00     0.118 A 
ATOM      4  C   UNL     1     -31.132 -21.219 -32.304  1.00  0.00     0.050 A 
ATOM      5  C   UNL     1     -30.982 -21.125 -33.699  1.00  0.00    -0.042 A 
ATOM      6  C   UNL     1     -29.979 -20.294 -34.219  1.00  0.00     0.004 A 
ATOM      7  C   UNL     1     -29.142 -19.572 -33.364  1.00  0.00     0.007 A 
ENDROOT
BRANCH   3   8
ATOM      8  O   UNL     1     -30.495 -20.634 -30.064  1.00  0.00    -0.508 OA
ATOM      9  H   UNL     1     -30.154 -21.425 -29.533  1.00  0.00     0.293 HD
ENDBRANCH   3   8
BRANCH   5  10
ATOM     10  C   UNL     1     -31.884 -21.904 -34.638  1.00  0.00     0.013 C 
ATOM     11  C   UNL     1     -33.169 -21.124 -34.945  1.00  0.00     0.012 C 
ATOM     12  C   UNL     1     -31.147 -22.280 -35.929  1.00  0.00     0.012 C 
ENDBRANCH   5  10
TORSDOF 2
ENDMDL
MODEL 3
REMARK VINA RESULT:    -3.442      1.987      2.826
REMARK INTER + INTRA:          -3.871
REMARK INTER:                  -3.743
REMARK INTRA:                  -0.128
REMARK UNBOUND:                -0.127
REMARK SMILES Cc1ccc(C(C)C)cc1O
REMARK SMILES IDX 1 1 2 2 10 3 9 4 5 5 4 6 3 7 11 8 6 10 7 11 8 12
REMARK H PARENT 11 9
REMARK Flexibility Score: inf
ROOT
ATOM      1  C   UNL     1     -30.111 -19.074 -30.257  1.00  0.00     0.048 C 
ATOM      2  C   UNL     1     -30.637 -19.851 -31.432  1.00  0.00    -0.009 A 
ATOM      3  C   UNL     1     -30.781 -21.255 -31.377  1.00  0.00     0.118 A 
ATOM      4  C   UNL     1     -31.272 -21.948 -32.489  1.00  0.00     0.050 A 
ATOM      5  C   UNL     1     -31.628 -21.266 -33.667  1.00  0.00    -0.042 A 
ATOM      6  C   UNL     1     -31.482 -19.871 -33.713  1.00  0.00     0.004 A 
ATOM      7  C   UNL     1     -30.992 -19.172 -32.608  1.00  0.00     0.007 A 
ENDROOT
BRANCH   3   8
ATOM      8  O   UNL     1     -30.444 -21.987 -30.236  1.00  0.00    -0.508 OA
ATOM      9  H   UNL     1     -29.836 -21.630 -29.510  1.00  0.00     0.293 HD
ENDBRANCH   3   8
BRANCH   5  10
ATOM     10  C   UNL     1     -32.161 -22.014 -34.874  1.00  0.00     0.013 C 
ATOM     11  C   UNL     1     -33.405 -21.322 -35.448  1.00  0.00     0.012 C 
ATOM     12  C   UNL     1     -31.078 -22.178 -35.947  1.00  0.00     0.012 C 
ENDBRANCH   5  10
TORSDOF 2
ENDMDL
MODEL 4
REMARK VINA RESULT:    -2.995      3.824      5.842
REMARK INTER + INTRA:          -3.385
REMARK INTER:                  -3.258
REMARK INTRA:                  -0.127
REMARK UNBOUND:                -0.127
REMARK SMILES Cc1ccc(C(C)C)cc1O
REMARK SMILES IDX 1 1 2 2 10 3 9 4 5 5 4 6 3 7 11 8 6 10 7 11 8 12
REMARK H PARENT 11 9
REMARK Flexibility Score: inf
ROOT
ATOM      1  C   UNL     1     -33.687 -21.910 -38.118  1.00  0.00     0.048 C 
ATOM      2  C   UNL     1     -32.992 -21.689 -36.803  1.00  0.00    -0.009 A 
ATOM      3  C   UNL     1     -31.729 -22.265 -36.537  1.00  0.00     0.118 A 
ATOM      4  C   UNL     1     -31.109 -22.040 -35.302  1.00  0.00     0.050 A 
ATOM      5  C   UNL     1     -31.725 -21.247 -34.317  1.00  0.00    -0.042 A 
ATOM      6  C   UNL     1     -32.978 -20.679 -34.590  1.00  0.00     0.004 A 
ATOM      7  C   UNL     1     -33.605 -20.898 -35.820  1.00  0.00     0.007 A 
ENDROOT
BRANCH   3   8
ATOM      8  O   UNL     1     -31.068 -23.062 -37.474  1.00  0.00    -0.508 OA
ATOM      9  H   UNL     1     -30.739 -23.996 -37.269  1.00  0.00     0.293 HD
ENDBRANCH   3   8
BRANCH   5  10
ATOM     10  C   UNL     1     -31.056 -21.001 -32.978  1.00  0.00     0.013 C 
ATOM     11  C   UNL     1     -29.545 -20.792 -33.144  1.00  0.00     0.012 C 
ATOM     12  C   UNL     1     -31.699 -19.816 -32.247  1.00  0.00     0.012 C 
ENDBRANCH   5  10
TORSDOF 2
ENDMDL
MODEL 5
REMARK VINA RESULT:    -2.752      2.439      4.800
REMARK INTER + INTRA:          -3.121
REMARK INTER:                  -2.993
REMARK INTRA:                  -0.127
REMARK UNBOUND:                -0.127
REMARK SMILES Cc1ccc(C(C)C)cc1O
REMARK SMILES IDX 1 1 2 2 10 3 9 4 5 5 4 6 3 7 11 8 6 10 7 11 8 12
REMARK H PARENT 11 9
REMARK Flexibility Score: inf
ROOT
ATOM      1  C   UNL     1     -31.278 -22.226 -36.594  1.00  0.00     0.048 C 
ATOM      2  C   UNL     1     -31.025 -21.722 -35.201  1.00  0.00    -0.009 A 
ATOM      3  C   UNL     1     -31.884 -22.062 -34.132  1.00  0.00     0.118 A 
ATOM      4  C   UNL     1     -31.622 -21.575 -32.846  1.00  0.00     0.050 A 
ATOM      5  C   UNL     1     -30.511 -20.748 -32.599  1.00  0.00    -0.042 A 
ATOM      6  C   UNL     1     -29.662 -20.416 -33.665  1.00  0.00     0.004 A 
ATOM      7  C   UNL     1     -29.917 -20.897 -34.952  1.00  0.00     0.007 A 
ENDROOT
BRANCH   3   8
ATOM      8  O   UNL     1     -33.003 -22.878 -34.315  1.00  0.00    -0.508 OA
ATOM      9  H   UNL     1     -33.255 -23.621 -33.676  1.00  0.00     0.293 HD
ENDBRANCH   3   8
BRANCH   5  10
ATOM     10  C   UNL     1     -30.223 -20.219 -31.207  1.00  0.00     0.013 C 
ATOM     11  C   UNL     1     -29.031 -19.254 -31.217  1.00  0.00     0.012 C 
ATOM     12  C   UNL     1     -31.464 -19.556 -30.599  1.00  0.00     0.012 C 
ENDBRANCH   5  10
TORSDOF 2
ENDMDL
MODEL 6
REMARK VINA RESULT:    -2.540      2.858      4.279
REMARK INTER + INTRA:          -2.890
REMARK INTER:                  -2.792
REMARK INTRA:                  -0.098
REMARK UNBOUND:                -0.127
REMARK SMILES Cc1ccc(C(C)C)cc1O
REMARK SMILES IDX 1 1 2 2 10 3 9 4 5 5 4 6 3 7 11 8 6 10 7 11 8 12
REMARK H PARENT 11 9
REMARK Flexibility Score: inf
ROOT
ATOM      1  C   UNL     1     -34.125 -20.958 -35.965  1.00  0.00     0.048 C 
ATOM      2  C   UNL     1     -33.163 -20.640 -34.854  1.00  0.00    -0.009 A 
ATOM      3  C   UNL     1     -32.225 -21.595 -34.403  1.00  0.00     0.118 A 
ATOM      4  C   UNL     1     -31.344 -21.267 -33.365  1.00  0.00     0.050 A 
ATOM      5  C   UNL     1     -31.377 -19.997 -32.762  1.00  0.00    -0.042 A 
ATOM      6  C   UNL     1     -32.311 -19.054 -33.217  1.00  0.00     0.004 A 
ATOM      7  C   UNL     1     -33.195 -19.373 -34.252  1.00  0.00     0.007 A 
ENDROOT
BRANCH   3   8
ATOM      8  O   UNL     1     -32.144 -22.872 -34.961  1.00  0.00    -0.508 OA
ATOM      9  H   UNL     1     -31.921 -23.698 -34.420  1.00  0.00     0.293 HD
ENDBRANCH   3   8
BRANCH   5  10
ATOM     10  C   UNL     1     -30.424 -19.638 -31.638  1.00  0.00     0.013 C 
ATOM     11  C   UNL     1     -30.657 -20.526 -30.410  1.00  0.00     0.012 C 
ATOM     12  C   UNL     1     -28.965 -19.713 -32.104  1.00  0.00     0.012 C 
ENDBRANCH   5  10
TORSDOF 2
ENDMDL
MODEL 7
REMARK VINA RESULT:    -2.536      2.801      3.952
REMARK INTER + INTRA:          -2.886
REMARK INTER:                  -2.779
REMARK INTRA:                  -0.107
REMARK UNBOUND:                -0.127
REMARK SMILES Cc1ccc(C(C)C)cc1O
REMARK SMILES IDX 1 1 2 2 10 3 9 4 5 5 4 6 3 7 11 8 6 10 7 11 8 12
REMARK H PARENT 11 9
REMARK Flexibility Score: inf
ROOT
ATOM      1  C   UNL     1     -28.584 -18.890 -30.965  1.00  0.00     0.048 C 
ATOM      2  C   UNL     1     -29.421 -19.667 -31.944  1.00  0.00    -0.009 A 
ATOM      3  C   UNL     1     -29.150 -19.630 -33.330  1.00  0.00     0.118 A 
ATOM      4  C   UNL     1     -29.948 -20.364 -34.215  1.00  0.00     0.050 A 
ATOM      5  C   UNL     1     -31.021 -21.143 -33.744  1.00  0.00    -0.042 A 
ATOM      6  C   UNL     1     -31.283 -21.175 -32.366  1.00  0.00     0.004 A 
ATOM      7  C   UNL     1     -30.491 -20.444 -31.476  1.00  0.00     0.007 A 
ENDROOT
BRANCH   3   8
ATOM      8  O   UNL     1     -28.099 -18.875 -33.857  1.00  0.00    -0.508 OA
ATOM      9  H   UNL     1     -27.497 -18.295 -33.288  1.00  0.00     0.293 HD
ENDBRANCH   3   8
BRANCH   5  10
ATOM     10  C   UNL     1     -31.888 -21.941 -34.700  1.00  0.00     0.013 C 
ATOM     11  C   UNL     1     -33.195 -21.201 -35.011  1.00  0.00     0.012 C 
ATOM     12  C   UNL     1     -31.127 -22.279 -35.987  1.00  0.00     0.012 C 
ENDBRANCH   5  10
TORSDOF 2
ENDMDL
