MODEL 1
REMARK VINA RESULT:    -3.044      0.000      0.000
REMARK INTER + INTRA:          -3.687
REMARK INTER:                  -3.578
REMARK INTRA:                  -0.109
REMARK UNBOUND:                -0.109
REMARK SMILES O=C([O-])CCC(=O)[O-]
REMARK SMILES IDX 4 1 2 2 1 3 3 4 5 5 6 6 7 7 8 8
REMARK H PARENT
REMARK Flexibility Score: inf
ROOT
ATOM      1  C   UNL     1      22.607 -16.136  26.417  1.00  0.00     0.059 C 
ENDROOT
BRANCH   1   2
ATOM      2  C   UNL     1      22.146 -16.457  27.803  1.00  0.00     0.042 C 
ATOM      3  O   UNL     1      22.306 -17.615  28.273  1.00  0.00    -0.550 OA
ATOM      4  O   UNL     1      21.584 -15.465  28.597  1.00  0.00    -0.550 OA
ENDBRANCH   1   2
BRANCH   1   5
ATOM      5  C   UNL     1      22.844 -14.632  26.267  1.00  0.00     0.059 C 
BRANCH   5   6
ATOM      6  C   UNL     1      24.245 -14.282  26.654  1.00  0.00     0.042 C 
ATOM      7  O   UNL     1      25.194 -15.059  26.371  1.00  0.00    -0.550 OA
ATOM      8  O   UNL     1      24.499 -13.119  27.372  1.00  0.00    -0.550 OA
ENDBRANCH   5   6
ENDBRANCH   1   5
TORSDOF 3
ENDMDL
MODEL 2
REMARK VINA RESULT:    -3.028      0.096      3.633
REMARK INTER + INTRA:          -3.668
REMARK INTER:                  -3.562
REMARK INTRA:                  -0.106
REMARK UNBOUND:                -0.109
REMARK SMILES O=C([O-])CCC(=O)[O-]
REMARK SMILES IDX 4 1 2 2 1 3 3 4 5 5 6 6 7 7 8 8
REMARK H PARENT
REMARK Flexibility Score: inf
ROOT
ATOM      1  C   UNL     1      22.851 -14.629  26.291  1.00  0.00     0.059 C 
ENDROOT
BRANCH   1   2
ATOM      2  C   UNL     1      24.247 -14.229  26.649  1.00  0.00     0.042 C 
ATOM      3  O   UNL     1      24.457 -13.178  27.311  1.00  0.00    -0.550 OA
ATOM      4  O   UNL     1      25.316 -15.043  26.294  1.00  0.00    -0.550 OA
ENDBRANCH   1   2
BRANCH   1   5
ATOM      5  C   UNL     1      22.671 -16.141  26.446  1.00  0.00     0.059 C 
BRANCH   5   6
ATOM      6  C   UNL     1      22.136 -16.468  27.803  1.00  0.00     0.042 C 
ATOM      7  O   UNL     1      22.133 -17.659  28.213  1.00  0.00    -0.550 OA
ATOM      8  O   UNL     1      21.594 -15.465  28.598  1.00  0.00    -0.550 OA
ENDBRANCH   5   6
ENDBRANCH   1   5
TORSDOF 3
ENDMDL
MODEL 3
REMARK VINA RESULT:    -2.915     13.518     14.417
REMARK INTER + INTRA:          -3.535
REMARK INTER:                  -3.499
REMARK INTRA:                  -0.036
REMARK UNBOUND:                -0.109
REMARK SMILES O=C([O-])CCC(=O)[O-]
REMARK SMILES IDX 4 1 2 2 1 3 3 4 5 5 6 6 7 7 8 8
REMARK H PARENT
REMARK Flexibility Score: inf
ROOT
ATOM      1  C   UNL     1      16.041  -5.982  20.669  1.00  0.00     0.059 C 
ENDROOT
BRANCH   1   2
ATOM      2  C   UNL     1      17.214  -5.184  20.194  1.00  0.00     0.042 C 
ATOM      3  O   UNL     1      17.317  -3.966  20.498  1.00  0.00    -0.550 OA
ATOM      4  O   UNL     1      18.220  -5.797  19.458  1.00  0.00    -0.550 OA
ENDBRANCH   1   2
BRANCH   1   5
ATOM      5  C   UNL     1      14.935  -5.056  21.181  1.00  0.00     0.059 C 
BRANCH   5   6
ATOM      6  C   UNL     1      13.920  -5.833  21.956  1.00  0.00     0.042 C 
ATOM      7  O   UNL     1      13.571  -5.451  23.104  1.00  0.00    -0.550 OA
ATOM      8  O   UNL     1      13.394  -7.008  21.432  1.00  0.00    -0.550 OA
ENDBRANCH   5   6
ENDBRANCH   1   5
TORSDOF 3
ENDMDL
MODEL 4
REMARK VINA RESULT:    -2.864      2.142      3.806
REMARK INTER + INTRA:          -3.475
REMARK INTER:                  -3.448
REMARK INTRA:                  -0.026
REMARK UNBOUND:                -0.109
REMARK SMILES O=C([O-])CCC(=O)[O-]
REMARK SMILES IDX 4 1 2 2 1 3 3 4 5 5 6 6 7 7 8 8
REMARK H PARENT
REMARK Flexibility Score: inf
ROOT
ATOM      1  C   UNL     1      25.079 -15.418  26.484  1.00  0.00     0.059 C 
ENDROOT
BRANCH   1   2
ATOM      2  C   UNL     1      26.184 -16.339  26.073  1.00  0.00     0.042 C 
ATOM      3  O   UNL     1      26.723 -16.218  24.941  1.00  0.00    -0.550 OA
ATOM      4  O   UNL     1      26.654 -17.300  26.960  1.00  0.00    -0.550 OA
ENDBRANCH   1   2
BRANCH   1   5
ATOM      5  C   UNL     1      23.722 -16.104  26.320  1.00  0.00     0.059 C 
BRANCH   5   6
ATOM      6  C   UNL     1      22.611 -15.122  26.520  1.00  0.00     0.042 C 
ATOM      7  O   UNL     1      22.157 -14.472  25.542  1.00  0.00    -0.550 OA
ATOM      8  O   UNL     1      22.111 -14.887  27.795  1.00  0.00    -0.550 OA
ENDBRANCH   5   6
ENDBRANCH   1   5
TORSDOF 3
ENDMDL
MODEL 5
REMARK VINA RESULT:    -2.861      2.153      2.861
REMARK INTER + INTRA:          -3.472
REMARK INTER:                  -3.446
REMARK INTRA:                  -0.026
REMARK UNBOUND:                -0.109
REMARK SMILES O=C([O-])CCC(=O)[O-]
REMARK SMILES IDX 4 1 2 2 1 3 3 4 5 5 6 6 7 7 8 8
REMARK H PARENT
REMARK Flexibility Score: inf
ROOT
ATOM      1  C   UNL     1      23.772 -16.107  26.384  1.00  0.00     0.059 C 
ENDROOT
BRANCH   1   2
ATOM      2  C   UNL     1      22.665 -15.126  26.602  1.00  0.00     0.042 C 
ATOM      3  O   UNL     1      22.170 -14.501  25.628  1.00  0.00    -0.550 OA
ATOM      4  O   UNL     1      22.144 -14.937  27.876  1.00  0.00    -0.550 OA
ENDBRANCH   1   2
BRANCH   1   5
ATOM      5  C   UNL     1      25.130 -15.405  26.447  1.00  0.00     0.059 C 
BRANCH   5   6
ATOM      6  C   UNL     1      26.223 -16.343  26.047  1.00  0.00     0.042 C 
ATOM      7  O   UNL     1      26.693 -16.308  24.879  1.00  0.00    -0.550 OA
ATOM      8  O   UNL     1      26.691 -17.292  26.948  1.00  0.00    -0.550 OA
ENDBRANCH   5   6
ENDBRANCH   1   5
TORSDOF 3
ENDMDL
MODEL 6
REMARK VINA RESULT:    -2.860      1.805      3.651
REMARK INTER + INTRA:          -3.470
REMARK INTER:                  -3.387
REMARK INTRA:                  -0.083
REMARK UNBOUND:                -0.109
REMARK SMILES O=C([O-])CCC(=O)[O-]
REMARK SMILES IDX 4 1 2 2 1 3 3 4 5 5 6 6 7 7 8 8
REMARK H PARENT
REMARK Flexibility Score: inf
ROOT
ATOM      1  C   UNL     1      22.934 -14.805  26.325  1.00  0.00     0.059 C 
ENDROOT
BRANCH   1   2
ATOM      2  C   UNL     1      24.288 -14.254  26.642  1.00  0.00     0.042 C 
ATOM      3  O   UNL     1      25.324 -14.836  26.225  1.00  0.00    -0.550 OA
ATOM      4  O   UNL     1      24.406 -13.067  27.355  1.00  0.00    -0.550 OA
ENDBRANCH   1   2
BRANCH   1   5
ATOM      5  C   UNL     1      22.761 -16.191  26.950  1.00  0.00     0.059 C 
BRANCH   5   6
ATOM      6  C   UNL     1      22.957 -17.258  25.921  1.00  0.00     0.042 C 
ATOM      7  O   UNL     1      22.035 -17.531  25.108  1.00  0.00    -0.550 OA
ATOM      8  O   UNL     1      24.139 -17.987  25.891  1.00  0.00    -0.550 OA
ENDBRANCH   5   6
ENDBRANCH   1   5
TORSDOF 3
ENDMDL
MODEL 7
REMARK VINA RESULT:    -2.782      3.265      4.350
REMARK INTER + INTRA:          -3.379
REMARK INTER:                  -3.316
REMARK INTRA:                  -0.063
REMARK UNBOUND:                -0.109
REMARK SMILES O=C([O-])CCC(=O)[O-]
REMARK SMILES IDX 4 1 2 2 1 3 3 4 5 5 6 6 7 7 8 8
REMARK H PARENT
REMARK Flexibility Score: inf
ROOT
ATOM      1  C   UNL     1      25.845 -16.331  26.555  1.00  0.00     0.059 C 
ENDROOT
BRANCH   1   2
ATOM      2  C   UNL     1      24.771 -15.299  26.413  1.00  0.00     0.042 C 
ATOM      3  O   UNL     1      23.563 -15.647  26.333  1.00  0.00    -0.550 OA
ATOM      4  O   UNL     1      25.098 -13.949  26.419  1.00  0.00    -0.550 OA
ENDBRANCH   1   2
BRANCH   1   5
ATOM      5  C   UNL     1      26.617 -16.484  25.243  1.00  0.00     0.059 C 
BRANCH   5   6
ATOM      6  C   UNL     1      26.758 -17.929  24.884  1.00  0.00     0.042 C 
ATOM      7  O   UNL     1      27.707 -18.310  24.150  1.00  0.00    -0.550 OA
ATOM      8  O   UNL     1      25.812 -18.849  25.319  1.00  0.00    -0.550 OA
ENDBRANCH   5   6
ENDBRANCH   1   5
TORSDOF 3
ENDMDL
MODEL 8
REMARK VINA RESULT:    -2.777     19.300     20.493
REMARK INTER + INTRA:          -3.373
REMARK INTER:                  -3.230
REMARK INTRA:                  -0.143
REMARK UNBOUND:                -0.109
REMARK SMILES O=C([O-])CCC(=O)[O-]
REMARK SMILES IDX 4 1 2 2 1 3 3 4 5 5 6 6 7 7 8 8
REMARK H PARENT
REMARK Flexibility Score: inf
ROOT
ATOM      1  C   UNL     1      16.989  -1.734  15.444  1.00  0.00     0.059 C 
ENDROOT
BRANCH   1   2
ATOM      2  C   UNL     1      17.977  -1.476  14.352  1.00  0.00     0.042 C 
ATOM      3  O   UNL     1      18.406  -2.427  13.646  1.00  0.00    -0.550 OA
ATOM      4  O   UNL     1      18.389  -0.177  14.078  1.00  0.00    -0.550 OA
ENDBRANCH   1   2
BRANCH   1   5
ATOM      5  C   UNL     1      15.879  -0.681  15.422  1.00  0.00     0.059 C 
BRANCH   5   6
ATOM      6  C   UNL     1      14.833  -1.045  14.418  1.00  0.00     0.042 C 
ATOM      7  O   UNL     1      14.723  -0.387  13.350  1.00  0.00    -0.550 OA
ATOM      8  O   UNL     1      13.944  -2.080  14.683  1.00  0.00    -0.550 OA
ENDBRANCH   5   6
ENDBRANCH   1   5
TORSDOF 3
ENDMDL
MODEL 9
REMARK VINA RESULT:    -2.770      4.064      5.360
REMARK INTER + INTRA:          -3.365
REMARK INTER:                  -3.246
REMARK INTRA:                  -0.119
REMARK UNBOUND:                -0.109
REMARK SMILES O=C([O-])CCC(=O)[O-]
REMARK SMILES IDX 4 1 2 2 1 3 3 4 5 5 6 6 7 7 8 8
REMARK H PARENT
REMARK Flexibility Score: inf
ROOT
ATOM      1  C   UNL     1      26.617 -17.817  24.845  1.00  0.00     0.059 C 
ENDROOT
BRANCH   1   2
ATOM      2  C   UNL     1      27.981 -18.412  24.994  1.00  0.00     0.042 C 
ATOM      3  O   UNL     1      28.531 -18.990  24.019  1.00  0.00    -0.550 OA
ATOM      4  O   UNL     1      28.667 -18.287  26.195  1.00  0.00    -0.550 OA
ENDBRANCH   1   2
BRANCH   1   5
ATOM      5  C   UNL     1      26.637 -16.332  25.214  1.00  0.00     0.059 C 
BRANCH   5   6
ATOM      6  C   UNL     1      25.712 -16.064  26.357  1.00  0.00     0.042 C 
ATOM      7  O   UNL     1      25.094 -14.969  26.430  1.00  0.00    -0.550 OA
ATOM      8  O   UNL     1      25.567 -17.004  27.371  1.00  0.00    -0.550 OA
ENDBRANCH   5   6
ENDBRANCH   1   5
TORSDOF 3
ENDMDL
