MODEL 1
REMARK VINA RESULT:    -3.876      0.000      0.000
REMARK INTER + INTRA:          -7.299
REMARK INTER:                  -5.916
REMARK INTRA:                  -1.384
REMARK UNBOUND:                -1.384
REMARK SMILES CCCCCCCCCC=CC(=O)[O-]
REMARK SMILES IDX 7 1 8 2 9 3 10 4 11 5 12 6 13 7 14 8 6 9 5 10 4 11 3 12 2 13
REMARK SMILES IDX 1 14
REMARK H PARENT
REMARK Flexibility Score: inf
ROOT
ATOM      1  C   UNL     1      35.264  26.791  32.110  1.00  0.00     0.000 C 
ENDROOT
BRANCH   1   2
ATOM      2  C   UNL     1      34.242  25.720  31.710  1.00  0.00     0.004 C 
BRANCH   2   3
ATOM      3  C   UNL     1      33.146  25.581  32.775  1.00  0.00     0.027 C 
BRANCH   3   4
ATOM      4  C   UNL     1      32.725  24.149  32.940  1.00  0.00    -0.025 C 
ATOM      5  C   UNL     1      31.440  23.785  32.866  1.00  0.00     0.020 C 
BRANCH   5   6
ATOM      6  C   UNL     1      31.005  22.390  33.038  1.00  0.00     0.064 C 
ATOM      7  O   UNL     1      30.665  21.948  34.168  1.00  0.00    -0.545 OA
ATOM      8  O   UNL     1      30.968  21.547  31.936  1.00  0.00    -0.545 OA
ENDBRANCH   5   6
ENDBRANCH   3   4
ENDBRANCH   2   3
ENDBRANCH   1   2
BRANCH   1   9
ATOM      9  C   UNL     1      35.084  27.204  33.576  1.00  0.00     0.000 C 
BRANCH   9  10
ATOM     10  C   UNL     1      36.417  27.132  34.335  1.00  0.00     0.000 C 
BRANCH  10  11
ATOM     11  C   UNL     1      37.079  25.749  34.240  1.00  0.00    -0.000 C 
BRANCH  11  12
ATOM     12  C   UNL     1      36.233  24.641  34.886  1.00  0.00    -0.000 C 
BRANCH  12  13
ATOM     13  C   UNL     1      36.195  23.392  33.998  1.00  0.00    -0.003 C 
ATOM     14  C   UNL     1      37.142  23.532  32.810  1.00  0.00     0.004 C 
ENDBRANCH  12  13
ENDBRANCH  11  12
ENDBRANCH  10  11
ENDBRANCH   9  10
ENDBRANCH   1   9
TORSDOF 9
ENDMDL
MODEL 2
REMARK VINA RESULT:    -3.833      1.095      1.639
REMARK INTER + INTRA:          -7.233
REMARK INTER:                  -5.742
REMARK INTRA:                  -1.491
REMARK UNBOUND:                -1.384
REMARK SMILES CCCCCCCCCC=CC(=O)[O-]
REMARK SMILES IDX 7 1 8 2 9 3 10 4 11 5 12 6 13 7 14 8 6 9 5 10 4 11 3 12 2 13
REMARK SMILES IDX 1 14
REMARK H PARENT
REMARK Flexibility Score: inf
ROOT
ATOM      1  C   UNL     1      35.200  27.493  33.295  1.00  0.00     0.000 C 
ENDROOT
BRANCH   1   2
ATOM      2  C   UNL     1      35.695  27.038  31.917  1.00  0.00     0.004 C 
BRANCH   2   3
ATOM      3  C   UNL     1      34.751  25.990  31.313  1.00  0.00     0.027 C 
BRANCH   3   4
ATOM      4  C   UNL     1      33.716  25.551  32.308  1.00  0.00    -0.025 C 
ATOM      5  C   UNL     1      33.029  24.415  32.148  1.00  0.00     0.020 C 
BRANCH   5   6
ATOM      6  C   UNL     1      32.000  23.974  33.104  1.00  0.00     0.064 C 
ATOM      7  O   UNL     1      32.194  24.040  34.347  1.00  0.00    -0.545 OA
ATOM      8  O   UNL     1      30.796  23.475  32.627  1.00  0.00    -0.545 OA
ENDBRANCH   5   6
ENDBRANCH   3   4
ENDBRANCH   2   3
ENDBRANCH   1   2
BRANCH   1   9
ATOM      9  C   UNL     1      36.273  27.266  34.368  1.00  0.00     0.000 C 
BRANCH   9  10
ATOM     10  C   UNL     1      37.480  26.514  33.788  1.00  0.00     0.000 C 
BRANCH  10  11
ATOM     11  C   UNL     1      37.611  25.087  34.340  1.00  0.00    -0.000 C 
BRANCH  11  12
ATOM     12  C   UNL     1      36.276  24.523  34.849  1.00  0.00    -0.000 C 
BRANCH  12  13
ATOM     13  C   UNL     1      36.045  23.101  34.324  1.00  0.00    -0.003 C 
ATOM     14  C   UNL     1      36.400  22.997  32.843  1.00  0.00     0.004 C 
ENDBRANCH  12  13
ENDBRANCH  11  12
ENDBRANCH  10  11
ENDBRANCH   9  10
ENDBRANCH   1   9
TORSDOF 9
ENDMDL
MODEL 3
REMARK VINA RESULT:    -3.831      1.729      2.931
REMARK INTER + INTRA:          -7.230
REMARK INTER:                  -5.733
REMARK INTRA:                  -1.496
REMARK UNBOUND:                -1.384
REMARK SMILES CCCCCCCCCC=CC(=O)[O-]
REMARK SMILES IDX 7 1 8 2 9 3 10 4 11 5 12 6 13 7 14 8 6 9 5 10 4 11 3 12 2 13
REMARK SMILES IDX 1 14
REMARK H PARENT
REMARK Flexibility Score: inf
ROOT
ATOM      1  C   UNL     1      36.868  25.455  30.343  1.00  0.00     0.000 C 
ENDROOT
BRANCH   1   2
ATOM      2  C   UNL     1      35.647  24.572  30.625  1.00  0.00     0.004 C 
BRANCH   2   3
ATOM      3  C   UNL     1      34.371  25.417  30.734  1.00  0.00     0.027 C 
BRANCH   3   4
ATOM      4  C   UNL     1      33.622  25.110  31.999  1.00  0.00    -0.025 C 
ATOM      5  C   UNL     1      33.797  23.957  32.653  1.00  0.00     0.020 C 
BRANCH   5   6
ATOM      6  C   UNL     1      33.064  23.630  33.887  1.00  0.00     0.064 C 
ATOM      7  O   UNL     1      33.591  22.931  34.793  1.00  0.00    -0.545 OA
ATOM      8  O   UNL     1      31.768  24.100  34.054  1.00  0.00    -0.545 OA
ENDBRANCH   5   6
ENDBRANCH   3   4
ENDBRANCH   2   3
ENDBRANCH   1   2
BRANCH   1   9
ATOM      9  C   UNL     1      37.874  25.388  31.499  1.00  0.00     0.000 C 
BRANCH   9  10
ATOM     10  C   UNL     1      37.391  24.424  32.593  1.00  0.00     0.000 C 
BRANCH  10  11
ATOM     11  C   UNL     1      37.570  24.995  34.007  1.00  0.00    -0.000 C 
BRANCH  11  12
ATOM     12  C   UNL     1      36.310  25.706  34.524  1.00  0.00    -0.000 C 
BRANCH  12  13
ATOM     13  C   UNL     1      36.433  27.226  34.361  1.00  0.00    -0.003 C 
ATOM     14  C   UNL     1      35.227  27.800  33.622  1.00  0.00     0.004 C 
ENDBRANCH  12  13
ENDBRANCH  11  12
ENDBRANCH  10  11
ENDBRANCH   9  10
ENDBRANCH   1   9
TORSDOF 9
ENDMDL
MODEL 4
REMARK VINA RESULT:    -3.789      1.115      2.868
REMARK INTER + INTRA:          -7.166
REMARK INTER:                  -5.802
REMARK INTRA:                  -1.364
REMARK UNBOUND:                -1.384
REMARK SMILES CCCCCCCCCC=CC(=O)[O-]
REMARK SMILES IDX 7 1 8 2 9 3 10 4 11 5 12 6 13 7 14 8 6 9 5 10 4 11 3 12 2 13
REMARK SMILES IDX 1 14
REMARK H PARENT
REMARK Flexibility Score: inf
ROOT
ATOM      1  C   UNL     1      37.024  24.345  33.899  1.00  0.00     0.000 C 
ENDROOT
BRANCH   1   2
ATOM      2  C   UNL     1      36.205  23.054  33.782  1.00  0.00     0.004 C 
BRANCH   2   3
ATOM      3  C   UNL     1      35.058  23.036  34.801  1.00  0.00     0.027 C 
BRANCH   3   4
ATOM      4  C   UNL     1      33.799  22.489  34.192  1.00  0.00    -0.025 C 
ATOM      5  C   UNL     1      32.807  23.294  33.795  1.00  0.00     0.020 C 
BRANCH   5   6
ATOM      6  C   UNL     1      31.560  22.779  33.209  1.00  0.00     0.064 C 
ATOM      7  O   UNL     1      31.263  23.004  32.005  1.00  0.00    -0.545 OA
ATOM      8  O   UNL     1      30.694  22.032  33.997  1.00  0.00    -0.545 OA
ENDBRANCH   5   6
ENDBRANCH   3   4
ENDBRANCH   2   3
ENDBRANCH   1   2
BRANCH   1   9
ATOM      9  C   UNL     1      36.287  25.389  34.749  1.00  0.00     0.000 C 
BRANCH   9  10
ATOM     10  C   UNL     1      36.560  26.810  34.232  1.00  0.00     0.000 C 
BRANCH  10  11
ATOM     11  C   UNL     1      35.294  27.501  33.704  1.00  0.00    -0.000 C 
BRANCH  11  12
ATOM     12  C   UNL     1      34.340  26.530  32.993  1.00  0.00    -0.000 C 
BRANCH  12  13
ATOM     13  C   UNL     1      34.790  26.277  31.550  1.00  0.00    -0.003 C 
ATOM     14  C   UNL     1      34.206  24.974  31.011  1.00  0.00     0.004 C 
ENDBRANCH  12  13
ENDBRANCH  11  12
ENDBRANCH  10  11
ENDBRANCH   9  10
ENDBRANCH   1   9
TORSDOF 9
ENDMDL
MODEL 5
REMARK VINA RESULT:    -3.751     10.879     12.743
REMARK INTER + INTRA:          -7.109
REMARK INTER:                  -5.926
REMARK INTRA:                  -1.183
REMARK UNBOUND:                -1.384
REMARK SMILES CCCCCCCCCC=CC(=O)[O-]
REMARK SMILES IDX 7 1 8 2 9 3 10 4 11 5 12 6 13 7 14 8 6 9 5 10 4 11 3 12 2 13
REMARK SMILES IDX 1 14
REMARK H PARENT
REMARK Flexibility Score: inf
ROOT
ATOM      1  C   UNL     1      36.844  22.303  43.132  1.00  0.00     0.000 C 
ENDROOT
BRANCH   1   2
ATOM      2  C   UNL     1      38.088  22.464  44.013  1.00  0.00     0.004 C 
BRANCH   2   3
ATOM      3  C   UNL     1      37.700  22.623  45.489  1.00  0.00     0.027 C 
BRANCH   3   4
ATOM      4  C   UNL     1      36.363  22.000  45.770  1.00  0.00    -0.025 C 
ATOM      5  C   UNL     1      36.165  21.222  46.839  1.00  0.00     0.020 C 
BRANCH   5   6
ATOM      6  C   UNL     1      34.867  20.590  47.126  1.00  0.00     0.064 C 
ATOM      7  O   UNL     1      34.291  19.867  46.270  1.00  0.00    -0.545 OA
ATOM      8  O   UNL     1      34.267  20.796  48.361  1.00  0.00    -0.545 OA
ENDBRANCH   5   6
ENDBRANCH   3   4
ENDBRANCH   2   3
ENDBRANCH   1   2
BRANCH   1   9
ATOM      9  C   UNL     1      36.554  23.590  42.348  1.00  0.00     0.000 C 
BRANCH   9  10
ATOM     10  C   UNL     1      35.467  24.424  43.042  1.00  0.00     0.000 C 
BRANCH  10  11
ATOM     11  C   UNL     1      35.923  25.859  43.343  1.00  0.00    -0.000 C 
BRANCH  11  12
ATOM     12  C   UNL     1      36.452  26.026  44.775  1.00  0.00    -0.000 C 
BRANCH  12  13
ATOM     13  C   UNL     1      35.358  25.717  45.803  1.00  0.00    -0.003 C 
ATOM     14  C   UNL     1      34.268  26.785  45.786  1.00  0.00     0.004 C 
ENDBRANCH  12  13
ENDBRANCH  11  12
ENDBRANCH  10  11
ENDBRANCH   9  10
ENDBRANCH   1   9
TORSDOF 9
ENDMDL
MODEL 6
REMARK VINA RESULT:    -3.744     11.648     12.643
REMARK INTER + INTRA:          -7.097
REMARK INTER:                  -6.073
REMARK INTRA:                  -1.024
REMARK UNBOUND:                -1.384
REMARK SMILES CCCCCCCCCC=CC(=O)[O-]
REMARK SMILES IDX 7 1 8 2 9 3 10 4 11 5 12 6 13 7 14 8 6 9 5 10 4 11 3 12 2 13
REMARK SMILES IDX 1 14
REMARK H PARENT
REMARK Flexibility Score: inf
ROOT
ATOM      1  C   UNL     1      21.497  27.319  30.797  1.00  0.00     0.000 C 
ENDROOT
BRANCH   1   2
ATOM      2  C   UNL     1      21.095  25.847  30.655  1.00  0.00     0.004 C 
BRANCH   2   3
ATOM      3  C   UNL     1      22.332  24.950  30.515  1.00  0.00     0.027 C 
BRANCH   3   4
ATOM      4  C   UNL     1      22.714  24.341  31.833  1.00  0.00    -0.025 C 
ATOM      5  C   UNL     1      21.815  23.716  32.602  1.00  0.00     0.020 C 
BRANCH   5   6
ATOM      6  C   UNL     1      22.164  23.125  33.903  1.00  0.00     0.064 C 
ATOM      7  O   UNL     1      22.344  23.846  34.920  1.00  0.00    -0.545 OA
ATOM      8  O   UNL     1      22.299  21.747  34.012  1.00  0.00    -0.545 OA
ENDBRANCH   5   6
ENDBRANCH   3   4
ENDBRANCH   2   3
ENDBRANCH   1   2
BRANCH   1   9
ATOM      9  C   UNL     1      20.696  28.003  31.912  1.00  0.00     0.000 C 
BRANCH   9  10
ATOM     10  C   UNL     1      20.779  27.202  33.220  1.00  0.00     0.000 C 
BRANCH  10  11
ATOM     11  C   UNL     1      22.071  27.479  34.003  1.00  0.00    -0.000 C 
BRANCH  11  12
ATOM     12  C   UNL     1      22.537  28.938  33.882  1.00  0.00    -0.000 C 
BRANCH  12  13
ATOM     13  C   UNL     1      23.114  29.441  35.210  1.00  0.00    -0.003 C 
ATOM     14  C   UNL     1      23.408  28.282  36.158  1.00  0.00     0.004 C 
ENDBRANCH  12  13
ENDBRANCH  11  12
ENDBRANCH  10  11
ENDBRANCH   9  10
ENDBRANCH   1   9
TORSDOF 9
ENDMDL
MODEL 7
REMARK VINA RESULT:    -3.704      8.218     10.462
REMARK INTER + INTRA:          -7.036
REMARK INTER:                  -5.373
REMARK INTRA:                  -1.664
REMARK UNBOUND:                -1.384
REMARK SMILES CCCCCCCCCC=CC(=O)[O-]
REMARK SMILES IDX 7 1 8 2 9 3 10 4 11 5 12 6 13 7 14 8 6 9 5 10 4 11 3 12 2 13
REMARK SMILES IDX 1 14
REMARK H PARENT
REMARK Flexibility Score: inf
ROOT
ATOM      1  C   UNL     1      33.633  17.649  36.240  1.00  0.00     0.000 C 
ENDROOT
BRANCH   1   2
ATOM      2  C   UNL     1      34.085  16.579  37.241  1.00  0.00     0.004 C 
BRANCH   2   3
ATOM      3  C   UNL     1      33.293  16.683  38.551  1.00  0.00     0.027 C 
BRANCH   3   4
ATOM      4  C   UNL     1      32.585  15.395  38.862  1.00  0.00    -0.025 C 
ATOM      5  C   UNL     1      31.322  15.380  39.303  1.00  0.00     0.020 C 
BRANCH   5   6
ATOM      6  C   UNL     1      30.615  14.131  39.626  1.00  0.00     0.064 C 
ATOM      7  O   UNL     1      29.557  13.807  39.024  1.00  0.00    -0.545 OA
ATOM      8  O   UNL     1      31.121  13.297  40.614  1.00  0.00    -0.545 OA
ENDBRANCH   5   6
ENDBRANCH   3   4
ENDBRANCH   2   3
ENDBRANCH   1   2
BRANCH   1   9
ATOM      9  C   UNL     1      32.496  18.500  36.820  1.00  0.00     0.000 C 
BRANCH   9  10
ATOM     10  C   UNL     1      31.409  18.756  35.765  1.00  0.00     0.000 C 
BRANCH  10  11
ATOM     11  C   UNL     1      30.850  17.457  35.163  1.00  0.00    -0.000 C 
BRANCH  11  12
ATOM     12  C   UNL     1      29.922  16.707  36.130  1.00  0.00    -0.000 C 
BRANCH  12  13
ATOM     13  C   UNL     1      29.904  15.205  35.818  1.00  0.00    -0.003 C 
ATOM     14  C   UNL     1      31.306  14.692  35.498  1.00  0.00     0.004 C 
ENDBRANCH  12  13
ENDBRANCH  11  12
ENDBRANCH  10  11
ENDBRANCH   9  10
ENDBRANCH   1   9
TORSDOF 9
ENDMDL
MODEL 8
REMARK VINA RESULT:    -3.694     11.696     13.392
REMARK INTER + INTRA:          -7.021
REMARK INTER:                  -5.720
REMARK INTRA:                  -1.301
REMARK UNBOUND:                -1.384
REMARK SMILES CCCCCCCCCC=CC(=O)[O-]
REMARK SMILES IDX 7 1 8 2 9 3 10 4 11 5 12 6 13 7 14 8 6 9 5 10 4 11 3 12 2 13
REMARK SMILES IDX 1 14
REMARK H PARENT
REMARK Flexibility Score: inf
ROOT
ATOM      1  C   UNL     1      19.742  26.017  31.995  1.00  0.00     0.000 C 
ENDROOT
BRANCH   1   2
ATOM      2  C   UNL     1      20.403  27.088  32.871  1.00  0.00     0.004 C 
BRANCH   2   3
ATOM      3  C   UNL     1      21.683  27.621  32.215  1.00  0.00     0.027 C 
BRANCH   3   4
ATOM      4  C   UNL     1      22.440  28.519  33.151  1.00  0.00    -0.025 C 
ATOM      5  C   UNL     1      22.457  28.300  34.470  1.00  0.00     0.020 C 
BRANCH   5   6
ATOM      6  C   UNL     1      23.180  29.176  35.406  1.00  0.00     0.064 C 
ATOM      7  O   UNL     1      23.249  30.419  35.214  1.00  0.00    -0.545 OA
ATOM      8  O   UNL     1      23.798  28.622  36.519  1.00  0.00    -0.545 OA
ENDBRANCH   5   6
ENDBRANCH   3   4
ENDBRANCH   2   3
ENDBRANCH   1   2
BRANCH   1   9
ATOM      9  C   UNL     1      20.743  25.434  30.989  1.00  0.00     0.000 C 
BRANCH   9  10
ATOM     10  C   UNL     1      20.756  23.899  31.054  1.00  0.00     0.000 C 
BRANCH  10  11
ATOM     11  C   UNL     1      21.950  23.350  31.850  1.00  0.00    -0.000 C 
BRANCH  11  12
ATOM     12  C   UNL     1      21.545  22.810  33.230  1.00  0.00    -0.000 C 
BRANCH  12  13
ATOM     13  C   UNL     1      21.962  23.780  34.342  1.00  0.00    -0.003 C 
ATOM     14  C   UNL     1      23.095  24.692  33.882  1.00  0.00     0.004 C 
ENDBRANCH  12  13
ENDBRANCH  11  12
ENDBRANCH  10  11
ENDBRANCH   9  10
ENDBRANCH   1   9
TORSDOF 9
ENDMDL
MODEL 9
REMARK VINA RESULT:    -3.673     11.807     12.838
REMARK INTER + INTRA:          -6.990
REMARK INTER:                  -5.794
REMARK INTRA:                  -1.196
REMARK UNBOUND:                -1.384
REMARK SMILES CCCCCCCCCC=CC(=O)[O-]
REMARK SMILES IDX 7 1 8 2 9 3 10 4 11 5 12 6 13 7 14 8 6 9 5 10 4 11 3 12 2 13
REMARK SMILES IDX 1 14
REMARK H PARENT
REMARK Flexibility Score: inf
ROOT
ATOM      1  C   UNL     1      20.093  28.971  33.207  1.00  0.00     0.000 C 
ENDROOT
BRANCH   1   2
ATOM      2  C   UNL     1      20.573  27.522  33.356  1.00  0.00     0.004 C 
BRANCH   2   3
ATOM      3  C   UNL     1      21.940  27.325  32.689  1.00  0.00     0.027 C 
BRANCH   3   4
ATOM      4  C   UNL     1      22.386  25.894  32.775  1.00  0.00    -0.025 C 
ATOM      5  C   UNL     1      21.706  24.991  33.490  1.00  0.00     0.020 C 
BRANCH   5   6
ATOM      6  C   UNL     1      22.133  23.588  33.600  1.00  0.00     0.064 C 
ATOM      7  O   UNL     1      22.579  23.124  34.683  1.00  0.00    -0.545 OA
ATOM      8  O   UNL     1      22.043  22.759  32.489  1.00  0.00    -0.545 OA
ENDBRANCH   5   6
ENDBRANCH   3   4
ENDBRANCH   2   3
ENDBRANCH   1   2
BRANCH   1   9
ATOM      9  C   UNL     1      21.276  29.924  32.989  1.00  0.00     0.000 C 
BRANCH   9  10
ATOM     10  C   UNL     1      21.203  31.118  33.952  1.00  0.00     0.000 C 
BRANCH  10  11
ATOM     11  C   UNL     1      22.153  30.972  35.150  1.00  0.00    -0.000 C 
BRANCH  11  12
ATOM     12  C   UNL     1      23.266  29.943  34.902  1.00  0.00    -0.000 C 
BRANCH  12  13
ATOM     13  C   UNL     1      23.586  29.162  36.183  1.00  0.00    -0.003 C 
ATOM     14  C   UNL     1      23.133  27.709  36.069  1.00  0.00     0.004 C 
ENDBRANCH  12  13
ENDBRANCH  11  12
ENDBRANCH  10  11
ENDBRANCH   9  10
ENDBRANCH   1   9
TORSDOF 9
ENDMDL
