MODEL 1
REMARK VINA RESULT:    -3.988      0.000      0.000
REMARK INTER + INTRA:          -6.176
REMARK INTER:                  -5.853
REMARK INTRA:                  -0.323
REMARK UNBOUND:                -0.323
REMARK SMILES O=C([O-])CCCCCCCC(=O)[O-]
REMARK SMILES IDX 7 1 6 2 5 3 4 4 2 5 1 6 3 7 8 8 9 9 10 10 11 11 12 12 13 13
REMARK H PARENT
REMARK Flexibility Score: inf
ROOT
ATOM      1  C   UNL     1      47.339 -10.243 -57.107  1.00  0.00     0.000 C 
ENDROOT
BRANCH   1   2
ATOM      2  C   UNL     1      47.587 -11.761 -57.165  1.00  0.00     0.000 C 
BRANCH   2   3
ATOM      3  C   UNL     1      48.418 -12.268 -55.974  1.00  0.00     0.006 C 
BRANCH   3   4
ATOM      4  C   UNL     1      49.032 -13.650 -56.227  1.00  0.00     0.053 C 
BRANCH   4   5
ATOM      5  C   UNL     1      48.090 -14.728 -55.788  1.00  0.00     0.041 C 
ATOM      6  O   UNL     1      47.261 -14.507 -54.866  1.00  0.00    -0.550 OA
ATOM      7  O   UNL     1      48.162 -15.990 -56.363  1.00  0.00    -0.550 OA
ENDBRANCH   4   5
ENDBRANCH   3   4
ENDBRANCH   2   3
ENDBRANCH   1   2
BRANCH   1   8
ATOM      8  C   UNL     1      48.121  -9.561 -55.974  1.00  0.00     0.000 C 
BRANCH   8   9
ATOM      9  C   UNL     1      47.778  -8.067 -55.829  1.00  0.00     0.006 C 
BRANCH   9  10
ATOM     10  C   UNL     1      49.019  -7.174 -55.948  1.00  0.00     0.053 C 
BRANCH  10  11
ATOM     11  C   UNL     1      49.739  -7.049 -54.640  1.00  0.00     0.041 C 
ATOM     12  O   UNL     1      49.117  -7.203 -53.556  1.00  0.00    -0.550 OA
ATOM     13  O   UNL     1      51.090  -6.725 -54.619  1.00  0.00    -0.550 OA
ENDBRANCH  10  11
ENDBRANCH   9  10
ENDBRANCH   8   9
ENDBRANCH   1   8
TORSDOF 8
ENDMDL
MODEL 2
REMARK VINA RESULT:    -3.961      3.423      5.026
REMARK INTER + INTRA:          -6.136
REMARK INTER:                  -5.729
REMARK INTRA:                  -0.408
REMARK UNBOUND:                -0.323
REMARK SMILES O=C([O-])CCCCCCCC(=O)[O-]
REMARK SMILES IDX 7 1 6 2 5 3 4 4 2 5 1 6 3 7 8 8 9 9 10 10 11 11 12 12 13 13
REMARK H PARENT
REMARK Flexibility Score: inf
ROOT
ATOM      1  C   UNL     1      50.065  -7.521 -54.510  1.00  0.00     0.000 C 
ENDROOT
BRANCH   1   2
ATOM      2  C   UNL     1      48.705  -7.155 -53.888  1.00  0.00     0.000 C 
BRANCH   2   3
ATOM      3  C   UNL     1      47.519  -7.661 -54.725  1.00  0.00     0.006 C 
BRANCH   3   4
ATOM      4  C   UNL     1      47.936  -8.112 -56.131  1.00  0.00     0.053 C 
BRANCH   4   5
ATOM      5  C   UNL     1      47.404  -9.481 -56.418  1.00  0.00     0.041 C 
ATOM      6  O   UNL     1      46.252  -9.623 -56.907  1.00  0.00    -0.550 OA
ATOM      7  O   UNL     1      48.159 -10.602 -56.099  1.00  0.00    -0.550 OA
ENDBRANCH   4   5
ENDBRANCH   3   4
ENDBRANCH   2   3
ENDBRANCH   1   2
BRANCH   1   8
ATOM      8  C   UNL     1      50.890  -6.283 -54.893  1.00  0.00     0.000 C 
BRANCH   8   9
ATOM      9  C   UNL     1      50.937  -6.045 -56.413  1.00  0.00     0.006 C 
BRANCH   9  10
ATOM     10  C   UNL     1      52.371  -5.866 -56.926  1.00  0.00     0.053 C 
BRANCH  10  11
ATOM     11  C   UNL     1      52.505  -6.293 -58.356  1.00  0.00     0.041 C 
ATOM     12  O   UNL     1      51.511  -6.755 -58.976  1.00  0.00    -0.550 OA
ATOM     13  O   UNL     1      53.737  -6.213 -58.993  1.00  0.00    -0.550 OA
ENDBRANCH  10  11
ENDBRANCH   9  10
ENDBRANCH   8   9
ENDBRANCH   1   8
TORSDOF 8
ENDMDL
MODEL 3
REMARK VINA RESULT:    -3.920      4.519      6.249
REMARK INTER + INTRA:          -6.077
REMARK INTER:                  -5.287
REMARK INTRA:                  -0.790
REMARK UNBOUND:                -0.323
REMARK SMILES O=C([O-])CCCCCCCC(=O)[O-]
REMARK SMILES IDX 7 1 6 2 5 3 4 4 2 5 1 6 3 7 8 8 9 9 10 10 11 11 12 12 13 13
REMARK H PARENT
REMARK Flexibility Score: inf
ROOT
ATOM      1  C   UNL     1      52.458  -5.927 -57.524  1.00  0.00     0.000 C 
ENDROOT
BRANCH   1   2
ATOM      2  C   UNL     1      51.421  -5.353 -56.542  1.00  0.00     0.000 C 
BRANCH   2   3
ATOM      3  C   UNL     1      51.321  -6.172 -55.245  1.00  0.00     0.006 C 
BRANCH   3   4
ATOM      4  C   UNL     1      50.033  -5.888 -54.462  1.00  0.00     0.053 C 
BRANCH   4   5
ATOM      5  C   UNL     1      49.360  -7.170 -54.082  1.00  0.00     0.041 C 
ATOM      6  O   UNL     1      50.008  -8.250 -54.084  1.00  0.00    -0.550 OA
ATOM      7  O   UNL     1      48.006  -7.180 -53.775  1.00  0.00    -0.550 OA
ENDBRANCH   4   5
ENDBRANCH   3   4
ENDBRANCH   2   3
ENDBRANCH   1   2
BRANCH   1   8
ATOM      8  C   UNL     1      51.807  -6.550 -58.769  1.00  0.00     0.000 C 
BRANCH   8   9
ATOM      9  C   UNL     1      50.296  -6.268 -58.855  1.00  0.00     0.006 C 
BRANCH   9  10
ATOM     10  C   UNL     1      49.464  -7.556 -58.824  1.00  0.00     0.053 C 
BRANCH  10  11
ATOM     11  C   UNL     1      48.455  -7.537 -57.718  1.00  0.00     0.041 C 
ATOM     12  O   UNL     1      48.032  -8.615 -57.225  1.00  0.00    -0.550 OA
ATOM     13  O   UNL     1      47.954  -6.326 -57.255  1.00  0.00    -0.550 OA
ENDBRANCH  10  11
ENDBRANCH   9  10
ENDBRANCH   8   9
ENDBRANCH   1   8
TORSDOF 8
ENDMDL
MODEL 4
REMARK VINA RESULT:    -3.908      3.088      6.886
REMARK INTER + INTRA:          -6.059
REMARK INTER:                  -5.574
REMARK INTRA:                  -0.485
REMARK UNBOUND:                -0.323
REMARK SMILES O=C([O-])CCCCCCCC(=O)[O-]
REMARK SMILES IDX 7 1 6 2 5 3 4 4 2 5 1 6 3 7 8 8 9 9 10 10 11 11 12 12 13 13
REMARK H PARENT
REMARK Flexibility Score: inf
ROOT
ATOM      1  C   UNL     1      49.758  -7.289 -53.869  1.00  0.00     0.000 C 
ENDROOT
BRANCH   1   2
ATOM      2  C   UNL     1      50.071  -6.020 -54.681  1.00  0.00     0.000 C 
BRANCH   2   3
ATOM      3  C   UNL     1      51.326  -6.174 -55.555  1.00  0.00     0.006 C 
BRANCH   3   4
ATOM      4  C   UNL     1      51.010  -6.135 -57.056  1.00  0.00     0.053 C 
BRANCH   4   5
ATOM      5  C   UNL     1      52.263  -5.924 -57.847  1.00  0.00     0.041 C 
ATOM      6  O   UNL     1      53.051  -4.989 -57.547  1.00  0.00    -0.550 OA
ATOM      7  O   UNL     1      52.535  -6.728 -58.946  1.00  0.00    -0.550 OA
ENDBRANCH   4   5
ENDBRANCH   3   4
ENDBRANCH   2   3
ENDBRANCH   1   2
BRANCH   1   8
ATOM      8  C   UNL     1      49.402  -8.487 -54.762  1.00  0.00     0.000 C 
BRANCH   8   9
ATOM      9  C   UNL     1      47.982  -8.390 -55.349  1.00  0.00     0.006 C 
BRANCH   9  10
ATOM     10  C   UNL     1      47.916  -8.904 -56.793  1.00  0.00     0.053 C 
BRANCH  10  11
ATOM     11  C   UNL     1      47.407 -10.311 -56.858  1.00  0.00     0.041 C 
ATOM     12  O   UNL     1      46.283 -10.556 -57.371  1.00  0.00    -0.550 OA
ATOM     13  O   UNL     1      48.158 -11.348 -56.318  1.00  0.00    -0.550 OA
ENDBRANCH  10  11
ENDBRANCH   9  10
ENDBRANCH   8   9
ENDBRANCH   1   8
TORSDOF 8
ENDMDL
MODEL 5
REMARK VINA RESULT:    -3.845      3.919      6.934
REMARK INTER + INTRA:          -5.966
REMARK INTER:                  -5.254
REMARK INTRA:                  -0.712
REMARK UNBOUND:                -0.323
REMARK SMILES O=C([O-])CCCCCCCC(=O)[O-]
REMARK SMILES IDX 7 1 6 2 5 3 4 4 2 5 1 6 3 7 8 8 9 9 10 10 11 11 12 12 13 13
REMARK H PARENT
REMARK Flexibility Score: inf
ROOT
ATOM      1  C   UNL     1      50.719  -6.663 -54.619  1.00  0.00     0.000 C 
ENDROOT
BRANCH   1   2
ATOM      2  C   UNL     1      50.313  -5.251 -55.075  1.00  0.00     0.000 C 
BRANCH   2   3
ATOM      3  C   UNL     1      50.622  -5.000 -56.560  1.00  0.00     0.006 C 
BRANCH   3   4
ATOM      4  C   UNL     1      51.126  -6.257 -57.281  1.00  0.00     0.053 C 
BRANCH   4   5
ATOM      5  C   UNL     1      52.358  -5.946 -58.072  1.00  0.00     0.041 C 
ATOM      6  O   UNL     1      52.660  -6.646 -59.074  1.00  0.00    -0.550 OA
ATOM      7  O   UNL     1      53.199  -4.916 -57.672  1.00  0.00    -0.550 OA
ENDBRANCH   4   5
ENDBRANCH   3   4
ENDBRANCH   2   3
ENDBRANCH   1   2
BRANCH   1   8
ATOM      8  C   UNL     1      49.573  -7.408 -53.917  1.00  0.00     0.000 C 
BRANCH   8   9
ATOM      9  C   UNL     1      48.197  -6.773 -54.188  1.00  0.00     0.006 C 
BRANCH   9  10
ATOM     10  C   UNL     1      47.202  -7.779 -54.780  1.00  0.00     0.053 C 
BRANCH  10  11
ATOM     11  C   UNL     1      47.744  -8.434 -56.014  1.00  0.00     0.041 C 
ATOM     12  O   UNL     1      47.945  -7.756 -57.056  1.00  0.00    -0.550 OA
ATOM     13  O   UNL     1      47.993  -9.801 -56.023  1.00  0.00    -0.550 OA
ENDBRANCH  10  11
ENDBRANCH   9  10
ENDBRANCH   8   9
ENDBRANCH   1   8
TORSDOF 8
ENDMDL
MODEL 6
REMARK VINA RESULT:    -3.839      2.387      3.427
REMARK INTER + INTRA:          -5.958
REMARK INTER:                  -5.489
REMARK INTRA:                  -0.470
REMARK UNBOUND:                -0.323
REMARK SMILES O=C([O-])CCCCCCCC(=O)[O-]
REMARK SMILES IDX 7 1 6 2 5 3 4 4 2 5 1 6 3 7 8 8 9 9 10 10 11 11 12 12 13 13
REMARK H PARENT
REMARK Flexibility Score: inf
ROOT
ATOM      1  C   UNL     1      48.846  -8.365 -55.116  1.00  0.00     0.000 C 
ENDROOT
BRANCH   1   2
ATOM      2  C   UNL     1      47.685  -8.019 -56.066  1.00  0.00     0.000 C 
BRANCH   2   3
ATOM      3  C   UNL     1      46.914  -9.264 -56.533  1.00  0.00     0.006 C 
BRANCH   3   4
ATOM      4  C   UNL     1      47.762 -10.188 -57.416  1.00  0.00     0.053 C 
BRANCH   4   5
ATOM      5  C   UNL     1      47.721 -11.590 -56.894  1.00  0.00     0.041 C 
ATOM      6  O   UNL     1      48.538 -11.960 -56.010  1.00  0.00    -0.550 OA
ATOM      7  O   UNL     1      46.815 -12.502 -57.419  1.00  0.00    -0.550 OA
ENDBRANCH   4   5
ENDBRANCH   3   4
ENDBRANCH   2   3
ENDBRANCH   1   2
BRANCH   1   8
ATOM      8  C   UNL     1      49.037  -7.313 -54.012  1.00  0.00     0.000 C 
BRANCH   8   9
ATOM      9  C   UNL     1      49.714  -6.029 -54.525  1.00  0.00     0.006 C 
BRANCH   9  10
ATOM     10  C   UNL     1      51.168  -6.272 -54.951  1.00  0.00     0.053 C 
BRANCH  10  11
ATOM     11  C   UNL     1      51.369  -6.010 -56.412  1.00  0.00     0.041 C 
ATOM     12  O   UNL     1      52.531  -5.963 -56.894  1.00  0.00    -0.550 OA
ATOM     13  O   UNL     1      50.272  -5.781 -57.234  1.00  0.00    -0.550 OA
ENDBRANCH  10  11
ENDBRANCH   9  10
ENDBRANCH   8   9
ENDBRANCH   1   8
TORSDOF 8
ENDMDL
MODEL 7
REMARK VINA RESULT:    -3.826      1.254      6.565
REMARK INTER + INTRA:          -5.939
REMARK INTER:                  -5.602
REMARK INTRA:                  -0.337
REMARK UNBOUND:                -0.323
REMARK SMILES O=C([O-])CCCCCCCC(=O)[O-]
REMARK SMILES IDX 7 1 6 2 5 3 4 4 2 5 1 6 3 7 8 8 9 9 10 10 11 11 12 12 13 13
REMARK H PARENT
REMARK Flexibility Score: inf
ROOT
ATOM      1  C   UNL     1      47.953  -9.621 -56.096  1.00  0.00     0.000 C 
ENDROOT
BRANCH   1   2
ATOM      2  C   UNL     1      48.269  -8.117 -56.005  1.00  0.00     0.000 C 
BRANCH   2   3
ATOM      3  C   UNL     1      48.543  -7.659 -54.563  1.00  0.00     0.006 C 
BRANCH   3   4
ATOM      4  C   UNL     1      50.041  -7.557 -54.249  1.00  0.00     0.053 C 
BRANCH   4   5
ATOM      5  C   UNL     1      50.603  -6.283 -54.797  1.00  0.00     0.041 C 
ATOM      6  O   UNL     1      50.194  -5.173 -54.366  1.00  0.00    -0.550 OA
ATOM      7  O   UNL     1      51.543  -6.321 -55.820  1.00  0.00    -0.550 OA
ENDBRANCH   4   5
ENDBRANCH   3   4
ENDBRANCH   2   3
ENDBRANCH   1   2
BRANCH   1   8
ATOM      8  C   UNL     1      47.534 -10.049 -57.511  1.00  0.00     0.000 C 
BRANCH   8   9
ATOM      9  C   UNL     1      47.879 -11.519 -57.814  1.00  0.00     0.006 C 
BRANCH   9  10
ATOM     10  C   UNL     1      47.119 -12.491 -56.903  1.00  0.00     0.053 C 
BRANCH  10  11
ATOM     11  C   UNL     1      48.053 -13.358 -56.116  1.00  0.00     0.041 C 
ATOM     12  O   UNL     1      47.614 -14.355 -55.485  1.00  0.00    -0.550 OA
ATOM     13  O   UNL     1      49.405 -13.044 -56.052  1.00  0.00    -0.550 OA
ENDBRANCH  10  11
ENDBRANCH   9  10
ENDBRANCH   8   9
ENDBRANCH   1   8
TORSDOF 8
ENDMDL
MODEL 8
REMARK VINA RESULT:    -3.815      2.392      6.837
REMARK INTER + INTRA:          -5.923
REMARK INTER:                  -5.492
REMARK INTRA:                  -0.431
REMARK UNBOUND:                -0.323
REMARK SMILES O=C([O-])CCCCCCCC(=O)[O-]
REMARK SMILES IDX 7 1 6 2 5 3 4 4 2 5 1 6 3 7 8 8 9 9 10 10 11 11 12 12 13 13
REMARK H PARENT
REMARK Flexibility Score: inf
ROOT
ATOM      1  C   UNL     1      48.119  -7.991 -54.946  1.00  0.00     0.000 C 
ENDROOT
BRANCH   1   2
ATOM      2  C   UNL     1      49.523  -7.797 -54.347  1.00  0.00     0.000 C 
BRANCH   2   3
ATOM      3  C   UNL     1      50.030  -6.352 -54.487  1.00  0.00     0.006 C 
BRANCH   3   4
ATOM      4  C   UNL     1      51.480  -6.278 -54.982  1.00  0.00     0.053 C 
BRANCH   4   5
ATOM      5  C   UNL     1      51.525  -5.784 -56.394  1.00  0.00     0.041 C 
ATOM      6  O   UNL     1      52.604  -5.818 -57.043  1.00  0.00    -0.550 OA
ATOM      7  O   UNL     1      50.388  -5.241 -56.977  1.00  0.00    -0.550 OA
ENDBRANCH   4   5
ENDBRANCH   3   4
ENDBRANCH   2   3
ENDBRANCH   1   2
BRANCH   1   8
ATOM      8  C   UNL     1      48.118  -7.910 -56.481  1.00  0.00     0.000 C 
BRANCH   8   9
ATOM      9  C   UNL     1      47.412  -9.109 -57.139  1.00  0.00     0.006 C 
BRANCH   9  10
ATOM     10  C   UNL     1      47.837 -10.445 -56.516  1.00  0.00     0.053 C 
BRANCH  10  11
ATOM     11  C   UNL     1      47.662 -11.584 -57.473  1.00  0.00     0.041 C 
ATOM     12  O   UNL     1      47.226 -12.693 -57.066  1.00  0.00    -0.550 OA
ATOM     13  O   UNL     1      48.014 -11.430 -58.808  1.00  0.00    -0.550 OA
ENDBRANCH  10  11
ENDBRANCH   9  10
ENDBRANCH   8   9
ENDBRANCH   1   8
TORSDOF 8
ENDMDL
MODEL 9
REMARK VINA RESULT:    -3.814      0.859      6.639
REMARK INTER + INTRA:          -5.922
REMARK INTER:                  -5.564
REMARK INTRA:                  -0.358
REMARK UNBOUND:                -0.323
REMARK SMILES O=C([O-])CCCCCCCC(=O)[O-]
REMARK SMILES IDX 7 1 6 2 5 3 4 4 2 5 1 6 3 7 8 8 9 9 10 10 11 11 12 12 13 13
REMARK H PARENT
REMARK Flexibility Score: inf
ROOT
ATOM      1  C   UNL     1      46.995 -10.285 -57.108  1.00  0.00     0.000 C 
ENDROOT
BRANCH   1   2
ATOM      2  C   UNL     1      48.037  -9.384 -56.421  1.00  0.00     0.000 C 
BRANCH   2   3
ATOM      3  C   UNL     1      47.483  -7.989 -56.091  1.00  0.00     0.006 C 
BRANCH   3   4
ATOM      4  C   UNL     1      47.587  -7.649 -54.598  1.00  0.00     0.053 C 
BRANCH   4   5
ATOM      5  C   UNL     1      48.920  -7.039 -54.294  1.00  0.00     0.041 C 
ATOM      6  O   UNL     1      49.867  -7.761 -53.885  1.00  0.00    -0.550 OA
ATOM      7  O   UNL     1      49.101  -5.668 -54.414  1.00  0.00    -0.550 OA
ENDBRANCH   4   5
ENDBRANCH   3   4
ENDBRANCH   2   3
ENDBRANCH   1   2
BRANCH   1   8
ATOM      8  C   UNL     1      47.456 -11.747 -57.209  1.00  0.00     0.000 C 
BRANCH   8   9
ATOM      9  C   UNL     1      48.443 -12.138 -56.095  1.00  0.00     0.006 C 
BRANCH   9  10
ATOM     10  C   UNL     1      48.858 -13.613 -56.181  1.00  0.00     0.053 C 
BRANCH  10  11
ATOM     11  C   UNL     1      47.727 -14.528 -55.826  1.00  0.00     0.041 C 
ATOM     12  O   UNL     1      47.184 -14.455 -54.692  1.00  0.00    -0.550 OA
ATOM     13  O   UNL     1      47.297 -15.487 -56.735  1.00  0.00    -0.550 OA
ENDBRANCH  10  11
ENDBRANCH   9  10
ENDBRANCH   8   9
ENDBRANCH   1   8
TORSDOF 8
ENDMDL
