MODEL 1
REMARK VINA RESULT:    -7.070      0.000      0.000
REMARK INTER + INTRA:          -8.848
REMARK INTER:                  -8.516
REMARK INTRA:                  -0.332
REMARK UNBOUND:                -0.332
REMARK SMILES O=c1c(O)c(-c2ccc(O)c(O)c2)oc2cc(O)cc(O)c12
REMARK SMILES IDX 5 1 3 2 2 3 1 4 22 5 20 6 19 7 17 8 16 9 15 10 14 11 6 12
REMARK SMILES IDX 7 13 8 14 9 15 13 16 11 17 10 18 12 20 4 22 21 24 18 26
REMARK H PARENT 10 19 12 21 4 23 21 25 18 27
REMARK Flexibility Score: inf
ROOT
ATOM      1  C   UNL     1     -13.461 -10.171 -16.282  1.00  0.00     0.180 A 
ATOM      2  C   UNL     1     -12.991  -9.044 -16.981  1.00  0.00     0.208 A 
ATOM      3  C   UNL     1     -11.650  -9.012 -17.395  1.00  0.00     0.238 A 
ATOM      4  O   UNL     1     -11.214  -8.002 -18.013  1.00  0.00    -0.285 OA
ATOM      5  C   UNL     1     -10.811 -10.112 -17.122  1.00  0.00     0.111 A 
ATOM      6  C   UNL     1      -9.449 -10.160 -17.508  1.00  0.00     0.134 A 
ATOM      7  C   UNL     1      -8.681 -11.296 -17.207  1.00  0.00     0.093 A 
ATOM      8  C   UNL     1      -9.249 -12.380 -16.529  1.00  0.00     0.123 A 
ATOM      9  C   UNL     1     -10.590 -12.336 -16.146  1.00  0.00     0.094 A 
ATOM     10  C   UNL     1     -11.372 -11.213 -16.435  1.00  0.00     0.146 A 
ATOM     11  O   UNL     1     -12.644 -11.196 -16.055  1.00  0.00    -0.452 OA
ENDROOT
BRANCH   1  12
ATOM     12  C   UNL     1     -14.856 -10.271 -15.796  1.00  0.00     0.025 A 
ATOM     13  C   UNL     1     -15.828 -10.879 -16.607  1.00  0.00     0.016 A 
ATOM     14  C   UNL     1     -17.146 -11.002 -16.160  1.00  0.00     0.051 A 
ATOM     15  C   UNL     1     -17.508 -10.534 -14.892  1.00  0.00     0.157 A 
ATOM     16  C   UNL     1     -15.220  -9.820 -14.514  1.00  0.00     0.062 A 
ATOM     17  C   UNL     1     -16.543  -9.945 -14.065  1.00  0.00     0.158 A 
BRANCH  15  18
ATOM     18  O   UNL     1     -18.823 -10.653 -14.444  1.00  0.00    -0.504 OA
ATOM     19  H   UNL     1     -19.445  -9.854 -14.408  1.00  0.00     0.293 HD
ENDBRANCH  15  18
BRANCH  17  20
ATOM     20  O   UNL     1     -16.904  -9.492 -12.798  1.00  0.00    -0.504 OA
ATOM     21  H   UNL     1     -16.746  -8.531 -12.513  1.00  0.00     0.293 HD
ENDBRANCH  17  20
ENDBRANCH   1  12
BRANCH   2  22
ATOM     22  O   UNL     1     -13.856  -7.989 -17.283  1.00  0.00    -0.502 OA
ATOM     23  H   UNL     1     -13.833  -7.505 -18.173  1.00  0.00     0.293 HD
ENDBRANCH   2  22
BRANCH   6  24
ATOM     24  O   UNL     1      -8.856  -9.094 -18.185  1.00  0.00    -0.507 OA
ATOM     25  H   UNL     1      -7.894  -9.134 -18.503  1.00  0.00     0.293 HD
ENDBRANCH   6  24
BRANCH   8  26
ATOM     26  O   UNL     1      -8.487 -13.508 -16.231  1.00  0.00    -0.508 OA
ATOM     27  H   UNL     1      -8.242 -14.186 -16.943  1.00  0.00     0.293 HD
ENDBRANCH   8  26
TORSDOF 6
ENDMDL
MODEL 2
REMARK VINA RESULT:    -6.781     12.848     13.692
REMARK INTER + INTRA:          -8.500
REMARK INTER:                  -8.194
REMARK INTRA:                  -0.306
REMARK UNBOUND:                -0.332
REMARK SMILES O=c1c(O)c(-c2ccc(O)c(O)c2)oc2cc(O)cc(O)c12
REMARK SMILES IDX 5 1 3 2 2 3 1 4 22 5 20 6 19 7 17 8 16 9 15 10 14 11 6 12
REMARK SMILES IDX 7 13 8 14 9 15 13 16 11 17 10 18 12 20 4 22 21 24 18 26
REMARK H PARENT 10 19 12 21 4 23 21 25 18 27
REMARK Flexibility Score: inf
ROOT
ATOM      1  C   UNL     1      -8.164 -19.315  -7.616  1.00  0.00     0.180 A 
ATOM      2  C   UNL     1      -7.771 -20.136  -8.690  1.00  0.00     0.208 A 
ATOM      3  C   UNL     1      -6.470 -20.006  -9.203  1.00  0.00     0.238 A 
ATOM      4  O   UNL     1      -6.110 -20.729 -10.172  1.00  0.00    -0.285 OA
ATOM      5  C   UNL     1      -5.583 -19.078  -8.622  1.00  0.00     0.111 A 
ATOM      6  C   UNL     1      -4.255 -18.888  -9.076  1.00  0.00     0.134 A 
ATOM      7  C   UNL     1      -3.429 -17.949  -8.439  1.00  0.00     0.093 A 
ATOM      8  C   UNL     1      -3.906 -17.198  -7.360  1.00  0.00     0.123 A 
ATOM      9  C   UNL     1      -5.214 -17.381  -6.909  1.00  0.00     0.094 A 
ATOM     10  C   UNL     1      -6.054 -18.311  -7.531  1.00  0.00     0.146 A 
ATOM     11  O   UNL     1      -7.295 -18.461  -7.085  1.00  0.00    -0.452 OA
ENDROOT
BRANCH   1  12
ATOM     12  C   UNL     1      -9.525 -19.380  -7.034  1.00  0.00     0.025 A 
ATOM     13  C   UNL     1     -10.508 -18.480  -7.477  1.00  0.00     0.016 A 
ATOM     14  C   UNL     1     -11.803 -18.537  -6.957  1.00  0.00     0.051 A 
ATOM     15  C   UNL     1     -12.138 -19.502  -5.999  1.00  0.00     0.157 A 
ATOM     16  C   UNL     1      -9.870 -20.361  -6.088  1.00  0.00     0.062 A 
ATOM     17  C   UNL     1     -11.172 -20.419  -5.567  1.00  0.00     0.158 A 
BRANCH  15  18
ATOM     18  O   UNL     1     -13.429 -19.560  -5.476  1.00  0.00    -0.504 OA
ATOM     19  H   UNL     1     -13.677 -19.078  -4.620  1.00  0.00     0.293 HD
ENDBRANCH  15  18
BRANCH  17  20
ATOM     20  O   UNL     1     -11.512 -21.387  -4.625  1.00  0.00    -0.504 OA
ATOM     21  H   UNL     1     -12.089 -22.185  -4.868  1.00  0.00     0.293 HD
ENDBRANCH  17  20
ENDBRANCH   1  12
BRANCH   2  22
ATOM     22  O   UNL     1      -8.654 -21.084  -9.215  1.00  0.00    -0.502 OA
ATOM     23  H   UNL     1      -9.100 -20.970 -10.117  1.00  0.00     0.293 HD
ENDBRANCH   2  22
BRANCH   6  24
ATOM     24  O   UNL     1      -3.751 -19.623 -10.151  1.00  0.00    -0.507 OA
ATOM     25  H   UNL     1      -2.887 -20.148 -10.079  1.00  0.00     0.293 HD
ENDBRANCH   6  24
BRANCH   8  26
ATOM     26  O   UNL     1      -3.086 -16.266  -6.726  1.00  0.00    -0.508 OA
ATOM     27  H   UNL     1      -2.104 -16.451  -6.561  1.00  0.00     0.293 HD
ENDBRANCH   8  26
TORSDOF 6
ENDMDL
MODEL 3
REMARK VINA RESULT:    -6.780     12.911     16.005
REMARK INTER + INTRA:          -8.499
REMARK INTER:                  -8.278
REMARK INTRA:                  -0.221
REMARK UNBOUND:                -0.332
REMARK SMILES O=c1c(O)c(-c2ccc(O)c(O)c2)oc2cc(O)cc(O)c12
REMARK SMILES IDX 5 1 3 2 2 3 1 4 22 5 20 6 19 7 17 8 16 9 15 10 14 11 6 12
REMARK SMILES IDX 7 13 8 14 9 15 13 16 11 17 10 18 12 20 4 22 21 24 18 26
REMARK H PARENT 10 19 12 21 4 23 21 25 18 27
REMARK Flexibility Score: inf
ROOT
ATOM      1  C   UNL     1      -8.035 -20.207  -6.544  1.00  0.00     0.180 A 
ATOM      2  C   UNL     1      -8.257 -19.071  -7.345  1.00  0.00     0.208 A 
ATOM      3  C   UNL     1      -9.558 -18.553  -7.442  1.00  0.00     0.238 A 
ATOM      4  O   UNL     1      -9.772 -17.542  -8.166  1.00  0.00    -0.285 OA
ATOM      5  C   UNL     1     -10.606 -19.163  -6.723  1.00  0.00     0.111 A 
ATOM      6  C   UNL     1     -11.944 -18.702  -6.764  1.00  0.00     0.134 A 
ATOM      7  C   UNL     1     -12.930 -19.359  -6.011  1.00  0.00     0.093 A 
ATOM      8  C   UNL     1     -12.603 -20.467  -5.223  1.00  0.00     0.123 A 
ATOM      9  C   UNL     1     -11.285 -20.926  -5.181  1.00  0.00     0.094 A 
ATOM     10  C   UNL     1     -10.289 -20.286  -5.924  1.00  0.00     0.146 A 
ATOM     11  O   UNL     1      -9.045 -20.748  -5.869  1.00  0.00    -0.452 OA
ENDROOT
BRANCH   1  12
ATOM     12  C   UNL     1      -6.695 -20.823  -6.407  1.00  0.00     0.025 A 
ATOM     13  C   UNL     1      -6.431 -22.048  -7.040  1.00  0.00     0.016 A 
ATOM     14  C   UNL     1      -5.168 -22.638  -6.941  1.00  0.00     0.051 A 
ATOM     15  C   UNL     1      -4.147 -22.003  -6.223  1.00  0.00     0.157 A 
ATOM     16  C   UNL     1      -5.661 -20.179  -5.704  1.00  0.00     0.062 A 
ATOM     17  C   UNL     1      -4.392 -20.770  -5.607  1.00  0.00     0.158 A 
BRANCH  15  18
ATOM     18  O   UNL     1      -2.886 -22.589  -6.121  1.00  0.00    -0.504 OA
ATOM     19  H   UNL     1      -2.447 -22.749  -5.222  1.00  0.00     0.293 HD
ENDBRANCH  15  18
BRANCH  17  20
ATOM     20  O   UNL     1      -3.370 -20.134  -4.905  1.00  0.00    -0.504 OA
ATOM     21  H   UNL     1      -2.393 -20.335  -5.091  1.00  0.00     0.293 HD
ENDBRANCH  17  20
ENDBRANCH   1  12
BRANCH   2  22
ATOM     22  O   UNL     1      -7.192 -18.454  -8.008  1.00  0.00    -0.502 OA
ATOM     23  H   UNL     1      -6.225 -18.689  -7.818  1.00  0.00     0.293 HD
ENDBRANCH   2  22
BRANCH   6  24
ATOM     24  O   UNL     1     -12.300 -17.599  -7.541  1.00  0.00    -0.507 OA
ATOM     25  H   UNL     1     -12.446 -16.683  -7.131  1.00  0.00     0.293 HD
ENDBRANCH   6  24
BRANCH   8  26
ATOM     26  O   UNL     1     -13.581 -21.120  -4.475  1.00  0.00    -0.508 OA
ATOM     27  H   UNL     1     -13.596 -22.129  -4.387  1.00  0.00     0.293 HD
ENDBRANCH   8  26
TORSDOF 6
ENDMDL
MODEL 4
REMARK VINA RESULT:    -6.773     12.449     13.527
REMARK INTER + INTRA:          -8.491
REMARK INTER:                  -8.182
REMARK INTRA:                  -0.309
REMARK UNBOUND:                -0.332
REMARK SMILES O=c1c(O)c(-c2ccc(O)c(O)c2)oc2cc(O)cc(O)c12
REMARK SMILES IDX 5 1 3 2 2 3 1 4 22 5 20 6 19 7 17 8 16 9 15 10 14 11 6 12
REMARK SMILES IDX 7 13 8 14 9 15 13 16 11 17 10 18 12 20 4 22 21 24 18 26
REMARK H PARENT 10 19 12 21 4 23 21 25 18 27
REMARK Flexibility Score: inf
ROOT
ATOM      1  C   UNL     1      -7.753 -19.259  -7.789  1.00  0.00     0.180 A 
ATOM      2  C   UNL     1      -7.327 -20.102  -8.833  1.00  0.00     0.208 A 
ATOM      3  C   UNL     1      -6.037 -19.929  -9.360  1.00  0.00     0.238 A 
ATOM      4  O   UNL     1      -5.647 -20.670 -10.304  1.00  0.00    -0.285 OA
ATOM      5  C   UNL     1      -5.192 -18.936  -8.824  1.00  0.00     0.111 A 
ATOM      6  C   UNL     1      -3.878 -18.699  -9.296  1.00  0.00     0.134 A 
ATOM      7  C   UNL     1      -3.096 -17.697  -8.702  1.00  0.00     0.093 A 
ATOM      8  C   UNL     1      -3.603 -16.928  -7.649  1.00  0.00     0.123 A 
ATOM      9  C   UNL     1      -4.898 -17.157  -7.181  1.00  0.00     0.094 A 
ATOM     10  C   UNL     1      -5.694 -18.150  -7.760  1.00  0.00     0.146 A 
ATOM     11  O   UNL     1      -6.924 -18.343  -7.298  1.00  0.00    -0.452 OA
ENDROOT
BRANCH   1  12
ATOM     12  C   UNL     1      -9.105 -19.367  -7.194  1.00  0.00     0.025 A 
ATOM     13  C   UNL     1      -9.339 -20.309  -6.180  1.00  0.00     0.016 A 
ATOM     14  C   UNL     1     -10.601 -20.414  -5.589  1.00  0.00     0.051 A 
ATOM     15  C   UNL     1     -11.642 -19.568  -5.994  1.00  0.00     0.157 A 
ATOM     16  C   UNL     1     -10.147 -18.506  -7.583  1.00  0.00     0.062 A 
ATOM     17  C   UNL     1     -11.414 -18.610  -6.989  1.00  0.00     0.158 A 
BRANCH  15  18
ATOM     18  O   UNL     1     -12.903 -19.672  -5.409  1.00  0.00    -0.504 OA
ATOM     19  H   UNL     1     -13.021 -19.998  -4.457  1.00  0.00     0.293 HD
ENDBRANCH  15  18
BRANCH  17  20
ATOM     20  O   UNL     1     -12.448 -17.761  -7.379  1.00  0.00    -0.504 OA
ATOM     21  H   UNL     1     -12.463 -17.331  -8.297  1.00  0.00     0.293 HD
ENDBRANCH  17  20
ENDBRANCH   1  12
BRANCH   2  22
ATOM     22  O   UNL     1      -8.165 -21.112  -9.313  1.00  0.00    -0.502 OA
ATOM     23  H   UNL     1      -8.842 -20.951 -10.049  1.00  0.00     0.293 HD
ENDBRANCH   2  22
BRANCH   6  24
ATOM     24  O   UNL     1      -3.346 -19.450 -10.345  1.00  0.00    -0.507 OA
ATOM     25  H   UNL     1      -2.871 -19.012 -11.126  1.00  0.00     0.293 HD
ENDBRANCH   6  24
BRANCH   8  26
ATOM     26  O   UNL     1      -2.826 -15.933  -7.059  1.00  0.00    -0.508 OA
ATOM     27  H   UNL     1      -2.257 -15.306  -7.615  1.00  0.00     0.293 HD
ENDBRANCH   8  26
TORSDOF 6
ENDMDL
MODEL 5
REMARK VINA RESULT:    -6.728     13.085     14.571
REMARK INTER + INTRA:          -8.436
REMARK INTER:                  -8.196
REMARK INTRA:                  -0.241
REMARK UNBOUND:                -0.332
REMARK SMILES O=c1c(O)c(-c2ccc(O)c(O)c2)oc2cc(O)cc(O)c12
REMARK SMILES IDX 5 1 3 2 2 3 1 4 22 5 20 6 19 7 17 8 16 9 15 10 14 11 6 12
REMARK SMILES IDX 7 13 8 14 9 15 13 16 11 17 10 18 12 20 4 22 21 24 18 26
REMARK H PARENT 10 19 12 21 4 23 21 25 18 27
REMARK Flexibility Score: inf
ROOT
ATOM      1  C   UNL     1     -11.727 -22.181 -10.227  1.00  0.00     0.180 A 
ATOM      2  C   UNL     1     -10.517 -21.571  -9.846  1.00  0.00     0.208 A 
ATOM      3  C   UNL     1     -10.524 -20.660  -8.777  1.00  0.00     0.238 A 
ATOM      4  O   UNL     1      -9.448 -20.098  -8.434  1.00  0.00    -0.285 OA
ATOM      5  C   UNL     1     -11.730 -20.392  -8.098  1.00  0.00     0.111 A 
ATOM      6  C   UNL     1     -11.821 -19.491  -7.009  1.00  0.00     0.134 A 
ATOM      7  C   UNL     1     -13.058 -19.286  -6.379  1.00  0.00     0.093 A 
ATOM      8  C   UNL     1     -14.202 -19.962  -6.816  1.00  0.00     0.123 A 
ATOM      9  C   UNL     1     -14.116 -20.851  -7.889  1.00  0.00     0.094 A 
ATOM     10  C   UNL     1     -12.893 -21.069  -8.532  1.00  0.00     0.146 A 
ATOM     11  O   UNL     1     -12.843 -21.916  -9.553  1.00  0.00    -0.452 OA
ENDROOT
BRANCH   1  12
ATOM     12  C   UNL     1     -11.804 -23.137 -11.356  1.00  0.00     0.025 A 
ATOM     13  C   UNL     1     -11.678 -22.664 -12.671  1.00  0.00     0.016 A 
ATOM     14  C   UNL     1     -11.727 -23.550 -13.750  1.00  0.00     0.051 A 
ATOM     15  C   UNL     1     -11.887 -24.923 -13.528  1.00  0.00     0.157 A 
ATOM     16  C   UNL     1     -11.944 -24.520 -11.136  1.00  0.00     0.062 A 
ATOM     17  C   UNL     1     -11.991 -25.410 -12.220  1.00  0.00     0.158 A 
BRANCH  15  18
ATOM     18  O   UNL     1     -11.938 -25.811 -14.603  1.00  0.00    -0.504 OA
ATOM     19  H   UNL     1     -12.769 -26.354 -14.802  1.00  0.00     0.293 HD
ENDBRANCH  15  18
BRANCH  17  20
ATOM     20  O   UNL     1     -12.137 -26.779 -12.002  1.00  0.00    -0.504 OA
ATOM     21  H   UNL     1     -11.638 -27.461 -12.562  1.00  0.00     0.293 HD
ENDBRANCH  17  20
ENDBRANCH   1  12
BRANCH   2  22
ATOM     22  O   UNL     1      -9.326 -21.891 -10.504  1.00  0.00    -0.502 OA
ATOM     23  H   UNL     1      -8.469 -21.372 -10.357  1.00  0.00     0.293 HD
ENDBRANCH   2  22
BRANCH   6  24
ATOM     24  O   UNL     1     -10.697 -18.802  -6.551  1.00  0.00    -0.507 OA
ATOM     25  H   UNL     1     -10.502 -17.850  -6.840  1.00  0.00     0.293 HD
ENDBRANCH   6  24
BRANCH   8  26
ATOM     26  O   UNL     1     -15.429 -19.759  -6.190  1.00  0.00    -0.508 OA
ATOM     27  H   UNL     1     -16.302 -20.006  -6.641  1.00  0.00     0.293 HD
ENDBRANCH   8  26
TORSDOF 6
ENDMDL
MODEL 6
REMARK VINA RESULT:    -6.718      1.808      2.865
REMARK INTER + INTRA:          -8.424
REMARK INTER:                  -8.140
REMARK INTRA:                  -0.284
REMARK UNBOUND:                -0.332
REMARK SMILES O=c1c(O)c(-c2ccc(O)c(O)c2)oc2cc(O)cc(O)c12
REMARK SMILES IDX 5 1 3 2 2 3 1 4 22 5 20 6 19 7 17 8 16 9 15 10 14 11 6 12
REMARK SMILES IDX 7 13 8 14 9 15 13 16 11 17 10 18 12 20 4 22 21 24 18 26
REMARK H PARENT 10 19 12 21 4 23 21 25 18 27
REMARK Flexibility Score: inf
ROOT
ATOM      1  C   UNL     1     -11.395 -10.893 -15.955  1.00  0.00     0.180 A 
ATOM      2  C   UNL     1     -10.581 -10.281 -16.928  1.00  0.00     0.208 A 
ATOM      3  C   UNL     1      -9.433 -10.955 -17.374  1.00  0.00     0.238 A 
ATOM      4  O   UNL     1      -8.690 -10.412 -18.237  1.00  0.00    -0.285 OA
ATOM      5  C   UNL     1      -9.130 -12.232 -16.859  1.00  0.00     0.111 A 
ATOM      6  C   UNL     1      -7.995 -12.979 -17.258  1.00  0.00     0.134 A 
ATOM      7  C   UNL     1      -7.768 -14.248 -16.705  1.00  0.00     0.093 A 
ATOM      8  C   UNL     1      -8.652 -14.782 -15.761  1.00  0.00     0.123 A 
ATOM      9  C   UNL     1      -9.772 -14.049 -15.364  1.00  0.00     0.094 A 
ATOM     10  C   UNL     1     -10.016 -12.782 -15.903  1.00  0.00     0.146 A 
ATOM     11  O   UNL     1     -11.086 -12.105 -15.503  1.00  0.00    -0.452 OA
ENDROOT
BRANCH   1  12
ATOM     12  C   UNL     1     -12.611 -10.238 -15.421  1.00  0.00     0.025 A 
ATOM     13  C   UNL     1     -13.875 -10.711 -15.806  1.00  0.00     0.016 A 
ATOM     14  C   UNL     1     -15.036 -10.122 -15.299  1.00  0.00     0.051 A 
ATOM     15  C   UNL     1     -14.948  -9.062 -14.387  1.00  0.00     0.157 A 
ATOM     16  C   UNL     1     -12.527  -9.187 -14.490  1.00  0.00     0.062 A 
ATOM     17  C   UNL     1     -13.693  -8.596 -13.979  1.00  0.00     0.158 A 
BRANCH  15  18
ATOM     18  O   UNL     1     -16.104  -8.470 -13.881  1.00  0.00    -0.504 OA
ATOM     19  H   UNL     1     -16.087  -7.549 -13.459  1.00  0.00     0.293 HD
ENDBRANCH  15  18
BRANCH  17  20
ATOM     20  O   UNL     1     -13.609  -7.550 -13.062  1.00  0.00    -0.504 OA
ATOM     21  H   UNL     1     -14.248  -6.763 -13.095  1.00  0.00     0.293 HD
ENDBRANCH  17  20
ENDBRANCH   1  12
BRANCH   2  22
ATOM     22  O   UNL     1     -10.930  -9.037 -17.459  1.00  0.00    -0.502 OA
ATOM     23  H   UNL     1     -10.446  -8.184 -17.208  1.00  0.00     0.293 HD
ENDBRANCH   2  22
BRANCH   6  24
ATOM     24  O   UNL     1      -7.096 -12.472 -18.197  1.00  0.00    -0.507 OA
ATOM     25  H   UNL     1      -7.245 -11.575 -18.647  1.00  0.00     0.293 HD
ENDBRANCH   6  24
BRANCH   8  26
ATOM     26  O   UNL     1      -8.427 -16.043 -15.212  1.00  0.00    -0.508 OA
ATOM     27  H   UNL     1      -7.533 -16.510 -15.306  1.00  0.00     0.293 HD
ENDBRANCH   8  26
TORSDOF 6
ENDMDL
MODEL 7
REMARK VINA RESULT:    -6.596      1.644      6.940
REMARK INTER + INTRA:          -8.278
REMARK INTER:                  -8.015
REMARK INTRA:                  -0.262
REMARK UNBOUND:                -0.332
REMARK SMILES O=c1c(O)c(-c2ccc(O)c(O)c2)oc2cc(O)cc(O)c12
REMARK SMILES IDX 5 1 3 2 2 3 1 4 22 5 20 6 19 7 17 8 16 9 15 10 14 11 6 12
REMARK SMILES IDX 7 13 8 14 9 15 13 16 11 17 10 18 12 20 4 22 21 24 18 26
REMARK H PARENT 10 19 12 21 4 23 21 25 18 27
REMARK Flexibility Score: inf
ROOT
ATOM      1  C   UNL     1     -13.156  -9.686 -16.412  1.00  0.00     0.180 A 
ATOM      2  C   UNL     1     -13.412  -9.422 -15.053  1.00  0.00     0.208 A 
ATOM      3  C   UNL     1     -14.665  -9.763 -14.520  1.00  0.00     0.238 A 
ATOM      4  O   UNL     1     -14.910  -9.521 -13.306  1.00  0.00    -0.285 OA
ATOM      5  C   UNL     1     -15.628 -10.380 -15.344  1.00  0.00     0.111 A 
ATOM      6  C   UNL     1     -16.913 -10.758 -14.884  1.00  0.00     0.134 A 
ATOM      7  C   UNL     1     -17.813 -11.377 -15.765  1.00  0.00     0.093 A 
ATOM      8  C   UNL     1     -17.454 -11.621 -17.095  1.00  0.00     0.123 A 
ATOM      9  C   UNL     1     -16.189 -11.249 -17.553  1.00  0.00     0.094 A 
ATOM     10  C   UNL     1     -15.278 -10.631 -16.691  1.00  0.00     0.146 A 
ATOM     11  O   UNL     1     -14.083 -10.283 -17.155  1.00  0.00    -0.452 OA
ENDROOT
BRANCH   1  12
ATOM     12  C   UNL     1     -11.867  -9.338 -17.052  1.00  0.00     0.025 A 
ATOM     13  C   UNL     1     -11.787  -8.199 -17.869  1.00  0.00     0.016 A 
ATOM     14  C   UNL     1     -10.576  -7.840 -18.466  1.00  0.00     0.051 A 
ATOM     15  C   UNL     1      -9.425  -8.604 -18.241  1.00  0.00     0.157 A 
ATOM     16  C   UNL     1     -10.703 -10.091 -16.812  1.00  0.00     0.062 A 
ATOM     17  C   UNL     1      -9.486  -9.729 -17.410  1.00  0.00     0.158 A 
BRANCH  15  18
ATOM     18  O   UNL     1      -8.215  -8.250 -18.837  1.00  0.00    -0.504 OA
ATOM     19  H   UNL     1      -8.047  -7.311 -19.179  1.00  0.00     0.293 HD
ENDBRANCH  15  18
BRANCH  17  20
ATOM     20  O   UNL     1      -8.336 -10.480 -17.178  1.00  0.00    -0.504 OA
ATOM     21  H   UNL     1      -7.710 -10.268 -16.408  1.00  0.00     0.293 HD
ENDBRANCH  17  20
ENDBRANCH   1  12
BRANCH   2  22
ATOM     22  O   UNL     1     -12.422  -8.856 -14.245  1.00  0.00    -0.502 OA
ATOM     23  H   UNL     1     -12.355  -7.857 -14.088  1.00  0.00     0.293 HD
ENDBRANCH   2  22
BRANCH   6  24
ATOM     24  O   UNL     1     -17.299 -10.527 -13.563  1.00  0.00    -0.507 OA
ATOM     25  H   UNL     1     -18.050 -11.052 -13.128  1.00  0.00     0.293 HD
ENDBRANCH   6  24
BRANCH   8  26
ATOM     26  O   UNL     1     -18.348 -12.235 -17.969  1.00  0.00    -0.508 OA
ATOM     27  H   UNL     1     -19.130 -12.782 -17.630  1.00  0.00     0.293 HD
ENDBRANCH   8  26
TORSDOF 6
ENDMDL
MODEL 8
REMARK VINA RESULT:    -6.120     12.741     14.162
REMARK INTER + INTRA:          -7.704
REMARK INTER:                  -7.399
REMARK INTRA:                  -0.305
REMARK UNBOUND:                -0.332
REMARK SMILES O=c1c(O)c(-c2ccc(O)c(O)c2)oc2cc(O)cc(O)c12
REMARK SMILES IDX 5 1 3 2 2 3 1 4 22 5 20 6 19 7 17 8 16 9 15 10 14 11 6 12
REMARK SMILES IDX 7 13 8 14 9 15 13 16 11 17 10 18 12 20 4 22 21 24 18 26
REMARK H PARENT 10 19 12 21 4 23 21 25 18 27
REMARK Flexibility Score: inf
ROOT
ATOM      1  C   UNL     1      -9.430 -19.916  -7.033  1.00  0.00     0.180 A 
ATOM      2  C   UNL     1      -8.835 -18.655  -7.232  1.00  0.00     0.208 A 
ATOM      3  C   UNL     1      -7.439 -18.542  -7.140  1.00  0.00     0.238 A 
ATOM      4  O   UNL     1      -6.895 -17.416  -7.305  1.00  0.00    -0.285 OA
ATOM      5  C   UNL     1      -6.663 -19.688  -6.872  1.00  0.00     0.111 A 
ATOM      6  C   UNL     1      -5.251 -19.660  -6.767  1.00  0.00     0.134 A 
ATOM      7  C   UNL     1      -4.549 -20.847  -6.508  1.00  0.00     0.093 A 
ATOM      8  C   UNL     1      -5.232 -22.058  -6.351  1.00  0.00     0.123 A 
ATOM      9  C   UNL     1      -6.624 -22.090  -6.453  1.00  0.00     0.094 A 
ATOM     10  C   UNL     1      -7.342 -20.918  -6.710  1.00  0.00     0.146 A 
ATOM     11  O   UNL     1      -8.665 -20.978  -6.797  1.00  0.00    -0.452 OA
ENDROOT
BRANCH   1  12
ATOM     12  C   UNL     1     -10.897 -20.112  -7.095  1.00  0.00     0.025 A 
ATOM     13  C   UNL     1     -11.517 -20.289  -8.342  1.00  0.00     0.016 A 
ATOM     14  C   UNL     1     -12.896 -20.496  -8.422  1.00  0.00     0.051 A 
ATOM     15  C   UNL     1     -13.672 -20.545  -7.258  1.00  0.00     0.157 A 
ATOM     16  C   UNL     1     -11.676 -20.182  -5.926  1.00  0.00     0.062 A 
ATOM     17  C   UNL     1     -13.061 -20.392  -6.007  1.00  0.00     0.158 A 
BRANCH  15  18
ATOM     18  O   UNL     1     -15.049 -20.750  -7.334  1.00  0.00    -0.504 OA
ATOM     19  H   UNL     1     -15.565 -20.572  -8.188  1.00  0.00     0.293 HD
ENDBRANCH  15  18
BRANCH  17  20
ATOM     20  O   UNL     1     -13.834 -20.455  -4.849  1.00  0.00    -0.504 OA
ATOM     21  H   UNL     1     -14.842 -20.344  -4.877  1.00  0.00     0.293 HD
ENDBRANCH  17  20
ENDBRANCH   1  12
BRANCH   2  22
ATOM     22  O   UNL     1      -9.623 -17.544  -7.545  1.00  0.00    -0.502 OA
ATOM     23  H   UNL     1      -9.780 -17.242  -8.499  1.00  0.00     0.293 HD
ENDBRANCH   2  22
BRANCH   6  24
ATOM     24  O   UNL     1      -4.543 -18.467  -6.918  1.00  0.00    -0.507 OA
ATOM     25  H   UNL     1      -4.886 -17.592  -6.537  1.00  0.00     0.293 HD
ENDBRANCH   6  24
BRANCH   8  26
ATOM     26  O   UNL     1      -4.535 -23.237  -6.094  1.00  0.00    -0.508 OA
ATOM     27  H   UNL     1      -3.934 -23.660  -6.792  1.00  0.00     0.293 HD
ENDBRANCH   8  26
TORSDOF 6
ENDMDL
MODEL 9
REMARK VINA RESULT:    -5.933      1.805      6.468
REMARK INTER + INTRA:          -7.479
REMARK INTER:                  -7.196
REMARK INTRA:                  -0.284
REMARK UNBOUND:                -0.332
REMARK SMILES O=c1c(O)c(-c2ccc(O)c(O)c2)oc2cc(O)cc(O)c12
REMARK SMILES IDX 5 1 3 2 2 3 1 4 22 5 20 6 19 7 17 8 16 9 15 10 14 11 6 12
REMARK SMILES IDX 7 13 8 14 9 15 13 16 11 17 10 18 12 20 4 22 21 24 18 26
REMARK H PARENT 10 19 12 21 4 23 21 25 18 27
REMARK Flexibility Score: inf
ROOT
ATOM      1  C   UNL     1     -11.291 -11.533 -16.488  1.00  0.00     0.180 A 
ATOM      2  C   UNL     1     -10.903 -10.456 -17.307  1.00  0.00     0.208 A 
ATOM      3  C   UNL     1     -11.648  -9.266 -17.263  1.00  0.00     0.238 A 
ATOM      4  O   UNL     1     -11.317  -8.299 -18.001  1.00  0.00    -0.285 OA
ATOM      5  C   UNL     1     -12.750  -9.167 -16.389  1.00  0.00     0.111 A 
ATOM      6  C   UNL     1     -13.550  -8.003 -16.281  1.00  0.00     0.134 A 
ATOM      7  C   UNL     1     -14.625  -7.979 -15.380  1.00  0.00     0.093 A 
ATOM      8  C   UNL     1     -14.915  -9.095 -14.587  1.00  0.00     0.123 A 
ATOM      9  C   UNL     1     -14.129 -10.244 -14.691  1.00  0.00     0.094 A 
ATOM     10  C   UNL     1     -13.054 -10.289 -15.584  1.00  0.00     0.146 A 
ATOM     11  O   UNL     1     -12.327 -11.397 -15.665  1.00  0.00    -0.452 OA
ENDROOT
BRANCH   1  12
ATOM     12  C   UNL     1     -10.568 -12.825 -16.493  1.00  0.00     0.025 A 
ATOM     13  C   UNL     1      -9.756 -13.165 -15.399  1.00  0.00     0.016 A 
ATOM     14  C   UNL     1      -9.081 -14.389 -15.373  1.00  0.00     0.051 A 
ATOM     15  C   UNL     1      -9.222 -15.295 -16.431  1.00  0.00     0.157 A 
ATOM     16  C   UNL     1     -10.723 -13.747 -17.544  1.00  0.00     0.062 A 
ATOM     17  C   UNL     1     -10.047 -14.976 -17.516  1.00  0.00     0.158 A 
BRANCH  15  18
ATOM     18  O   UNL     1      -8.548 -16.515 -16.410  1.00  0.00    -0.504 OA
ATOM     19  H   UNL     1      -9.045 -17.396 -16.458  1.00  0.00     0.293 HD
ENDBRANCH  15  18
BRANCH  17  20
ATOM     20  O   UNL     1     -10.195 -15.886 -18.562  1.00  0.00    -0.504 OA
ATOM     21  H   UNL     1     -10.875 -16.637 -18.519  1.00  0.00     0.293 HD
ENDBRANCH  17  20
ENDBRANCH   1  12
BRANCH   2  22
ATOM     22  O   UNL     1      -9.777 -10.563 -18.128  1.00  0.00    -0.502 OA
ATOM     23  H   UNL     1      -9.846 -10.691 -19.130  1.00  0.00     0.293 HD
ENDBRANCH   2  22
BRANCH   6  24
ATOM     24  O   UNL     1     -13.285  -6.875 -17.059  1.00  0.00    -0.507 OA
ATOM     25  H   UNL     1     -13.481  -6.856 -18.053  1.00  0.00     0.293 HD
ENDBRANCH   6  24
BRANCH   8  26
ATOM     26  O   UNL     1     -15.982  -9.071 -13.691  1.00  0.00    -0.508 OA
ATOM     27  H   UNL     1     -16.601  -8.272 -13.626  1.00  0.00     0.293 HD
ENDBRANCH   8  26
TORSDOF 6
ENDMDL
