MODEL 1
REMARK VINA RESULT:    -5.860      0.000      0.000
REMARK INTER + INTRA:          -9.002
REMARK INTER:                  -8.258
REMARK INTRA:                  -0.744
REMARK UNBOUND:                -0.744
REMARK SMILES COc1ccc(-c2cc(=O)c3c(OC)c(OC)c(OC)c(OC)c3o2)cc1OC
REMARK SMILES IDX 7 1 8 2 9 3 10 4 11 5 24 6 25 7 21 8 18 9 15 10 12 11 6 12
REMARK SMILES IDX 3 13 27 14 4 15 26 16 5 17 2 18 1 19 28 20 29 21 22 22 23 23
REMARK SMILES IDX 13 24 14 25 19 26 20 27 16 28 17 29
REMARK H PARENT
REMARK Flexibility Score: inf
ROOT
ATOM      1  C   UNL     1      27.991   2.040  22.138  1.00  0.00     0.138 A 
ATOM      2  C   UNL     1      28.648   0.854  22.484  1.00  0.00     0.100 A 
ATOM      3  C   UNL     1      28.931  -0.082  21.495  1.00  0.00     0.197 A 
ATOM      4  O   UNL     1      29.518  -1.150  21.822  1.00  0.00    -0.289 OA
ATOM      5  C   UNL     1      28.559   0.178  20.156  1.00  0.00     0.115 A 
ATOM      6  C   UNL     1      27.900   1.401  19.879  1.00  0.00     0.188 A 
ATOM      7  O   UNL     1      27.646   2.253  20.871  1.00  0.00    -0.452 OA
ATOM      8  C   UNL     1      27.508   1.710  18.556  1.00  0.00     0.209 A 
ATOM      9  C   UNL     1      27.776   0.809  17.515  1.00  0.00     0.211 A 
ATOM     10  C   UNL     1      28.464  -0.399  17.782  1.00  0.00     0.208 A 
ATOM     11  C   UNL     1      28.803  -0.738  19.109  1.00  0.00     0.179 A 
ENDROOT
BRANCH   1  12
ATOM     12  C   UNL     1      27.657   3.065  23.156  1.00  0.00     0.021 A 
ATOM     13  C   UNL     1      27.061   5.027  25.095  1.00  0.00     0.160 A 
ATOM     14  C   UNL     1      26.168   3.966  24.877  1.00  0.00     0.161 A 
ATOM     15  C   UNL     1      28.253   5.096  24.350  1.00  0.00     0.051 A 
ATOM     16  C   UNL     1      26.471   2.988  23.909  1.00  0.00     0.062 A 
ATOM     17  C   UNL     1      28.546   4.122  23.395  1.00  0.00     0.016 A 
BRANCH  13  18
ATOM     18  O   UNL     1      26.730   5.990  26.061  1.00  0.00    -0.493 OA
ATOM     19  C   UNL     1      27.659   6.568  26.974  1.00  0.00     0.278 C 
ENDBRANCH  13  18
BRANCH  14  20
ATOM     20  O   UNL     1      24.992   3.919  25.642  1.00  0.00    -0.493 OA
ATOM     21  C   UNL     1      24.142   2.782  25.749  1.00  0.00     0.278 C 
ENDBRANCH  14  20
ENDBRANCH   1  12
BRANCH   8  22
ATOM     22  O   UNL     1      26.860   2.908  18.194  1.00  0.00    -0.490 OA
ATOM     23  C   UNL     1      25.461   3.166  18.232  1.00  0.00     0.278 C 
ENDBRANCH   8  22
BRANCH  11  24
ATOM     24  O   UNL     1      29.366  -1.987  19.392  1.00  0.00    -0.492 OA
ATOM     25  C   UNL     1      28.602  -3.187  19.353  1.00  0.00     0.278 C 
ENDBRANCH  11  24
BRANCH   9  26
ATOM     26  O   UNL     1      27.339   1.187  16.229  1.00  0.00    -0.490 OA
ATOM     27  C   UNL     1      26.220   0.663  15.520  1.00  0.00     0.279 C 
ENDBRANCH   9  26
BRANCH  10  28
ATOM     28  O   UNL     1      28.810  -1.254  16.730  1.00  0.00    -0.490 OA
ATOM     29  C   UNL     1      30.004  -1.095  15.967  1.00  0.00     0.278 C 
ENDBRANCH  10  28
TORSDOF 7
ENDMDL
MODEL 2
REMARK VINA RESULT:    -5.487      2.028      4.075
REMARK INTER + INTRA:          -8.476
REMARK INTER:                  -7.876
REMARK INTRA:                  -0.601
REMARK UNBOUND:                -0.744
REMARK SMILES COc1ccc(-c2cc(=O)c3c(OC)c(OC)c(OC)c(OC)c3o2)cc1OC
REMARK SMILES IDX 7 1 8 2 9 3 10 4 11 5 24 6 25 7 21 8 18 9 15 10 12 11 6 12
REMARK SMILES IDX 3 13 27 14 4 15 26 16 5 17 2 18 1 19 28 20 29 21 22 22 23 23
REMARK SMILES IDX 13 24 14 25 19 26 20 27 16 28 17 29
REMARK H PARENT
REMARK Flexibility Score: inf
ROOT
ATOM      1  C   UNL     1      28.485   2.570  22.606  1.00  0.00     0.138 A 
ATOM      2  C   UNL     1      28.548   2.866  21.239  1.00  0.00     0.100 A 
ATOM      3  C   UNL     1      28.858   1.854  20.337  1.00  0.00     0.197 A 
ATOM      4  O   UNL     1      28.917   2.135  19.108  1.00  0.00    -0.289 OA
ATOM      5  C   UNL     1      29.099   0.544  20.808  1.00  0.00     0.115 A 
ATOM      6  C   UNL     1      29.016   0.318  22.204  1.00  0.00     0.188 A 
ATOM      7  O   UNL     1      28.726   1.329  23.020  1.00  0.00    -0.452 OA
ATOM      8  C   UNL     1      29.248  -0.976  22.727  1.00  0.00     0.209 A 
ATOM      9  C   UNL     1      29.555  -2.038  21.864  1.00  0.00     0.211 A 
ATOM     10  C   UNL     1      29.607  -1.824  20.466  1.00  0.00     0.208 A 
ATOM     11  C   UNL     1      29.436  -0.524  19.947  1.00  0.00     0.179 A 
ENDROOT
BRANCH   1  12
ATOM     12  C   UNL     1      28.168   3.615  23.609  1.00  0.00     0.021 A 
ATOM     13  C   UNL     1      27.606   5.611  25.524  1.00  0.00     0.160 A 
ATOM     14  C   UNL     1      26.607   4.698  25.151  1.00  0.00     0.161 A 
ATOM     15  C   UNL     1      28.885   5.515  24.944  1.00  0.00     0.051 A 
ATOM     16  C   UNL     1      26.892   3.703  24.196  1.00  0.00     0.062 A 
ATOM     17  C   UNL     1      29.161   4.525  24.001  1.00  0.00     0.016 A 
BRANCH  13  18
ATOM     18  O   UNL     1      27.291   6.595  26.473  1.00  0.00    -0.493 OA
ATOM     19  C   UNL     1      28.121   6.947  27.576  1.00  0.00     0.278 C 
ENDBRANCH  13  18
BRANCH  14  20
ATOM     20  O   UNL     1      25.344   4.813  25.754  1.00  0.00    -0.493 OA
ATOM     21  C   UNL     1      24.352   3.791  25.755  1.00  0.00     0.278 C 
ENDBRANCH  14  20
ENDBRANCH   1  12
BRANCH   8  22
ATOM     22  O   UNL     1      29.172  -1.287  24.100  1.00  0.00    -0.490 OA
ATOM     23  C   UNL     1      30.256  -1.349  25.021  1.00  0.00     0.278 C 
ENDBRANCH   8  22
BRANCH  11  24
ATOM     24  O   UNL     1      29.614  -0.286  18.580  1.00  0.00    -0.492 OA
ATOM     25  C   UNL     1      30.897  -0.334  17.965  1.00  0.00     0.278 C 
ENDBRANCH  11  24
BRANCH   9  26
ATOM     26  O   UNL     1      29.786  -3.291  22.469  1.00  0.00    -0.490 OA
ATOM     27  C   UNL     1      31.049  -3.914  22.686  1.00  0.00     0.279 C 
ENDBRANCH   9  26
BRANCH  10  28
ATOM     28  O   UNL     1      29.824  -2.902  19.601  1.00  0.00    -0.490 OA
ATOM     29  C   UNL     1      28.792  -3.811  19.227  1.00  0.00     0.278 C 
ENDBRANCH  10  28
TORSDOF 7
ENDMDL
MODEL 3
REMARK VINA RESULT:    -5.445      0.833      1.900
REMARK INTER + INTRA:          -8.417
REMARK INTER:                  -7.764
REMARK INTRA:                  -0.652
REMARK UNBOUND:                -0.744
REMARK SMILES COc1ccc(-c2cc(=O)c3c(OC)c(OC)c(OC)c(OC)c3o2)cc1OC
REMARK SMILES IDX 7 1 8 2 9 3 10 4 11 5 24 6 25 7 21 8 18 9 15 10 12 11 6 12
REMARK SMILES IDX 3 13 27 14 4 15 26 16 5 17 2 18 1 19 28 20 29 21 22 22 23 23
REMARK SMILES IDX 13 24 14 25 19 26 20 27 16 28 17 29
REMARK H PARENT
REMARK Flexibility Score: inf
ROOT
ATOM      1  C   UNL     1      28.200   2.049  22.085  1.00  0.00     0.138 A 
ATOM      2  C   UNL     1      28.862   0.871  22.449  1.00  0.00     0.100 A 
ATOM      3  C   UNL     1      29.106  -0.100  21.483  1.00  0.00     0.197 A 
ATOM      4  O   UNL     1      29.699  -1.159  21.826  1.00  0.00    -0.289 OA
ATOM      5  C   UNL     1      28.689   0.117  20.150  1.00  0.00     0.115 A 
ATOM      6  C   UNL     1      28.026   1.333  19.854  1.00  0.00     0.188 A 
ATOM      7  O   UNL     1      27.811   2.220  20.824  1.00  0.00    -0.452 OA
ATOM      8  C   UNL     1      27.590   1.599  18.535  1.00  0.00     0.209 A 
ATOM      9  C   UNL     1      27.818   0.661  17.517  1.00  0.00     0.211 A 
ATOM     10  C   UNL     1      28.508  -0.541  17.802  1.00  0.00     0.208 A 
ATOM     11  C   UNL     1      28.891  -0.836  19.126  1.00  0.00     0.179 A 
ENDROOT
BRANCH   1  12
ATOM     12  C   UNL     1      27.907   3.109  23.079  1.00  0.00     0.021 A 
ATOM     13  C   UNL     1      27.315   5.107  24.982  1.00  0.00     0.160 A 
ATOM     14  C   UNL     1      28.208   5.382  23.934  1.00  0.00     0.161 A 
ATOM     15  C   UNL     1      26.716   3.837  25.067  1.00  0.00     0.051 A 
ATOM     16  C   UNL     1      28.499   4.382  22.985  1.00  0.00     0.062 A 
ATOM     17  C   UNL     1      27.007   2.853  24.122  1.00  0.00     0.016 A 
BRANCH  13  18
ATOM     18  O   UNL     1      27.050   6.121  25.916  1.00  0.00    -0.493 OA
ATOM     19  C   UNL     1      27.881   6.428  27.031  1.00  0.00     0.278 C 
ENDBRANCH  13  18
BRANCH  14  20
ATOM     20  O   UNL     1      28.783   6.662  23.870  1.00  0.00    -0.493 OA
ATOM     21  C   UNL     1      29.256   7.277  22.676  1.00  0.00     0.278 C 
ENDBRANCH  14  20
ENDBRANCH   1  12
BRANCH   8  22
ATOM     22  O   UNL     1      26.936   2.789  18.155  1.00  0.00    -0.490 OA
ATOM     23  C   UNL     1      25.543   3.063  18.250  1.00  0.00     0.278 C 
ENDBRANCH   8  22
BRANCH  11  24
ATOM     24  O   UNL     1      29.458  -2.078  19.433  1.00  0.00    -0.492 OA
ATOM     25  C   UNL     1      28.700  -3.283  19.403  1.00  0.00     0.278 C 
ENDBRANCH  11  24
BRANCH   9  26
ATOM     26  O   UNL     1      27.337   0.998  16.235  1.00  0.00    -0.490 OA
ATOM     27  C   UNL     1      26.169   0.487  15.600  1.00  0.00     0.279 C 
ENDBRANCH   9  26
BRANCH  10  28
ATOM     28  O   UNL     1      28.813  -1.433  16.768  1.00  0.00    -0.490 OA
ATOM     29  C   UNL     1      29.887  -1.219  15.855  1.00  0.00     0.278 C 
ENDBRANCH  10  28
TORSDOF 7
ENDMDL
MODEL 4
REMARK VINA RESULT:    -5.306      1.938      8.266
REMARK INTER + INTRA:          -8.220
REMARK INTER:                  -7.674
REMARK INTRA:                  -0.547
REMARK UNBOUND:                -0.744
REMARK SMILES COc1ccc(-c2cc(=O)c3c(OC)c(OC)c(OC)c(OC)c3o2)cc1OC
REMARK SMILES IDX 7 1 8 2 9 3 10 4 11 5 24 6 25 7 21 8 18 9 15 10 12 11 6 12
REMARK SMILES IDX 3 13 27 14 4 15 26 16 5 17 2 18 1 19 28 20 29 21 22 22 23 23
REMARK SMILES IDX 13 24 14 25 19 26 20 27 16 28 17 29
REMARK H PARENT
REMARK Flexibility Score: inf
ROOT
ATOM      1  C   UNL     1      28.167   1.732  21.481  1.00  0.00     0.138 A 
ATOM      2  C   UNL     1      27.133   1.353  22.345  1.00  0.00     0.100 A 
ATOM      3  C   UNL     1      26.812   2.171  23.423  1.00  0.00     0.197 A 
ATOM      4  O   UNL     1      25.881   1.816  24.197  1.00  0.00    -0.289 OA
ATOM      5  C   UNL     1      27.526   3.373  23.628  1.00  0.00     0.115 A 
ATOM      6  C   UNL     1      28.558   3.694  22.712  1.00  0.00     0.188 A 
ATOM      7  O   UNL     1      28.828   2.864  21.706  1.00  0.00    -0.452 OA
ATOM      8  C   UNL     1      29.303   4.885  22.873  1.00  0.00     0.209 A 
ATOM      9  C   UNL     1      29.017   5.755  23.936  1.00  0.00     0.211 A 
ATOM     10  C   UNL     1      27.965   5.455  24.834  1.00  0.00     0.208 A 
ATOM     11  C   UNL     1      27.261   4.239  24.712  1.00  0.00     0.179 A 
ENDROOT
BRANCH   1  12
ATOM     12  C   UNL     1      28.555   0.889  20.324  1.00  0.00     0.021 A 
ATOM     13  C   UNL     1      29.304  -0.680  18.101  1.00  0.00     0.160 A 
ATOM     14  C   UNL     1      28.514  -1.240  19.118  1.00  0.00     0.161 A 
ATOM     15  C   UNL     1      29.707   0.665  18.196  1.00  0.00     0.051 A 
ATOM     16  C   UNL     1      28.141  -0.452  20.225  1.00  0.00     0.062 A 
ATOM     17  C   UNL     1      29.332   1.439  19.295  1.00  0.00     0.016 A 
BRANCH  13  18
ATOM     18  O   UNL     1      29.664  -1.490  17.014  1.00  0.00    -0.493 OA
ATOM     19  C   UNL     1      29.754  -1.038  15.666  1.00  0.00     0.278 C 
ENDBRANCH  13  18
BRANCH  14  20
ATOM     20  O   UNL     1      28.119  -2.581  18.990  1.00  0.00    -0.493 OA
ATOM     21  C   UNL     1      28.877  -3.695  19.451  1.00  0.00     0.278 C 
ENDBRANCH  14  20
ENDBRANCH   1  12
BRANCH   8  22
ATOM     22  O   UNL     1      30.336   5.283  22.000  1.00  0.00    -0.490 OA
ATOM     23  C   UNL     1      30.184   5.924  20.738  1.00  0.00     0.278 C 
ENDBRANCH   8  22
BRANCH  11  24
ATOM     24  O   UNL     1      26.309   3.881  25.673  1.00  0.00    -0.492 OA
ATOM     25  C   UNL     1      25.022   4.487  25.726  1.00  0.00     0.278 C 
ENDBRANCH  11  24
BRANCH   9  26
ATOM     26  O   UNL     1      29.816   6.913  24.031  1.00  0.00    -0.490 OA
ATOM     27  C   UNL     1      30.958   7.095  24.863  1.00  0.00     0.279 C 
ENDBRANCH   9  26
BRANCH  10  28
ATOM     28  O   UNL     1      27.622   6.367  25.838  1.00  0.00    -0.490 OA
ATOM     29  C   UNL     1      28.214   6.346  27.135  1.00  0.00     0.278 C 
ENDBRANCH  10  28
TORSDOF 7
ENDMDL
MODEL 5
REMARK VINA RESULT:    -5.152      2.754      5.609
REMARK INTER + INTRA:          -8.004
REMARK INTER:                  -7.333
REMARK INTRA:                  -0.670
REMARK UNBOUND:                -0.744
REMARK SMILES COc1ccc(-c2cc(=O)c3c(OC)c(OC)c(OC)c(OC)c3o2)cc1OC
REMARK SMILES IDX 7 1 8 2 9 3 10 4 11 5 24 6 25 7 21 8 18 9 15 10 12 11 6 12
REMARK SMILES IDX 3 13 27 14 4 15 26 16 5 17 2 18 1 19 28 20 29 21 22 22 23 23
REMARK SMILES IDX 13 24 14 25 19 26 20 27 16 28 17 29
REMARK H PARENT
REMARK Flexibility Score: inf
ROOT
ATOM      1  C   UNL     1      29.305   5.709  24.794  1.00  0.00     0.138 A 
ATOM      2  C   UNL     1      29.867   6.344  23.681  1.00  0.00     0.100 A 
ATOM      3  C   UNL     1      29.710   5.777  22.421  1.00  0.00     0.197 A 
ATOM      4  O   UNL     1      30.225   6.357  21.427  1.00  0.00    -0.289 OA
ATOM      5  C   UNL     1      28.982   4.573  22.280  1.00  0.00     0.115 A 
ATOM      6  C   UNL     1      28.440   3.987  23.450  1.00  0.00     0.188 A 
ATOM      7  O   UNL     1      28.634   4.571  24.631  1.00  0.00    -0.452 OA
ATOM      8  C   UNL     1      27.704   2.782  23.363  1.00  0.00     0.209 A 
ATOM      9  C   UNL     1      27.504   2.170  22.117  1.00  0.00     0.211 A 
ATOM     10  C   UNL     1      28.016   2.769  20.942  1.00  0.00     0.208 A 
ATOM     11  C   UNL     1      28.801   3.937  21.032  1.00  0.00     0.179 A 
ENDROOT
BRANCH   1  12
ATOM     12  C   UNL     1      29.453   6.267  26.160  1.00  0.00     0.021 A 
ATOM     13  C   UNL     1      29.773   7.315  28.761  1.00  0.00     0.160 A 
ATOM     14  C   UNL     1      28.488   7.195  28.209  1.00  0.00     0.161 A 
ATOM     15  C   UNL     1      30.890   6.902  28.013  1.00  0.00     0.051 A 
ATOM     16  C   UNL     1      28.332   6.669  26.910  1.00  0.00     0.062 A 
ATOM     17  C   UNL     1      30.729   6.381  26.729  1.00  0.00     0.016 A 
BRANCH  13  18
ATOM     18  O   UNL     1      29.896   7.848  30.053  1.00  0.00    -0.493 OA
ATOM     19  C   UNL     1      30.419   7.137  31.171  1.00  0.00     0.278 C 
ENDBRANCH  13  18
BRANCH  14  20
ATOM     20  O   UNL     1      27.390   7.607  28.982  1.00  0.00    -0.493 OA
ATOM     21  C   UNL     1      26.961   8.957  29.124  1.00  0.00     0.278 C 
ENDBRANCH  14  20
ENDBRANCH   1  12
BRANCH   8  22
ATOM     22  O   UNL     1      27.121   2.143  24.476  1.00  0.00    -0.490 OA
ATOM     23  C   UNL     1      25.890   2.481  25.105  1.00  0.00     0.278 C 
ENDBRANCH   8  22
BRANCH  11  24
ATOM     24  O   UNL     1      29.415   4.459  19.888  1.00  0.00    -0.492 OA
ATOM     25  C   UNL     1      30.541   3.833  19.282  1.00  0.00     0.278 C 
ENDBRANCH  11  24
BRANCH   9  26
ATOM     26  O   UNL     1      26.772   0.965  22.122  1.00  0.00    -0.490 OA
ATOM     27  C   UNL     1      27.298  -0.354  22.010  1.00  0.00     0.279 C 
ENDBRANCH   9  26
BRANCH  10  28
ATOM     28  O   UNL     1      27.738   2.204  19.692  1.00  0.00    -0.490 OA
ATOM     29  C   UNL     1      26.559   2.508  18.953  1.00  0.00     0.278 C 
ENDBRANCH  10  28
TORSDOF 7
ENDMDL
MODEL 6
REMARK VINA RESULT:    -5.151      9.276     13.060
REMARK INTER + INTRA:          -8.003
REMARK INTER:                  -7.469
REMARK INTRA:                  -0.534
REMARK UNBOUND:                -0.744
REMARK SMILES COc1ccc(-c2cc(=O)c3c(OC)c(OC)c(OC)c(OC)c3o2)cc1OC
REMARK SMILES IDX 7 1 8 2 9 3 10 4 11 5 24 6 25 7 21 8 18 9 15 10 12 11 6 12
REMARK SMILES IDX 3 13 27 14 4 15 26 16 5 17 2 18 1 19 28 20 29 21 22 22 23 23
REMARK SMILES IDX 13 24 14 25 19 26 20 27 16 28 17 29
REMARK H PARENT
REMARK Flexibility Score: inf
ROOT
ATOM      1  C   UNL     1      25.519   7.990  29.812  1.00  0.00     0.138 A 
ATOM      2  C   UNL     1      25.477   7.871  31.206  1.00  0.00     0.100 A 
ATOM      3  C   UNL     1      24.244   7.830  31.850  1.00  0.00     0.197 A 
ATOM      4  O   UNL     1      24.221   7.727  33.107  1.00  0.00    -0.289 OA
ATOM      5  C   UNL     1      23.055   7.903  31.091  1.00  0.00     0.115 A 
ATOM      6  C   UNL     1      23.174   8.021  29.684  1.00  0.00     0.188 A 
ATOM      7  O   UNL     1      24.382   8.067  29.126  1.00  0.00    -0.452 OA
ATOM      8  C   UNL     1      22.013   8.098  28.879  1.00  0.00     0.209 A 
ATOM      9  C   UNL     1      20.743   8.051  29.472  1.00  0.00     0.211 A 
ATOM     10  C   UNL     1      20.619   7.901  30.873  1.00  0.00     0.208 A 
ATOM     11  C   UNL     1      21.773   7.885  31.684  1.00  0.00     0.179 A 
ENDROOT
BRANCH   1  12
ATOM     12  C   UNL     1      26.807   8.049  29.080  1.00  0.00     0.021 A 
ATOM     13  C   UNL     1      29.251   8.122  27.671  1.00  0.00     0.160 A 
ATOM     14  C   UNL     1      29.024   9.023  28.723  1.00  0.00     0.161 A 
ATOM     15  C   UNL     1      28.259   7.183  27.335  1.00  0.00     0.051 A 
ATOM     16  C   UNL     1      27.802   8.982  29.425  1.00  0.00     0.062 A 
ATOM     17  C   UNL     1      27.053   7.146  28.036  1.00  0.00     0.016 A 
BRANCH  13  18
ATOM     18  O   UNL     1      30.474   8.191  26.986  1.00  0.00    -0.493 OA
ATOM     19  C   UNL     1      30.805   7.405  25.845  1.00  0.00     0.278 C 
ENDBRANCH  13  18
BRANCH  14  20
ATOM     20  O   UNL     1      30.036   9.942  29.042  1.00  0.00    -0.493 OA
ATOM     21  C   UNL     1      30.637  10.071  30.327  1.00  0.00     0.278 C 
ENDBRANCH  14  20
ENDBRANCH   1  12
BRANCH   8  22
ATOM     22  O   UNL     1      22.045   8.202  27.474  1.00  0.00    -0.490 OA
ATOM     23  C   UNL     1      22.156   9.399  26.711  1.00  0.00     0.278 C 
ENDBRANCH   8  22
BRANCH  11  24
ATOM     24  O   UNL     1      21.650   7.866  33.078  1.00  0.00    -0.492 OA
ATOM     25  C   UNL     1      21.334   6.676  33.793  1.00  0.00     0.278 C 
ENDBRANCH  11  24
BRANCH   9  26
ATOM     26  O   UNL     1      19.640   8.148  28.599  1.00  0.00    -0.490 OA
ATOM     27  C   UNL     1      18.858   9.310  28.337  1.00  0.00     0.279 C 
ENDBRANCH   9  26
BRANCH  10  28
ATOM     28  O   UNL     1      19.353   7.763  31.452  1.00  0.00    -0.490 OA
ATOM     29  C   UNL     1      18.575   6.574  31.336  1.00  0.00     0.278 C 
ENDBRANCH  10  28
TORSDOF 7
ENDMDL
MODEL 7
REMARK VINA RESULT:    -5.135      1.906      8.462
REMARK INTER + INTRA:          -7.980
REMARK INTER:                  -7.419
REMARK INTRA:                  -0.562
REMARK UNBOUND:                -0.744
REMARK SMILES COc1ccc(-c2cc(=O)c3c(OC)c(OC)c(OC)c(OC)c3o2)cc1OC
REMARK SMILES IDX 7 1 8 2 9 3 10 4 11 5 24 6 25 7 21 8 18 9 15 10 12 11 6 12
REMARK SMILES IDX 3 13 27 14 4 15 26 16 5 17 2 18 1 19 28 20 29 21 22 22 23 23
REMARK SMILES IDX 13 24 14 25 19 26 20 27 16 28 17 29
REMARK H PARENT
REMARK Flexibility Score: inf
ROOT
ATOM      1  C   UNL     1      27.578   1.737  22.746  1.00  0.00     0.138 A 
ATOM      2  C   UNL     1      26.384   1.865  23.464  1.00  0.00     0.100 A 
ATOM      3  C   UNL     1      26.244   2.908  24.374  1.00  0.00     0.197 A 
ATOM      4  O   UNL     1      25.164   3.009  25.018  1.00  0.00    -0.289 OA
ATOM      5  C   UNL     1      27.303   3.825  24.558  1.00  0.00     0.115 A 
ATOM      6  C   UNL     1      28.482   3.635  23.796  1.00  0.00     0.188 A 
ATOM      7  O   UNL     1      28.561   2.611  22.948  1.00  0.00    -0.452 OA
ATOM      8  C   UNL     1      29.571   4.526  23.942  1.00  0.00     0.209 A 
ATOM      9  C   UNL     1      29.483   5.602  24.837  1.00  0.00     0.211 A 
ATOM     10  C   UNL     1      28.296   5.814  25.576  1.00  0.00     0.208 A 
ATOM     11  C   UNL     1      27.231   4.895  25.478  1.00  0.00     0.179 A 
ENDROOT
BRANCH   1  12
ATOM     12  C   UNL     1      27.781   0.638  21.773  1.00  0.00     0.021 A 
ATOM     13  C   UNL     1      28.200  -1.468  19.941  1.00  0.00     0.160 A 
ATOM     14  C   UNL     1      27.371  -0.390  19.590  1.00  0.00     0.161 A 
ATOM     15  C   UNL     1      28.823  -1.482  21.202  1.00  0.00     0.051 A 
ATOM     16  C   UNL     1      27.166   0.660  20.507  1.00  0.00     0.062 A 
ATOM     17  C   UNL     1      28.617  -0.438  22.104  1.00  0.00     0.016 A 
BRANCH  13  18
ATOM     18  O   UNL     1      28.380  -2.501  19.009  1.00  0.00    -0.493 OA
ATOM     19  C   UNL     1      29.004  -3.749  19.300  1.00  0.00     0.278 C 
ENDBRANCH  13  18
BRANCH  14  20
ATOM     20  O   UNL     1      26.771  -0.399  18.320  1.00  0.00    -0.493 OA
ATOM     21  C   UNL     1      27.264   0.310  17.188  1.00  0.00     0.278 C 
ENDBRANCH  14  20
ENDBRANCH   1  12
BRANCH   8  22
ATOM     22  O   UNL     1      30.772   4.415  23.212  1.00  0.00    -0.490 OA
ATOM     23  C   UNL     1      30.984   4.795  21.857  1.00  0.00     0.278 C 
ENDBRANCH   8  22
BRANCH  11  24
ATOM     24  O   UNL     1      26.109   5.030  26.302  1.00  0.00    -0.492 OA
ATOM     25  C   UNL     1      25.107   6.013  26.060  1.00  0.00     0.278 C 
ENDBRANCH  11  24
BRANCH   9  26
ATOM     26  O   UNL     1      30.619   6.433  24.932  1.00  0.00    -0.490 OA
ATOM     27  C   UNL     1      30.822   7.679  24.274  1.00  0.00     0.279 C 
ENDBRANCH   9  26
BRANCH  10  28
ATOM     28  O   UNL     1      28.177   6.939  26.400  1.00  0.00    -0.490 OA
ATOM     29  C   UNL     1      28.450   6.905  27.798  1.00  0.00     0.278 C 
ENDBRANCH  10  28
TORSDOF 7
ENDMDL
MODEL 8
REMARK VINA RESULT:    -5.084      3.249      6.488
REMARK INTER + INTRA:          -7.908
REMARK INTER:                  -7.280
REMARK INTRA:                  -0.628
REMARK UNBOUND:                -0.744
REMARK SMILES COc1ccc(-c2cc(=O)c3c(OC)c(OC)c(OC)c(OC)c3o2)cc1OC
REMARK SMILES IDX 7 1 8 2 9 3 10 4 11 5 24 6 25 7 21 8 18 9 15 10 12 11 6 12
REMARK SMILES IDX 3 13 27 14 4 15 26 16 5 17 2 18 1 19 28 20 29 21 22 22 23 23
REMARK SMILES IDX 13 24 14 25 19 26 20 27 16 28 17 29
REMARK H PARENT
REMARK Flexibility Score: inf
ROOT
ATOM      1  C   UNL     1      29.115   6.284  26.231  1.00  0.00     0.138 A 
ATOM      2  C   UNL     1      30.089   6.773  25.353  1.00  0.00     0.100 A 
ATOM      3  C   UNL     1      30.222   6.199  24.093  1.00  0.00     0.197 A 
ATOM      4  O   UNL     1      31.107   6.646  23.313  1.00  0.00    -0.289 OA
ATOM      5  C   UNL     1      29.371   5.136  23.714  1.00  0.00     0.115 A 
ATOM      6  C   UNL     1      28.407   4.694  24.653  1.00  0.00     0.188 A 
ATOM      7  O   UNL     1      28.336   5.276  25.849  1.00  0.00    -0.452 OA
ATOM      8  C   UNL     1      27.531   3.633  24.324  1.00  0.00     0.209 A 
ATOM      9  C   UNL     1      27.611   3.022  23.063  1.00  0.00     0.211 A 
ATOM     10  C   UNL     1      28.550   3.482  22.111  1.00  0.00     0.208 A 
ATOM     11  C   UNL     1      29.465   4.498  22.457  1.00  0.00     0.179 A 
ENDROOT
BRANCH   1  12
ATOM     12  C   UNL     1      28.941   6.855  27.588  1.00  0.00     0.021 A 
ATOM     13  C   UNL     1      28.642   7.921  30.184  1.00  0.00     0.160 A 
ATOM     14  C   UNL     1      27.577   7.990  29.273  1.00  0.00     0.161 A 
ATOM     15  C   UNL     1      29.849   7.311  29.795  1.00  0.00     0.051 A 
ATOM     16  C   UNL     1      27.729   7.455  27.978  1.00  0.00     0.062 A 
ATOM     17  C   UNL     1      29.992   6.781  28.512  1.00  0.00     0.016 A 
BRANCH  13  18
ATOM     18  O   UNL     1      28.462   8.468  31.464  1.00  0.00    -0.493 OA
ATOM     19  C   UNL     1      28.494   7.716  32.673  1.00  0.00     0.278 C 
ENDBRANCH  13  18
BRANCH  14  20
ATOM     20  O   UNL     1      26.381   8.596  29.693  1.00  0.00    -0.493 OA
ATOM     21  C   UNL     1      25.138   7.917  29.839  1.00  0.00     0.278 C 
ENDBRANCH  14  20
ENDBRANCH   1  12
BRANCH   8  22
ATOM     22  O   UNL     1      26.537   3.144  25.195  1.00  0.00    -0.490 OA
ATOM     23  C   UNL     1      25.215   3.648  25.348  1.00  0.00     0.278 C 
ENDBRANCH   8  22
BRANCH  11  24
ATOM     24  O   UNL     1      30.477   4.865  21.564  1.00  0.00    -0.492 OA
ATOM     25  C   UNL     1      30.203   5.585  20.366  1.00  0.00     0.278 C 
ENDBRANCH  11  24
BRANCH   9  26
ATOM     26  O   UNL     1      26.711   1.964  22.822  1.00  0.00    -0.490 OA
ATOM     27  C   UNL     1      26.992   0.570  22.901  1.00  0.00     0.279 C 
ENDBRANCH   9  26
BRANCH  10  28
ATOM     28  O   UNL     1      28.567   2.932  20.824  1.00  0.00    -0.490 OA
ATOM     29  C   UNL     1      29.401   1.834  20.465  1.00  0.00     0.278 C 
ENDBRANCH  10  28
TORSDOF 7
ENDMDL
MODEL 9
REMARK VINA RESULT:    -5.045      1.812      3.770
REMARK INTER + INTRA:          -7.853
REMARK INTER:                  -7.113
REMARK INTRA:                  -0.740
REMARK UNBOUND:                -0.744
REMARK SMILES COc1ccc(-c2cc(=O)c3c(OC)c(OC)c(OC)c(OC)c3o2)cc1OC
REMARK SMILES IDX 7 1 8 2 9 3 10 4 11 5 24 6 25 7 21 8 18 9 15 10 12 11 6 12
REMARK SMILES IDX 3 13 27 14 4 15 26 16 5 17 2 18 1 19 28 20 29 21 22 22 23 23
REMARK SMILES IDX 13 24 14 25 19 26 20 27 16 28 17 29
REMARK H PARENT
REMARK Flexibility Score: inf
ROOT
ATOM      1  C   UNL     1      28.930   3.782  21.993  1.00  0.00     0.138 A 
ATOM      2  C   UNL     1      28.893   4.420  20.748  1.00  0.00     0.100 A 
ATOM      3  C   UNL     1      28.758   3.655  19.594  1.00  0.00     0.197 A 
ATOM      4  O   UNL     1      28.731   4.243  18.478  1.00  0.00    -0.289 OA
ATOM      5  C   UNL     1      28.654   2.249  19.693  1.00  0.00     0.115 A 
ATOM      6  C   UNL     1      28.697   1.673  20.986  1.00  0.00     0.188 A 
ATOM      7  O   UNL     1      28.840   2.456  22.053  1.00  0.00    -0.452 OA
ATOM      8  C   UNL     1      28.597   0.270  21.140  1.00  0.00     0.209 A 
ATOM      9  C   UNL     1      28.449  -0.551  20.012  1.00  0.00     0.211 A 
ATOM     10  C   UNL     1      28.373   0.023  18.722  1.00  0.00     0.208 A 
ATOM     11  C   UNL     1      28.533   1.415  18.560  1.00  0.00     0.179 A 
ENDROOT
BRANCH   1  12
ATOM     12  C   UNL     1      29.083   4.552  23.251  1.00  0.00     0.021 A 
ATOM     13  C   UNL     1      29.414   6.005  25.647  1.00  0.00     0.160 A 
ATOM     14  C   UNL     1      28.126   5.651  25.217  1.00  0.00     0.161 A 
ATOM     15  C   UNL     1      30.531   5.623  24.882  1.00  0.00     0.051 A 
ATOM     16  C   UNL     1      27.965   4.923  24.021  1.00  0.00     0.062 A 
ATOM     17  C   UNL     1      30.364   4.901  23.700  1.00  0.00     0.016 A 
BRANCH  13  18
ATOM     18  O   UNL     1      29.542   6.735  26.839  1.00  0.00    -0.493 OA
ATOM     19  C   UNL     1      30.700   6.726  27.669  1.00  0.00     0.278 C 
ENDBRANCH  13  18
BRANCH  14  20
ATOM     20  O   UNL     1      27.031   6.038  26.007  1.00  0.00    -0.493 OA
ATOM     21  C   UNL     1      25.677   5.685  25.742  1.00  0.00     0.278 C 
ENDBRANCH  14  20
ENDBRANCH   1  12
BRANCH   8  22
ATOM     22  O   UNL     1      28.618  -0.381  22.390  1.00  0.00    -0.490 OA
ATOM     23  C   UNL     1      29.771  -0.781  23.123  1.00  0.00     0.278 C 
ENDBRANCH   8  22
BRANCH  11  24
ATOM     24  O   UNL     1      28.586   1.970  17.277  1.00  0.00    -0.492 OA
ATOM     25  C   UNL     1      29.722   1.815  16.432  1.00  0.00     0.278 C 
ENDBRANCH  11  24
BRANCH   9  26
ATOM     26  O   UNL     1      28.372  -1.939  20.253  1.00  0.00    -0.490 OA
ATOM     27  C   UNL     1      29.396  -2.903  20.026  1.00  0.00     0.279 C 
ENDBRANCH   9  26
BRANCH  10  28
ATOM     28  O   UNL     1      28.134  -0.790  17.608  1.00  0.00    -0.490 OA
ATOM     29  C   UNL     1      26.824  -1.067  17.121  1.00  0.00     0.278 C 
ENDBRANCH  10  28
TORSDOF 7
ENDMDL
