MODEL 1
REMARK VINA RESULT:    -1.861      0.000      0.000
REMARK INTER + INTRA:          -2.368
REMARK INTER:                  -2.296
REMARK INTRA:                  -0.072
REMARK UNBOUND:                -0.072
REMARK SMILES CCCCCC(=O)[O-]
REMARK SMILES IDX 4 1 5 2 6 3 7 4 8 5 3 6 2 7 1 8
REMARK H PARENT
REMARK Flexibility Score: inf
ROOT
ATOM      1  C   UNL     1      -2.641  51.861   9.201  1.00  0.00     0.006 C 
ENDROOT
BRANCH   1   2
ATOM      2  C   UNL     1      -1.776  50.879   9.995  1.00  0.00     0.053 C 
BRANCH   2   3
ATOM      3  C   UNL     1      -0.326  51.201   9.824  1.00  0.00     0.041 C 
ATOM      4  O   UNL     1       0.028  52.346   9.437  1.00  0.00    -0.550 OA
ATOM      5  O   UNL     1       0.636  50.222  10.045  1.00  0.00    -0.550 OA
ENDBRANCH   2   3
ENDBRANCH   1   2
BRANCH   1   6
ATOM      6  C   UNL     1      -3.610  52.612  10.123  1.00  0.00     0.000 C 
BRANCH   6   7
ATOM      7  C   UNL     1      -4.486  53.585   9.325  1.00  0.00    -0.003 C 
ATOM      8  C   UNL     1      -5.717  54.000  10.125  1.00  0.00     0.004 C 
ENDBRANCH   6   7
ENDBRANCH   1   6
TORSDOF 4
ENDMDL
MODEL 2
REMARK VINA RESULT:    -0.926      4.246      5.870
REMARK INTER + INTRA:          -1.215
REMARK INTER:                  -1.148
REMARK INTRA:                  -0.067
REMARK UNBOUND:                -0.072
REMARK SMILES CCCCCC(=O)[O-]
REMARK SMILES IDX 4 1 5 2 6 3 7 4 8 5 3 6 2 7 1 8
REMARK H PARENT
REMARK Flexibility Score: inf
ROOT
ATOM      1  C   UNL     1      -5.013  53.744   9.142  1.00  0.00     0.006 C 
ENDROOT
BRANCH   1   2
ATOM      2  C   UNL     1      -5.895  54.523  10.121  1.00  0.00     0.053 C 
BRANCH   2   3
ATOM      3  C   UNL     1      -7.336  54.185   9.911  1.00  0.00     0.041 C 
ATOM      4  O   UNL     1      -8.157  55.082   9.583  1.00  0.00    -0.550 OA
ATOM      5  O   UNL     1      -7.785  52.887  10.125  1.00  0.00    -0.550 OA
ENDBRANCH   2   3
ENDBRANCH   1   2
BRANCH   1   6
ATOM      6  C   UNL     1      -3.969  52.904   9.889  1.00  0.00     0.000 C 
BRANCH   6   7
ATOM      7  C   UNL     1      -3.104  52.103   8.909  1.00  0.00    -0.003 C 
ATOM      8  C   UNL     1      -1.906  51.478   9.617  1.00  0.00     0.004 C 
ENDBRANCH   6   7
ENDBRANCH   1   6
TORSDOF 4
ENDMDL
MODEL 3
REMARK VINA RESULT:    -0.924     24.259     24.972
REMARK INTER + INTRA:          -1.213
REMARK INTER:                  -1.101
REMARK INTRA:                  -0.112
REMARK UNBOUND:                -0.072
REMARK SMILES CCCCCC(=O)[O-]
REMARK SMILES IDX 4 1 5 2 6 3 7 4 8 5 3 6 2 7 1 8
REMARK H PARENT
REMARK Flexibility Score: inf
ROOT
ATOM      1  C   UNL     1     -18.308  43.875  -8.463  1.00  0.00     0.006 C 
ENDROOT
BRANCH   1   2
ATOM      2  C   UNL     1     -19.025  45.227  -8.503  1.00  0.00     0.053 C 
BRANCH   2   3
ATOM      3  C   UNL     1     -19.061  45.842  -7.141  1.00  0.00     0.041 C 
ATOM      4  O   UNL     1     -18.997  47.092  -7.008  1.00  0.00    -0.550 OA
ATOM      5  O   UNL     1     -19.115  45.032  -6.013  1.00  0.00    -0.550 OA
ENDBRANCH   2   3
ENDBRANCH   1   2
BRANCH   1   6
ATOM      6  C   UNL     1     -17.079  43.876  -9.382  1.00  0.00     0.000 C 
BRANCH   6   7
ATOM      7  C   UNL     1     -15.983  44.797  -8.834  1.00  0.00    -0.003 C 
ATOM      8  C   UNL     1     -14.919  44.001  -8.085  1.00  0.00     0.004 C 
ENDBRANCH   6   7
ENDBRANCH   1   6
TORSDOF 4
ENDMDL
