MODEL 1
REMARK VINA RESULT:    -3.841      0.000      0.000
REMARK INTER + INTRA:          -4.637
REMARK INTER:                  -4.626
REMARK INTRA:                  -0.010
REMARK UNBOUND:                -0.010
REMARK SMILES OCC(O)CO
REMARK SMILES IDX 3 1 5 2 6 3 2 5 1 6 4 8
REMARK H PARENT 6 4 1 7 4 9
REMARK Flexibility Score: inf
ROOT
ATOM      1  C   UNL     1      60.928  27.095  26.842  1.00  0.00     0.165 C 
ENDROOT
BRANCH   1   2
ATOM      2  C   UNL     1      60.112  27.062  25.539  1.00  0.00     0.190 C 
BRANCH   2   3
ATOM      3  O   UNL     1      58.910  26.360  25.722  1.00  0.00    -0.394 OA
ATOM      4  H   UNL     1      59.070  25.697  26.444  1.00  0.00     0.210 HD
ENDBRANCH   2   3
ENDBRANCH   1   2
BRANCH   1   5
ATOM      5  C   UNL     1      61.274  28.532  27.269  1.00  0.00     0.190 C 
BRANCH   5   6
ATOM      6  O   UNL     1      60.469  28.930  28.346  1.00  0.00    -0.394 OA
ATOM      7  H   UNL     1      60.859  28.520  29.162  1.00  0.00     0.210 HD
ENDBRANCH   5   6
ENDBRANCH   1   5
BRANCH   1   8
ATOM      8  O   UNL     1      62.096  26.326  26.701  1.00  0.00    -0.388 OA
ATOM      9  H   UNL     1      62.857  26.955  26.592  1.00  0.00     0.211 HD
ENDBRANCH   1   8
TORSDOF 5
ENDMDL
MODEL 2
REMARK VINA RESULT:    -3.793      1.013      2.990
REMARK INTER + INTRA:          -4.579
REMARK INTER:                  -4.576
REMARK INTRA:                  -0.004
REMARK UNBOUND:                -0.010
REMARK SMILES OCC(O)CO
REMARK SMILES IDX 3 1 5 2 6 3 2 5 1 6 4 8
REMARK H PARENT 6 4 1 7 4 9
REMARK Flexibility Score: inf
ROOT
ATOM      1  C   UNL     1      60.850  27.075  26.481  1.00  0.00     0.165 C 
ENDROOT
BRANCH   1   2
ATOM      2  C   UNL     1      62.301  27.190  25.987  1.00  0.00     0.190 C 
BRANCH   2   3
ATOM      3  O   UNL     1      62.956  25.951  26.077  1.00  0.00    -0.394 OA
ATOM      4  H   UNL     1      63.301  25.874  27.005  1.00  0.00     0.210 HD
ENDBRANCH   2   3
ENDBRANCH   1   2
BRANCH   1   5
ATOM      5  C   UNL     1      59.849  26.986  25.316  1.00  0.00     0.190 C 
BRANCH   5   6
ATOM      6  O   UNL     1      58.731  26.226  25.687  1.00  0.00    -0.394 OA
ATOM      7  H   UNL     1      58.174  26.120  24.873  1.00  0.00     0.210 HD
ENDBRANCH   5   6
ENDBRANCH   1   5
BRANCH   1   8
ATOM      8  O   UNL     1      60.537  28.160  27.319  1.00  0.00    -0.388 OA
ATOM      9  H   UNL     1      60.416  27.803  28.238  1.00  0.00     0.211 HD
ENDBRANCH   1   8
TORSDOF 5
ENDMDL
MODEL 3
REMARK VINA RESULT:    -3.752     14.712     15.898
REMARK INTER + INTRA:          -4.529
REMARK INTER:                  -4.512
REMARK INTRA:                  -0.017
REMARK UNBOUND:                -0.010
REMARK SMILES OCC(O)CO
REMARK SMILES IDX 3 1 5 2 6 3 2 5 1 6 4 8
REMARK H PARENT 6 4 1 7 4 9
REMARK Flexibility Score: inf
ROOT
ATOM      1  C   UNL     1      59.615  28.948  10.995  1.00  0.00     0.165 C 
ENDROOT
BRANCH   1   2
ATOM      2  C   UNL     1      59.390  28.265  12.355  1.00  0.00     0.190 C 
BRANCH   2   3
ATOM      3  O   UNL     1      58.247  27.450  12.318  1.00  0.00    -0.394 OA
ATOM      4  H   UNL     1      57.934  27.434  11.376  1.00  0.00     0.210 HD
ENDBRANCH   2   3
ENDBRANCH   1   2
BRANCH   1   5
ATOM      5  C   UNL     1      61.015  28.653  10.428  1.00  0.00     0.190 C 
BRANCH   5   6
ATOM      6  O   UNL     1      60.985  27.508   9.619  1.00  0.00    -0.394 OA
ATOM      7  H   UNL     1      61.318  27.781   8.725  1.00  0.00     0.210 HD
ENDBRANCH   5   6
ENDBRANCH   1   5
BRANCH   1   8
ATOM      8  O   UNL     1      59.409  30.334  11.110  1.00  0.00    -0.388 OA
ATOM      9  H   UNL     1      60.171  30.708  11.625  1.00  0.00     0.211 HD
ENDBRANCH   1   8
TORSDOF 5
ENDMDL
MODEL 4
REMARK VINA RESULT:    -3.748      1.135      1.855
REMARK INTER + INTRA:          -4.526
REMARK INTER:                  -4.523
REMARK INTRA:                  -0.003
REMARK UNBOUND:                -0.010
REMARK SMILES OCC(O)CO
REMARK SMILES IDX 3 1 5 2 6 3 2 5 1 6 4 8
REMARK H PARENT 6 4 1 7 4 9
REMARK Flexibility Score: inf
ROOT
ATOM      1  C   UNL     1      60.809  27.507  26.337  1.00  0.00     0.165 C 
ENDROOT
BRANCH   1   2
ATOM      2  C   UNL     1      59.921  26.947  25.213  1.00  0.00     0.190 C 
BRANCH   2   3
ATOM      3  O   UNL     1      58.784  26.318  25.745  1.00  0.00    -0.394 OA
ATOM      4  H   UNL     1      58.256  27.020  26.208  1.00  0.00     0.210 HD
ENDBRANCH   2   3
ENDBRANCH   1   2
BRANCH   1   5
ATOM      5  C   UNL     1      62.257  26.995  26.236  1.00  0.00     0.190 C 
BRANCH   5   6
ATOM      6  O   UNL     1      62.786  26.770  27.515  1.00  0.00    -0.394 OA
ATOM      7  H   UNL     1      62.226  26.069  27.937  1.00  0.00     0.210 HD
ENDBRANCH   5   6
ENDBRANCH   1   5
BRANCH   1   8
ATOM      8  O   UNL     1      60.258  27.191  27.591  1.00  0.00    -0.388 OA
ATOM      9  H   UNL     1      59.563  27.870  27.792  1.00  0.00     0.211 HD
ENDBRANCH   1   8
TORSDOF 5
ENDMDL
MODEL 5
REMARK VINA RESULT:    -3.733     16.116     17.270
REMARK INTER + INTRA:          -4.507
REMARK INTER:                  -4.504
REMARK INTRA:                  -0.002
REMARK UNBOUND:                -0.010
REMARK SMILES OCC(O)CO
REMARK SMILES IDX 3 1 5 2 6 3 2 5 1 6 4 8
REMARK H PARENT 6 4 1 7 4 9
REMARK Flexibility Score: inf
ROOT
ATOM      1  C   UNL     1      60.027  29.213   9.508  1.00  0.00     0.165 C 
ENDROOT
BRANCH   1   2
ATOM      2  C   UNL     1      59.801  29.237  11.029  1.00  0.00     0.190 C 
BRANCH   2   3
ATOM      3  O   UNL     1      59.401  30.515  11.451  1.00  0.00    -0.394 OA
ATOM      4  H   UNL     1      59.154  30.438  12.410  1.00  0.00     0.210 HD
ENDBRANCH   2   3
ENDBRANCH   1   2
BRANCH   1   5
ATOM      5  C   UNL     1      61.337  28.498   9.131  1.00  0.00     0.190 C 
BRANCH   5   6
ATOM      6  O   UNL     1      61.098  27.140   8.875  1.00  0.00    -0.394 OA
ATOM      7  H   UNL     1      60.932  26.709   9.753  1.00  0.00     0.210 HD
ENDBRANCH   5   6
ENDBRANCH   1   5
BRANCH   1   8
ATOM      8  O   UNL     1      60.014  30.523   8.996  1.00  0.00    -0.388 OA
ATOM      9  H   UNL     1      59.082  30.859   9.061  1.00  0.00     0.211 HD
ENDBRANCH   1   8
TORSDOF 5
ENDMDL
MODEL 6
REMARK VINA RESULT:    -3.668      1.902      2.230
REMARK INTER + INTRA:          -4.429
REMARK INTER:                  -4.427
REMARK INTRA:                  -0.002
REMARK UNBOUND:                -0.010
REMARK SMILES OCC(O)CO
REMARK SMILES IDX 3 1 5 2 6 3 2 5 1 6 4 8
REMARK H PARENT 6 4 1 7 4 9
REMARK Flexibility Score: inf
ROOT
ATOM      1  C   UNL     1      61.581  27.331  28.427  1.00  0.00     0.165 C 
ENDROOT
BRANCH   1   2
ATOM      2  C   UNL     1      61.521  27.036  26.919  1.00  0.00     0.190 C 
BRANCH   2   3
ATOM      3  O   UNL     1      62.592  26.215  26.531  1.00  0.00    -0.394 OA
ATOM      4  H   UNL     1      62.886  25.721  27.340  1.00  0.00     0.210 HD
ENDBRANCH   2   3
ENDBRANCH   1   2
BRANCH   1   5
ATOM      5  C   UNL     1      61.595  28.841  28.719  1.00  0.00     0.190 C 
BRANCH   5   6
ATOM      6  O   UNL     1      60.307  29.290  29.044  1.00  0.00    -0.394 OA
ATOM      7  H   UNL     1      60.053  29.956  28.354  1.00  0.00     0.210 HD
ENDBRANCH   5   6
ENDBRANCH   1   5
BRANCH   1   8
ATOM      8  O   UNL     1      62.704  26.706  28.998  1.00  0.00    -0.388 OA
ATOM      9  H   UNL     1      62.478  26.487  29.940  1.00  0.00     0.211 HD
ENDBRANCH   1   8
TORSDOF 5
ENDMDL
MODEL 7
REMARK VINA RESULT:    -3.613     14.173     15.275
REMARK INTER + INTRA:          -4.363
REMARK INTER:                  -4.152
REMARK INTRA:                  -0.211
REMARK UNBOUND:                -0.010
REMARK SMILES OCC(O)CO
REMARK SMILES IDX 3 1 5 2 6 3 2 5 1 6 4 8
REMARK H PARENT 6 4 1 7 4 9
REMARK Flexibility Score: inf
ROOT
ATOM      1  C   UNL     1      59.688  28.704  11.181  1.00  0.00     0.165 C 
ENDROOT
BRANCH   1   2
ATOM      2  C   UNL     1      60.117  30.180  11.152  1.00  0.00     0.190 C 
BRANCH   2   3
ATOM      3  O   UNL     1      59.353  30.937  12.055  1.00  0.00    -0.394 OA
ATOM      4  H   UNL     1      59.227  30.378  12.867  1.00  0.00     0.210 HD
ENDBRANCH   2   3
ENDBRANCH   1   2
BRANCH   1   5
ATOM      5  C   UNL     1      59.553  28.171  12.618  1.00  0.00     0.190 C 
BRANCH   5   6
ATOM      6  O   UNL     1      58.226  28.278  13.057  1.00  0.00    -0.394 OA
ATOM      7  H   UNL     1      58.222  28.936  13.800  1.00  0.00     0.210 HD
ENDBRANCH   5   6
ENDBRANCH   1   5
BRANCH   1   8
ATOM      8  O   UNL     1      60.598  27.921  10.447  1.00  0.00    -0.388 OA
ATOM      9  H   UNL     1      61.411  28.470  10.297  1.00  0.00     0.211 HD
ENDBRANCH   1   8
TORSDOF 5
ENDMDL
MODEL 8
REMARK VINA RESULT:    -3.543      1.912      2.968
REMARK INTER + INTRA:          -4.278
REMARK INTER:                  -4.055
REMARK INTRA:                  -0.223
REMARK UNBOUND:                -0.010
REMARK SMILES OCC(O)CO
REMARK SMILES IDX 3 1 5 2 6 3 2 5 1 6 4 8
REMARK H PARENT 6 4 1 7 4 9
REMARK Flexibility Score: inf
ROOT
ATOM      1  C   UNL     1      62.156  27.224  25.743  1.00  0.00     0.165 C 
ENDROOT
BRANCH   1   2
ATOM      2  C   UNL     1      60.733  27.567  25.270  1.00  0.00     0.190 C 
BRANCH   2   3
ATOM      3  O   UNL     1      60.012  26.398  24.978  1.00  0.00    -0.394 OA
ATOM      4  H   UNL     1      59.115  26.683  24.663  1.00  0.00     0.210 HD
ENDBRANCH   2   3
ENDBRANCH   1   2
BRANCH   1   5
ATOM      5  C   UNL     1      63.025  26.671  24.600  1.00  0.00     0.190 C 
BRANCH   5   6
ATOM      6  O   UNL     1      62.631  25.366  24.273  1.00  0.00    -0.394 OA
ATOM      7  H   UNL     1      62.862  24.794  25.050  1.00  0.00     0.210 HD
ENDBRANCH   5   6
ENDBRANCH   1   5
BRANCH   1   8
ATOM      8  O   UNL     1      62.104  26.312  26.811  1.00  0.00    -0.388 OA
ATOM      9  H   UNL     1      61.201  26.380  27.219  1.00  0.00     0.211 HD
ENDBRANCH   1   8
TORSDOF 5
ENDMDL
MODEL 9
REMARK VINA RESULT:    -3.535     17.071     17.643
REMARK INTER + INTRA:          -4.268
REMARK INTER:                  -4.045
REMARK INTRA:                  -0.223
REMARK UNBOUND:                -0.010
REMARK SMILES OCC(O)CO
REMARK SMILES IDX 3 1 5 2 6 3 2 5 1 6 4 8
REMARK H PARENT 6 4 1 7 4 9
REMARK Flexibility Score: inf
ROOT
ATOM      1  C   UNL     1      61.132  28.577   8.970  1.00  0.00     0.165 C 
ENDROOT
BRANCH   1   2
ATOM      2  C   UNL     1      62.546  29.055   9.339  1.00  0.00     0.190 C 
BRANCH   2   3
ATOM      3  O   UNL     1      62.734  30.393   8.955  1.00  0.00    -0.394 OA
ATOM      4  H   UNL     1      62.325  30.957   9.662  1.00  0.00     0.210 HD
ENDBRANCH   2   3
ENDBRANCH   1   2
BRANCH   1   5
ATOM      5  C   UNL     1      60.074  29.083   9.966  1.00  0.00     0.190 C 
BRANCH   5   6
ATOM      6  O   UNL     1      60.009  30.484   9.940  1.00  0.00    -0.394 OA
ATOM      7  H   UNL     1      59.082  30.731  10.195  1.00  0.00     0.210 HD
ENDBRANCH   5   6
ENDBRANCH   1   5
BRANCH   1   8
ATOM      8  O   UNL     1      61.102  27.173   8.888  1.00  0.00    -0.388 OA
ATOM      9  H   UNL     1      61.503  26.816   9.723  1.00  0.00     0.211 HD
ENDBRANCH   1   8
TORSDOF 5
ENDMDL
