MODEL 1
REMARK VINA RESULT:    -4.306      0.000      0.000
REMARK INTER + INTRA:          -4.695
REMARK INTER:                  -4.683
REMARK INTRA:                  -0.012
REMARK UNBOUND:                -0.012
REMARK SMILES OCc1ccccc1
REMARK SMILES IDX 2 1 3 2 6 3 5 4 7 5 4 6 8 7 1 8
REMARK H PARENT 1 9
REMARK Flexibility Score: inf
ROOT
ATOM      1  C   UNL     1      13.054  18.856  58.486  1.00  0.00     0.191 C 
ENDROOT
BRANCH   1   2
ATOM      2  C   UNL     1      14.123  19.042  57.445  1.00  0.00    -0.023 A 
ATOM      3  C   UNL     1      16.085  19.458  55.483  1.00  0.00     0.000 A 
ATOM      4  C   UNL     1      16.298  19.907  56.789  1.00  0.00     0.000 A 
ATOM      5  C   UNL     1      14.891  18.812  55.151  1.00  0.00     0.000 A 
ATOM      6  C   UNL     1      15.319  19.705  57.767  1.00  0.00     0.006 A 
ATOM      7  C   UNL     1      13.909  18.608  56.126  1.00  0.00     0.006 A 
ENDBRANCH   1   2
BRANCH   1   8
ATOM      8  O   UNL     1      13.565  18.143  59.578  1.00  0.00    -0.392 OA
ATOM      9  H   UNL     1      14.485  18.484  59.734  1.00  0.00     0.211 HD
ENDBRANCH   1   8
TORSDOF 2
ENDMDL
MODEL 2
REMARK VINA RESULT:    -4.287      6.051      7.406
REMARK INTER + INTRA:          -4.675
REMARK INTER:                  -4.666
REMARK INTRA:                  -0.010
REMARK UNBOUND:                -0.012
REMARK SMILES OCc1ccccc1
REMARK SMILES IDX 2 1 3 2 6 3 5 4 7 5 4 6 8 7 1 8
REMARK H PARENT 1 9
REMARK Flexibility Score: inf
ROOT
ATOM      1  C   UNL     1       5.581  18.276  59.435  1.00  0.00     0.191 C 
ENDROOT
BRANCH   1   2
ATOM      2  C   UNL     1       7.057  18.382  59.168  1.00  0.00    -0.023 A 
ATOM      3  C   UNL     1       9.804  18.657  58.668  1.00  0.00     0.000 A 
ATOM      4  C   UNL     1       9.333  18.632  59.984  1.00  0.00     0.000 A 
ATOM      5  C   UNL     1       8.906  18.556  57.602  1.00  0.00     0.000 A 
ATOM      6  C   UNL     1       7.963  18.500  60.235  1.00  0.00     0.006 A 
ATOM      7  C   UNL     1       7.536  18.424  57.848  1.00  0.00     0.006 A 
ENDBRANCH   1   2
BRANCH   1   8
ATOM      8  O   UNL     1       5.251  16.965  59.804  1.00  0.00    -0.392 OA
ATOM      9  H   UNL     1       5.350  16.408  58.987  1.00  0.00     0.211 HD
ENDBRANCH   1   8
TORSDOF 2
ENDMDL
MODEL 3
REMARK VINA RESULT:    -4.286      6.076      7.584
REMARK INTER + INTRA:          -4.673
REMARK INTER:                  -4.663
REMARK INTRA:                  -0.010
REMARK UNBOUND:                -0.012
REMARK SMILES OCc1ccccc1
REMARK SMILES IDX 2 1 3 2 6 3 5 4 7 5 4 6 8 7 1 8
REMARK H PARENT 1 9
REMARK Flexibility Score: inf
ROOT
ATOM      1  C   UNL     1       5.551  18.266  59.433  1.00  0.00     0.191 C 
ENDROOT
BRANCH   1   2
ATOM      2  C   UNL     1       7.024  18.409  59.169  1.00  0.00    -0.023 A 
ATOM      3  C   UNL     1       9.780  18.598  58.678  1.00  0.00     0.000 A 
ATOM      4  C   UNL     1       8.885  18.515  57.608  1.00  0.00     0.000 A 
ATOM      5  C   UNL     1       9.304  18.575  59.992  1.00  0.00     0.000 A 
ATOM      6  C   UNL     1       7.511  18.416  57.851  1.00  0.00     0.006 A 
ATOM      7  C   UNL     1       7.931  18.476  60.239  1.00  0.00     0.006 A 
ENDBRANCH   1   2
BRANCH   1   8
ATOM      8  O   UNL     1       5.255  16.949  59.811  1.00  0.00    -0.392 OA
ATOM      9  H   UNL     1       5.873  16.362  59.301  1.00  0.00     0.211 HD
ENDBRANCH   1   8
TORSDOF 2
ENDMDL
MODEL 4
REMARK VINA RESULT:    -4.186      7.076      7.818
REMARK INTER + INTRA:          -4.565
REMARK INTER:                  -4.554
REMARK INTRA:                  -0.011
REMARK UNBOUND:                -0.012
REMARK SMILES OCc1ccccc1
REMARK SMILES IDX 2 1 3 2 6 3 5 4 7 5 4 6 8 7 1 8
REMARK H PARENT 1 9
REMARK Flexibility Score: inf
ROOT
ATOM      1  C   UNL     1      17.172  24.673  55.886  1.00  0.00     0.191 C 
ENDROOT
BRANCH   1   2
ATOM      2  C   UNL     1      16.712  25.508  54.723  1.00  0.00    -0.023 A 
ATOM      3  C   UNL     1      15.840  27.123  52.601  1.00  0.00     0.000 A 
ATOM      4  C   UNL     1      17.187  27.125  52.972  1.00  0.00     0.000 A 
ATOM      5  C   UNL     1      14.925  26.325  53.294  1.00  0.00     0.000 A 
ATOM      6  C   UNL     1      17.623  26.324  54.032  1.00  0.00     0.006 A 
ATOM      7  C   UNL     1      15.357  25.523  54.356  1.00  0.00     0.006 A 
ENDBRANCH   1   2
BRANCH   1   8
ATOM      8  O   UNL     1      16.618  25.161  57.077  1.00  0.00    -0.392 OA
ATOM      9  H   UNL     1      17.193  25.917  57.369  1.00  0.00     0.211 HD
ENDBRANCH   1   8
TORSDOF 2
ENDMDL
MODEL 5
REMARK VINA RESULT:    -4.116      3.013      4.034
REMARK INTER + INTRA:          -4.489
REMARK INTER:                  -4.472
REMARK INTRA:                  -0.017
REMARK UNBOUND:                -0.012
REMARK SMILES OCc1ccccc1
REMARK SMILES IDX 2 1 3 2 6 3 5 4 7 5 4 6 8 7 1 8
REMARK H PARENT 1 9
REMARK Flexibility Score: inf
ROOT
ATOM      1  C   UNL     1      16.126  20.120  55.288  1.00  0.00     0.191 C 
ENDROOT
BRANCH   1   2
ATOM      2  C   UNL     1      15.038  19.214  54.782  1.00  0.00    -0.023 A 
ATOM      3  C   UNL     1      13.062  17.476  53.808  1.00  0.00     0.000 A 
ATOM      4  C   UNL     1      13.589  17.287  55.089  1.00  0.00     0.000 A 
ATOM      5  C   UNL     1      13.527  18.524  53.009  1.00  0.00     0.000 A 
ATOM      6  C   UNL     1      14.577  18.149  55.574  1.00  0.00     0.006 A 
ATOM      7  C   UNL     1      14.516  19.389  53.490  1.00  0.00     0.006 A 
ENDBRANCH   1   2
BRANCH   1   8
ATOM      8  O   UNL     1      16.937  20.538  54.224  1.00  0.00    -0.392 OA
ATOM      9  H   UNL     1      17.197  21.477  54.418  1.00  0.00     0.211 HD
ENDBRANCH   1   8
TORSDOF 2
ENDMDL
MODEL 6
REMARK VINA RESULT:    -4.024      2.480      3.491
REMARK INTER + INTRA:          -4.388
REMARK INTER:                  -4.375
REMARK INTRA:                  -0.013
REMARK UNBOUND:                -0.012
REMARK SMILES OCc1ccccc1
REMARK SMILES IDX 2 1 3 2 6 3 5 4 7 5 4 6 8 7 1 8
REMARK H PARENT 1 9
REMARK Flexibility Score: inf
ROOT
ATOM      1  C   UNL     1      16.884  19.688  55.334  1.00  0.00     0.191 C 
ENDROOT
BRANCH   1   2
ATOM      2  C   UNL     1      15.545  19.392  55.952  1.00  0.00    -0.023 A 
ATOM      3  C   UNL     1      13.072  18.766  57.120  1.00  0.00     0.000 A 
ATOM      4  C   UNL     1      14.089  19.327  57.897  1.00  0.00     0.000 A 
ATOM      5  C   UNL     1      13.289  18.507  55.764  1.00  0.00     0.000 A 
ATOM      6  C   UNL     1      15.324  19.635  57.318  1.00  0.00     0.006 A 
ATOM      7  C   UNL     1      14.523  18.813  55.180  1.00  0.00     0.006 A 
ENDBRANCH   1   2
BRANCH   1   8
ATOM      8  O   UNL     1      16.716  20.416  54.149  1.00  0.00    -0.392 OA
ATOM      9  H   UNL     1      17.464  20.155  53.548  1.00  0.00     0.211 HD
ENDBRANCH   1   8
TORSDOF 2
ENDMDL
MODEL 7
REMARK VINA RESULT:    -4.004      2.517      3.547
REMARK INTER + INTRA:          -4.366
REMARK INTER:                  -4.351
REMARK INTRA:                  -0.016
REMARK UNBOUND:                -0.012
REMARK SMILES OCc1ccccc1
REMARK SMILES IDX 2 1 3 2 6 3 5 4 7 5 4 6 8 7 1 8
REMARK H PARENT 1 9
REMARK Flexibility Score: inf
ROOT
ATOM      1  C   UNL     1      13.940  18.495  53.829  1.00  0.00     0.191 C 
ENDROOT
BRANCH   1   2
ATOM      2  C   UNL     1      14.533  18.875  55.157  1.00  0.00    -0.023 A 
ATOM      3  C   UNL     1      15.612  19.657  57.626  1.00  0.00     0.000 A 
ATOM      4  C   UNL     1      14.324  19.118  57.567  1.00  0.00     0.000 A 
ATOM      5  C   UNL     1      16.359  19.816  56.456  1.00  0.00     0.000 A 
ATOM      6  C   UNL     1      13.783  18.732  56.336  1.00  0.00     0.006 A 
ATOM      7  C   UNL     1      15.821  19.432  55.223  1.00  0.00     0.006 A 
ENDBRANCH   1   2
BRANCH   1   8
ATOM      8  O   UNL     1      14.264  19.457  52.864  1.00  0.00    -0.392 OA
ATOM      9  H   UNL     1      15.248  19.409  52.736  1.00  0.00     0.211 HD
ENDBRANCH   1   8
TORSDOF 2
ENDMDL
MODEL 8
REMARK VINA RESULT:    -4.002      7.148      7.852
REMARK INTER + INTRA:          -4.365
REMARK INTER:                  -4.346
REMARK INTRA:                  -0.020
REMARK UNBOUND:                -0.012
REMARK SMILES OCc1ccccc1
REMARK SMILES IDX 2 1 3 2 6 3 5 4 7 5 4 6 8 7 1 8
REMARK H PARENT 1 9
REMARK Flexibility Score: inf
ROOT
ATOM      1  C   UNL     1      16.358  25.957  54.113  1.00  0.00     0.191 C 
ENDROOT
BRANCH   1   2
ATOM      2  C   UNL     1      15.146  25.552  53.320  1.00  0.00    -0.023 A 
ATOM      3  C   UNL     1      12.849  24.779  51.908  1.00  0.00     0.000 A 
ATOM      4  C   UNL     1      13.011  26.110  52.302  1.00  0.00     0.000 A 
ATOM      5  C   UNL     1      13.825  23.831  52.227  1.00  0.00     0.000 A 
ATOM      6  C   UNL     1      14.153  26.496  53.010  1.00  0.00     0.006 A 
ATOM      7  C   UNL     1      14.969  24.213  52.935  1.00  0.00     0.006 A 
ENDBRANCH   1   2
BRANCH   1   8
ATOM      8  O   UNL     1      17.115  24.827  54.447  1.00  0.00    -0.392 OA
ATOM      9  H   UNL     1      16.577  24.036  54.178  1.00  0.00     0.211 HD
ENDBRANCH   1   8
TORSDOF 2
ENDMDL
MODEL 9
REMARK VINA RESULT:    -3.863      4.207      6.428
REMARK INTER + INTRA:          -4.213
REMARK INTER:                  -4.194
REMARK INTRA:                  -0.019
REMARK UNBOUND:                -0.012
REMARK SMILES OCc1ccccc1
REMARK SMILES IDX 2 1 3 2 6 3 5 4 7 5 4 6 8 7 1 8
REMARK H PARENT 1 9
REMARK Flexibility Score: inf
ROOT
ATOM      1  C   UNL     1      11.125  18.619  57.636  1.00  0.00     0.191 C 
ENDROOT
BRANCH   1   2
ATOM      2  C   UNL     1       9.815  18.606  58.374  1.00  0.00    -0.023 A 
ATOM      3  C   UNL     1       7.370  18.503  59.747  1.00  0.00     0.000 A 
ATOM      4  C   UNL     1       8.572  18.501  60.460  1.00  0.00     0.000 A 
ATOM      5  C   UNL     1       7.386  18.545  58.350  1.00  0.00     0.000 A 
ATOM      6  C   UNL     1       9.792  18.547  59.777  1.00  0.00     0.006 A 
ATOM      7  C   UNL     1       8.603  18.591  57.663  1.00  0.00     0.006 A 
ENDBRANCH   1   2
BRANCH   1   8
ATOM      8  O   UNL     1      12.158  18.194  58.482  1.00  0.00    -0.392 OA
ATOM      9  H   UNL     1      12.299  17.229  58.293  1.00  0.00     0.211 HD
ENDBRANCH   1   8
TORSDOF 2
ENDMDL
