MODEL 1
REMARK VINA RESULT:    -3.824      0.000      0.000
REMARK INTER + INTRA:          -5.267
REMARK INTER:                  -5.165
REMARK INTRA:                  -0.101
REMARK UNBOUND:                -0.101
REMARK SMILES [NH3+]CCCC[C@H]([NH3+])C(=O)[O-]
REMARK SMILES IDX 4 1 3 2 2 3 1 4 5 8 6 9 7 10 8 14 9 15 10 16
REMARK H PARENT 1 5 1 6 1 7 7 11 7 12 7 13
REMARK Flexibility Score: inf
ROOT
ATOM      1  C   UNL     1     110.648 134.806 121.805  1.00  0.00     0.012 C 
ENDROOT
BRANCH   1   2
ATOM      2  C   UNL     1     110.276 136.297 121.862  1.00  0.00     0.061 C 
BRANCH   2   3
ATOM      3  C   UNL     1     110.434 136.897 123.269  1.00  0.00     0.258 C 
BRANCH   3   4
ATOM      4  N   UNL     1     110.143 138.330 123.260  1.00  0.00    -0.358 N 
ATOM      5  H   UNL     1     109.109 138.487 123.223  1.00  0.00     0.344 HD
ATOM      6  H   UNL     1     110.539 138.782 124.117  1.00  0.00     0.344 HD
ATOM      7  H   UNL     1     110.581 138.764 122.416  1.00  0.00     0.344 HD
ENDBRANCH   3   4
ENDBRANCH   2   3
ENDBRANCH   1   2
BRANCH   1   8
ATOM      8  C   UNL     1     109.692 133.928 122.633  1.00  0.00     0.072 C 
BRANCH   8   9
ATOM      9  C   UNL     1     108.748 133.082 121.749  1.00  0.00     0.227 C 
BRANCH   9  10
ATOM     10  N   UNL     1     107.661 133.893 121.181  1.00  0.00    -0.350 N 
ATOM     11  H   UNL     1     106.762 133.678 121.673  1.00  0.00     0.345 HD
ATOM     12  H   UNL     1     107.527 133.661 120.172  1.00  0.00     0.345 HD
ATOM     13  H   UNL     1     107.867 134.914 121.280  1.00  0.00     0.345 HD
ENDBRANCH   9  10
BRANCH   9  14
ATOM     14  C   UNL     1     108.175 131.954 122.566  1.00  0.00     0.099 C 
ATOM     15  O   UNL     1     107.067 131.444 122.253  1.00  0.00    -0.544 OA
ATOM     16  O   UNL     1     108.874 131.455 123.659  1.00  0.00    -0.544 OA
ENDBRANCH   9  14
ENDBRANCH   8   9
ENDBRANCH   1   8
TORSDOF 7
ENDMDL
MODEL 2
REMARK VINA RESULT:    -3.671      1.404      1.983
REMARK INTER + INTRA:          -5.059
REMARK INTER:                  -4.860
REMARK INTRA:                  -0.199
REMARK UNBOUND:                -0.101
REMARK SMILES [NH3+]CCCC[C@H]([NH3+])C(=O)[O-]
REMARK SMILES IDX 4 1 3 2 2 3 1 4 5 8 6 9 7 10 8 14 9 15 10 16
REMARK H PARENT 1 5 1 6 1 7 7 11 7 12 7 13
REMARK Flexibility Score: inf
ROOT
ATOM      1  C   UNL     1     109.716 136.530 122.104  1.00  0.00     0.012 C 
ENDROOT
BRANCH   1   2
ATOM      2  C   UNL     1     110.537 137.026 123.306  1.00  0.00     0.061 C 
BRANCH   2   3
ATOM      3  C   UNL     1     110.713 135.952 124.391  1.00  0.00     0.258 C 
BRANCH   3   4
ATOM      4  N   UNL     1     110.312 136.464 125.702  1.00  0.00    -0.358 N 
ATOM      5  H   UNL     1     110.557 137.477 125.782  1.00  0.00     0.344 HD
ATOM      6  H   UNL     1     109.282 136.336 125.837  1.00  0.00     0.344 HD
ATOM      7  H   UNL     1     110.819 135.934 126.446  1.00  0.00     0.344 HD
ENDBRANCH   3   4
ENDBRANCH   2   3
ENDBRANCH   1   2
BRANCH   1   8
ATOM      8  C   UNL     1     110.115 135.112 121.662  1.00  0.00     0.072 C 
BRANCH   8   9
ATOM      9  C   UNL     1     108.896 134.247 121.269  1.00  0.00     0.227 C 
BRANCH   9  10
ATOM     10  N   UNL     1     107.649 135.025 121.278  1.00  0.00    -0.350 N 
ATOM     11  H   UNL     1     107.661 135.706 122.073  1.00  0.00     0.345 HD
ATOM     12  H   UNL     1     106.830 134.394 121.420  1.00  0.00     0.345 HD
ATOM     13  H   UNL     1     107.532 135.552 120.382  1.00  0.00     0.345 HD
ENDBRANCH   9  10
BRANCH   9  14
ATOM     14  C   UNL     1     108.782 133.081 122.216  1.00  0.00     0.099 C 
ATOM     15  O   UNL     1     109.693 132.856 123.055  1.00  0.00    -0.544 OA
ATOM     16  O   UNL     1     107.662 132.259 122.182  1.00  0.00    -0.544 OA
ENDBRANCH   9  14
ENDBRANCH   8   9
ENDBRANCH   1   8
TORSDOF 7
ENDMDL
MODEL 3
REMARK VINA RESULT:    -3.647      2.675      3.415
REMARK INTER + INTRA:          -5.028
REMARK INTER:                  -4.928
REMARK INTRA:                  -0.100
REMARK UNBOUND:                -0.101
REMARK SMILES [NH3+]CCCC[C@H]([NH3+])C(=O)[O-]
REMARK SMILES IDX 4 1 3 2 2 3 1 4 5 8 6 9 7 10 8 14 9 15 10 16
REMARK H PARENT 1 5 1 6 1 7 7 11 7 12 7 13
REMARK Flexibility Score: inf
ROOT
ATOM      1  C   UNL     1     110.376 136.388 124.405  1.00  0.00     0.012 C 
ENDROOT
BRANCH   1   2
ATOM      2  C   UNL     1     111.125 136.110 125.719  1.00  0.00     0.061 C 
BRANCH   2   3
ATOM      3  C   UNL     1     110.249 135.403 126.766  1.00  0.00     0.258 C 
BRANCH   3   4
ATOM      4  N   UNL     1     109.574 136.376 127.624  1.00  0.00    -0.358 N 
ATOM      5  H   UNL     1     108.794 136.836 127.102  1.00  0.00     0.344 HD
ATOM      6  H   UNL     1     109.198 135.901 128.478  1.00  0.00     0.344 HD
ATOM      7  H   UNL     1     110.261 137.106 127.919  1.00  0.00     0.344 HD
ENDBRANCH   3   4
ENDBRANCH   2   3
ENDBRANCH   1   2
BRANCH   1   8
ATOM      8  C   UNL     1     111.067 135.751 123.186  1.00  0.00     0.072 C 
BRANCH   8   9
ATOM      9  C   UNL     1     110.184 135.782 121.919  1.00  0.00     0.227 C 
BRANCH   9  10
ATOM     10  N   UNL     1     109.332 136.979 121.877  1.00  0.00    -0.350 N 
ATOM     11  H   UNL     1     109.885 137.819 122.169  1.00  0.00     0.345 HD
ATOM     12  H   UNL     1     108.536 136.881 122.546  1.00  0.00     0.345 HD
ATOM     13  H   UNL     1     108.959 137.138 120.912  1.00  0.00     0.345 HD
ENDBRANCH   9  10
BRANCH   9  14
ATOM     14  C   UNL     1     109.330 134.542 121.872  1.00  0.00     0.099 C 
ATOM     15  O   UNL     1     108.312 134.501 121.132  1.00  0.00    -0.544 OA
ATOM     16  O   UNL     1     109.670 133.428 122.632  1.00  0.00    -0.544 OA
ENDBRANCH   9  14
ENDBRANCH   8   9
ENDBRANCH   1   8
TORSDOF 7
ENDMDL
MODEL 4
REMARK VINA RESULT:    -3.646      7.644      8.262
REMARK INTER + INTRA:          -5.027
REMARK INTER:                  -4.532
REMARK INTRA:                  -0.494
REMARK UNBOUND:                -0.101
REMARK SMILES [NH3+]CCCC[C@H]([NH3+])C(=O)[O-]
REMARK SMILES IDX 4 1 3 2 2 3 1 4 5 8 6 9 7 10 8 14 9 15 10 16
REMARK H PARENT 1 5 1 6 1 7 7 11 7 12 7 13
REMARK Flexibility Score: inf
ROOT
ATOM      1  C   UNL     1     106.601 126.553 121.636  1.00  0.00     0.012 C 
ENDROOT
BRANCH   1   2
ATOM      2  C   UNL     1     106.038 127.984 121.668  1.00  0.00     0.061 C 
BRANCH   2   3
ATOM      3  C   UNL     1     104.502 128.021 121.607  1.00  0.00     0.258 C 
BRANCH   3   4
ATOM      4  N   UNL     1     103.957 128.846 122.685  1.00  0.00    -0.358 N 
ATOM      5  H   UNL     1     103.676 129.783 122.313  1.00  0.00     0.344 HD
ATOM      6  H   UNL     1     103.129 128.373 123.115  1.00  0.00     0.344 HD
ATOM      7  H   UNL     1     104.690 128.979 123.418  1.00  0.00     0.344 HD
ENDBRANCH   3   4
ENDBRANCH   2   3
ENDBRANCH   1   2
BRANCH   1   8
ATOM      8  C   UNL     1     107.262 126.150 122.966  1.00  0.00     0.072 C 
BRANCH   8   9
ATOM      9  C   UNL     1     107.211 127.278 124.021  1.00  0.00     0.227 C 
BRANCH   9  10
ATOM     10  N   UNL     1     108.547 127.593 124.547  1.00  0.00    -0.350 N 
ATOM     11  H   UNL     1     108.686 128.631 124.565  1.00  0.00     0.345 HD
ATOM     12  H   UNL     1     109.284 127.190 123.927  1.00  0.00     0.345 HD
ATOM     13  H   UNL     1     108.664 127.218 125.516  1.00  0.00     0.345 HD
ENDBRANCH   9  10
BRANCH   9  14
ATOM     14  C   UNL     1     106.298 126.869 125.147  1.00  0.00     0.099 C 
ATOM     15  O   UNL     1     105.124 127.320 125.206  1.00  0.00    -0.544 OA
ATOM     16  O   UNL     1     106.739 125.978 126.118  1.00  0.00    -0.544 OA
ENDBRANCH   9  14
ENDBRANCH   8   9
ENDBRANCH   1   8
TORSDOF 7
ENDMDL
MODEL 5
REMARK VINA RESULT:    -3.594      4.676      5.987
REMARK INTER + INTRA:          -4.956
REMARK INTER:                  -4.809
REMARK INTRA:                  -0.146
REMARK UNBOUND:                -0.101
REMARK SMILES [NH3+]CCCC[C@H]([NH3+])C(=O)[O-]
REMARK SMILES IDX 4 1 3 2 2 3 1 4 5 8 6 9 7 10 8 14 9 15 10 16
REMARK H PARENT 1 5 1 6 1 7 7 11 7 12 7 13
REMARK Flexibility Score: inf
ROOT
ATOM      1  C   UNL     1     107.272 130.034 121.918  1.00  0.00     0.012 C 
ENDROOT
BRANCH   1   2
ATOM      2  C   UNL     1     107.542 131.497 122.310  1.00  0.00     0.061 C 
BRANCH   2   3
ATOM      3  C   UNL     1     108.783 131.655 123.202  1.00  0.00     0.258 C 
BRANCH   3   4
ATOM      4  N   UNL     1     109.284 130.351 123.636  1.00  0.00    -0.358 N 
ATOM      5  H   UNL     1     108.719 129.999 124.442  1.00  0.00     0.344 HD
ATOM      6  H   UNL     1     109.236 129.668 122.845  1.00  0.00     0.344 HD
ATOM      7  H   UNL     1     110.279 130.449 123.938  1.00  0.00     0.344 HD
ENDBRANCH   3   4
ENDBRANCH   2   3
ENDBRANCH   1   2
BRANCH   1   8
ATOM      8  C   UNL     1     105.852 129.576 122.292  1.00  0.00     0.072 C 
BRANCH   8   9
ATOM      9  C   UNL     1     105.465 128.236 121.626  1.00  0.00     0.227 C 
BRANCH   9  10
ATOM     10  N   UNL     1     104.009 128.029 121.625  1.00  0.00    -0.350 N 
ATOM     11  H   UNL     1     103.743 127.380 120.848  1.00  0.00     0.345 HD
ATOM     12  H   UNL     1     103.515 128.934 121.459  1.00  0.00     0.345 HD
ATOM     13  H   UNL     1     103.690 127.620 122.533  1.00  0.00     0.345 HD
ENDBRANCH   9  10
BRANCH   9  14
ATOM     14  C   UNL     1     106.145 127.103 122.348  1.00  0.00     0.099 C 
ATOM     15  O   UNL     1     106.805 126.247 121.703  1.00  0.00    -0.544 OA
ATOM     16  O   UNL     1     106.065 127.006 123.733  1.00  0.00    -0.544 OA
ENDBRANCH   9  14
ENDBRANCH   8   9
ENDBRANCH   1   8
TORSDOF 7
ENDMDL
MODEL 6
REMARK VINA RESULT:    -3.579      3.475      5.015
REMARK INTER + INTRA:          -4.935
REMARK INTER:                  -4.843
REMARK INTRA:                  -0.093
REMARK UNBOUND:                -0.101
REMARK SMILES [NH3+]CCCC[C@H]([NH3+])C(=O)[O-]
REMARK SMILES IDX 4 1 3 2 2 3 1 4 5 8 6 9 7 10 8 14 9 15 10 16
REMARK H PARENT 1 5 1 6 1 7 7 11 7 12 7 13
REMARK Flexibility Score: inf
ROOT
ATOM      1  C   UNL     1     107.238 131.140 122.223  1.00  0.00     0.012 C 
ENDROOT
BRANCH   1   2
ATOM      2  C   UNL     1     108.396 131.907 122.884  1.00  0.00     0.061 C 
BRANCH   2   3
ATOM      3  C   UNL     1     108.702 133.242 122.186  1.00  0.00     0.258 C 
BRANCH   3   4
ATOM      4  N   UNL     1     107.681 133.553 121.186  1.00  0.00    -0.358 N 
ATOM      5  H   UNL     1     108.083 134.169 120.442  1.00  0.00     0.344 HD
ATOM      6  H   UNL     1     107.319 132.670 120.756  1.00  0.00     0.344 HD
ATOM      7  H   UNL     1     106.889 134.054 121.648  1.00  0.00     0.344 HD
ENDBRANCH   3   4
ENDBRANCH   2   3
ENDBRANCH   1   2
BRANCH   1   8
ATOM      8  C   UNL     1     107.467 129.619 122.215  1.00  0.00     0.072 C 
BRANCH   8   9
ATOM      9  C   UNL     1     106.170 128.824 121.937  1.00  0.00     0.227 C 
BRANCH   9  10
ATOM     10  N   UNL     1     104.985 129.512 122.470  1.00  0.00    -0.350 N 
ATOM     11  H   UNL     1     104.936 129.384 123.508  1.00  0.00     0.345 HD
ATOM     12  H   UNL     1     104.115 129.100 122.064  1.00  0.00     0.345 HD
ATOM     13  H   UNL     1     105.019 130.535 122.255  1.00  0.00     0.345 HD
ENDBRANCH   9  10
BRANCH   9  14
ATOM     14  C   UNL     1     106.284 127.451 122.543  1.00  0.00     0.099 C 
ATOM     15  O   UNL     1     106.721 126.490 121.857  1.00  0.00    -0.544 OA
ATOM     16  O   UNL     1     105.927 127.239 123.870  1.00  0.00    -0.544 OA
ENDBRANCH   9  14
ENDBRANCH   8   9
ENDBRANCH   1   8
TORSDOF 7
ENDMDL
MODEL 7
REMARK VINA RESULT:    -3.466      3.655      4.777
REMARK INTER + INTRA:          -4.783
REMARK INTER:                  -4.686
REMARK INTRA:                  -0.097
REMARK UNBOUND:                -0.101
REMARK SMILES [NH3+]CCCC[C@H]([NH3+])C(=O)[O-]
REMARK SMILES IDX 4 1 3 2 2 3 1 4 5 8 6 9 7 10 8 14 9 15 10 16
REMARK H PARENT 1 5 1 6 1 7 7 11 7 12 7 13
REMARK Flexibility Score: inf
ROOT
ATOM      1  C   UNL     1     110.782 136.174 126.234  1.00  0.00     0.012 C 
ENDROOT
BRANCH   1   2
ATOM      2  C   UNL     1     110.741 135.283 127.486  1.00  0.00     0.061 C 
BRANCH   2   3
ATOM      3  C   UNL     1     109.781 135.814 128.563  1.00  0.00     0.258 C 
BRANCH   3   4
ATOM      4  N   UNL     1     108.813 136.746 127.986  1.00  0.00    -0.358 N 
ATOM      5  H   UNL     1     109.229 137.229 127.157  1.00  0.00     0.344 HD
ATOM      6  H   UNL     1     107.948 136.231 127.698  1.00  0.00     0.344 HD
ATOM      7  H   UNL     1     108.557 137.462 128.702  1.00  0.00     0.344 HD
ENDBRANCH   3   4
ENDBRANCH   2   3
ENDBRANCH   1   2
BRANCH   1   8
ATOM      8  C   UNL     1     111.118 135.382 124.958  1.00  0.00     0.072 C 
BRANCH   8   9
ATOM      9  C   UNL     1     111.125 136.269 123.692  1.00  0.00     0.227 C 
BRANCH   9  10
ATOM     10  N   UNL     1     110.376 137.517 123.897  1.00  0.00    -0.350 N 
ATOM     11  H   UNL     1     111.041 138.308 124.067  1.00  0.00     0.345 HD
ATOM     12  H   UNL     1     109.765 137.438 124.741  1.00  0.00     0.345 HD
ATOM     13  H   UNL     1     109.788 137.741 123.061  1.00  0.00     0.345 HD
ENDBRANCH   9  10
BRANCH   9  14
ATOM     14  C   UNL     1     110.538 135.501 122.538  1.00  0.00     0.099 C 
ATOM     15  O   UNL     1     110.104 136.111 121.526  1.00  0.00    -0.544 OA
ATOM     16  O   UNL     1     110.489 134.112 122.573  1.00  0.00    -0.544 OA
ENDBRANCH   9  14
ENDBRANCH   8   9
ENDBRANCH   1   8
TORSDOF 7
ENDMDL
MODEL 8
REMARK VINA RESULT:    -3.326      4.395      5.538
REMARK INTER + INTRA:          -4.594
REMARK INTER:                  -4.512
REMARK INTRA:                  -0.082
REMARK UNBOUND:                -0.101
REMARK SMILES [NH3+]CCCC[C@H]([NH3+])C(=O)[O-]
REMARK SMILES IDX 4 1 3 2 2 3 1 4 5 8 6 9 7 10 8 14 9 15 10 16
REMARK H PARENT 1 5 1 6 1 7 7 11 7 12 7 13
REMARK Flexibility Score: inf
ROOT
ATOM      1  C   UNL     1     110.930 135.586 125.206  1.00  0.00     0.012 C 
ENDROOT
BRANCH   1   2
ATOM      2  C   UNL     1     110.863 136.775 124.234  1.00  0.00     0.061 C 
BRANCH   2   3
ATOM      3  C   UNL     1     110.371 136.373 122.834  1.00  0.00     0.258 C 
BRANCH   3   4
ATOM      4  N   UNL     1     109.631 137.468 122.207  1.00  0.00    -0.358 N 
ATOM      5  H   UNL     1     109.068 137.979 122.925  1.00  0.00     0.344 HD
ATOM      6  H   UNL     1     110.295 138.130 121.742  1.00  0.00     0.344 HD
ATOM      7  H   UNL     1     108.985 137.076 121.486  1.00  0.00     0.344 HD
ENDBRANCH   3   4
ENDBRANCH   2   3
ENDBRANCH   1   2
BRANCH   1   8
ATOM      8  C   UNL     1     111.047 136.030 126.675  1.00  0.00     0.072 C 
BRANCH   8   9
ATOM      9  C   UNL     1     109.821 135.617 127.521  1.00  0.00     0.227 C 
BRANCH   9  10
ATOM     10  N   UNL     1     109.012 136.781 127.911  1.00  0.00    -0.350 N 
ATOM     11  H   UNL     1     109.596 137.649 127.873  1.00  0.00     0.345 HD
ATOM     12  H   UNL     1     108.675 136.674 128.893  1.00  0.00     0.345 HD
ATOM     13  H   UNL     1     108.191 136.895 127.272  1.00  0.00     0.345 HD
ENDBRANCH   9  10
BRANCH   9  14
ATOM     14  C   UNL     1     110.285 134.878 128.748  1.00  0.00     0.099 C 
ATOM     15  O   UNL     1     109.929 133.687 128.942  1.00  0.00    -0.544 OA
ATOM     16  O   UNL     1     111.124 135.501 129.665  1.00  0.00    -0.544 OA
ENDBRANCH   9  14
ENDBRANCH   8   9
ENDBRANCH   1   8
TORSDOF 7
ENDMDL
MODEL 9
REMARK VINA RESULT:    -3.315      7.194      8.152
REMARK INTER + INTRA:          -4.580
REMARK INTER:                  -4.120
REMARK INTRA:                  -0.460
REMARK UNBOUND:                -0.101
REMARK SMILES [NH3+]CCCC[C@H]([NH3+])C(=O)[O-]
REMARK SMILES IDX 4 1 3 2 2 3 1 4 5 8 6 9 7 10 8 14 9 15 10 16
REMARK H PARENT 1 5 1 6 1 7 7 11 7 12 7 13
REMARK Flexibility Score: inf
ROOT
ATOM      1  C   UNL     1     107.946 127.598 124.118  1.00  0.00     0.012 C 
ENDROOT
BRANCH   1   2
ATOM      2  C   UNL     1     107.832 127.043 125.547  1.00  0.00     0.061 C 
BRANCH   2   3
ATOM      3  C   UNL     1     106.562 126.202 125.761  1.00  0.00     0.258 C 
BRANCH   3   4
ATOM      4  N   UNL     1     105.488 127.016 126.328  1.00  0.00    -0.358 N 
ATOM      5  H   UNL     1     105.268 127.816 125.691  1.00  0.00     0.344 HD
ATOM      6  H   UNL     1     104.632 126.431 126.470  1.00  0.00     0.344 HD
ATOM      7  H   UNL     1     105.795 127.395 127.251  1.00  0.00     0.344 HD
ENDBRANCH   3   4
ENDBRANCH   2   3
ENDBRANCH   1   2
BRANCH   1   8
ATOM      8  C   UNL     1     107.054 126.840 123.119  1.00  0.00     0.072 C 
BRANCH   8   9
ATOM      9  C   UNL     1     106.360 127.782 122.108  1.00  0.00     0.227 C 
BRANCH   9  10
ATOM     10  N   UNL     1     106.895 129.149 122.182  1.00  0.00    -0.350 N 
ATOM     11  H   UNL     1     107.361 129.398 121.278  1.00  0.00     0.345 HD
ATOM     12  H   UNL     1     107.618 129.215 122.933  1.00  0.00     0.345 HD
ATOM     13  H   UNL     1     106.132 129.839 122.373  1.00  0.00     0.345 HD
ENDBRANCH   9  10
BRANCH   9  14
ATOM     14  C   UNL     1     104.878 127.795 122.371  1.00  0.00     0.099 C 
ATOM     15  O   UNL     1     104.065 127.614 121.427  1.00  0.00    -0.544 OA
ATOM     16  O   UNL     1     104.397 127.987 123.662  1.00  0.00    -0.544 OA
ENDBRANCH   9  14
ENDBRANCH   8   9
ENDBRANCH   1   8
TORSDOF 7
ENDMDL
