MODEL 1
REMARK VINA RESULT:    -5.650      0.000      0.000
REMARK INTER + INTRA:          -6.147
REMARK INTER:                  -5.980
REMARK INTRA:                  -0.167
REMARK UNBOUND:                -0.167
REMARK SMILES Cc1ccc(C(C)C)cc1
REMARK SMILES IDX 1 1 2 2 3 3 4 4 5 5 9 6 10 7 6 8 7 9 8 10
REMARK H PARENT
REMARK Flexibility Score: inf
ROOT
ATOM      1  C   UNL     1      13.813  -9.004 -22.911  1.00  0.00     0.044 C 
ATOM      2  C   UNL     1      14.586  -9.751 -21.864  1.00  0.00    -0.051 A 
ATOM      3  C   UNL     1      15.524  -9.081 -21.066  1.00  0.00     0.004 A 
ATOM      4  C   UNL     1      16.272  -9.782 -20.115  1.00  0.00     0.004 A 
ATOM      5  C   UNL     1      16.102 -11.169 -19.954  1.00  0.00    -0.045 A 
ATOM      6  C   UNL     1      15.171 -11.839 -20.772  1.00  0.00     0.004 A 
ATOM      7  C   UNL     1      14.425 -11.136 -21.722  1.00  0.00     0.004 A 
ENDROOT
BRANCH   5   8
ATOM      8  C   UNL     1      16.920 -11.919 -18.920  1.00  0.00     0.013 C 
ATOM      9  C   UNL     1      18.191 -11.145 -18.553  1.00  0.00     0.012 C 
ATOM     10  C   UNL     1      17.256 -13.335 -19.400  1.00  0.00     0.012 C 
ENDBRANCH   5   8
TORSDOF 1
ENDMDL
MODEL 2
REMARK VINA RESULT:    -5.636      0.074      1.533
REMARK INTER + INTRA:          -6.133
REMARK INTER:                  -5.965
REMARK INTRA:                  -0.167
REMARK UNBOUND:                -0.167
REMARK SMILES Cc1ccc(C(C)C)cc1
REMARK SMILES IDX 1 1 2 2 3 3 4 4 5 5 9 6 10 7 6 8 7 9 8 10
REMARK H PARENT
REMARK Flexibility Score: inf
ROOT
ATOM      1  C   UNL     1      13.797  -9.047 -22.922  1.00  0.00     0.044 C 
ATOM      2  C   UNL     1      14.634  -9.770 -21.909  1.00  0.00    -0.051 A 
ATOM      3  C   UNL     1      14.448 -11.141 -21.686  1.00  0.00     0.004 A 
ATOM      4  C   UNL     1      15.201 -11.809 -20.716  1.00  0.00     0.004 A 
ATOM      5  C   UNL     1      16.148 -11.113 -19.943  1.00  0.00    -0.045 A 
ATOM      6  C   UNL     1      16.318  -9.731 -20.159  1.00  0.00     0.004 A 
ATOM      7  C   UNL     1      15.563  -9.066 -21.130  1.00  0.00     0.004 A 
ENDROOT
BRANCH   5   8
ATOM      8  C   UNL     1      16.959 -11.848 -18.893  1.00  0.00     0.013 C 
ATOM      9  C   UNL     1      18.262 -11.103 -18.582  1.00  0.00     0.012 C 
ATOM     10  C   UNL     1      17.238 -13.293 -19.321  1.00  0.00     0.012 C 
ENDBRANCH   5   8
TORSDOF 1
ENDMDL
MODEL 3
REMARK VINA RESULT:    -5.558      0.971      4.582
REMARK INTER + INTRA:          -6.051
REMARK INTER:                  -5.893
REMARK INTRA:                  -0.158
REMARK UNBOUND:                -0.167
REMARK SMILES Cc1ccc(C(C)C)cc1
REMARK SMILES IDX 1 1 2 2 3 3 4 4 5 5 9 6 10 7 6 8 7 9 8 10
REMARK H PARENT
REMARK Flexibility Score: inf
ROOT
ATOM      1  C   UNL     1      17.148 -12.840 -18.872  1.00  0.00     0.044 C 
ATOM      2  C   UNL     1      16.266 -11.892 -19.631  1.00  0.00    -0.051 A 
ATOM      3  C   UNL     1      15.180 -12.378 -20.373  1.00  0.00     0.004 A 
ATOM      4  C   UNL     1      14.379 -11.500 -21.110  1.00  0.00     0.004 A 
ATOM      5  C   UNL     1      14.657 -10.122 -21.125  1.00  0.00    -0.045 A 
ATOM      6  C   UNL     1      15.760  -9.643 -20.391  1.00  0.00     0.004 A 
ATOM      7  C   UNL     1      16.559 -10.522 -19.656  1.00  0.00     0.004 A 
ENDROOT
BRANCH   5   8
ATOM      8  C   UNL     1      13.781  -9.180 -21.929  1.00  0.00     0.013 C 
ATOM      9  C   UNL     1      12.313  -9.620 -21.887  1.00  0.00     0.012 C 
ATOM     10  C   UNL     1      14.279  -9.057 -23.374  1.00  0.00     0.012 C 
ENDBRANCH   5   8
TORSDOF 1
ENDMDL
MODEL 4
REMARK VINA RESULT:    -5.533      5.772      8.297
REMARK INTER + INTRA:          -6.023
REMARK INTER:                  -5.866
REMARK INTRA:                  -0.158
REMARK UNBOUND:                -0.167
REMARK SMILES Cc1ccc(C(C)C)cc1
REMARK SMILES IDX 1 1 2 2 3 3 4 4 5 5 9 6 10 7 6 8 7 9 8 10
REMARK H PARENT
REMARK Flexibility Score: inf
ROOT
ATOM      1  C   UNL     1      17.860 -14.838 -19.990  1.00  0.00     0.044 C 
ATOM      2  C   UNL     1      18.649 -15.908 -20.686  1.00  0.00    -0.051 A 
ATOM      3  C   UNL     1      18.346 -17.261 -20.475  1.00  0.00     0.004 A 
ATOM      4  C   UNL     1      19.103 -18.259 -21.094  1.00  0.00     0.004 A 
ATOM      5  C   UNL     1      20.185 -17.923 -21.926  1.00  0.00    -0.045 A 
ATOM      6  C   UNL     1      20.497 -16.562 -22.120  1.00  0.00     0.004 A 
ATOM      7  C   UNL     1      19.738 -15.566 -21.500  1.00  0.00     0.004 A 
ENDROOT
BRANCH   5   8
ATOM      8  C   UNL     1      21.000 -19.016 -22.591  1.00  0.00     0.013 C 
ATOM      9  C   UNL     1      20.331 -19.495 -23.884  1.00  0.00     0.012 C 
ATOM     10  C   UNL     1      21.246 -20.186 -21.631  1.00  0.00     0.012 C 
ENDBRANCH   5   8
TORSDOF 1
ENDMDL
MODEL 5
REMARK VINA RESULT:    -5.523      5.730      8.160
REMARK INTER + INTRA:          -6.013
REMARK INTER:                  -5.859
REMARK INTRA:                  -0.155
REMARK UNBOUND:                -0.167
REMARK SMILES Cc1ccc(C(C)C)cc1
REMARK SMILES IDX 1 1 2 2 3 3 4 4 5 5 9 6 10 7 6 8 7 9 8 10
REMARK H PARENT
REMARK Flexibility Score: inf
ROOT
ATOM      1  C   UNL     1      17.774 -14.827 -19.987  1.00  0.00     0.044 C 
ATOM      2  C   UNL     1      18.597 -15.911 -20.619  1.00  0.00    -0.051 A 
ATOM      3  C   UNL     1      19.672 -15.585 -21.458  1.00  0.00     0.004 A 
ATOM      4  C   UNL     1      20.416 -16.593 -22.077  1.00  0.00     0.004 A 
ATOM      5  C   UNL     1      20.091 -17.946 -21.877  1.00  0.00    -0.045 A 
ATOM      6  C   UNL     1      18.998 -18.267 -21.048  1.00  0.00     0.004 A 
ATOM      7  C   UNL     1      18.255 -17.257 -20.430  1.00  0.00     0.004 A 
ENDROOT
BRANCH   5   8
ATOM      8  C   UNL     1      20.906 -19.031 -22.555  1.00  0.00     0.013 C 
ATOM      9  C   UNL     1      20.150 -19.625 -23.749  1.00  0.00     0.012 C 
ATOM     10  C   UNL     1      21.310 -20.124 -21.559  1.00  0.00     0.012 C 
ENDBRANCH   5   8
TORSDOF 1
ENDMDL
MODEL 6
REMARK VINA RESULT:    -5.464      1.056      4.487
REMARK INTER + INTRA:          -5.951
REMARK INTER:                  -5.784
REMARK INTRA:                  -0.167
REMARK UNBOUND:                -0.167
REMARK SMILES Cc1ccc(C(C)C)cc1
REMARK SMILES IDX 1 1 2 2 3 3 4 4 5 5 9 6 10 7 6 8 7 9 8 10
REMARK H PARENT
REMARK Flexibility Score: inf
ROOT
ATOM      1  C   UNL     1      17.588 -15.307 -19.619  1.00  0.00     0.044 C 
ATOM      2  C   UNL     1      17.038 -13.916 -19.730  1.00  0.00    -0.051 A 
ATOM      3  C   UNL     1      15.828 -13.685 -20.401  1.00  0.00     0.004 A 
ATOM      4  C   UNL     1      15.333 -12.385 -20.537  1.00  0.00     0.004 A 
ATOM      5  C   UNL     1      16.044 -11.291 -20.015  1.00  0.00    -0.045 A 
ATOM      6  C   UNL     1      17.268 -11.527 -19.358  1.00  0.00     0.004 A 
ATOM      7  C   UNL     1      17.762 -12.828 -19.223  1.00  0.00     0.004 A 
ENDROOT
BRANCH   5   8
ATOM      8  C   UNL     1      15.497  -9.885 -20.170  1.00  0.00     0.013 C 
ATOM      9  C   UNL     1      14.434  -9.824 -21.273  1.00  0.00     0.012 C 
ATOM     10  C   UNL     1      16.623  -8.878 -20.432  1.00  0.00     0.012 C 
ENDBRANCH   5   8
TORSDOF 1
ENDMDL
MODEL 7
REMARK VINA RESULT:    -5.364      5.742      8.258
REMARK INTER + INTRA:          -5.845
REMARK INTER:                  -5.688
REMARK INTRA:                  -0.157
REMARK UNBOUND:                -0.167
REMARK SMILES Cc1ccc(C(C)C)cc1
REMARK SMILES IDX 1 1 2 2 3 3 4 4 5 5 9 6 10 7 6 8 7 9 8 10
REMARK H PARENT
REMARK Flexibility Score: inf
ROOT
ATOM      1  C   UNL     1      18.291 -14.547 -19.990  1.00  0.00     0.044 C 
ATOM      2  C   UNL     1      18.795 -15.795 -20.654  1.00  0.00    -0.051 A 
ATOM      3  C   UNL     1      18.274 -17.046 -20.296  1.00  0.00     0.004 A 
ATOM      4  C   UNL     1      18.769 -18.213 -20.886  1.00  0.00     0.004 A 
ATOM      5  C   UNL     1      19.801 -18.149 -21.839  1.00  0.00    -0.045 A 
ATOM      6  C   UNL     1      20.333 -16.890 -22.181  1.00  0.00     0.004 A 
ATOM      7  C   UNL     1      19.837 -15.725 -21.589  1.00  0.00     0.004 A 
ENDROOT
BRANCH   5   8
ATOM      8  C   UNL     1      20.330 -19.422 -22.473  1.00  0.00     0.013 C 
ATOM      9  C   UNL     1      21.380 -20.089 -21.577  1.00  0.00     0.012 C 
ATOM     10  C   UNL     1      20.891 -19.150 -23.873  1.00  0.00     0.012 C 
ENDBRANCH   5   8
TORSDOF 1
ENDMDL
MODEL 8
REMARK VINA RESULT:    -5.253      1.753      3.821
REMARK INTER + INTRA:          -5.727
REMARK INTER:                  -5.571
REMARK INTRA:                  -0.157
REMARK UNBOUND:                -0.167
REMARK SMILES Cc1ccc(C(C)C)cc1
REMARK SMILES IDX 1 1 2 2 3 3 4 4 5 5 9 6 10 7 6 8 7 9 8 10
REMARK H PARENT
REMARK Flexibility Score: inf
ROOT
ATOM      1  C   UNL     1      20.116  -8.900 -19.478  1.00  0.00     0.044 C 
ATOM      2  C   UNL     1      18.796  -9.605 -19.579  1.00  0.00    -0.051 A 
ATOM      3  C   UNL     1      18.573 -10.794 -18.870  1.00  0.00     0.004 A 
ATOM      4  C   UNL     1      17.356 -11.471 -18.991  1.00  0.00     0.004 A 
ATOM      5  C   UNL     1      16.344 -10.978 -19.834  1.00  0.00    -0.045 A 
ATOM      6  C   UNL     1      16.581  -9.792 -20.558  1.00  0.00     0.004 A 
ATOM      7  C   UNL     1      17.799  -9.117 -20.435  1.00  0.00     0.004 A 
ENDROOT
BRANCH   5   8
ATOM      8  C   UNL     1      15.028 -11.722 -19.958  1.00  0.00     0.013 C 
ATOM      9  C   UNL     1      14.394 -11.955 -18.582  1.00  0.00     0.012 C 
ATOM     10  C   UNL     1      15.210 -13.044 -20.713  1.00  0.00     0.012 C 
ENDBRANCH   5   8
TORSDOF 1
ENDMDL
MODEL 9
REMARK VINA RESULT:    -5.095      1.844      3.735
REMARK INTER + INTRA:          -5.560
REMARK INTER:                  -5.400
REMARK INTRA:                  -0.159
REMARK UNBOUND:                -0.167
REMARK SMILES Cc1ccc(C(C)C)cc1
REMARK SMILES IDX 1 1 2 2 3 3 4 4 5 5 9 6 10 7 6 8 7 9 8 10
REMARK H PARENT
REMARK Flexibility Score: inf
ROOT
ATOM      1  C   UNL     1      14.983 -10.496 -19.754  1.00  0.00     0.044 C 
ATOM      2  C   UNL     1      15.866 -11.708 -19.785  1.00  0.00    -0.051 A 
ATOM      3  C   UNL     1      15.406 -12.903 -20.357  1.00  0.00     0.004 A 
ATOM      4  C   UNL     1      16.213 -14.044 -20.354  1.00  0.00     0.004 A 
ATOM      5  C   UNL     1      17.491 -14.014 -19.768  1.00  0.00    -0.045 A 
ATOM      6  C   UNL     1      17.940 -12.816 -19.178  1.00  0.00     0.004 A 
ATOM      7  C   UNL     1      17.131 -11.676 -19.183  1.00  0.00     0.004 A 
ENDROOT
BRANCH   5   8
ATOM      8  C   UNL     1      18.357 -15.260 -19.770  1.00  0.00     0.013 C 
ATOM      9  C   UNL     1      19.453 -15.168 -20.838  1.00  0.00     0.012 C 
ATOM     10  C   UNL     1      17.509 -16.523 -19.956  1.00  0.00     0.012 C 
ENDBRANCH   5   8
TORSDOF 1
ENDMDL
