MODEL 1
REMARK VINA RESULT:    -5.985      0.000      0.000
REMARK INTER + INTRA:          -8.892
REMARK INTER:                  -8.784
REMARK INTRA:                  -0.108
REMARK UNBOUND:                -0.108
REMARK SMILES O=C([O-])CCCCCCCC(=O)[O-]
REMARK SMILES IDX 7 1 6 2 5 3 4 4 2 5 1 6 3 7 8 8 9 9 10 10 11 11 12 12 13 13
REMARK H PARENT
REMARK Flexibility Score: inf
ROOT
ATOM      1  C   UNL     1      -6.052   6.333   2.921  1.00  0.00     0.000 C 
ENDROOT
BRANCH   1   2
ATOM      2  C   UNL     1      -5.381   6.627   4.275  1.00  0.00     0.000 C 
BRANCH   2   3
ATOM      3  C   UNL     1      -4.121   5.778   4.512  1.00  0.00     0.006 C 
BRANCH   3   4
ATOM      4  C   UNL     1      -4.403   4.561   5.404  1.00  0.00     0.053 C 
BRANCH   4   5
ATOM      5  C   UNL     1      -3.202   3.675   5.532  1.00  0.00     0.041 C 
ATOM      6  O   UNL     1      -2.603   3.266   4.504  1.00  0.00    -0.550 OA
ATOM      7  O   UNL     1      -2.762   3.279   6.789  1.00  0.00    -0.550 OA
ENDBRANCH   4   5
ENDBRANCH   3   4
ENDBRANCH   2   3
ENDBRANCH   1   2
BRANCH   1   8
ATOM      8  C   UNL     1      -7.537   5.924   3.001  1.00  0.00     0.000 C 
BRANCH   8   9
ATOM      9  C   UNL     1      -8.288   5.919   1.655  1.00  0.00     0.006 C 
BRANCH   9  10
ATOM     10  C   UNL     1      -9.820   5.927   1.783  1.00  0.00     0.053 C 
BRANCH  10  11
ATOM     11  C   UNL     1     -10.271   5.521   3.152  1.00  0.00     0.041 C 
ATOM     12  O   UNL     1     -10.405   4.302   3.439  1.00  0.00    -0.550 OA
ATOM     13  O   UNL     1     -10.576   6.489   4.101  1.00  0.00    -0.550 OA
ENDBRANCH  10  11
ENDBRANCH   9  10
ENDBRANCH   8   9
ENDBRANCH   1   8
TORSDOF 8
ENDMDL
MODEL 2
REMARK VINA RESULT:    -5.912      2.861      7.592
REMARK INTER + INTRA:          -8.784
REMARK INTER:                  -8.613
REMARK INTRA:                  -0.171
REMARK UNBOUND:                -0.108
REMARK SMILES O=C([O-])CCCCCCCC(=O)[O-]
REMARK SMILES IDX 7 1 6 2 5 3 4 4 2 5 1 6 3 7 8 8 9 9 10 10 11 11 12 12 13 13
REMARK H PARENT
REMARK Flexibility Score: inf
ROOT
ATOM      1  C   UNL     1      -4.415   4.470   5.744  1.00  0.00     0.000 C 
ENDROOT
BRANCH   1   2
ATOM      2  C   UNL     1      -4.038   5.417   4.591  1.00  0.00     0.000 C 
BRANCH   2   3
ATOM      3  C   UNL     1      -5.126   6.463   4.297  1.00  0.00     0.006 C 
BRANCH   3   4
ATOM      4  C   UNL     1      -6.403   5.826   3.731  1.00  0.00     0.053 C 
BRANCH   4   5
ATOM      5  C   UNL     1      -6.696   6.308   2.343  1.00  0.00     0.041 C 
ATOM      6  O   UNL     1      -7.766   5.976   1.770  1.00  0.00    -0.550 OA
ATOM      7  O   UNL     1      -5.774   7.103   1.674  1.00  0.00    -0.550 OA
ENDBRANCH   4   5
ENDBRANCH   3   4
ENDBRANCH   2   3
ENDBRANCH   1   2
BRANCH   1   8
ATOM      8  C   UNL     1      -3.331   3.444   6.131  1.00  0.00     0.000 C 
BRANCH   8   9
ATOM      9  C   UNL     1      -3.265   3.096   7.632  1.00  0.00     0.006 C 
BRANCH   9  10
ATOM     10  C   UNL     1      -2.509   1.795   7.949  1.00  0.00     0.053 C 
BRANCH  10  11
ATOM     11  C   UNL     1      -1.790   1.870   9.259  1.00  0.00     0.041 C 
ATOM     12  O   UNL     1      -2.435   1.825  10.340  1.00  0.00    -0.550 OA
ATOM     13  O   UNL     1      -0.409   2.024   9.289  1.00  0.00    -0.550 OA
ENDBRANCH  10  11
ENDBRANCH   9  10
ENDBRANCH   8   9
ENDBRANCH   1   8
TORSDOF 8
ENDMDL
MODEL 3
REMARK VINA RESULT:    -5.873      2.756      4.224
REMARK INTER + INTRA:          -8.727
REMARK INTER:                  -8.556
REMARK INTRA:                  -0.171
REMARK UNBOUND:                -0.108
REMARK SMILES O=C([O-])CCCCCCCC(=O)[O-]
REMARK SMILES IDX 7 1 6 2 5 3 4 4 2 5 1 6 3 7 8 8 9 9 10 10 11 11 12 12 13 13
REMARK H PARENT
REMARK Flexibility Score: inf
ROOT
ATOM      1  C   UNL     1      -4.333   4.384   5.624  1.00  0.00     0.000 C 
ENDROOT
BRANCH   1   2
ATOM      2  C   UNL     1      -3.246   3.374   6.029  1.00  0.00     0.000 C 
BRANCH   2   3
ATOM      3  C   UNL     1      -3.232   3.084   7.539  1.00  0.00     0.006 C 
BRANCH   3   4
ATOM      4  C   UNL     1      -2.497   1.778   7.872  1.00  0.00     0.053 C 
BRANCH   4   5
ATOM      5  C   UNL     1      -1.761   1.870   9.173  1.00  0.00     0.041 C 
ATOM      6  O   UNL     1      -0.504   1.923   9.188  1.00  0.00    -0.550 OA
ATOM      7  O   UNL     1      -2.465   1.868  10.370  1.00  0.00    -0.550 OA
ENDBRANCH   4   5
ENDBRANCH   3   4
ENDBRANCH   2   3
ENDBRANCH   1   2
BRANCH   1   8
ATOM      8  C   UNL     1      -3.851   5.544   4.729  1.00  0.00     0.000 C 
BRANCH   8   9
ATOM      9  C   UNL     1      -4.970   6.422   4.135  1.00  0.00     0.006 C 
BRANCH   9  10
ATOM     10  C   UNL     1      -6.203   5.639   3.654  1.00  0.00     0.053 C 
BRANCH  10  11
ATOM     11  C   UNL     1      -6.791   6.228   2.410  1.00  0.00     0.041 C 
ATOM     12  O   UNL     1      -6.106   7.002   1.690  1.00  0.00    -0.550 OA
ATOM     13  O   UNL     1      -8.107   5.950   2.062  1.00  0.00    -0.550 OA
ENDBRANCH  10  11
ENDBRANCH   9  10
ENDBRANCH   8   9
ENDBRANCH   1   8
TORSDOF 8
ENDMDL
MODEL 4
REMARK VINA RESULT:    -5.862      3.094      6.124
REMARK INTER + INTRA:          -8.712
REMARK INTER:                  -8.322
REMARK INTRA:                  -0.390
REMARK UNBOUND:                -0.108
REMARK SMILES O=C([O-])CCCCCCCC(=O)[O-]
REMARK SMILES IDX 7 1 6 2 5 3 4 4 2 5 1 6 3 7 8 8 9 9 10 10 11 11 12 12 13 13
REMARK H PARENT
REMARK Flexibility Score: inf
ROOT
ATOM      1  C   UNL     1      -4.267   4.335   4.982  1.00  0.00     0.000 C 
ENDROOT
BRANCH   1   2
ATOM      2  C   UNL     1      -4.001   5.785   4.540  1.00  0.00     0.000 C 
BRANCH   2   3
ATOM      3  C   UNL     1      -5.288   6.543   4.175  1.00  0.00     0.006 C 
BRANCH   3   4
ATOM      4  C   UNL     1      -6.274   5.666   3.390  1.00  0.00     0.053 C 
BRANCH   4   5
ATOM      5  C   UNL     1      -6.698   6.315   2.108  1.00  0.00     0.041 C 
ATOM      6  O   UNL     1      -5.920   7.101   1.507  1.00  0.00    -0.550 OA
ATOM      7  O   UNL     1      -7.965   6.073   1.594  1.00  0.00    -0.550 OA
ENDBRANCH   4   5
ENDBRANCH   3   4
ENDBRANCH   2   3
ENDBRANCH   1   2
BRANCH   1   8
ATOM      8  C   UNL     1      -3.148   3.330   4.643  1.00  0.00     0.000 C 
BRANCH   8   9
ATOM      9  C   UNL     1      -3.620   1.883   4.394  1.00  0.00     0.006 C 
BRANCH   9  10
ATOM     10  C   UNL     1      -4.515   1.712   3.156  1.00  0.00     0.053 C 
BRANCH  10  11
ATOM     11  C   UNL     1      -4.359   0.359   2.534  1.00  0.00     0.041 C 
ATOM     12  O   UNL     1      -4.428   0.225   1.283  1.00  0.00    -0.550 OA
ATOM     13  O   UNL     1      -4.173  -0.760   3.337  1.00  0.00    -0.550 OA
ENDBRANCH  10  11
ENDBRANCH   9  10
ENDBRANCH   8   9
ENDBRANCH   1   8
TORSDOF 8
ENDMDL
MODEL 5
REMARK VINA RESULT:    -5.834      0.605      6.401
REMARK INTER + INTRA:          -8.670
REMARK INTER:                  -8.523
REMARK INTRA:                  -0.147
REMARK UNBOUND:                -0.108
REMARK SMILES O=C([O-])CCCCCCCC(=O)[O-]
REMARK SMILES IDX 7 1 6 2 5 3 4 4 2 5 1 6 3 7 8 8 9 9 10 10 11 11 12 12 13 13
REMARK H PARENT
REMARK Flexibility Score: inf
ROOT
ATOM      1  C   UNL     1      -6.206   6.338   2.844  1.00  0.00     0.000 C 
ENDROOT
BRANCH   1   2
ATOM      2  C   UNL     1      -7.568   5.628   2.939  1.00  0.00     0.000 C 
BRANCH   2   3
ATOM      3  C   UNL     1      -8.483   5.932   1.740  1.00  0.00     0.006 C 
BRANCH   3   4
ATOM      4  C   UNL     1      -9.931   6.205   2.172  1.00  0.00     0.053 C 
BRANCH   4   5
ATOM      5  C   UNL     1     -10.303   5.424   3.396  1.00  0.00     0.041 C 
ATOM      6  O   UNL     1     -10.600   4.205   3.303  1.00  0.00    -0.550 OA
ATOM      7  O   UNL     1     -10.348   6.053   4.633  1.00  0.00    -0.550 OA
ENDBRANCH   4   5
ENDBRANCH   3   4
ENDBRANCH   2   3
ENDBRANCH   1   2
BRANCH   1   8
ATOM      8  C   UNL     1      -5.511   6.605   4.195  1.00  0.00     0.000 C 
BRANCH   8   9
ATOM      9  C   UNL     1      -5.089   5.345   4.976  1.00  0.00     0.006 C 
BRANCH   9  10
ATOM     10  C   UNL     1      -3.609   4.962   4.812  1.00  0.00     0.053 C 
BRANCH  10  11
ATOM     11  C   UNL     1      -3.317   3.603   5.367  1.00  0.00     0.041 C 
ATOM     12  O   UNL     1      -3.486   2.578   4.654  1.00  0.00    -0.550 OA
ATOM     13  O   UNL     1      -2.891   3.464   6.682  1.00  0.00    -0.550 OA
ENDBRANCH  10  11
ENDBRANCH   9  10
ENDBRANCH   8   9
ENDBRANCH   1   8
TORSDOF 8
ENDMDL
MODEL 6
REMARK VINA RESULT:    -5.764     14.793     15.992
REMARK INTER + INTRA:          -8.568
REMARK INTER:                  -8.191
REMARK INTRA:                  -0.377
REMARK UNBOUND:                -0.108
REMARK SMILES O=C([O-])CCCCCCCC(=O)[O-]
REMARK SMILES IDX 7 1 6 2 5 3 4 4 2 5 1 6 3 7 8 8 9 9 10 10 11 11 12 12 13 13
REMARK H PARENT
REMARK Flexibility Score: inf
ROOT
ATOM      1  C   UNL     1       3.579  -3.292  -8.119  1.00  0.00     0.000 C 
ENDROOT
BRANCH   1   2
ATOM      2  C   UNL     1       4.615  -3.007  -7.018  1.00  0.00     0.000 C 
BRANCH   2   3
ATOM      3  C   UNL     1       4.531  -1.569  -6.477  1.00  0.00     0.006 C 
BRANCH   3   4
ATOM      4  C   UNL     1       4.188  -1.533  -4.981  1.00  0.00     0.053 C 
BRANCH   4   5
ATOM      5  C   UNL     1       5.419  -1.502  -4.128  1.00  0.00     0.041 C 
ATOM      6  O   UNL     1       6.497  -1.045  -4.588  1.00  0.00    -0.550 OA
ATOM      7  O   UNL     1       5.379  -2.004  -2.834  1.00  0.00    -0.550 OA
ENDBRANCH   4   5
ENDBRANCH   3   4
ENDBRANCH   2   3
ENDBRANCH   1   2
BRANCH   1   8
ATOM      8  C   UNL     1       2.360  -4.125  -7.672  1.00  0.00     0.000 C 
BRANCH   8   9
ATOM      9  C   UNL     1       0.987  -3.516  -8.020  1.00  0.00     0.006 C 
BRANCH   9  10
ATOM     10  C   UNL     1      -0.196  -4.148  -7.269  1.00  0.00     0.053 C 
BRANCH  10  11
ATOM     11  C   UNL     1      -0.255  -3.704  -5.840  1.00  0.00     0.041 C 
ATOM     12  O   UNL     1      -0.259  -2.476  -5.558  1.00  0.00    -0.550 OA
ATOM     13  O   UNL     1      -0.271  -4.644  -4.818  1.00  0.00    -0.550 OA
ENDBRANCH  10  11
ENDBRANCH   9  10
ENDBRANCH   8   9
ENDBRANCH   1   8
TORSDOF 8
ENDMDL
MODEL 7
REMARK VINA RESULT:    -5.733      1.530      2.549
REMARK INTER + INTRA:          -8.522
REMARK INTER:                  -8.288
REMARK INTRA:                  -0.234
REMARK UNBOUND:                -0.108
REMARK SMILES O=C([O-])CCCCCCCC(=O)[O-]
REMARK SMILES IDX 7 1 6 2 5 3 4 4 2 5 1 6 3 7 8 8 9 9 10 10 11 11 12 12 13 13
REMARK H PARENT
REMARK Flexibility Score: inf
ROOT
ATOM      1  C   UNL     1      -8.095   5.997   2.148  1.00  0.00     0.000 C 
ENDROOT
BRANCH   1   2
ATOM      2  C   UNL     1      -6.695   6.352   1.618  1.00  0.00     0.000 C 
BRANCH   2   3
ATOM      3  C   UNL     1      -5.704   6.706   2.740  1.00  0.00     0.006 C 
BRANCH   3   4
ATOM      4  C   UNL     1      -5.943   5.873   4.007  1.00  0.00     0.053 C 
BRANCH   4   5
ATOM      5  C   UNL     1      -4.663   5.573   4.725  1.00  0.00     0.041 C 
ATOM      6  O   UNL     1      -4.657   4.791   5.711  1.00  0.00    -0.550 OA
ATOM      7  O   UNL     1      -3.481   6.180   4.321  1.00  0.00    -0.550 OA
ENDBRANCH   4   5
ENDBRANCH   3   4
ENDBRANCH   2   3
ENDBRANCH   1   2
BRANCH   1   8
ATOM      8  C   UNL     1      -9.219   6.014   1.092  1.00  0.00     0.000 C 
BRANCH   8   9
ATOM      9  C   UNL     1     -10.626   5.677   1.627  1.00  0.00     0.006 C 
BRANCH   9  10
ATOM     10  C   UNL     1     -11.090   6.565   2.793  1.00  0.00     0.053 C 
BRANCH  10  11
ATOM     11  C   UNL     1     -10.936   5.879   4.115  1.00  0.00     0.041 C 
ATOM     12  O   UNL     1     -10.606   6.539   5.136  1.00  0.00    -0.550 OA
ATOM     13  O   UNL     1     -11.122   4.506   4.214  1.00  0.00    -0.550 OA
ENDBRANCH  10  11
ENDBRANCH   9  10
ENDBRANCH   8   9
ENDBRANCH   1   8
TORSDOF 8
ENDMDL
MODEL 8
REMARK VINA RESULT:    -5.692      8.053      9.256
REMARK INTER + INTRA:          -8.462
REMARK INTER:                  -8.160
REMARK INTRA:                  -0.301
REMARK UNBOUND:                -0.108
REMARK SMILES O=C([O-])CCCCCCCC(=O)[O-]
REMARK SMILES IDX 7 1 6 2 5 3 4 4 2 5 1 6 3 7 8 8 9 9 10 10 11 11 12 12 13 13
REMARK H PARENT
REMARK Flexibility Score: inf
ROOT
ATOM      1  C   UNL     1      -4.696   0.042  -1.601  1.00  0.00     0.000 C 
ENDROOT
BRANCH   1   2
ATOM      2  C   UNL     1      -3.730   0.369  -2.754  1.00  0.00     0.000 C 
BRANCH   2   3
ATOM      3  C   UNL     1      -3.186  -0.889  -3.451  1.00  0.00     0.006 C 
BRANCH   3   4
ATOM      4  C   UNL     1      -4.275  -1.949  -3.665  1.00  0.00     0.053 C 
BRANCH   4   5
ATOM      5  C   UNL     1      -3.889  -3.271  -3.075  1.00  0.00     0.041 C 
ATOM      6  O   UNL     1      -4.762  -4.156  -2.877  1.00  0.00    -0.550 OA
ATOM      7  O   UNL     1      -2.569  -3.514  -2.720  1.00  0.00    -0.550 OA
ENDBRANCH   4   5
ENDBRANCH   3   4
ENDBRANCH   2   3
ENDBRANCH   1   2
BRANCH   1   8
ATOM      8  C   UNL     1      -4.059   0.024  -0.197  1.00  0.00     0.000 C 
BRANCH   8   9
ATOM      9  C   UNL     1      -5.006   0.409   0.957  1.00  0.00     0.006 C 
BRANCH   9  10
ATOM     10  C   UNL     1      -4.309   0.591   2.316  1.00  0.00     0.053 C 
BRANCH  10  11
ATOM     11  C   UNL     1      -4.936  -0.249   3.385  1.00  0.00     0.041 C 
ATOM     12  O   UNL     1      -4.296  -0.517   4.437  1.00  0.00    -0.550 OA
ATOM     13  O   UNL     1      -6.213  -0.766   3.206  1.00  0.00    -0.550 OA
ENDBRANCH  10  11
ENDBRANCH   9  10
ENDBRANCH   8   9
ENDBRANCH   1   8
TORSDOF 8
ENDMDL
MODEL 9
REMARK VINA RESULT:    -5.686     14.820     16.953
REMARK INTER + INTRA:          -8.453
REMARK INTER:                  -8.135
REMARK INTRA:                  -0.317
REMARK UNBOUND:                -0.108
REMARK SMILES O=C([O-])CCCCCCCC(=O)[O-]
REMARK SMILES IDX 7 1 6 2 5 3 4 4 2 5 1 6 3 7 8 8 9 9 10 10 11 11 12 12 13 13
REMARK H PARENT
REMARK Flexibility Score: inf
ROOT
ATOM      1  C   UNL     1       3.976  -3.790  -7.854  1.00  0.00     0.000 C 
ENDROOT
BRANCH   1   2
ATOM      2  C   UNL     1       2.528  -3.319  -7.634  1.00  0.00     0.000 C 
BRANCH   2   3
ATOM      3  C   UNL     1       1.523  -4.483  -7.588  1.00  0.00     0.006 C 
BRANCH   3   4
ATOM      4  C   UNL     1       0.079  -3.993  -7.411  1.00  0.00     0.053 C 
BRANCH   4   5
ATOM      5  C   UNL     1      -0.211  -3.613  -5.991  1.00  0.00     0.041 C 
ATOM      6  O   UNL     1      -0.451  -2.414  -5.692  1.00  0.00    -0.550 OA
ATOM      7  O   UNL     1      -0.187  -4.580  -4.995  1.00  0.00    -0.550 OA
ENDBRANCH   4   5
ENDBRANCH   3   4
ENDBRANCH   2   3
ENDBRANCH   1   2
BRANCH   1   8
ATOM      8  C   UNL     1       5.042  -3.038  -7.032  1.00  0.00     0.000 C 
BRANCH   8   9
ATOM      9  C   UNL     1       4.608  -1.658  -6.502  1.00  0.00     0.006 C 
BRANCH   9  10
ATOM     10  C   UNL     1       4.224  -1.642  -5.014  1.00  0.00     0.053 C 
BRANCH  10  11
ATOM     11  C   UNL     1       5.421  -1.499  -4.127  1.00  0.00     0.041 C 
ATOM     12  O   UNL     1       6.494  -1.021  -4.583  1.00  0.00    -0.550 OA
ATOM     13  O   UNL     1       5.366  -1.926  -2.806  1.00  0.00    -0.550 OA
ENDBRANCH  10  11
ENDBRANCH   9  10
ENDBRANCH   8   9
ENDBRANCH   1   8
TORSDOF 8
ENDMDL
