MODEL 1
REMARK VINA RESULT:     0.000      0.000      0.000
REMARK INTER + INTRA:          -1.823
REMARK INTER:                   0.000
REMARK INTRA:                  -1.823
REMARK UNBOUND:                -1.823
REMARK SMILES CCCCCCCCCCCCO
REMARK SMILES IDX 7 1 6 2 5 3 4 4 3 5 2 6 1 7 8 8 9 9 10 10 11 11 12 12 13 13
REMARK H PARENT 13 14
REMARK Flexibility Score: inf
ROOT
ATOM      1  C   UNL     1       4.054  18.819 -52.590  1.00  0.00     0.000 C 
ENDROOT
BRANCH   1   2
ATOM      2  C   UNL     1       3.195  17.786 -51.854  1.00  0.00    -0.000 C 
BRANCH   2   3
ATOM      3  C   UNL     1       3.597  16.357 -52.242  1.00  0.00    -0.000 C 
BRANCH   3   4
ATOM      4  C   UNL     1       5.011  16.322 -52.833  1.00  0.00    -0.000 C 
BRANCH   4   5
ATOM      5  C   UNL     1       5.982  15.591 -51.893  1.00  0.00    -0.000 C 
BRANCH   5   6
ATOM      6  C   UNL     1       7.392  16.199 -51.914  1.00  0.00    -0.003 C 
ATOM      7  C   UNL     1       7.481  17.459 -52.776  1.00  0.00     0.004 C 
ENDBRANCH   5   6
ENDBRANCH   4   5
ENDBRANCH   3   4
ENDBRANCH   2   3
ENDBRANCH   1   2
BRANCH   1   8
ATOM      8  C   UNL     1       4.709  19.795 -51.604  1.00  0.00     0.000 C 
BRANCH   8   9
ATOM      9  C   UNL     1       4.627  19.262 -50.166  1.00  0.00     0.000 C 
BRANCH   9  10
ATOM     10  C   UNL     1       5.996  18.844 -49.608  1.00  0.00     0.002 C 
BRANCH  10  11
ATOM     11  C   UNL     1       5.923  17.564 -48.758  1.00  0.00     0.028 C 
BRANCH  11  12
ATOM     12  C   UNL     1       4.478  17.179 -48.431  1.00  0.00     0.156 C 
BRANCH  12  13
ATOM     13  O   UNL     1       4.229  15.842 -48.776  1.00  0.00    -0.396 OA
ATOM     14  H   UNL     1       5.107  15.431 -48.990  1.00  0.00     0.210 HD
ENDBRANCH  12  13
ENDBRANCH  11  12
ENDBRANCH  10  11
ENDBRANCH   9  10
ENDBRANCH   8   9
ENDBRANCH   1   8
TORSDOF 11
ENDMDL
MODEL 2
REMARK VINA RESULT:     0.000      3.065      4.817
REMARK INTER + INTRA:          -1.822
REMARK INTER:                   0.000
REMARK INTRA:                  -1.822
REMARK UNBOUND:                -1.823
REMARK SMILES CCCCCCCCCCCCO
REMARK SMILES IDX 7 1 6 2 5 3 4 4 3 5 2 6 1 7 8 8 9 9 10 10 11 11 12 12 13 13
REMARK H PARENT 13 14
REMARK Flexibility Score: inf
ROOT
ATOM      1  C   UNL     1       7.218  15.244 -50.451  1.00  0.00     0.000 C 
ENDROOT
BRANCH   1   2
ATOM      2  C   UNL     1       6.808  16.156 -51.612  1.00  0.00    -0.000 C 
BRANCH   2   3
ATOM      3  C   UNL     1       7.451  15.699 -52.927  1.00  0.00    -0.000 C 
BRANCH   3   4
ATOM      4  C   UNL     1       7.831  14.214 -52.869  1.00  0.00    -0.000 C 
BRANCH   4   5
ATOM      5  C   UNL     1       6.911  13.377 -53.770  1.00  0.00    -0.000 C 
BRANCH   5   6
ATOM      6  C   UNL     1       6.626  11.984 -53.188  1.00  0.00    -0.003 C 
ATOM      7  C   UNL     1       7.220  11.793 -51.791  1.00  0.00     0.004 C 
ENDBRANCH   5   6
ENDBRANCH   4   5
ENDBRANCH   3   4
ENDBRANCH   2   3
ENDBRANCH   1   2
BRANCH   1   8
ATOM      8  C   UNL     1       5.987  14.710 -49.708  1.00  0.00     0.000 C 
BRANCH   8   9
ATOM      9  C   UNL     1       4.703  14.979 -50.507  1.00  0.00     0.000 C 
BRANCH   9  10
ATOM     10  C   UNL     1       4.050  13.691 -51.033  1.00  0.00     0.002 C 
BRANCH  10  11
ATOM     11  C   UNL     1       3.470  13.858 -52.448  1.00  0.00     0.028 C 
BRANCH  11  12
ATOM     12  C   UNL     1       3.408  15.329 -52.869  1.00  0.00     0.156 C 
BRANCH  12  13
ATOM     13  O   UNL     1       4.076  15.526 -54.087  1.00  0.00    -0.396 OA
ATOM     14  H   UNL     1       4.513  14.664 -54.320  1.00  0.00     0.210 HD
ENDBRANCH  12  13
ENDBRANCH  11  12
ENDBRANCH  10  11
ENDBRANCH   9  10
ENDBRANCH   8   9
ENDBRANCH   1   8
TORSDOF 11
ENDMDL
MODEL 3
REMARK VINA RESULT:     0.000      3.850      6.001
REMARK INTER + INTRA:          -1.822
REMARK INTER:                   0.000
REMARK INTRA:                  -1.822
REMARK UNBOUND:                -1.823
REMARK SMILES CCCCCCCCCCCCO
REMARK SMILES IDX 7 1 6 2 5 3 4 4 3 5 2 6 1 7 8 8 9 9 10 10 11 11 12 12 13 13
REMARK H PARENT 13 14
REMARK Flexibility Score: inf
ROOT
ATOM      1  C   UNL     1       5.394  19.261 -46.315  1.00  0.00     0.000 C 
ENDROOT
BRANCH   1   2
ATOM      2  C   UNL     1       6.507  18.803 -47.264  1.00  0.00    -0.000 C 
BRANCH   2   3
ATOM      3  C   UNL     1       6.002  18.727 -48.710  1.00  0.00    -0.000 C 
BRANCH   3   4
ATOM      4  C   UNL     1       4.758  19.601 -48.908  1.00  0.00    -0.000 C 
BRANCH   4   5
ATOM      5  C   UNL     1       5.074  20.815 -49.795  1.00  0.00    -0.000 C 
BRANCH   5   6
ATOM      6  C   UNL     1       4.293  22.070 -49.376  1.00  0.00    -0.003 C 
ATOM      7  C   UNL     1       3.467  21.857 -48.107  1.00  0.00     0.004 C 
ENDBRANCH   5   6
ENDBRANCH   4   5
ENDBRANCH   3   4
ENDBRANCH   2   3
ENDBRANCH   1   2
BRANCH   1   8
ATOM      8  C   UNL     1       5.840  20.470 -45.485  1.00  0.00     0.000 C 
BRANCH   8   9
ATOM      9  C   UNL     1       7.123  21.090 -46.060  1.00  0.00     0.000 C 
BRANCH   9  10
ATOM     10  C   UNL     1       6.890  22.482 -46.667  1.00  0.00     0.002 C 
BRANCH  10  11
ATOM     11  C   UNL     1       7.695  22.706 -47.958  1.00  0.00     0.028 C 
BRANCH  11  12
ATOM     12  C   UNL     1       8.752  21.618 -48.167  1.00  0.00     0.156 C 
BRANCH  12  13
ATOM     13  O   UNL     1       8.621  21.037 -49.437  1.00  0.00    -0.396 OA
ATOM     14  H   UNL     1       8.931  21.711 -50.097  1.00  0.00     0.210 HD
ENDBRANCH  12  13
ENDBRANCH  11  12
ENDBRANCH  10  11
ENDBRANCH   9  10
ENDBRANCH   8   9
ENDBRANCH   1   8
TORSDOF 11
ENDMDL
MODEL 4
REMARK VINA RESULT:     0.000      9.615     11.432
REMARK INTER + INTRA:          -1.822
REMARK INTER:                   0.000
REMARK INTRA:                  -1.822
REMARK UNBOUND:                -1.823
REMARK SMILES CCCCCCCCCCCCO
REMARK SMILES IDX 7 1 6 2 5 3 4 4 3 5 2 6 1 7 8 8 9 9 10 10 11 11 12 12 13 13
REMARK H PARENT 13 14
REMARK Flexibility Score: inf
ROOT
ATOM      1  C   UNL     1       3.845  10.343 -43.105  1.00  0.00     0.000 C 
ENDROOT
BRANCH   1   2
ATOM      2  C   UNL     1       4.758   9.660 -42.081  1.00  0.00    -0.000 C 
BRANCH   2   3
ATOM      3  C   UNL     1       4.393  10.078 -40.652  1.00  0.00    -0.000 C 
BRANCH   3   4
ATOM      4  C   UNL     1       3.569  11.371 -40.647  1.00  0.00    -0.000 C 
BRANCH   4   5
ATOM      5  C   UNL     1       4.348  12.517 -39.984  1.00  0.00    -0.000 C 
BRANCH   5   6
ATOM      6  C   UNL     1       4.090  13.872 -40.660  1.00  0.00    -0.003 C 
ATOM      7  C   UNL     1       3.157  13.764 -41.867  1.00  0.00     0.004 C 
ENDBRANCH   5   6
ENDBRANCH   4   5
ENDBRANCH   3   4
ENDBRANCH   2   3
ENDBRANCH   1   2
BRANCH   1   8
ATOM      8  C   UNL     1       4.665  11.089 -44.165  1.00  0.00     0.000 C 
BRANCH   8   9
ATOM      9  C   UNL     1       6.118  11.279 -43.703  1.00  0.00     0.000 C 
BRANCH   9  10
ATOM     10  C   UNL     1       6.453  12.744 -43.382  1.00  0.00     0.002 C 
BRANCH  10  11
ATOM     11  C   UNL     1       7.357  12.887 -42.146  1.00  0.00     0.028 C 
BRANCH  11  12
ATOM     12  C   UNL     1       7.932  11.539 -41.702  1.00  0.00     0.156 C 
BRANCH  12  13
ATOM     13  O   UNL     1       7.709  11.331 -40.333  1.00  0.00    -0.396 OA
ATOM     14  H   UNL     1       7.703  10.348 -40.187  1.00  0.00     0.210 HD
ENDBRANCH  12  13
ENDBRANCH  11  12
ENDBRANCH  10  11
ENDBRANCH   9  10
ENDBRANCH   8   9
ENDBRANCH   1   8
TORSDOF 11
ENDMDL
MODEL 5
REMARK VINA RESULT:     0.001     10.450     12.836
REMARK INTER + INTRA:          -1.822
REMARK INTER:                   0.000
REMARK INTRA:                  -1.822
REMARK UNBOUND:                -1.823
REMARK SMILES CCCCCCCCCCCCO
REMARK SMILES IDX 7 1 6 2 5 3 4 4 3 5 2 6 1 7 8 8 9 9 10 10 11 11 12 12 13 13
REMARK H PARENT 13 14
REMARK Flexibility Score: inf
ROOT
ATOM      1  C   UNL     1       3.195  21.002 -41.214  1.00  0.00     0.000 C 
ENDROOT
BRANCH   1   2
ATOM      2  C   UNL     1       3.084  22.527 -41.108  1.00  0.00    -0.000 C 
BRANCH   2   3
ATOM      3  C   UNL     1       2.962  22.971 -39.645  1.00  0.00    -0.000 C 
BRANCH   3   4
ATOM      4  C   UNL     1       2.421  21.837 -38.767  1.00  0.00    -0.000 C 
BRANCH   4   5
ATOM      5  C   UNL     1       0.987  22.136 -38.305  1.00  0.00    -0.000 C 
BRANCH   5   6
ATOM      6  C   UNL     1       0.122  20.869 -38.209  1.00  0.00    -0.003 C 
ATOM      7  C   UNL     1       0.851  19.617 -38.698  1.00  0.00     0.004 C 
ENDBRANCH   5   6
ENDBRANCH   4   5
ENDBRANCH   3   4
ENDBRANCH   2   3
ENDBRANCH   1   2
BRANCH   1   8
ATOM      8  C   UNL     1       2.135  20.436 -42.167  1.00  0.00     0.000 C 
BRANCH   8   9
ATOM      9  C   UNL     1       1.081  21.500 -42.511  1.00  0.00     0.000 C 
BRANCH   9  10
ATOM     10  C   UNL     1      -0.308  21.165 -41.944  1.00  0.00     0.002 C 
BRANCH  10  11
ATOM     11  C   UNL     1      -1.042  22.407 -41.410  1.00  0.00     0.028 C 
BRANCH  11  12
ATOM     12  C   UNL     1      -0.366  23.706 -41.856  1.00  0.00     0.156 C 
BRANCH  12  13
ATOM     13  O   UNL     1      -0.065  24.515 -40.750  1.00  0.00    -0.396 OA
ATOM     14  H   UNL     1      -0.921  24.683 -40.274  1.00  0.00     0.210 HD
ENDBRANCH  12  13
ENDBRANCH  11  12
ENDBRANCH  10  11
ENDBRANCH   9  10
ENDBRANCH   8   9
ENDBRANCH   1   8
TORSDOF 11
ENDMDL
MODEL 6
REMARK VINA RESULT:     0.001      5.228      7.603
REMARK INTER + INTRA:          -1.821
REMARK INTER:                   0.000
REMARK INTRA:                  -1.821
REMARK UNBOUND:                -1.823
REMARK SMILES CCCCCCCCCCCCO
REMARK SMILES IDX 7 1 6 2 5 3 4 4 3 5 2 6 1 7 8 8 9 9 10 10 11 11 12 12 13 13
REMARK H PARENT 13 14
REMARK Flexibility Score: inf
ROOT
ATOM      1  C   UNL     1       8.969  17.872 -43.379  1.00  0.00     0.000 C 
ENDROOT
BRANCH   1   2
ATOM      2  C   UNL     1       7.758  17.061 -42.907  1.00  0.00    -0.000 C 
BRANCH   2   3
ATOM      3  C   UNL     1       6.503  17.938 -42.828  1.00  0.00    -0.000 C 
BRANCH   3   4
ATOM      4  C   UNL     1       6.610  19.142 -43.771  1.00  0.00    -0.000 C 
BRANCH   4   5
ATOM      5  C   UNL     1       5.687  18.972 -44.987  1.00  0.00    -0.000 C 
BRANCH   5   6
ATOM      6  C   UNL     1       6.281  19.580 -46.267  1.00  0.00    -0.003 C 
ATOM      7  C   UNL     1       7.710  20.088 -46.073  1.00  0.00     0.004 C 
ENDBRANCH   5   6
ENDBRANCH   4   5
ENDBRANCH   3   4
ENDBRANCH   2   3
ENDBRANCH   1   2
BRANCH   1   8
ATOM      8  C   UNL     1       9.644  17.206 -44.585  1.00  0.00     0.000 C 
BRANCH   8   9
ATOM      9  C   UNL     1       8.771  16.074 -45.148  1.00  0.00     0.000 C 
BRANCH   9  10
ATOM     10  C   UNL     1       8.238  16.379 -46.557  1.00  0.00     0.002 C 
BRANCH  10  11
ATOM     11  C   UNL     1       6.791  15.898 -46.758  1.00  0.00     0.028 C 
BRANCH  11  12
ATOM     12  C   UNL     1       6.343  14.954 -45.640  1.00  0.00     0.156 C 
BRANCH  12  13
ATOM     13  O   UNL     1       5.183  15.437 -45.016  1.00  0.00    -0.396 OA
ATOM     14  H   UNL     1       5.063  16.376 -45.316  1.00  0.00     0.210 HD
ENDBRANCH  12  13
ENDBRANCH  11  12
ENDBRANCH  10  11
ENDBRANCH   9  10
ENDBRANCH   8   9
ENDBRANCH   1   8
TORSDOF 11
ENDMDL
MODEL 7
REMARK VINA RESULT:     0.002      5.809      7.440
REMARK INTER + INTRA:          -1.820
REMARK INTER:                   0.000
REMARK INTRA:                  -1.820
REMARK UNBOUND:                -1.823
REMARK SMILES CCCCCCCCCCCCO
REMARK SMILES IDX 7 1 6 2 5 3 4 4 3 5 2 6 1 7 8 8 9 9 10 10 11 11 12 12 13 13
REMARK H PARENT 13 14
REMARK Flexibility Score: inf
ROOT
ATOM      1  C   UNL     1       4.606  20.106 -46.983  1.00  0.00     0.000 C 
ENDROOT
BRANCH   1   2
ATOM      2  C   UNL     1       5.112  21.285 -46.145  1.00  0.00    -0.000 C 
BRANCH   2   3
ATOM      3  C   UNL     1       6.397  20.917 -45.393  1.00  0.00    -0.000 C 
BRANCH   3   4
ATOM      4  C   UNL     1       6.528  19.397 -45.234  1.00  0.00    -0.000 C 
BRANCH   4   5
ATOM      5  C   UNL     1       6.364  18.982 -43.765  1.00  0.00    -0.000 C 
BRANCH   5   6
ATOM      6  C   UNL     1       5.617  17.648 -43.610  1.00  0.00    -0.003 C 
ATOM      7  C   UNL     1       5.165  17.064 -44.949  1.00  0.00     0.004 C 
ENDBRANCH   5   6
ENDBRANCH   4   5
ENDBRANCH   3   4
ENDBRANCH   2   3
ENDBRANCH   1   2
BRANCH   1   8
ATOM      8  C   UNL     1       3.142  19.786 -46.657  1.00  0.00     0.000 C 
BRANCH   8   9
ATOM      9  C   UNL     1       2.692  20.509 -45.380  1.00  0.00     0.000 C 
BRANCH   9  10
ATOM     10  C   UNL     1       2.415  19.544 -44.216  1.00  0.00     0.002 C 
BRANCH  10  11
ATOM     11  C   UNL     1       2.918  20.085 -42.867  1.00  0.00     0.028 C 
BRANCH  11  12
ATOM     12  C   UNL     1       3.273  21.572 -42.945  1.00  0.00     0.156 C 
BRANCH  12  13
ATOM     13  O   UNL     1       4.569  21.800 -42.458  1.00  0.00    -0.396 OA
ATOM     14  H   UNL     1       5.146  21.078 -42.822  1.00  0.00     0.210 HD
ENDBRANCH  12  13
ENDBRANCH  11  12
ENDBRANCH  10  11
ENDBRANCH   9  10
ENDBRANCH   8   9
ENDBRANCH   1   8
TORSDOF 11
ENDMDL
MODEL 8
REMARK VINA RESULT:     0.002      4.563      7.495
REMARK INTER + INTRA:          -1.820
REMARK INTER:                   0.000
REMARK INTRA:                  -1.820
REMARK UNBOUND:                -1.823
REMARK SMILES CCCCCCCCCCCCO
REMARK SMILES IDX 7 1 6 2 5 3 4 4 3 5 2 6 1 7 8 8 9 9 10 10 11 11 12 12 13 13
REMARK H PARENT 13 14
REMARK Flexibility Score: inf
ROOT
ATOM      1  C   UNL     1       5.871  16.284 -43.010  1.00  0.00     0.000 C 
ENDROOT
BRANCH   1   2
ATOM      2  C   UNL     1       4.904  17.348 -43.541  1.00  0.00    -0.000 C 
BRANCH   2   3
ATOM      3  C   UNL     1       5.523  18.748 -43.454  1.00  0.00    -0.000 C 
BRANCH   3   4
ATOM      4  C   UNL     1       7.043  18.670 -43.271  1.00  0.00    -0.000 C 
BRANCH   4   5
ATOM      5  C   UNL     1       7.774  19.254 -44.490  1.00  0.00    -0.000 C 
BRANCH   5   6
ATOM      6  C   UNL     1       9.078  18.507 -44.808  1.00  0.00    -0.003 C 
ATOM      7  C   UNL     1       9.311  17.305 -43.890  1.00  0.00     0.004 C 
ENDBRANCH   5   6
ENDBRANCH   4   5
ENDBRANCH   3   4
ENDBRANCH   2   3
ENDBRANCH   1   2
BRANCH   1   8
ATOM      8  C   UNL     1       6.084  15.168 -44.041  1.00  0.00     0.000 C 
BRANCH   8   9
ATOM      9  C   UNL     1       5.668  15.631 -45.446  1.00  0.00     0.000 C 
BRANCH   9  10
ATOM     10  C   UNL     1       6.871  15.880 -46.370  1.00  0.00     0.002 C 
BRANCH  10  11
ATOM     11  C   UNL     1       6.665  17.092 -47.294  1.00  0.00     0.028 C 
BRANCH  11  12
ATOM     12  C   UNL     1       5.230  17.622 -47.229  1.00  0.00     0.156 C 
BRANCH  12  13
ATOM     13  O   UNL     1       5.221  19.003 -46.986  1.00  0.00    -0.396 OA
ATOM     14  H   UNL     1       4.505  19.392 -47.554  1.00  0.00     0.210 HD
ENDBRANCH  12  13
ENDBRANCH  11  12
ENDBRANCH  10  11
ENDBRANCH   9  10
ENDBRANCH   8   9
ENDBRANCH   1   8
TORSDOF 11
ENDMDL
MODEL 9
REMARK VINA RESULT:     0.003      9.521     11.481
REMARK INTER + INTRA:          -1.819
REMARK INTER:                   0.000
REMARK INTRA:                  -1.819
REMARK UNBOUND:                -1.823
REMARK SMILES CCCCCCCCCCCCO
REMARK SMILES IDX 7 1 6 2 5 3 4 4 3 5 2 6 1 7 8 8 9 9 10 10 11 11 12 12 13 13
REMARK H PARENT 13 14
REMARK Flexibility Score: inf
ROOT
ATOM      1  C   UNL     1       2.514  18.376 -42.621  1.00  0.00     0.000 C 
ENDROOT
BRANCH   1   2
ATOM      2  C   UNL     1       2.357  17.372 -41.474  1.00  0.00    -0.000 C 
BRANCH   2   3
ATOM      3  C   UNL     1       0.916  16.853 -41.388  1.00  0.00    -0.000 C 
BRANCH   3   4
ATOM      4  C   UNL     1      -0.077  17.889 -41.927  1.00  0.00    -0.000 C 
BRANCH   4   5
ATOM      5  C   UNL     1      -0.803  18.605 -40.777  1.00  0.00    -0.000 C 
BRANCH   5   6
ATOM      6  C   UNL     1      -1.126  20.070 -41.106  1.00  0.00    -0.003 C 
ATOM      7  C   UNL     1      -0.505  20.532 -42.424  1.00  0.00     0.004 C 
ENDBRANCH   5   6
ENDBRANCH   4   5
ENDBRANCH   3   4
ENDBRANCH   2   3
ENDBRANCH   1   2
BRANCH   1   8
ATOM      8  C   UNL     1       3.143  19.684 -42.126  1.00  0.00     0.000 C 
BRANCH   8   9
ATOM      9  C   UNL     1       3.241  19.703 -40.593  1.00  0.00     0.000 C 
BRANCH   9  10
ATOM     10  C   UNL     1       2.367  20.794 -39.955  1.00  0.00     0.002 C 
BRANCH  10  11
ATOM     11  C   UNL     1       1.703  20.329 -38.647  1.00  0.00     0.028 C 
BRANCH  11  12
ATOM     12  C   UNL     1       2.321  19.030 -38.124  1.00  0.00     0.156 C 
BRANCH  12  13
ATOM     13  O   UNL     1       1.349  18.023 -38.022  1.00  0.00    -0.396 OA
ATOM     14  H   UNL     1       1.772  17.261 -37.546  1.00  0.00     0.210 HD
ENDBRANCH  12  13
ENDBRANCH  11  12
ENDBRANCH  10  11
ENDBRANCH   9  10
ENDBRANCH   8   9
ENDBRANCH   1   8
TORSDOF 11
ENDMDL
