MODEL 1
REMARK VINA RESULT:    -5.178      0.000      0.000
REMARK INTER + INTRA:          -5.817
REMARK INTER:                  -5.632
REMARK INTRA:                  -0.185
REMARK UNBOUND:                -0.185
REMARK SMILES O=C([O-])c1ccccc1O
REMARK SMILES IDX 4 1 9 2 5 3 8 4 6 5 7 6 2 7 1 8 3 9 10 10
REMARK H PARENT 10 11
REMARK Flexibility Score: inf
ROOT
ATOM      1  C   UNL     1       4.800  -7.522  -1.786  1.00  0.00     0.039 A 
ATOM      2  C   UNL     1       3.494  -7.219  -2.249  1.00  0.00     0.124 A 
ATOM      3  C   UNL     1       5.644  -8.308  -2.592  1.00  0.00     0.014 A 
ATOM      4  C   UNL     1       3.049  -7.756  -3.464  1.00  0.00     0.047 A 
ATOM      5  C   UNL     1       5.192  -8.819  -3.811  1.00  0.00     0.001 A 
ATOM      6  C   UNL     1       3.892  -8.551  -4.242  1.00  0.00     0.004 A 
ENDROOT
BRANCH   1   7
ATOM      7  C   UNL     1       5.297  -7.074  -0.466  1.00  0.00     0.075 C 
ATOM      8  O   UNL     1       4.757  -7.501   0.590  1.00  0.00    -0.545 OA
ATOM      9  O   UNL     1       6.312  -6.131  -0.369  1.00  0.00    -0.545 OA
ENDBRANCH   1   7
BRANCH   2  10
ATOM     10  O   UNL     1       2.630  -6.368  -1.558  1.00  0.00    -0.507 OA
ATOM     11  H   UNL     1       2.380  -5.444  -1.883  1.00  0.00     0.293 HD
ENDBRANCH   2  10
TORSDOF 2
ENDMDL
MODEL 2
REMARK VINA RESULT:    -4.786      1.687      2.162
REMARK INTER + INTRA:          -5.391
REMARK INTER:                  -5.138
REMARK INTRA:                  -0.252
REMARK UNBOUND:                -0.185
REMARK SMILES O=C([O-])c1ccccc1O
REMARK SMILES IDX 4 1 9 2 5 3 8 4 6 5 7 6 2 7 1 8 3 9 10 10
REMARK H PARENT 10 11
REMARK Flexibility Score: inf
ROOT
ATOM      1  C   UNL     1       3.797  -8.163  -0.882  1.00  0.00     0.039 A 
ATOM      2  C   UNL     1       4.203  -7.102  -1.732  1.00  0.00     0.124 A 
ATOM      3  C   UNL     1       2.829  -9.074  -1.344  1.00  0.00     0.014 A 
ATOM      4  C   UNL     1       3.590  -6.944  -2.981  1.00  0.00     0.047 A 
ATOM      5  C   UNL     1       2.243  -8.914  -2.602  1.00  0.00     0.001 A 
ATOM      6  C   UNL     1       2.617  -7.845  -3.416  1.00  0.00     0.004 A 
ENDROOT
BRANCH   1   7
ATOM      7  C   UNL     1       4.327  -8.327   0.490  1.00  0.00     0.075 C 
ATOM      8  O   UNL     1       3.535  -8.487   1.457  1.00  0.00    -0.545 OA
ATOM      9  O   UNL     1       5.690  -8.240   0.742  1.00  0.00    -0.545 OA
ENDBRANCH   1   7
BRANCH   2  10
ATOM     10  O   UNL     1       5.224  -6.214  -1.390  1.00  0.00    -0.507 OA
ATOM     11  H   UNL     1       5.858  -6.366  -0.618  1.00  0.00     0.293 HD
ENDBRANCH   2  10
TORSDOF 2
ENDMDL
MODEL 3
REMARK VINA RESULT:    -4.691     12.142     13.285
REMARK INTER + INTRA:          -5.287
REMARK INTER:                  -5.044
REMARK INTRA:                  -0.243
REMARK UNBOUND:                -0.185
REMARK SMILES O=C([O-])c1ccccc1O
REMARK SMILES IDX 4 1 9 2 5 3 8 4 6 5 7 6 2 7 1 8 3 9 10 10
REMARK H PARENT 10 11
REMARK Flexibility Score: inf
ROOT
ATOM      1  C   UNL     1       8.308   4.597  -0.424  1.00  0.00     0.039 A 
ATOM      2  C   UNL     1       8.128   4.915  -1.795  1.00  0.00     0.124 A 
ATOM      3  C   UNL     1       9.006   5.501   0.399  1.00  0.00     0.014 A 
ATOM      4  C   UNL     1       8.698   6.084  -2.314  1.00  0.00     0.047 A 
ATOM      5  C   UNL     1       9.549   6.674  -0.131  1.00  0.00     0.001 A 
ATOM      6  C   UNL     1       9.404   6.960  -1.488  1.00  0.00     0.004 A 
ENDROOT
BRANCH   1   7
ATOM      7  C   UNL     1       7.823   3.330   0.167  1.00  0.00     0.075 C 
ATOM      8  O   UNL     1       7.774   2.284  -0.535  1.00  0.00    -0.545 OA
ATOM      9  O   UNL     1       7.353   3.288   1.473  1.00  0.00    -0.545 OA
ENDBRANCH   1   7
BRANCH   2  10
ATOM     10  O   UNL     1       7.368   4.122  -2.656  1.00  0.00    -0.507 OA
ATOM     11  H   UNL     1       7.765   3.409  -3.252  1.00  0.00     0.293 HD
ENDBRANCH   2  10
TORSDOF 2
ENDMDL
MODEL 4
REMARK VINA RESULT:    -4.640      6.950      8.566
REMARK INTER + INTRA:          -5.232
REMARK INTER:                  -4.994
REMARK INTRA:                  -0.238
REMARK UNBOUND:                -0.185
REMARK SMILES O=C([O-])c1ccccc1O
REMARK SMILES IDX 4 1 9 2 5 3 8 4 6 5 7 6 2 7 1 8 3 9 10 10
REMARK H PARENT 10 11
REMARK Flexibility Score: inf
ROOT
ATOM      1  C   UNL     1      -3.317  -7.319  -3.839  1.00  0.00     0.039 A 
ATOM      2  C   UNL     1      -3.870  -6.150  -4.422  1.00  0.00     0.124 A 
ATOM      3  C   UNL     1      -4.113  -8.476  -3.745  1.00  0.00     0.014 A 
ATOM      4  C   UNL     1      -5.209  -6.150  -4.834  1.00  0.00     0.047 A 
ATOM      5  C   UNL     1      -5.440  -8.465  -4.180  1.00  0.00     0.001 A 
ATOM      6  C   UNL     1      -5.991  -7.300  -4.715  1.00  0.00     0.004 A 
ENDROOT
BRANCH   1   7
ATOM      7  C   UNL     1      -1.944  -7.357  -3.289  1.00  0.00     0.075 C 
ATOM      8  O   UNL     1      -1.361  -8.461  -3.121  1.00  0.00    -0.545 OA
ATOM      9  O   UNL     1      -1.306  -6.190  -2.887  1.00  0.00    -0.545 OA
ENDBRANCH   1   7
BRANCH   2  10
ATOM     10  O   UNL     1      -3.122  -4.993  -4.642  1.00  0.00    -0.507 OA
ATOM     11  H   UNL     1      -2.118  -4.993  -4.761  1.00  0.00     0.293 HD
ENDBRANCH   2  10
TORSDOF 2
ENDMDL
MODEL 5
REMARK VINA RESULT:    -4.584     11.184     12.559
REMARK INTER + INTRA:          -5.170
REMARK INTER:                  -4.918
REMARK INTRA:                  -0.252
REMARK UNBOUND:                -0.185
REMARK SMILES O=C([O-])c1ccccc1O
REMARK SMILES IDX 4 1 9 2 5 3 8 4 6 5 7 6 2 7 1 8 3 9 10 10
REMARK H PARENT 10 11
REMARK Flexibility Score: inf
ROOT
ATOM      1  C   UNL     1       8.265   3.993  -1.527  1.00  0.00     0.039 A 
ATOM      2  C   UNL     1       8.036   2.907  -0.644  1.00  0.00     0.124 A 
ATOM      3  C   UNL     1       8.507   5.271  -0.988  1.00  0.00     0.014 A 
ATOM      4  C   UNL     1       7.992   3.137   0.737  1.00  0.00     0.047 A 
ATOM      5  C   UNL     1       8.481   5.478   0.393  1.00  0.00     0.001 A 
ATOM      6  C   UNL     1       8.215   4.414   1.254  1.00  0.00     0.004 A 
ENDROOT
BRANCH   1   7
ATOM      7  C   UNL     1       8.220   3.842  -2.998  1.00  0.00     0.075 C 
ATOM      8  O   UNL     1       8.953   4.560  -3.730  1.00  0.00    -0.545 OA
ATOM      9  O   UNL     1       7.328   2.961  -3.597  1.00  0.00    -0.545 OA
ENDBRANCH   1   7
BRANCH   2  10
ATOM     10  O   UNL     1       7.884   1.594  -1.091  1.00  0.00    -0.507 OA
ATOM     11  H   UNL     1       7.241   1.326  -1.823  1.00  0.00     0.293 HD
ENDBRANCH   2  10
TORSDOF 2
ENDMDL
MODEL 6
REMARK VINA RESULT:    -4.542     11.444     12.697
REMARK INTER + INTRA:          -5.125
REMARK INTER:                  -4.884
REMARK INTRA:                  -0.241
REMARK UNBOUND:                -0.185
REMARK SMILES O=C([O-])c1ccccc1O
REMARK SMILES IDX 4 1 9 2 5 3 8 4 6 5 7 6 2 7 1 8 3 9 10 10
REMARK H PARENT 10 11
REMARK Flexibility Score: inf
ROOT
ATOM      1  C   UNL     1       8.202   3.779  -1.976  1.00  0.00     0.039 A 
ATOM      2  C   UNL     1       8.155   5.120  -1.517  1.00  0.00     0.124 A 
ATOM      3  C   UNL     1       8.319   2.740  -1.034  1.00  0.00     0.014 A 
ATOM      4  C   UNL     1       8.288   5.387  -0.149  1.00  0.00     0.047 A 
ATOM      5  C   UNL     1       8.429   3.023   0.329  1.00  0.00     0.001 A 
ATOM      6  C   UNL     1       8.423   4.346   0.771  1.00  0.00     0.004 A 
ENDROOT
BRANCH   1   7
ATOM      7  C   UNL     1       8.173   3.432  -3.414  1.00  0.00     0.075 C 
ATOM      8  O   UNL     1       8.962   3.998  -4.217  1.00  0.00    -0.545 OA
ATOM      9  O   UNL     1       7.236   2.534  -3.911  1.00  0.00    -0.545 OA
ENDBRANCH   1   7
BRANCH   2  10
ATOM     10  O   UNL     1       7.944   6.201  -2.374  1.00  0.00    -0.507 OA
ATOM     11  H   UNL     1       8.686   6.658  -2.888  1.00  0.00     0.293 HD
ENDBRANCH   2  10
TORSDOF 2
ENDMDL
MODEL 7
REMARK VINA RESULT:    -4.531     11.727     12.760
REMARK INTER + INTRA:          -5.113
REMARK INTER:                  -4.863
REMARK INTRA:                  -0.250
REMARK UNBOUND:                -0.185
REMARK SMILES O=C([O-])c1ccccc1O
REMARK SMILES IDX 4 1 9 2 5 3 8 4 6 5 7 6 2 7 1 8 3 9 10 10
REMARK H PARENT 10 11
REMARK Flexibility Score: inf
ROOT
ATOM      1  C   UNL     1       8.071   4.406   0.068  1.00  0.00     0.039 A 
ATOM      2  C   UNL     1       8.347   5.140  -1.115  1.00  0.00     0.124 A 
ATOM      3  C   UNL     1       8.075   3.000   0.014  1.00  0.00     0.014 A 
ATOM      4  C   UNL     1       8.555   4.456  -2.320  1.00  0.00     0.047 A 
ATOM      5  C   UNL     1       8.305   2.334  -1.192  1.00  0.00     0.001 A 
ATOM      6  C   UNL     1       8.535   3.061  -2.360  1.00  0.00     0.004 A 
ENDROOT
BRANCH   1   7
ATOM      7  C   UNL     1       7.741   5.066   1.350  1.00  0.00     0.075 C 
ATOM      8  O   UNL     1       6.696   4.743   1.976  1.00  0.00    -0.545 OA
ATOM      9  O   UNL     1       8.534   6.092   1.848  1.00  0.00    -0.545 OA
ENDBRANCH   1   7
BRANCH   2  10
ATOM     10  O   UNL     1       8.459   6.531  -1.128  1.00  0.00    -0.507 OA
ATOM     11  H   UNL     1       9.174   7.037  -0.624  1.00  0.00     0.293 HD
ENDBRANCH   2  10
TORSDOF 2
ENDMDL
MODEL 8
REMARK VINA RESULT:    -4.494     11.410     12.527
REMARK INTER + INTRA:          -5.073
REMARK INTER:                  -4.838
REMARK INTRA:                  -0.235
REMARK UNBOUND:                -0.185
REMARK SMILES O=C([O-])c1ccccc1O
REMARK SMILES IDX 4 1 9 2 5 3 8 4 6 5 7 6 2 7 1 8 3 9 10 10
REMARK H PARENT 10 11
REMARK Flexibility Score: inf
ROOT
ATOM      1  C   UNL     1       8.131   4.220  -0.067  1.00  0.00     0.039 A 
ATOM      2  C   UNL     1       8.386   3.151  -0.965  1.00  0.00     0.124 A 
ATOM      3  C   UNL     1       8.556   5.516  -0.412  1.00  0.00     0.014 A 
ATOM      4  C   UNL     1       9.105   3.394  -2.142  1.00  0.00     0.047 A 
ATOM      5  C   UNL     1       9.253   5.745  -1.601  1.00  0.00     0.001 A 
ATOM      6  C   UNL     1       9.536   4.683  -2.460  1.00  0.00     0.004 A 
ENDROOT
BRANCH   1   7
ATOM      7  C   UNL     1       7.469   4.015   1.241  1.00  0.00     0.075 C 
ATOM      8  O   UNL     1       7.544   2.898   1.819  1.00  0.00    -0.545 OA
ATOM      9  O   UNL     1       6.702   5.021   1.815  1.00  0.00    -0.545 OA
ENDBRANCH   1   7
BRANCH   2  10
ATOM     10  O   UNL     1       7.916   1.856  -0.745  1.00  0.00    -0.507 OA
ATOM     11  H   UNL     1       8.335   1.216  -0.085  1.00  0.00     0.293 HD
ENDBRANCH   2  10
TORSDOF 2
ENDMDL
MODEL 9
REMARK VINA RESULT:    -4.437      8.689      9.980
REMARK INTER + INTRA:          -5.011
REMARK INTER:                  -4.933
REMARK INTRA:                  -0.078
REMARK UNBOUND:                -0.185
REMARK SMILES O=C([O-])c1ccccc1O
REMARK SMILES IDX 4 1 9 2 5 3 8 4 6 5 7 6 2 7 1 8 3 9 10 10
REMARK H PARENT 10 11
REMARK Flexibility Score: inf
ROOT
ATOM      1  C   UNL     1      -4.378  -6.924  -5.691  1.00  0.00     0.039 A 
ATOM      2  C   UNL     1      -3.826  -6.367  -4.508  1.00  0.00     0.124 A 
ATOM      3  C   UNL     1      -4.884  -8.236  -5.654  1.00  0.00     0.014 A 
ATOM      4  C   UNL     1      -3.739  -7.151  -3.350  1.00  0.00     0.047 A 
ATOM      5  C   UNL     1      -4.809  -8.997  -4.485  1.00  0.00     0.001 A 
ATOM      6  C   UNL     1      -4.229  -8.458  -3.337  1.00  0.00     0.004 A 
ENDROOT
BRANCH   1   7
ATOM      7  C   UNL     1      -4.406  -6.188  -6.974  1.00  0.00     0.075 C 
ATOM      8  O   UNL     1      -5.425  -5.522  -7.298  1.00  0.00    -0.545 OA
ATOM      9  O   UNL     1      -3.345  -6.274  -7.868  1.00  0.00    -0.545 OA
ENDBRANCH   1   7
BRANCH   2  10
ATOM     10  O   UNL     1      -3.392  -5.043  -4.432  1.00  0.00    -0.507 OA
ATOM     11  H   UNL     1      -2.950  -4.557  -5.200  1.00  0.00     0.293 HD
ENDBRANCH   2  10
TORSDOF 2
ENDMDL
