MODEL 1
REMARK VINA RESULT:    -4.676      0.000      0.000
REMARK INTER + INTRA:          -6.767
REMARK INTER:                  -6.317
REMARK INTRA:                  -0.450
REMARK UNBOUND:                -0.450
REMARK SMILES [NH3+]CCCC[C@@H]([NH3+])C(=O)[O-]
REMARK SMILES IDX 4 1 3 2 2 3 1 4 5 8 6 9 7 10 8 14 9 15 10 16
REMARK H PARENT 1 5 1 6 1 7 7 11 7 12 7 13
REMARK Flexibility Score: inf
ROOT
ATOM      1  C   UNL     1      -8.065  -3.702  64.010  1.00  0.00     0.012 C 
ENDROOT
BRANCH   1   2
ATOM      2  C   UNL     1      -8.496  -4.910  63.167  1.00  0.00     0.061 C 
BRANCH   2   3
ATOM      3  C   UNL     1      -9.970  -5.292  63.392  1.00  0.00     0.258 C 
BRANCH   3   4
ATOM      4  N   UNL     1     -10.865  -4.617  62.451  1.00  0.00    -0.358 N 
ATOM      5  H   UNL     1     -10.840  -3.583  62.600  1.00  0.00     0.344 HD
ATOM      6  H   UNL     1     -10.597  -4.842  61.465  1.00  0.00     0.344 HD
ATOM      7  H   UNL     1     -11.843  -4.949  62.615  1.00  0.00     0.344 HD
ENDBRANCH   3   4
ENDBRANCH   2   3
ENDBRANCH   1   2
BRANCH   1   8
ATOM      8  C   UNL     1      -8.032  -2.421  63.160  1.00  0.00     0.072 C 
BRANCH   8   9
ATOM      9  C   UNL     1      -8.881  -1.289  63.777  1.00  0.00     0.227 C 
BRANCH   9  10
ATOM     10  N   UNL     1      -8.053  -0.101  64.022  1.00  0.00    -0.350 N 
ATOM     11  H   UNL     1      -7.587   0.197  63.133  1.00  0.00     0.345 HD
ATOM     12  H   UNL     1      -7.323  -0.302  64.744  1.00  0.00     0.345 HD
ATOM     13  H   UNL     1      -8.654   0.688  64.354  1.00  0.00     0.345 HD
ENDBRANCH   9  10
BRANCH   9  14
ATOM     14  C   UNL     1     -10.046  -0.935  62.889  1.00  0.00     0.099 C 
ATOM     15  O   UNL     1     -11.096  -1.632  62.903  1.00  0.00    -0.544 OA
ATOM     16  O   UNL     1      -9.970   0.173  62.055  1.00  0.00    -0.544 OA
ENDBRANCH   9  14
ENDBRANCH   8   9
ENDBRANCH   1   8
TORSDOF 7
ENDMDL
MODEL 2
REMARK VINA RESULT:    -4.637      1.744      2.171
REMARK INTER + INTRA:          -6.713
REMARK INTER:                  -6.615
REMARK INTRA:                  -0.099
REMARK UNBOUND:                -0.450
REMARK SMILES [NH3+]CCCC[C@@H]([NH3+])C(=O)[O-]
REMARK SMILES IDX 4 1 3 2 2 3 1 4 5 8 6 9 7 10 8 14 9 15 10 16
REMARK H PARENT 1 5 1 6 1 7 7 11 7 12 7 13
REMARK Flexibility Score: inf
ROOT
ATOM      1  C   UNL     1      -9.207  -3.540  63.299  1.00  0.00     0.012 C 
ENDROOT
BRANCH   1   2
ATOM      2  C   UNL     1      -8.360  -4.820  63.317  1.00  0.00     0.061 C 
BRANCH   2   3
ATOM      3  C   UNL     1      -6.901  -4.557  63.728  1.00  0.00     0.258 C 
BRANCH   3   4
ATOM      4  N   UNL     1      -5.968  -4.766  62.619  1.00  0.00    -0.358 N 
ATOM      5  H   UNL     1      -5.984  -5.765  62.313  1.00  0.00     0.344 HD
ATOM      6  H   UNL     1      -6.209  -4.142  61.816  1.00  0.00     0.344 HD
ATOM      7  H   UNL     1      -5.001  -4.537  62.942  1.00  0.00     0.344 HD
ENDBRANCH   3   4
ENDBRANCH   2   3
ENDBRANCH   1   2
BRANCH   1   8
ATOM      8  C   UNL     1      -8.314  -2.289  63.297  1.00  0.00     0.072 C 
BRANCH   8   9
ATOM      9  C   UNL     1      -9.079  -1.024  63.741  1.00  0.00     0.227 C 
BRANCH   9  10
ATOM     10  N   UNL     1      -8.141   0.015  64.185  1.00  0.00    -0.350 N 
ATOM     11  H   UNL     1      -8.584   0.600  64.932  1.00  0.00     0.345 HD
ATOM     12  H   UNL     1      -7.863   0.629  63.385  1.00  0.00     0.345 HD
ATOM     13  H   UNL     1      -7.283  -0.431  64.587  1.00  0.00     0.345 HD
ENDBRANCH   9  10
BRANCH   9  14
ATOM     14  C   UNL     1      -9.950  -0.494  62.631  1.00  0.00     0.099 C 
ATOM     15  O   UNL     1      -9.462   0.240  61.730  1.00  0.00    -0.544 OA
ATOM     16  O   UNL     1     -11.298  -0.825  62.590  1.00  0.00    -0.544 OA
ENDBRANCH   9  14
ENDBRANCH   8   9
ENDBRANCH   1   8
TORSDOF 7
ENDMDL
MODEL 3
REMARK VINA RESULT:    -4.171      7.182      7.968
REMARK INTER + INTRA:          -6.084
REMARK INTER:                  -5.969
REMARK INTRA:                  -0.115
REMARK UNBOUND:                -0.450
REMARK SMILES [NH3+]CCCC[C@@H]([NH3+])C(=O)[O-]
REMARK SMILES IDX 4 1 3 2 2 3 1 4 5 8 6 9 7 10 8 14 9 15 10 16
REMARK H PARENT 1 5 1 6 1 7 7 11 7 12 7 13
REMARK Flexibility Score: inf
ROOT
ATOM      1  C   UNL     1     -12.113  -3.519  57.253  1.00  0.00     0.012 C 
ENDROOT
BRANCH   1   2
ATOM      2  C   UNL     1     -13.135  -4.158  58.204  1.00  0.00     0.061 C 
BRANCH   2   3
ATOM      3  C   UNL     1     -12.820  -3.880  59.684  1.00  0.00     0.258 C 
BRANCH   3   4
ATOM      4  N   UNL     1     -13.499  -4.819  60.578  1.00  0.00    -0.358 N 
ATOM      5  H   UNL     1     -14.244  -4.329  61.124  1.00  0.00     0.344 HD
ATOM      6  H   UNL     1     -13.917  -5.607  60.033  1.00  0.00     0.344 HD
ATOM      7  H   UNL     1     -12.802  -5.210  61.252  1.00  0.00     0.344 HD
ENDBRANCH   3   4
ENDBRANCH   2   3
ENDBRANCH   1   2
BRANCH   1   8
ATOM      8  C   UNL     1     -12.517  -2.080  56.897  1.00  0.00     0.072 C 
BRANCH   8   9
ATOM      9  C   UNL     1     -13.340  -2.010  55.591  1.00  0.00     0.227 C 
BRANCH   9  10
ATOM     10  N   UNL     1     -14.585  -1.264  55.809  1.00  0.00    -0.350 N 
ATOM     11  H   UNL     1     -15.335  -1.632  55.179  1.00  0.00     0.345 HD
ATOM     12  H   UNL     1     -14.443  -0.245  55.617  1.00  0.00     0.345 HD
ATOM     13  H   UNL     1     -14.903  -1.384  56.798  1.00  0.00     0.345 HD
ENDBRANCH   9  10
BRANCH   9  14
ATOM     14  C   UNL     1     -12.544  -1.378  54.478  1.00  0.00     0.099 C 
ATOM     15  O   UNL     1     -12.927  -0.299  53.951  1.00  0.00    -0.544 OA
ATOM     16  O   UNL     1     -11.374  -1.980  54.034  1.00  0.00    -0.544 OA
ENDBRANCH   9  14
ENDBRANCH   8   9
ENDBRANCH   1   8
TORSDOF 7
ENDMDL
MODEL 4
REMARK VINA RESULT:    -4.132      3.391      4.879
REMARK INTER + INTRA:          -6.032
REMARK INTER:                  -6.000
REMARK INTRA:                  -0.032
REMARK UNBOUND:                -0.450
REMARK SMILES [NH3+]CCCC[C@@H]([NH3+])C(=O)[O-]
REMARK SMILES IDX 4 1 3 2 2 3 1 4 5 8 6 9 7 10 8 14 9 15 10 16
REMARK H PARENT 1 5 1 6 1 7 7 11 7 12 7 13
REMARK Flexibility Score: inf
ROOT
ATOM      1  C   UNL     1      -9.406  -2.938  63.187  1.00  0.00     0.012 C 
ENDROOT
BRANCH   1   2
ATOM      2  C   UNL     1      -9.713  -1.438  63.297  1.00  0.00     0.061 C 
BRANCH   2   3
ATOM      3  C   UNL     1      -8.486  -0.559  63.000  1.00  0.00     0.258 C 
BRANCH   3   4
ATOM      4  N   UNL     1      -7.947   0.064  64.210  1.00  0.00    -0.358 N 
ATOM      5  H   UNL     1      -8.308  -0.421  65.062  1.00  0.00     0.344 HD
ATOM      6  H   UNL     1      -6.901   0.039  64.201  1.00  0.00     0.344 HD
ATOM      7  H   UNL     1      -8.257   1.062  64.245  1.00  0.00     0.344 HD
ENDBRANCH   3   4
ENDBRANCH   2   3
ENDBRANCH   1   2
BRANCH   1   8
ATOM      8  C   UNL     1      -8.075  -3.279  63.877  1.00  0.00     0.072 C 
BRANCH   8   9
ATOM      9  C   UNL     1      -7.460  -4.591  63.345  1.00  0.00     0.227 C 
BRANCH   9  10
ATOM     10  N   UNL     1      -6.049  -4.391  62.993  1.00  0.00    -0.350 N 
ATOM     11  H   UNL     1      -5.732  -3.447  63.314  1.00  0.00     0.345 HD
ATOM     12  H   UNL     1      -5.912  -4.468  61.959  1.00  0.00     0.345 HD
ATOM     13  H   UNL     1      -5.459  -5.112  63.470  1.00  0.00     0.345 HD
ENDBRANCH   9  10
BRANCH   9  14
ATOM     14  C   UNL     1      -7.591  -5.703  64.354  1.00  0.00     0.099 C 
ATOM     15  O   UNL     1      -6.634  -5.983  65.125  1.00  0.00    -0.544 OA
ATOM     16  O   UNL     1      -8.776  -6.421  64.445  1.00  0.00    -0.544 OA
ENDBRANCH   9  14
ENDBRANCH   8   9
ENDBRANCH   1   8
TORSDOF 7
ENDMDL
MODEL 5
REMARK VINA RESULT:    -4.041      8.158      9.094
REMARK INTER + INTRA:          -5.909
REMARK INTER:                  -5.769
REMARK INTRA:                  -0.140
REMARK UNBOUND:                -0.450
REMARK SMILES [NH3+]CCCC[C@@H]([NH3+])C(=O)[O-]
REMARK SMILES IDX 4 1 3 2 2 3 1 4 5 8 6 9 7 10 8 14 9 15 10 16
REMARK H PARENT 1 5 1 6 1 7 7 11 7 12 7 13
REMARK Flexibility Score: inf
ROOT
ATOM      1  C   UNL     1     -11.764  -1.590  54.654  1.00  0.00     0.012 C 
ENDROOT
BRANCH   1   2
ATOM      2  C   UNL     1     -11.744  -2.189  53.240  1.00  0.00     0.061 C 
BRANCH   2   3
ATOM      3  C   UNL     1     -12.748  -1.507  52.295  1.00  0.00     0.258 C 
BRANCH   3   4
ATOM      4  N   UNL     1     -13.577  -0.519  52.989  1.00  0.00    -0.358 N 
ATOM      5  H   UNL     1     -14.233  -0.994  53.649  1.00  0.00     0.344 HD
ATOM      6  H   UNL     1     -12.977   0.161  53.509  1.00  0.00     0.344 HD
ATOM      7  H   UNL     1     -14.142   0.005  52.284  1.00  0.00     0.344 HD
ENDBRANCH   3   4
ENDBRANCH   2   3
ENDBRANCH   1   2
BRANCH   1   8
ATOM      8  C   UNL     1     -11.382  -2.647  55.703  1.00  0.00     0.072 C 
BRANCH   8   9
ATOM      9  C   UNL     1     -12.366  -2.671  56.893  1.00  0.00     0.227 C 
BRANCH   9  10
ATOM     10  N   UNL     1     -13.733  -2.396  56.433  1.00  0.00    -0.350 N 
ATOM     11  H   UNL     1     -14.038  -3.138  55.760  1.00  0.00     0.345 HD
ATOM     12  H   UNL     1     -13.785  -1.463  55.964  1.00  0.00     0.345 HD
ATOM     13  H   UNL     1     -14.390  -2.406  57.247  1.00  0.00     0.345 HD
ENDBRANCH   9  10
BRANCH   9  14
ATOM     14  C   UNL     1     -12.317  -3.993  57.614  1.00  0.00     0.099 C 
ATOM     15  O   UNL     1     -13.328  -4.422  58.232  1.00  0.00    -0.544 OA
ATOM     16  O   UNL     1     -11.155  -4.753  57.591  1.00  0.00    -0.544 OA
ENDBRANCH   9  14
ENDBRANCH   8   9
ENDBRANCH   1   8
TORSDOF 7
ENDMDL
MODEL 6
REMARK VINA RESULT:    -4.027      8.110      8.797
REMARK INTER + INTRA:          -5.890
REMARK INTER:                  -5.752
REMARK INTRA:                  -0.138
REMARK UNBOUND:                -0.450
REMARK SMILES [NH3+]CCCC[C@@H]([NH3+])C(=O)[O-]
REMARK SMILES IDX 4 1 3 2 2 3 1 4 5 8 6 9 7 10 8 14 9 15 10 16
REMARK H PARENT 1 5 1 6 1 7 7 11 7 12 7 13
REMARK Flexibility Score: inf
ROOT
ATOM      1  C   UNL     1     -12.463  -2.076  56.890  1.00  0.00     0.012 C 
ENDROOT
BRANCH   1   2
ATOM      2  C   UNL     1     -12.039  -3.515  57.212  1.00  0.00     0.061 C 
BRANCH   2   3
ATOM      3  C   UNL     1     -13.055  -4.245  58.107  1.00  0.00     0.258 C 
BRANCH   3   4
ATOM      4  N   UNL     1     -13.214  -3.592  59.408  1.00  0.00    -0.358 N 
ATOM      5  H   UNL     1     -14.145  -3.122  59.468  1.00  0.00     0.344 HD
ATOM      6  H   UNL     1     -13.114  -4.288  60.182  1.00  0.00     0.344 HD
ATOM      7  H   UNL     1     -12.471  -2.864  59.515  1.00  0.00     0.344 HD
ENDBRANCH   3   4
ENDBRANCH   2   3
ENDBRANCH   1   2
BRANCH   1   8
ATOM      8  C   UNL     1     -11.688  -1.532  55.679  1.00  0.00     0.072 C 
BRANCH   8   9
ATOM      9  C   UNL     1     -12.480  -1.686  54.362  1.00  0.00     0.227 C 
BRANCH   9  10
ATOM     10  N   UNL     1     -12.957  -0.379  53.893  1.00  0.00    -0.350 N 
ATOM     11  H   UNL     1     -13.921  -0.473  53.497  1.00  0.00     0.345 HD
ATOM     12  H   UNL     1     -12.318   0.006  53.159  1.00  0.00     0.345 HD
ATOM     13  H   UNL     1     -12.999   0.292  54.695  1.00  0.00     0.345 HD
ENDBRANCH   9  10
BRANCH   9  14
ATOM     14  C   UNL     1     -11.642  -2.345  53.296  1.00  0.00     0.099 C 
ATOM     15  O   UNL     1     -11.672  -1.924  52.108  1.00  0.00    -0.544 OA
ATOM     16  O   UNL     1     -10.822  -3.417  53.623  1.00  0.00    -0.544 OA
ENDBRANCH   9  14
ENDBRANCH   8   9
ENDBRANCH   1   8
TORSDOF 7
ENDMDL
MODEL 7
REMARK VINA RESULT:    -4.013      6.975      8.110
REMARK INTER + INTRA:          -5.871
REMARK INTER:                  -5.782
REMARK INTRA:                  -0.089
REMARK UNBOUND:                -0.450
REMARK SMILES [NH3+]CCCC[C@@H]([NH3+])C(=O)[O-]
REMARK SMILES IDX 4 1 3 2 2 3 1 4 5 8 6 9 7 10 8 14 9 15 10 16
REMARK H PARENT 1 5 1 6 1 7 7 11 7 12 7 13
REMARK Flexibility Score: inf
ROOT
ATOM      1  C   UNL     1     -11.358  -2.712  55.916  1.00  0.00     0.012 C 
ENDROOT
BRANCH   1   2
ATOM      2  C   UNL     1     -11.616  -1.440  55.095  1.00  0.00     0.061 C 
BRANCH   2   3
ATOM      3  C   UNL     1     -13.084  -1.309  54.654  1.00  0.00     0.258 C 
BRANCH   3   4
ATOM      4  N   UNL     1     -13.294  -0.165  53.765  1.00  0.00    -0.358 N 
ATOM      5  H   UNL     1     -12.664   0.625  54.033  1.00  0.00     0.344 HD
ATOM      6  H   UNL     1     -13.122  -0.438  52.770  1.00  0.00     0.344 HD
ATOM      7  H   UNL     1     -14.283   0.159  53.857  1.00  0.00     0.344 HD
ENDBRANCH   3   4
ENDBRANCH   2   3
ENDBRANCH   1   2
BRANCH   1   8
ATOM      8  C   UNL     1     -12.369  -2.838  57.067  1.00  0.00     0.072 C 
BRANCH   8   9
ATOM      9  C   UNL     1     -12.487  -4.288  57.585  1.00  0.00     0.227 C 
BRANCH   9  10
ATOM     10  N   UNL     1     -11.154  -4.876  57.773  1.00  0.00    -0.350 N 
ATOM     11  H   UNL     1     -10.732  -5.106  56.843  1.00  0.00     0.345 HD
ATOM     12  H   UNL     1     -11.212  -5.746  58.351  1.00  0.00     0.345 HD
ATOM     13  H   UNL     1     -10.528  -4.189  58.254  1.00  0.00     0.345 HD
ENDBRANCH   9  10
BRANCH   9  14
ATOM     14  C   UNL     1     -13.265  -4.346  58.874  1.00  0.00     0.099 C 
ATOM     15  O   UNL     1     -14.291  -5.072  58.969  1.00  0.00    -0.544 OA
ATOM     16  O   UNL     1     -12.846  -3.604  59.970  1.00  0.00    -0.544 OA
ENDBRANCH   9  14
ENDBRANCH   8   9
ENDBRANCH   1   8
TORSDOF 7
ENDMDL
MODEL 8
REMARK VINA RESULT:    -3.996      6.780      7.962
REMARK INTER + INTRA:          -5.848
REMARK INTER:                  -5.674
REMARK INTRA:                  -0.174
REMARK UNBOUND:                -0.450
REMARK SMILES [NH3+]CCCC[C@@H]([NH3+])C(=O)[O-]
REMARK SMILES IDX 4 1 3 2 2 3 1 4 5 8 6 9 7 10 8 14 9 15 10 16
REMARK H PARENT 1 5 1 6 1 7 7 11 7 12 7 13
REMARK Flexibility Score: inf
ROOT
ATOM      1  C   UNL     1     -13.150  -2.334  56.080  1.00  0.00     0.012 C 
ENDROOT
BRANCH   1   2
ATOM      2  C   UNL     1     -12.347  -1.577  55.011  1.00  0.00     0.061 C 
BRANCH   2   3
ATOM      3  C   UNL     1     -10.945  -2.172  54.793  1.00  0.00     0.258 C 
BRANCH   3   4
ATOM      4  N   UNL     1     -10.953  -3.257  53.811  1.00  0.00    -0.358 N 
ATOM      5  H   UNL     1     -10.083  -3.830  53.893  1.00  0.00     0.344 HD
ATOM      6  H   UNL     1     -11.794  -3.865  53.942  1.00  0.00     0.344 HD
ATOM      7  H   UNL     1     -10.985  -2.845  52.850  1.00  0.00     0.344 HD
ENDBRANCH   3   4
ENDBRANCH   2   3
ENDBRANCH   1   2
BRANCH   1   8
ATOM      8  C   UNL     1     -12.239  -2.790  57.231  1.00  0.00     0.072 C 
BRANCH   8   9
ATOM      9  C   UNL     1     -12.481  -4.265  57.618  1.00  0.00     0.227 C 
BRANCH   9  10
ATOM     10  N   UNL     1     -11.202  -4.967  57.791  1.00  0.00    -0.350 N 
ATOM     11  H   UNL     1     -11.137  -5.352  58.761  1.00  0.00     0.345 HD
ATOM     12  H   UNL     1     -10.399  -4.317  57.622  1.00  0.00     0.345 HD
ATOM     13  H   UNL     1     -11.143  -5.765  57.118  1.00  0.00     0.345 HD
ENDBRANCH   9  10
BRANCH   9  14
ATOM     14  C   UNL     1     -13.304  -4.371  58.875  1.00  0.00     0.099 C 
ATOM     15  O   UNL     1     -14.314  -5.125  58.917  1.00  0.00    -0.544 OA
ATOM     16  O   UNL     1     -12.946  -3.643  60.002  1.00  0.00    -0.544 OA
ENDBRANCH   9  14
ENDBRANCH   8   9
ENDBRANCH   1   8
TORSDOF 7
ENDMDL
MODEL 9
REMARK VINA RESULT:    -3.960      7.040      8.306
REMARK INTER + INTRA:          -5.799
REMARK INTER:                  -5.663
REMARK INTRA:                  -0.136
REMARK UNBOUND:                -0.450
REMARK SMILES [NH3+]CCCC[C@@H]([NH3+])C(=O)[O-]
REMARK SMILES IDX 4 1 3 2 2 3 1 4 5 8 6 9 7 10 8 14 9 15 10 16
REMARK H PARENT 1 5 1 6 1 7 7 11 7 12 7 13
REMARK Flexibility Score: inf
ROOT
ATOM      1  C   UNL     1     -12.355  -1.985  56.587  1.00  0.00     0.012 C 
ENDROOT
BRANCH   1   2
ATOM      2  C   UNL     1     -12.395  -1.583  55.106  1.00  0.00     0.061 C 
BRANCH   2   3
ATOM      3  C   UNL     1     -13.781  -1.082  54.666  1.00  0.00     0.258 C 
BRANCH   3   4
ATOM      4  N   UNL     1     -14.795  -1.283  55.703  1.00  0.00    -0.358 N 
ATOM      5  H   UNL     1     -14.632  -2.185  56.204  1.00  0.00     0.344 HD
ATOM      6  H   UNL     1     -14.785  -0.489  56.384  1.00  0.00     0.344 HD
ATOM      7  H   UNL     1     -15.738  -1.324  55.252  1.00  0.00     0.344 HD
ENDBRANCH   3   4
ENDBRANCH   2   3
ENDBRANCH   1   2
BRANCH   1   8
ATOM      8  C   UNL     1     -11.751  -3.388  56.760  1.00  0.00     0.072 C 
BRANCH   8   9
ATOM      9  C   UNL     1     -12.187  -4.052  58.084  1.00  0.00     0.227 C 
BRANCH   9  10
ATOM     10  N   UNL     1     -13.625  -3.854  58.309  1.00  0.00    -0.350 N 
ATOM     11  H   UNL     1     -13.854  -2.834  58.273  1.00  0.00     0.345 HD
ATOM     12  H   UNL     1     -13.909  -4.239  59.239  1.00  0.00     0.345 HD
ATOM     13  H   UNL     1     -14.171  -4.337  57.558  1.00  0.00     0.345 HD
ENDBRANCH   9  10
BRANCH   9  14
ATOM     14  C   UNL     1     -11.859  -5.523  58.091  1.00  0.00     0.099 C 
ATOM     15  O   UNL     1     -10.670  -5.914  57.948  1.00  0.00    -0.544 OA
ATOM     16  O   UNL     1     -12.871  -6.458  58.265  1.00  0.00    -0.544 OA
ENDBRANCH   9  14
ENDBRANCH   8   9
ENDBRANCH   1   8
TORSDOF 7
ENDMDL
