MODEL 1
REMARK VINA RESULT:    -4.308      0.000      0.000
REMARK INTER + INTRA:          -6.474
REMARK INTER:                  -6.071
REMARK INTRA:                  -0.403
REMARK UNBOUND:                -0.403
REMARK SMILES CC1=CCC(=C(C)C)CCC(C)=CCC1
REMARK SMILES IDX 5 1 6 2 7 3 8 4 9 5 10 6 11 7 12 8 13 9 4 11 3 12 2 13 1 14
REMARK SMILES IDX 15 15 14 16
REMARK H PARENT
REMARK Flexibility Score: 60.00
ROOT
ATOM      1  C   UNL     1       0.187  14.412   2.175  1.00  0.00    -0.067 C 
ATOM      2  C   UNL     1      -0.234  15.277   1.190  1.00  0.00    -0.077 C 
ATOM      3  C   UNL     1      -1.579  15.971   1.263  1.00  0.00     0.039 C 
ATOM      4  C   UNL     1       0.619  15.588  -0.024  1.00  0.00     0.039 C 
ENDROOT
BRANCH   1   5
ATOM      5  C   UNL     1      -0.784  13.966   3.278  1.00  0.00     0.035 C 
BRANCH   5   6
ATOM      6  C   UNL     1      -0.336  14.184   4.738  1.00  0.00     0.035 C 
BRANCH   6   7
ATOM      7  C   UNL     1       0.084  12.921   5.487  1.00  0.00    -0.077 C 
ATOM      8  C   UNL     1      -0.994  11.950   5.908  1.00  0.00     0.039 C 
ATOM      9  C   UNL     1       1.367  12.550   5.729  1.00  0.00    -0.028 CG0
ATOM     10  G   UNL     1       2.604  13.391   5.550  1.00  0.00     0.000 G0
ENDBRANCH   6   7
ENDBRANCH   5   6
ENDBRANCH   1   5
BRANCH   1  11
ATOM     11  C   UNL     1       1.511  13.652   2.037  1.00  0.00     0.058 C 
BRANCH  11  12
ATOM     12  C   UNL     1       2.745  14.455   2.402  1.00  0.00    -0.024 C 
ATOM     13  C   UNL     1       3.613  14.189   3.408  1.00  0.00    -0.077 C 
ATOM     14  C   UNL     1       4.784  15.118   3.601  1.00  0.00     0.039 C 
BRANCH  13  15
ATOM     15  C   UNL     1       3.460  13.006   4.339  1.00  0.00     0.034 C 
BRANCH  15  16
ATOM     16  C   UNL     1       2.615  13.379   5.566  1.00  0.00     0.032 CG0
ATOM     17  G   UNL     1       1.370  12.547   5.736  1.00  0.00     0.000 G0
ENDBRANCH  15  16
ENDBRANCH  13  15
ENDBRANCH  11  12
ENDBRANCH   1  11
TORSDOF 0
ENDMDL
MODEL 2
REMARK VINA RESULT:    -4.307      1.259      1.967
REMARK INTER + INTRA:          -6.472
REMARK INTER:                  -6.017
REMARK INTRA:                  -0.455
REMARK UNBOUND:                -0.403
REMARK SMILES CC1=CCC(=C(C)C)CCC(C)=CCC1
REMARK SMILES IDX 5 1 6 2 7 3 8 4 9 5 10 6 11 7 12 8 13 9 4 11 3 12 2 13 1 14
REMARK SMILES IDX 15 15 14 16
REMARK H PARENT
REMARK Flexibility Score: 60.00
ROOT
ATOM      1  C   UNL     1      -1.650  14.868   3.046  1.00  0.00    -0.067 C 
ATOM      2  C   UNL     1      -2.618  15.721   2.568  1.00  0.00    -0.077 C 
ATOM      3  C   UNL     1      -3.691  16.293   3.473  1.00  0.00     0.039 C 
ATOM      4  C   UNL     1      -2.671  16.142   1.113  1.00  0.00     0.039 C 
ENDROOT
BRANCH   1   5
ATOM      5  C   UNL     1      -1.750  14.306   4.472  1.00  0.00     0.035 C 
BRANCH   5   6
ATOM      6  C   UNL     1      -0.436  14.169   5.268  1.00  0.00     0.035 C 
BRANCH   6   7
ATOM      7  C   UNL     1       0.051  12.738   5.481  1.00  0.00    -0.077 C 
ATOM      8  C   UNL     1      -0.827  11.796   6.272  1.00  0.00     0.039 C 
ATOM      9  C   UNL     1       1.179  12.211   4.939  1.00  0.00    -0.028 CG0
ATOM     10  G   UNL     1       2.288  12.958   4.246  1.00  0.00     0.000 G0
ENDBRANCH   6   7
ENDBRANCH   5   6
ENDBRANCH   1   5
BRANCH   1  11
ATOM     11  C   UNL     1      -0.628  14.231   2.096  1.00  0.00     0.058 C 
BRANCH  11  12
ATOM     12  C   UNL     1       0.695  14.967   2.001  1.00  0.00    -0.024 C 
ATOM     13  C   UNL     1       1.921  14.457   2.269  1.00  0.00    -0.077 C 
ATOM     14  C   UNL     1       3.116  15.362   2.110  1.00  0.00     0.039 C 
BRANCH  13  15
ATOM     15  C   UNL     1       2.144  13.029   2.715  1.00  0.00     0.034 C 
BRANCH  15  16
ATOM     16  C   UNL     1       2.296  12.947   4.241  1.00  0.00     0.032 CG0
ATOM     17  G   UNL     1       1.182  12.208   4.935  1.00  0.00     0.000 G0
ENDBRANCH  15  16
ENDBRANCH  13  15
ENDBRANCH  11  12
ENDBRANCH   1  11
TORSDOF 0
ENDMDL
MODEL 3
REMARK VINA RESULT:    -4.203      1.049      3.600
REMARK INTER + INTRA:          -6.326
REMARK INTER:                  -5.841
REMARK INTRA:                  -0.485
REMARK UNBOUND:                -0.403
REMARK SMILES CC1=CCC(=C(C)C)CCC(C)=CCC1
REMARK SMILES IDX 5 1 6 2 7 3 8 4 9 5 10 6 11 7 12 8 13 9 4 11 3 12 2 13 1 14
REMARK SMILES IDX 15 15 14 16
REMARK H PARENT
REMARK Flexibility Score: 60.00
ROOT
ATOM      1  C   UNL     1       0.315  14.087   2.145  1.00  0.00    -0.067 C 
ATOM      2  C   UNL     1      -0.460  14.014   1.010  1.00  0.00    -0.077 C 
ATOM      3  C   UNL     1       0.137  13.668  -0.339  1.00  0.00     0.039 C 
ATOM      4  C   UNL     1      -1.954  14.273   1.038  1.00  0.00     0.039 C 
ENDROOT
BRANCH   1   5
ATOM      5  C   UNL     1       1.846  14.021   2.041  1.00  0.00     0.035 C 
BRANCH   5   6
ATOM      6  C   UNL     1       2.574  13.047   2.990  1.00  0.00     0.035 C 
BRANCH   6   7
ATOM      7  C   UNL     1       3.459  13.705   4.047  1.00  0.00    -0.077 C 
ATOM      8  C   UNL     1       4.690  14.447   3.583  1.00  0.00     0.039 C 
ATOM      9  C   UNL     1       3.181  13.754   5.374  1.00  0.00    -0.028 CG0
ATOM     10  G   UNL     1       2.115  12.982   6.108  1.00  0.00     0.000 G0
ENDBRANCH   6   7
ENDBRANCH   5   6
ENDBRANCH   1   5
BRANCH   1  11
ATOM     11  C   UNL     1      -0.293  14.525   3.482  1.00  0.00     0.058 C 
BRANCH  11  12
ATOM     12  C   UNL     1      -0.804  13.390   4.350  1.00  0.00    -0.024 C 
ATOM     13  C   UNL     1      -0.343  13.042   5.575  1.00  0.00    -0.077 C 
ATOM     14  C   UNL     1      -0.995  11.875   6.274  1.00  0.00     0.039 C 
BRANCH  13  15
ATOM     15  C   UNL     1       0.788  13.767   6.270  1.00  0.00     0.034 C 
BRANCH  15  16
ATOM     16  C   UNL     1       2.109  12.997   6.120  1.00  0.00     0.032 CG0
ATOM     17  G   UNL     1       3.180  13.747   5.373  1.00  0.00     0.000 G0
ENDBRANCH  15  16
ENDBRANCH  13  15
ENDBRANCH  11  12
ENDBRANCH   1  11
TORSDOF 0
ENDMDL
MODEL 4
REMARK VINA RESULT:    -4.179      1.659      4.149
REMARK INTER + INTRA:          -6.291
REMARK INTER:                  -6.211
REMARK INTRA:                  -0.080
REMARK UNBOUND:                -0.403
REMARK SMILES CC1=CCC(=C(C)C)CCC(C)=CCC1
REMARK SMILES IDX 5 1 6 2 7 3 8 4 9 5 10 6 11 7 12 8 13 9 4 11 3 12 2 13 1 14
REMARK SMILES IDX 15 15 14 16
REMARK H PARENT
REMARK Flexibility Score: 60.00
ROOT
ATOM      1  C   UNL     1       3.318  14.821   2.530  1.00  0.00    -0.067 C 
ATOM      2  C   UNL     1       4.159  15.882   2.780  1.00  0.00    -0.077 C 
ATOM      3  C   UNL     1       4.042  17.186   2.018  1.00  0.00     0.039 C 
ATOM      4  C   UNL     1       5.250  15.812   3.831  1.00  0.00     0.039 C 
ENDROOT
BRANCH   1   5
ATOM      5  C   UNL     1       2.366  14.857   1.325  1.00  0.00     0.035 C 
BRANCH   5   6
ATOM      6  C   UNL     1       1.337  13.715   1.208  1.00  0.00     0.035 C 
BRANCH   6   7
ATOM      7  C   UNL     1      -0.119  14.125   1.418  1.00  0.00    -0.077 C 
ATOM      8  C   UNL     1      -0.988  14.319   0.197  1.00  0.00     0.039 C 
ATOM      9  C   UNL     1      -0.728  14.244   2.625  1.00  0.00    -0.028 CG0
ATOM     10  G   UNL     1      -0.067  14.250   3.979  1.00  0.00     0.000 G0
ENDBRANCH   6   7
ENDBRANCH   5   6
ENDBRANCH   1   5
BRANCH   1  11
ATOM     11  C   UNL     1       3.512  13.482   3.249  1.00  0.00     0.058 C 
BRANCH  11  12
ATOM     12  C   UNL     1       3.114  13.484   4.713  1.00  0.00    -0.024 C 
ATOM     13  C   UNL     1       1.874  13.263   5.212  1.00  0.00    -0.077 C 
ATOM     14  C   UNL     1       1.691  13.309   6.708  1.00  0.00     0.039 C 
BRANCH  13  15
ATOM     15  C   UNL     1       0.672  12.972   4.340  1.00  0.00     0.034 C 
BRANCH  15  16
ATOM     16  C   UNL     1      -0.080  14.266   3.993  1.00  0.00     0.032 CG0
ATOM     17  G   UNL     1      -0.731  14.257   2.634  1.00  0.00     0.000 G0
ENDBRANCH  15  16
ENDBRANCH  13  15
ENDBRANCH  11  12
ENDBRANCH   1  11
TORSDOF 0
ENDMDL
MODEL 5
REMARK VINA RESULT:    -4.166      2.928      6.018
REMARK INTER + INTRA:          -6.274
REMARK INTER:                  -5.985
REMARK INTRA:                  -0.289
REMARK UNBOUND:                -0.403
REMARK SMILES CC1=CCC(=C(C)C)CCC(C)=CCC1
REMARK SMILES IDX 5 1 6 2 7 3 8 4 9 5 10 6 11 7 12 8 13 9 4 11 3 12 2 13 1 14
REMARK SMILES IDX 15 15 14 16
REMARK H PARENT
REMARK Flexibility Score: 60.00
ROOT
ATOM      1  C   UNL     1       2.747  14.522   2.523  1.00  0.00    -0.067 C 
ATOM      2  C   UNL     1       3.639  14.110   3.487  1.00  0.00    -0.077 C 
ATOM      3  C   UNL     1       4.916  14.876   3.768  1.00  0.00     0.039 C 
ATOM      4  C   UNL     1       3.400  12.870   4.326  1.00  0.00     0.039 C 
ENDROOT
BRANCH   1   5
ATOM      5  C   UNL     1       3.120  15.659   1.560  1.00  0.00     0.035 C 
BRANCH   5   6
ATOM      6  C   UNL     1       1.961  16.396   0.860  1.00  0.00     0.035 C 
BRANCH   6   7
ATOM      7  C   UNL     1       1.673  15.949  -0.572  1.00  0.00    -0.077 C 
ATOM      8  C   UNL     1       2.808  15.977  -1.569  1.00  0.00     0.039 C 
ATOM      9  C   UNL     1       0.492  15.439  -1.005  1.00  0.00    -0.028 CG0
ATOM     10  G   UNL     1      -0.822  15.438  -0.268  1.00  0.00     0.000 G0
ENDBRANCH   6   7
ENDBRANCH   5   6
ENDBRANCH   1   5
BRANCH   1  11
ATOM     11  C   UNL     1       1.506  13.684   2.194  1.00  0.00     0.058 C 
BRANCH  11  12
ATOM     12  C   UNL     1       0.204  14.234   2.746  1.00  0.00    -0.024 C 
ATOM     13  C   UNL     1      -0.939  14.449   2.052  1.00  0.00    -0.077 C 
ATOM     14  C   UNL     1      -2.128  15.004   2.795  1.00  0.00     0.039 C 
BRANCH  13  15
ATOM     15  C   UNL     1      -1.076  14.157   0.574  1.00  0.00     0.034 C 
BRANCH  15  16
ATOM     16  C   UNL     1      -0.832  15.423  -0.261  1.00  0.00     0.032 CG0
ATOM     17  G   UNL     1       0.486  15.439  -0.991  1.00  0.00     0.000 G0
ENDBRANCH  15  16
ENDBRANCH  13  15
ENDBRANCH  11  12
ENDBRANCH   1  11
TORSDOF 0
ENDMDL
MODEL 6
REMARK VINA RESULT:    -4.139      2.601      4.717
REMARK INTER + INTRA:          -6.235
REMARK INTER:                  -5.972
REMARK INTRA:                  -0.263
REMARK UNBOUND:                -0.403
REMARK SMILES CC1=CCC(=C(C)C)CCC(C)=CCC1
REMARK SMILES IDX 5 1 6 2 7 3 8 4 9 5 10 6 11 7 12 8 13 9 4 11 3 12 2 13 1 14
REMARK SMILES IDX 15 15 14 16
REMARK H PARENT
REMARK Flexibility Score: 60.00
ROOT
ATOM      1  C   UNL     1       1.061  13.471   3.612  1.00  0.00    -0.067 C 
ATOM      2  C   UNL     1       1.437  13.412   4.935  1.00  0.00    -0.077 C 
ATOM      3  C   UNL     1       0.414  13.394   6.052  1.00  0.00     0.039 C 
ATOM      4  C   UNL     1       2.894  13.360   5.354  1.00  0.00     0.039 C 
ENDROOT
BRANCH   1   5
ATOM      5  C   UNL     1      -0.406  13.729   3.237  1.00  0.00     0.035 C 
BRANCH   5   6
ATOM      6  C   UNL     1      -0.705  14.981   2.388  1.00  0.00     0.035 C 
BRANCH   6   7
ATOM      7  C   UNL     1      -0.946  14.721   0.903  1.00  0.00    -0.077 C 
ATOM      8  C   UNL     1      -2.041  13.754   0.518  1.00  0.00     0.039 C 
ATOM      9  C   UNL     1      -0.310  15.359  -0.112  1.00  0.00    -0.028 CG0
ATOM     10  G   UNL     1       0.905  16.244  -0.009  1.00  0.00     0.000 G0
ENDBRANCH   6   7
ENDBRANCH   5   6
ENDBRANCH   1   5
BRANCH   1  11
ATOM     11  C   UNL     1       2.113  13.578   2.502  1.00  0.00     0.058 C 
BRANCH  11  12
ATOM     12  C   UNL     1       2.854  14.901   2.456  1.00  0.00    -0.024 C 
ATOM     13  C   UNL     1       2.921  15.751   1.403  1.00  0.00    -0.077 C 
ATOM     14  C   UNL     1       3.715  17.022   1.566  1.00  0.00     0.039 C 
BRANCH  13  15
ATOM     15  C   UNL     1       2.238  15.484   0.080  1.00  0.00     0.034 C 
BRANCH  15  16
ATOM     16  C   UNL     1       0.907  16.247  -0.015  1.00  0.00     0.032 CG0
ATOM     17  G   UNL     1      -0.307  15.361  -0.116  1.00  0.00     0.000 G0
ENDBRANCH  15  16
ENDBRANCH  13  15
ENDBRANCH  11  12
ENDBRANCH   1  11
TORSDOF 0
ENDMDL
MODEL 7
REMARK VINA RESULT:    -4.064      1.781      3.799
REMARK INTER + INTRA:          -6.130
REMARK INTER:                  -5.835
REMARK INTRA:                  -0.295
REMARK UNBOUND:                -0.403
REMARK SMILES CC1=CCC(=C(C)C)CCC(C)=CCC1
REMARK SMILES IDX 5 1 6 2 7 3 8 4 9 5 10 6 11 7 12 8 13 9 4 11 3 12 2 13 1 14
REMARK SMILES IDX 15 15 14 16
REMARK H PARENT
REMARK Flexibility Score: 60.00
ROOT
ATOM      1  C   UNL     1      -1.434  14.044   4.258  1.00  0.00    -0.067 C 
ATOM      2  C   UNL     1      -2.234  14.889   4.992  1.00  0.00    -0.077 C 
ATOM      3  C   UNL     1      -2.977  16.042   4.347  1.00  0.00     0.039 C 
ATOM      4  C   UNL     1      -2.423  14.719   6.487  1.00  0.00     0.039 C 
ENDROOT
BRANCH   1   5
ATOM      5  C   UNL     1      -1.106  14.369   2.793  1.00  0.00     0.035 C 
BRANCH   5   6
ATOM      6  C   UNL     1       0.354  14.741   2.465  1.00  0.00     0.035 C 
BRANCH   6   7
ATOM      7  C   UNL     1       1.113  13.721   1.620  1.00  0.00    -0.077 C 
ATOM      8  C   UNL     1       0.566  13.380   0.253  1.00  0.00     0.039 C 
ATOM      9  C   UNL     1       2.299  13.155   1.961  1.00  0.00    -0.028 CG0
ATOM     10  G   UNL     1       2.977  13.207   3.305  1.00  0.00     0.000 G0
ENDBRANCH   6   7
ENDBRANCH   5   6
ENDBRANCH   1   5
BRANCH   1  11
ATOM     11  C   UNL     1      -0.622  12.940   4.945  1.00  0.00     0.058 C 
BRANCH  11  12
ATOM     12  C   UNL     1       0.552  13.434   5.768  1.00  0.00    -0.024 C 
ATOM     13  C   UNL     1       1.863  13.180   5.537  1.00  0.00    -0.077 C 
ATOM     14  C   UNL     1       2.878  13.772   6.481  1.00  0.00     0.039 C 
BRANCH  13  15
ATOM     15  C   UNL     1       2.350  12.336   4.380  1.00  0.00     0.034 C 
BRANCH  15  16
ATOM     16  C   UNL     1       2.997  13.211   3.296  1.00  0.00     0.032 CG0
ATOM     17  G   UNL     1       2.308  13.148   1.957  1.00  0.00     0.000 G0
ENDBRANCH  15  16
ENDBRANCH  13  15
ENDBRANCH  11  12
ENDBRANCH   1  11
TORSDOF 0
ENDMDL
MODEL 8
REMARK VINA RESULT:    -4.040      1.599      4.044
REMARK INTER + INTRA:          -6.096
REMARK INTER:                  -5.495
REMARK INTRA:                  -0.601
REMARK UNBOUND:                -0.403
REMARK SMILES CC1=CCC(=C(C)C)CCC(C)=CCC1
REMARK SMILES IDX 5 1 6 2 7 3 8 4 9 5 10 6 11 7 12 8 13 9 4 11 3 12 2 13 1 14
REMARK SMILES IDX 15 15 14 16
REMARK H PARENT
REMARK Flexibility Score: 60.00
ROOT
ATOM      1  C   UNL     1       0.282  13.337   4.659  1.00  0.00    -0.067 C 
ATOM      2  C   UNL     1      -0.418  13.307   5.844  1.00  0.00    -0.077 C 
ATOM      3  C   UNL     1      -0.247  12.178   6.840  1.00  0.00     0.039 C 
ATOM      4  C   UNL     1      -1.399  14.398   6.226  1.00  0.00     0.039 C 
ENDROOT
BRANCH   1   5
ATOM      5  C   UNL     1       1.106  12.118   4.218  1.00  0.00     0.035 C 
BRANCH   5   6
ATOM      6  C   UNL     1       2.627  12.170   4.467  1.00  0.00     0.035 C 
BRANCH   6   7
ATOM      7  C   UNL     1       3.165  13.520   4.935  1.00  0.00    -0.077 C 
ATOM      8  C   UNL     1       3.191  13.801   6.419  1.00  0.00     0.039 C 
ATOM      9  C   UNL     1       3.710  14.464   4.126  1.00  0.00    -0.028 CG0
ATOM     10  G   UNL     1       3.674  14.499   2.620  1.00  0.00     0.000 G0
ENDBRANCH   6   7
ENDBRANCH   5   6
ENDBRANCH   1   5
BRANCH   1  11
ATOM     11  C   UNL     1       0.027  14.441   3.626  1.00  0.00     0.058 C 
BRANCH  11  12
ATOM     12  C   UNL     1       0.349  14.057   2.194  1.00  0.00    -0.024 C 
ATOM     13  C   UNL     1       1.435  14.441   1.481  1.00  0.00    -0.077 C 
ATOM     14  C   UNL     1       1.567  13.944   0.064  1.00  0.00     0.039 C 
BRANCH  13  15
ATOM     15  C   UNL     1       2.515  15.341   2.040  1.00  0.00     0.034 C 
BRANCH  15  16
ATOM     16  C   UNL     1       3.672  14.515   2.622  1.00  0.00     0.032 CG0
ATOM     17  G   UNL     1       3.710  14.479   4.128  1.00  0.00     0.000 G0
ENDBRANCH  15  16
ENDBRANCH  13  15
ENDBRANCH  11  12
ENDBRANCH   1  11
TORSDOF 0
ENDMDL
MODEL 9
REMARK VINA RESULT:    -3.821      2.974      5.460
REMARK INTER + INTRA:          -5.787
REMARK INTER:                  -5.416
REMARK INTRA:                  -0.371
REMARK UNBOUND:                -0.403
REMARK SMILES CC1=CCC(=C(C)C)CCC(C)=CCC1
REMARK SMILES IDX 5 1 6 2 7 3 8 4 9 5 10 6 11 7 12 8 13 9 4 11 3 12 2 13 1 14
REMARK SMILES IDX 15 15 14 16
REMARK H PARENT
REMARK Flexibility Score: 60.00
ROOT
ATOM      1  C   UNL     1       1.002  13.845   2.814  1.00  0.00    -0.067 C 
ATOM      2  C   UNL     1       1.805  13.222   3.742  1.00  0.00    -0.077 C 
ATOM      3  C   UNL     1       1.307  12.899   5.136  1.00  0.00     0.039 C 
ATOM      4  C   UNL     1       3.233  12.819   3.427  1.00  0.00     0.039 C 
ENDROOT
BRANCH   1   5
ATOM      5  C   UNL     1      -0.360  14.420   3.233  1.00  0.00     0.035 C 
BRANCH   5   6
ATOM      6  C   UNL     1      -1.554  14.150   2.295  1.00  0.00     0.035 C 
BRANCH   6   7
ATOM      7  C   UNL     1      -2.230  15.395   1.725  1.00  0.00    -0.077 C 
ATOM      8  C   UNL     1      -2.908  16.343   2.688  1.00  0.00     0.039 C 
ATOM      9  C   UNL     1      -2.195  15.772   0.422  1.00  0.00    -0.028 CG0
ATOM     10  G   UNL     1      -1.722  14.950  -0.749  1.00  0.00     0.000 G0
ENDBRANCH   6   7
ENDBRANCH   5   6
ENDBRANCH   1   5
BRANCH   1  11
ATOM     11  C   UNL     1       1.554  14.243   1.440  1.00  0.00     0.058 C 
BRANCH  11  12
ATOM     12  C   UNL     1       1.171  13.309   0.308  1.00  0.00    -0.024 C 
ATOM     13  C   UNL     1       0.399  13.615  -0.763  1.00  0.00    -0.077 C 
ATOM     14  C   UNL     1       0.139  12.535  -1.782  1.00  0.00     0.039 C 
BRANCH  13  15
ATOM     15  C   UNL     1      -0.207  14.983  -0.981  1.00  0.00     0.034 C 
BRANCH  15  16
ATOM     16  C   UNL     1      -1.726  14.953  -0.755  1.00  0.00     0.032 CG0
ATOM     17  G   UNL     1      -2.193  15.774   0.418  1.00  0.00     0.000 G0
ENDBRANCH  15  16
ENDBRANCH  13  15
ENDBRANCH  11  12
ENDBRANCH   1  11
TORSDOF 0
ENDMDL
