MODEL 1
REMARK VINA RESULT:    -5.587      0.000      0.000
REMARK INTER + INTRA:          -5.587
REMARK INTER:                  -5.587
REMARK INTRA:                   0.000
REMARK UNBOUND:                 0.000
REMARK SMILES CC1=CC[C@]2(C)CCCC(C)(C)[C@@]23C[C@@H]13
REMARK SMILES IDX 1 1 2 2 3 3 4 4 5 5 7 6 8 7 9 8 10 9 13 10 15 11 14 12 11 13
REMARK SMILES IDX 12 14 6 15
REMARK H PARENT
REMARK Flexibility Score: inf
ROOT
ATOM      1  C   UNL     1       0.891  -1.852  16.335  1.00  0.00     0.039 C 
ATOM      2  C   UNL     1       1.177  -2.191  17.770  1.00  0.00    -0.074 C 
ATOM      3  C   UNL     1       0.174  -2.260  18.650  1.00  0.00    -0.027 C 
ATOM      4  C   UNL     1       0.456  -2.473  20.101  1.00  0.00     0.034 C 
ATOM      5  C   UNL     1       1.504  -3.593  20.404  1.00  0.00    -0.022 C 
ATOM      6  C   UNL     1       1.872  -3.389  21.912  1.00  0.00     0.008 C 
ATOM      7  C   UNL     1       3.187  -4.019  22.323  1.00  0.00     0.001 C 
ATOM      8  C   UNL     1       4.311  -3.364  21.533  1.00  0.00     0.007 C 
ATOM      9  C   UNL     1       4.251  -3.723  20.028  1.00  0.00    -0.029 C 
ATOM     10  C   UNL     1       2.782  -3.487  19.443  1.00  0.00    -0.012 C 
ATOM     11  C   UNL     1       2.571  -2.608  18.171  1.00  0.00     0.022 C 
ATOM     12  C   UNL     1       2.663  -4.111  18.028  1.00  0.00     0.017 C 
ATOM     13  C   UNL     1       5.319  -2.847  19.327  1.00  0.00     0.012 C 
ATOM     14  C   UNL     1       4.686  -5.209  19.871  1.00  0.00     0.012 C 
ATOM     15  C   UNL     1       0.815  -4.975  20.264  1.00  0.00     0.012 C 
ENDROOT
TORSDOF 0
ENDMDL
MODEL 2
REMARK VINA RESULT:    -5.518      0.930      1.146
REMARK INTER + INTRA:          -5.518
REMARK INTER:                  -5.518
REMARK INTRA:                   0.000
REMARK UNBOUND:                 0.000
REMARK SMILES CC1=CC[C@]2(C)CCCC(C)(C)[C@@]23C[C@@H]13
REMARK SMILES IDX 1 1 2 2 3 3 4 4 5 5 7 6 8 7 9 8 10 9 13 10 15 11 14 12 11 13
REMARK SMILES IDX 12 14 6 15
REMARK H PARENT
REMARK Flexibility Score: inf
ROOT
ATOM      1  C   UNL     1       2.623  -1.912  15.896  1.00  0.00     0.039 C 
ATOM      2  C   UNL     1       2.168  -2.208  17.297  1.00  0.00    -0.074 C 
ATOM      3  C   UNL     1       0.865  -2.188  17.591  1.00  0.00    -0.027 C 
ATOM      4  C   UNL     1       0.407  -2.356  19.003  1.00  0.00     0.034 C 
ATOM      5  C   UNL     1       1.109  -3.517  19.782  1.00  0.00    -0.022 C 
ATOM      6  C   UNL     1       0.726  -3.271  21.280  1.00  0.00     0.008 C 
ATOM      7  C   UNL     1       1.642  -3.953  22.276  1.00  0.00     0.001 C 
ATOM      8  C   UNL     1       3.047  -3.391  22.112  1.00  0.00     0.007 C 
ATOM      9  C   UNL     1       3.687  -3.807  20.765  1.00  0.00    -0.029 C 
ATOM     10  C   UNL     1       2.694  -3.517  19.547  1.00  0.00    -0.012 C 
ATOM     11  C   UNL     1       3.172  -2.681  18.320  1.00  0.00     0.022 C 
ATOM     12  C   UNL     1       3.223  -4.191  18.254  1.00  0.00     0.017 C 
ATOM     13  C   UNL     1       5.015  -3.017  20.650  1.00  0.00     0.012 C 
ATOM     14  C   UNL     1       4.047  -5.319  20.850  1.00  0.00     0.012 C 
ATOM     15  C   UNL     1       0.480  -4.866  19.344  1.00  0.00     0.012 C 
ENDROOT
TORSDOF 0
ENDMDL
MODEL 3
REMARK VINA RESULT:    -5.399      1.173      3.152
REMARK INTER + INTRA:          -5.399
REMARK INTER:                  -5.399
REMARK INTRA:                   0.000
REMARK UNBOUND:                 0.000
REMARK SMILES CC1=CC[C@]2(C)CCCC(C)(C)[C@@]23C[C@@H]13
REMARK SMILES IDX 1 1 2 2 3 3 4 4 5 5 7 6 8 7 9 8 10 9 13 10 15 11 14 12 11 13
REMARK SMILES IDX 12 14 6 15
REMARK H PARENT
REMARK Flexibility Score: inf
ROOT
ATOM      1  C   UNL     1       6.288  -2.627  17.885  1.00  0.00     0.039 C 
ATOM      2  C   UNL     1       4.853  -2.571  18.324  1.00  0.00    -0.074 C 
ATOM      3  C   UNL     1       3.904  -2.215  17.454  1.00  0.00    -0.027 C 
ATOM      4  C   UNL     1       2.493  -2.034  17.908  1.00  0.00     0.034 C 
ATOM      5  C   UNL     1       1.957  -3.169  18.839  1.00  0.00    -0.022 C 
ATOM      6  C   UNL     1       0.630  -2.593  19.437  1.00  0.00     0.008 C 
ATOM      7  C   UNL     1       0.170  -3.279  20.708  1.00  0.00     0.001 C 
ATOM      8  C   UNL     1       1.228  -3.076  21.783  1.00  0.00     0.007 C 
ATOM      9  C   UNL     1       2.533  -3.847  21.468  1.00  0.00    -0.029 C 
ATOM     10  C   UNL     1       3.020  -3.559  19.973  1.00  0.00    -0.012 C 
ATOM     11  C   UNL     1       4.476  -3.072  19.697  1.00  0.00     0.022 C 
ATOM     12  C   UNL     1       4.152  -4.544  19.580  1.00  0.00     0.017 C 
ATOM     13  C   UNL     1       3.571  -3.402  22.528  1.00  0.00     0.012 C 
ATOM     14  C   UNL     1       2.260  -5.364  21.688  1.00  0.00     0.012 C 
ATOM     15  C   UNL     1       1.593  -4.401  17.970  1.00  0.00     0.012 C 
ENDROOT
TORSDOF 0
ENDMDL
MODEL 4
REMARK VINA RESULT:    -5.268      1.063      4.590
REMARK INTER + INTRA:          -5.268
REMARK INTER:                  -5.268
REMARK INTRA:                   0.000
REMARK UNBOUND:                 0.000
REMARK SMILES CC1=CC[C@]2(C)CCCC(C)(C)[C@@]23C[C@@H]13
REMARK SMILES IDX 1 1 2 2 3 3 4 4 5 5 7 6 8 7 9 8 10 9 13 10 15 11 14 12 11 13
REMARK SMILES IDX 12 14 6 15
REMARK H PARENT
REMARK Flexibility Score: inf
ROOT
ATOM      1  C   UNL     1       3.137  -3.843  23.994  1.00  0.00     0.039 C 
ATOM      2  C   UNL     1       3.465  -3.516  22.565  1.00  0.00    -0.074 C 
ATOM      3  C   UNL     1       4.741  -3.471  22.169  1.00  0.00    -0.027 C 
ATOM      4  C   UNL     1       5.087  -3.027  20.786  1.00  0.00     0.034 C 
ATOM      5  C   UNL     1       4.204  -3.655  19.659  1.00  0.00    -0.022 C 
ATOM      6  C   UNL     1       4.520  -2.797  18.388  1.00  0.00     0.008 C 
ATOM      7  C   UNL     1       3.468  -2.885  17.301  1.00  0.00     0.001 C 
ATOM      8  C   UNL     1       2.154  -2.345  17.846  1.00  0.00     0.007 C 
ATOM      9  C   UNL     1       1.553  -3.266  18.936  1.00  0.00    -0.029 C 
ATOM     10  C   UNL     1       2.647  -3.634  20.041  1.00  0.00    -0.012 C 
ATOM     11  C   UNL     1       2.351  -3.399  21.555  1.00  0.00     0.022 C 
ATOM     12  C   UNL     1       2.123  -4.770  20.957  1.00  0.00     0.017 C 
ATOM     13  C   UNL     1       0.339  -2.508  19.529  1.00  0.00     0.012 C 
ATOM     14  C   UNL     1       1.010  -4.547  18.236  1.00  0.00     0.012 C 
ATOM     15  C   UNL     1       4.691  -5.103  19.390  1.00  0.00     0.012 C 
ENDROOT
TORSDOF 0
ENDMDL
MODEL 5
REMARK VINA RESULT:    -5.265      1.491      3.644
REMARK INTER + INTRA:          -5.265
REMARK INTER:                  -5.265
REMARK INTRA:                   0.000
REMARK UNBOUND:                 0.000
REMARK SMILES CC1=CC[C@]2(C)CCCC(C)(C)[C@@]23C[C@@H]13
REMARK SMILES IDX 1 1 2 2 3 3 4 4 5 5 7 6 8 7 9 8 10 9 13 10 15 11 14 12 11 13
REMARK SMILES IDX 12 14 6 15
REMARK H PARENT
REMARK Flexibility Score: inf
ROOT
ATOM      1  C   UNL     1       2.563  -2.977  16.828  1.00  0.00     0.039 C 
ATOM      2  C   UNL     1       2.943  -3.775  18.042  1.00  0.00    -0.074 C 
ATOM      3  C   UNL     1       4.226  -3.864  18.405  1.00  0.00    -0.027 C 
ATOM      4  C   UNL     1       4.632  -4.755  19.534  1.00  0.00     0.034 C 
ATOM      5  C   UNL     1       3.728  -4.648  20.805  1.00  0.00    -0.022 C 
ATOM      6  C   UNL     1       4.131  -5.883  21.678  1.00  0.00     0.008 C 
ATOM      7  C   UNL     1       3.098  -6.277  22.714  1.00  0.00     0.001 C 
ATOM      8  C   UNL     1       1.817  -6.680  21.998  1.00  0.00     0.007 C 
ATOM      9  C   UNL     1       1.128  -5.473  21.315  1.00  0.00    -0.029 C 
ATOM     10  C   UNL     1       2.170  -4.647  20.429  1.00  0.00    -0.012 C 
ATOM     11  C   UNL     1       1.861  -4.336  18.931  1.00  0.00     0.022 C 
ATOM     12  C   UNL     1       1.545  -3.299  19.985  1.00  0.00     0.017 C 
ATOM     13  C   UNL     1      -0.038  -6.053  20.476  1.00  0.00     0.012 C 
ATOM     14  C   UNL     1       0.506  -4.581  22.429  1.00  0.00     0.012 C 
ATOM     15  C   UNL     1       4.113  -3.365  21.587  1.00  0.00     0.012 C 
ENDROOT
TORSDOF 0
ENDMDL
MODEL 6
REMARK VINA RESULT:    -5.262      1.255      2.147
REMARK INTER + INTRA:          -5.262
REMARK INTER:                  -5.262
REMARK INTRA:                   0.000
REMARK UNBOUND:                 0.000
REMARK SMILES CC1=CC[C@]2(C)CCCC(C)(C)[C@@]23C[C@@H]13
REMARK SMILES IDX 1 1 2 2 3 3 4 4 5 5 7 6 8 7 9 8 10 9 13 10 15 11 14 12 11 13
REMARK SMILES IDX 12 14 6 15
REMARK H PARENT
REMARK Flexibility Score: inf
ROOT
ATOM      1  C   UNL     1      -1.817  -1.175  19.332  1.00  0.00     0.039 C 
ATOM      2  C   UNL     1      -0.614  -1.755  20.019  1.00  0.00    -0.074 C 
ATOM      3  C   UNL     1      -0.695  -2.130  21.299  1.00  0.00    -0.027 C 
ATOM      4  C   UNL     1       0.523  -2.591  22.030  1.00  0.00     0.034 C 
ATOM      5  C   UNL     1       1.416  -3.600  21.238  1.00  0.00    -0.022 C 
ATOM      6  C   UNL     1       2.756  -3.656  22.046  1.00  0.00     0.008 C 
ATOM      7  C   UNL     1       3.939  -4.176  21.254  1.00  0.00     0.001 C 
ATOM      8  C   UNL     1       4.200  -3.233  20.087  1.00  0.00     0.007 C 
ATOM      9  C   UNL     1       3.069  -3.288  19.031  1.00  0.00    -0.029 C 
ATOM     10  C   UNL     1       1.635  -3.136  19.720  1.00  0.00    -0.012 C 
ATOM     11  C   UNL     1       0.628  -2.056  19.216  1.00  0.00     0.022 C 
ATOM     12  C   UNL     1       0.514  -3.474  18.702  1.00  0.00     0.017 C 
ATOM     13  C   UNL     1       3.365  -2.156  18.015  1.00  0.00     0.012 C 
ATOM     14  C   UNL     1       3.186  -4.642  18.271  1.00  0.00     0.012 C 
ATOM     15  C   UNL     1       0.763  -5.005  21.302  1.00  0.00     0.012 C 
ENDROOT
TORSDOF 0
ENDMDL
MODEL 7
REMARK VINA RESULT:    -5.083      3.192      6.513
REMARK INTER + INTRA:          -5.083
REMARK INTER:                  -5.083
REMARK INTRA:                   0.000
REMARK UNBOUND:                 0.000
REMARK SMILES CC1=CC[C@]2(C)CCCC(C)(C)[C@@]23C[C@@H]13
REMARK SMILES IDX 1 1 2 2 3 3 4 4 5 5 7 6 8 7 9 8 10 9 13 10 15 11 14 12 11 13
REMARK SMILES IDX 12 14 6 15
REMARK H PARENT
REMARK Flexibility Score: inf
ROOT
ATOM      1  C   UNL     1       4.778  -2.259  17.599  1.00  0.00     0.039 C 
ATOM      2  C   UNL     1       3.586  -2.461  16.708  1.00  0.00    -0.074 C 
ATOM      3  C   UNL     1       2.398  -2.759  17.242  1.00  0.00    -0.027 C 
ATOM      4  C   UNL     1       1.235  -3.084  16.364  1.00  0.00     0.034 C 
ATOM      5  C   UNL     1       1.042  -2.116  15.152  1.00  0.00    -0.022 C 
ATOM      6  C   UNL     1       0.013  -2.846  14.225  1.00  0.00     0.008 C 
ATOM      7  C   UNL     1       0.015  -2.361  12.790  1.00  0.00     0.001 C 
ATOM      8  C   UNL     1       1.383  -2.636  12.182  1.00  0.00     0.007 C 
ATOM      9  C   UNL     1       2.487  -1.751  12.811  1.00  0.00    -0.029 C 
ATOM     10  C   UNL     1       2.428  -1.811  14.407  1.00  0.00    -0.012 C 
ATOM     11  C   UNL     1       3.703  -2.168  15.232  1.00  0.00     0.022 C 
ATOM     12  C   UNL     1       3.340  -0.715  15.018  1.00  0.00     0.017 C 
ATOM     13  C   UNL     1       3.835  -2.266  12.246  1.00  0.00     0.012 C 
ATOM     14  C   UNL     1       2.288  -0.296  12.296  1.00  0.00     0.012 C 
ATOM     15  C   UNL     1       0.382  -0.806  15.658  1.00  0.00     0.012 C 
ENDROOT
TORSDOF 0
ENDMDL
MODEL 8
REMARK VINA RESULT:    -5.079      1.920      4.808
REMARK INTER + INTRA:          -5.079
REMARK INTER:                  -5.079
REMARK INTRA:                   0.000
REMARK UNBOUND:                 0.000
REMARK SMILES CC1=CC[C@]2(C)CCCC(C)(C)[C@@]23C[C@@H]13
REMARK SMILES IDX 1 1 2 2 3 3 4 4 5 5 7 6 8 7 9 8 10 9 13 10 15 11 14 12 11 13
REMARK SMILES IDX 12 14 6 15
REMARK H PARENT
REMARK Flexibility Score: inf
ROOT
ATOM      1  C   UNL     1       5.310  -3.940  20.177  1.00  0.00     0.039 C 
ATOM      2  C   UNL     1       4.246  -3.898  19.117  1.00  0.00    -0.074 C 
ATOM      3  C   UNL     1       3.054  -4.455  19.349  1.00  0.00    -0.027 C 
ATOM      4  C   UNL     1       2.031  -4.531  18.263  1.00  0.00     0.034 C 
ATOM      5  C   UNL     1       1.849  -3.210  17.447  1.00  0.00    -0.022 C 
ATOM      6  C   UNL     1       1.011  -3.636  16.194  1.00  0.00     0.008 C 
ATOM      7  C   UNL     1       1.101  -2.672  15.029  1.00  0.00     0.001 C 
ATOM      8  C   UNL     1       2.546  -2.609  14.555  1.00  0.00     0.007 C 
ATOM      9  C   UNL     1       3.469  -1.928  15.595  1.00  0.00    -0.029 C 
ATOM     10  C   UNL     1       3.257  -2.558  17.048  1.00  0.00    -0.012 C 
ATOM     11  C   UNL     1       4.476  -3.089  17.864  1.00  0.00     0.022 C 
ATOM     12  C   UNL     1       3.967  -1.688  18.118  1.00  0.00     0.017 C 
ATOM     13  C   UNL     1       4.918  -2.105  15.075  1.00  0.00     0.012 C 
ATOM     14  C   UNL     1       3.153  -0.403  15.592  1.00  0.00     0.012 C 
ATOM     15  C   UNL     1       0.992  -2.221  18.279  1.00  0.00     0.012 C 
ENDROOT
TORSDOF 0
ENDMDL
MODEL 9
REMARK VINA RESULT:    -4.971      1.589      4.139
REMARK INTER + INTRA:          -4.971
REMARK INTER:                  -4.971
REMARK INTRA:                   0.000
REMARK UNBOUND:                 0.000
REMARK SMILES CC1=CC[C@]2(C)CCCC(C)(C)[C@@]23C[C@@H]13
REMARK SMILES IDX 1 1 2 2 3 3 4 4 5 5 7 6 8 7 9 8 10 9 13 10 15 11 14 12 11 13
REMARK SMILES IDX 12 14 6 15
REMARK H PARENT
REMARK Flexibility Score: inf
ROOT
ATOM      1  C   UNL     1       2.047  -6.979  23.523  1.00  0.00     0.039 C 
ATOM      2  C   UNL     1       1.757  -6.315  22.207  1.00  0.00    -0.074 C 
ATOM      3  C   UNL     1       0.492  -6.106  21.832  1.00  0.00    -0.027 C 
ATOM      4  C   UNL     1       0.187  -5.562  20.475  1.00  0.00     0.034 C 
ATOM      5  C   UNL     1       1.075  -4.348  20.045  1.00  0.00    -0.022 C 
ATOM      6  C   UNL     1       0.809  -4.193  18.509  1.00  0.00     0.008 C 
ATOM      7  C   UNL     1       1.880  -3.418  17.768  1.00  0.00     0.001 C 
ATOM      8  C   UNL     1       3.198  -4.171  17.884  1.00  0.00     0.007 C 
ATOM      9  C   UNL     1       3.750  -4.159  19.331  1.00  0.00    -0.029 C 
ATOM     10  C   UNL     1       2.623  -4.597  20.376  1.00  0.00    -0.012 C 
ATOM     11  C   UNL     1       2.895  -5.745  21.396  1.00  0.00     0.022 C 
ATOM     12  C   UNL     1       3.096  -4.309  21.825  1.00  0.00     0.017 C 
ATOM     13  C   UNL     1       4.972  -5.111  19.340  1.00  0.00     0.012 C 
ATOM     14  C   UNL     1       4.270  -2.724  19.634  1.00  0.00     0.012 C 
ATOM     15  C   UNL     1       0.552  -3.070  20.750  1.00  0.00     0.012 C 
ENDROOT
TORSDOF 0
ENDMDL
