MODEL 1
REMARK VINA RESULT:    -4.209      0.000      0.000
REMARK INTER + INTRA:          -5.038
REMARK INTER:                  -4.947
REMARK INTRA:                  -0.091
REMARK UNBOUND:                -0.091
REMARK SMILES O=C([O-])CCC(=O)[O-]
REMARK SMILES IDX 4 1 2 2 1 3 3 4 5 5 6 6 7 7 8 8
REMARK H PARENT
REMARK Flexibility Score: inf
ROOT
ATOM      1  C   UNL     1      14.933   6.682 -20.459  1.00  0.00     0.059 C 
ENDROOT
BRANCH   1   2
ATOM      2  C   UNL     1      13.658   7.280 -19.945  1.00  0.00     0.042 C 
ATOM      3  O   UNL     1      12.909   7.936 -20.716  1.00  0.00    -0.550 OA
ATOM      4  O   UNL     1      13.319   7.148 -18.605  1.00  0.00    -0.550 OA
ENDBRANCH   1   2
BRANCH   1   5
ATOM      5  C   UNL     1      15.394   7.363 -21.751  1.00  0.00     0.059 C 
BRANCH   5   6
ATOM      6  C   UNL     1      16.259   8.554 -21.467  1.00  0.00     0.042 C 
ATOM      7  O   UNL     1      16.927   8.614 -20.401  1.00  0.00    -0.550 OA
ATOM      8  O   UNL     1      16.294   9.616 -22.362  1.00  0.00    -0.550 OA
ENDBRANCH   5   6
ENDBRANCH   1   5
TORSDOF 3
ENDMDL
MODEL 2
REMARK VINA RESULT:    -4.166      2.121      2.926
REMARK INTER + INTRA:          -4.987
REMARK INTER:                  -4.955
REMARK INTRA:                  -0.033
REMARK UNBOUND:                -0.091
REMARK SMILES O=C([O-])CCC(=O)[O-]
REMARK SMILES IDX 4 1 2 2 1 3 3 4 5 5 6 6 7 7 8 8
REMARK H PARENT
REMARK Flexibility Score: inf
ROOT
ATOM      1  C   UNL     1      15.986   7.989 -20.078  1.00  0.00     0.059 C 
ENDROOT
BRANCH   1   2
ATOM      2  C   UNL     1      15.397   7.230 -21.228  1.00  0.00     0.042 C 
ATOM      3  O   UNL     1      15.614   7.602 -22.412  1.00  0.00    -0.550 OA
ATOM      4  O   UNL     1      14.576   6.135 -20.991  1.00  0.00    -0.550 OA
ENDBRANCH   1   2
BRANCH   1   5
ATOM      5  C   UNL     1      17.138   8.892 -20.529  1.00  0.00     0.059 C 
BRANCH   5   6
ATOM      6  C   UNL     1      17.692   9.689 -19.388  1.00  0.00     0.042 C 
ATOM      7  O   UNL     1      17.739  10.946 -19.456  1.00  0.00    -0.550 OA
ATOM      8  O   UNL     1      18.194   9.042 -18.266  1.00  0.00    -0.550 OA
ENDBRANCH   5   6
ENDBRANCH   1   5
TORSDOF 3
ENDMDL
MODEL 3
REMARK VINA RESULT:    -4.163      2.142      4.060
REMARK INTER + INTRA:          -4.984
REMARK INTER:                  -4.951
REMARK INTRA:                  -0.033
REMARK UNBOUND:                -0.091
REMARK SMILES O=C([O-])CCC(=O)[O-]
REMARK SMILES IDX 4 1 2 2 1 3 3 4 5 5 6 6 7 7 8 8
REMARK H PARENT
REMARK Flexibility Score: inf
ROOT
ATOM      1  C   UNL     1      17.184   8.798 -20.488  1.00  0.00     0.059 C 
ENDROOT
BRANCH   1   2
ATOM      2  C   UNL     1      17.736   9.606 -19.353  1.00  0.00     0.042 C 
ATOM      3  O   UNL     1      18.170   9.033 -18.318  1.00  0.00    -0.550 OA
ATOM      4  O   UNL     1      17.734  10.993 -19.421  1.00  0.00    -0.550 OA
ENDBRANCH   1   2
BRANCH   1   5
ATOM      5  C   UNL     1      15.958   7.987 -20.057  1.00  0.00     0.059 C 
BRANCH   5   6
ATOM      6  C   UNL     1      15.398   7.189 -21.196  1.00  0.00     0.042 C 
ATOM      7  O   UNL     1      15.644   7.521 -22.385  1.00  0.00    -0.550 OA
ATOM      8  O   UNL     1      14.571   6.102 -20.942  1.00  0.00    -0.550 OA
ENDBRANCH   5   6
ENDBRANCH   1   5
TORSDOF 3
ENDMDL
MODEL 4
REMARK VINA RESULT:    -4.157      0.095      3.852
REMARK INTER + INTRA:          -4.977
REMARK INTER:                  -4.880
REMARK INTRA:                  -0.097
REMARK UNBOUND:                -0.091
REMARK SMILES O=C([O-])CCC(=O)[O-]
REMARK SMILES IDX 4 1 2 2 1 3 3 4 5 5 6 6 7 7 8 8
REMARK H PARENT
REMARK Flexibility Score: inf
ROOT
ATOM      1  C   UNL     1      15.320   7.478 -21.759  1.00  0.00     0.059 C 
ENDROOT
BRANCH   1   2
ATOM      2  C   UNL     1      16.258   8.599 -21.426  1.00  0.00     0.042 C 
ATOM      3  O   UNL     1      16.890   8.594 -20.336  1.00  0.00    -0.550 OA
ATOM      4  O   UNL     1      16.401   9.669 -22.299  1.00  0.00    -0.550 OA
ENDBRANCH   1   2
BRANCH   1   5
ATOM      5  C   UNL     1      14.881   6.718 -20.504  1.00  0.00     0.059 C 
BRANCH   5   6
ATOM      6  C   UNL     1      13.622   7.289 -19.927  1.00  0.00     0.042 C 
ATOM      7  O   UNL     1      12.808   7.906 -20.664  1.00  0.00    -0.550 OA
ATOM      8  O   UNL     1      13.366   7.175 -18.566  1.00  0.00    -0.550 OA
ENDBRANCH   5   6
ENDBRANCH   1   5
TORSDOF 3
ENDMDL
MODEL 5
REMARK VINA RESULT:    -4.079      2.656      3.547
REMARK INTER + INTRA:          -4.885
REMARK INTER:                  -4.778
REMARK INTRA:                  -0.107
REMARK UNBOUND:                -0.091
REMARK SMILES O=C([O-])CCC(=O)[O-]
REMARK SMILES IDX 4 1 2 2 1 3 3 4 5 5 6 6 7 7 8 8
REMARK H PARENT
REMARK Flexibility Score: inf
ROOT
ATOM      1  C   UNL     1      16.419   8.392 -20.787  1.00  0.00     0.059 C 
ENDROOT
BRANCH   1   2
ATOM      2  C   UNL     1      15.999   9.052 -22.065  1.00  0.00     0.042 C 
ATOM      3  O   UNL     1      16.563  10.112 -22.447  1.00  0.00    -0.550 OA
ATOM      4  O   UNL     1      14.957   8.520 -22.813  1.00  0.00    -0.550 OA
ENDBRANCH   1   2
BRANCH   1   5
ATOM      5  C   UNL     1      17.817   8.843 -20.353  1.00  0.00     0.059 C 
BRANCH   5   6
ATOM      6  C   UNL     1      17.754   9.786 -19.189  1.00  0.00     0.042 C 
ATOM      7  O   UNL     1      17.682   9.339 -18.014  1.00  0.00    -0.550 OA
ATOM      8  O   UNL     1      17.735  11.158 -19.406  1.00  0.00    -0.550 OA
ENDBRANCH   5   6
ENDBRANCH   1   5
TORSDOF 3
ENDMDL
MODEL 6
REMARK VINA RESULT:    -4.021      3.461      5.334
REMARK INTER + INTRA:          -4.817
REMARK INTER:                  -4.710
REMARK INTRA:                  -0.106
REMARK UNBOUND:                -0.091
REMARK SMILES O=C([O-])CCC(=O)[O-]
REMARK SMILES IDX 4 1 2 2 1 3 3 4 5 5 6 6 7 7 8 8
REMARK H PARENT
REMARK Flexibility Score: inf
ROOT
ATOM      1  C   UNL     1      17.466  11.406 -20.949  1.00  0.00     0.059 C 
ENDROOT
BRANCH   1   2
ATOM      2  C   UNL     1      17.730  12.648 -20.152  1.00  0.00     0.042 C 
ATOM      3  O   UNL     1      18.893  12.902 -19.740  1.00  0.00    -0.550 OA
ATOM      4  O   UNL     1      16.684  13.502 -19.830  1.00  0.00    -0.550 OA
ENDBRANCH   1   2
BRANCH   1   5
ATOM      5  C   UNL     1      18.322  10.232 -20.463  1.00  0.00     0.059 C 
BRANCH   5   6
ATOM      6  C   UNL     1      17.579   9.379 -19.481  1.00  0.00     0.042 C 
ATOM      7  O   UNL     1      17.767   9.524 -18.244  1.00  0.00    -0.550 OA
ATOM      8  O   UNL     1      16.709   8.395 -19.933  1.00  0.00    -0.550 OA
ENDBRANCH   5   6
ENDBRANCH   1   5
TORSDOF 3
ENDMDL
MODEL 7
REMARK VINA RESULT:    -4.014      2.441      4.385
REMARK INTER + INTRA:          -4.809
REMARK INTER:                  -4.766
REMARK INTRA:                  -0.043
REMARK UNBOUND:                -0.091
REMARK SMILES O=C([O-])CCC(=O)[O-]
REMARK SMILES IDX 4 1 2 2 1 3 3 4 5 5 6 6 7 7 8 8
REMARK H PARENT
REMARK Flexibility Score: inf
ROOT
ATOM      1  C   UNL     1      17.214   8.825 -19.239  1.00  0.00     0.059 C 
ENDROOT
BRANCH   1   2
ATOM      2  C   UNL     1      18.617   8.827 -18.713  1.00  0.00     0.042 C 
ATOM      3  O   UNL     1      18.845   8.516 -17.513  1.00  0.00    -0.550 OA
ATOM      4  O   UNL     1      19.667   9.213 -19.535  1.00  0.00    -0.550 OA
ENDBRANCH   1   2
BRANCH   1   5
ATOM      5  C   UNL     1      17.185   8.936 -20.766  1.00  0.00     0.059 C 
BRANCH   5   6
ATOM      6  C   UNL     1      16.017   8.199 -21.350  1.00  0.00     0.042 C 
ATOM      7  O   UNL     1      15.523   8.563 -22.450  1.00  0.00    -0.550 OA
ATOM      8  O   UNL     1      15.450   7.136 -20.659  1.00  0.00    -0.550 OA
ENDBRANCH   5   6
ENDBRANCH   1   5
TORSDOF 3
ENDMDL
MODEL 8
REMARK VINA RESULT:    -3.836      4.325      5.407
REMARK INTER + INTRA:          -4.600
REMARK INTER:                  -4.441
REMARK INTRA:                  -0.159
REMARK UNBOUND:                -0.091
REMARK SMILES O=C([O-])CCC(=O)[O-]
REMARK SMILES IDX 4 1 2 2 1 3 3 4 5 5 6 6 7 7 8 8
REMARK H PARENT
REMARK Flexibility Score: inf
ROOT
ATOM      1  C   UNL     1      17.543  10.909 -21.115  1.00  0.00     0.059 C 
ENDROOT
BRANCH   1   2
ATOM      2  C   UNL     1      18.227  10.047 -20.097  1.00  0.00     0.042 C 
ATOM      3  O   UNL     1      19.292   9.442 -20.391  1.00  0.00    -0.550 OA
ATOM      4  O   UNL     1      17.666   9.880 -18.838  1.00  0.00    -0.550 OA
ENDBRANCH   1   2
BRANCH   1   5
ATOM      5  C   UNL     1      18.264  12.248 -21.295  1.00  0.00     0.059 C 
BRANCH   5   6
ATOM      6  C   UNL     1      18.051  13.151 -20.118  1.00  0.00     0.042 C 
ATOM      7  O   UNL     1      19.036  13.587 -19.466  1.00  0.00    -0.550 OA
ATOM      8  O   UNL     1      16.762  13.478 -19.717  1.00  0.00    -0.550 OA
ENDBRANCH   5   6
ENDBRANCH   1   5
TORSDOF 3
ENDMDL
MODEL 9
REMARK VINA RESULT:    -3.812      1.336      3.948
REMARK INTER + INTRA:          -4.571
REMARK INTER:                  -4.529
REMARK INTRA:                  -0.042
REMARK UNBOUND:                -0.091
REMARK SMILES O=C([O-])CCC(=O)[O-]
REMARK SMILES IDX 4 1 2 2 1 3 3 4 5 5 6 6 7 7 8 8
REMARK H PARENT
REMARK Flexibility Score: inf
ROOT
ATOM      1  C   UNL     1      16.501   8.271 -20.618  1.00  0.00     0.059 C 
ENDROOT
BRANCH   1   2
ATOM      2  C   UNL     1      17.043   9.500 -21.282  1.00  0.00     0.042 C 
ATOM      3  O   UNL     1      17.998  10.135 -20.760  1.00  0.00    -0.550 OA
ATOM      4  O   UNL     1      16.468   9.968 -22.456  1.00  0.00    -0.550 OA
ENDBRANCH   1   2
BRANCH   1   5
ATOM      5  C   UNL     1      15.575   7.487 -21.553  1.00  0.00     0.059 C 
BRANCH   5   6
ATOM      6  C   UNL     1      14.453   6.839 -20.801  1.00  0.00     0.042 C 
ATOM      7  O   UNL     1      14.521   5.622 -20.483  1.00  0.00    -0.550 OA
ATOM      8  O   UNL     1      13.314   7.569 -20.487  1.00  0.00    -0.550 OA
ENDBRANCH   5   6
ENDBRANCH   1   5
TORSDOF 3
ENDMDL
