MODEL 1
REMARK VINA RESULT:    -3.380      0.000      0.000
REMARK INTER + INTRA:          -4.047
REMARK INTER:                  -4.566
REMARK INTRA:                   0.518
REMARK UNBOUND:                 0.518
REMARK SMILES C=C1C(=O)O[C@@H]2[C@H]3O[C@]3(C)CCC=C(C)CC[C@@H]12
REMARK SMILES IDX 6 1 18 2 2 3 1 4 3 5 4 6 5 7 17 8 16 9 14 10 15 11 13 12
REMARK SMILES IDX 7 14 9 15 8 16 10 17 11 18 12 19
REMARK H PARENT
REMARK Flexibility Score: 70.00
ROOT
ATOM      1  C   UNL     1     -12.247  80.237  -7.030  1.00  0.00     0.216 C 
ATOM      2  C   UNL     1     -13.781  80.500  -7.065  1.00  0.00     0.070 C 
ATOM      3  C   UNL     1     -14.345  79.142  -6.757  1.00  0.00     0.037 C 
ATOM      4  C   UNL     1     -15.631  78.788  -6.769  1.00  0.00     0.021 C 
ATOM      5  C   UNL     1     -13.264  78.348  -6.216  1.00  0.00     0.334 C 
ATOM      6  O   UNL     1     -13.374  77.198  -5.716  1.00  0.00    -0.247 OA
ATOM      7  O   UNL     1     -12.074  79.042  -6.277  1.00  0.00    -0.455 OA
ENDROOT
BRANCH   2   8
ATOM      8  C   UNL     1     -14.253  81.113  -8.407  1.00  0.00     0.017 C 
BRANCH   8   9
ATOM      9  C   UNL     1     -14.469  82.649  -8.321  1.00  0.00     0.031 C 
BRANCH   9  10
ATOM     10  C   UNL     1     -13.495  83.465  -9.166  1.00  0.00    -0.077 C 
ATOM     11  C   UNL     1     -13.731  83.513 -10.657  1.00  0.00     0.039 C 
ATOM     12  C   UNL     1     -12.505  84.258  -8.673  1.00  0.00    -0.028 CG0
ATOM     13  G   UNL     1     -12.050  84.381  -7.231  1.00  0.00     0.000 G0
ENDBRANCH   9  10
ENDBRANCH   8   9
ENDBRANCH   2   8
BRANCH   1  14
ATOM     14  C   UNL     1     -11.505  81.430  -6.416  1.00  0.00     0.192 C 
ATOM     15  C   UNL     1     -10.670  82.237  -7.351  1.00  0.00     0.096 C 
ATOM     16  O   UNL     1     -10.096  81.365  -6.400  1.00  0.00    -0.362 OA
ATOM     17  C   UNL     1     -10.306  81.792  -8.776  1.00  0.00     0.045 C 
BRANCH  15  18
ATOM     18  C   UNL     1     -10.647  83.735  -7.011  1.00  0.00     0.042 C 
BRANCH  18  19
ATOM     19  C   UNL     1     -12.029  84.386  -7.229  1.00  0.00     0.030 CG0
ATOM     20  G   UNL     1     -12.494  84.268  -8.668  1.00  0.00     0.000 G0
ENDBRANCH  18  19
ENDBRANCH  15  18
ENDBRANCH   1  14
TORSDOF 0
ENDMDL
MODEL 2
REMARK VINA RESULT:    -3.322      8.184     10.208
REMARK INTER + INTRA:          -3.969
REMARK INTER:                  -4.481
REMARK INTRA:                   0.512
REMARK UNBOUND:                 0.518
REMARK SMILES C=C1C(=O)O[C@@H]2[C@H]3O[C@]3(C)CCC=C(C)CC[C@@H]12
REMARK SMILES IDX 6 1 18 2 2 3 1 4 3 5 4 6 5 7 17 8 16 9 14 10 15 11 13 12
REMARK SMILES IDX 7 14 9 15 8 16 10 17 11 18 12 19
REMARK H PARENT
REMARK Flexibility Score: 70.00
ROOT
ATOM      1  C   UNL     1      -5.243  85.414  -9.248  1.00  0.00     0.216 C 
ATOM      2  C   UNL     1      -5.018  86.672  -8.359  1.00  0.00     0.070 C 
ATOM      3  C   UNL     1      -5.559  87.775  -9.223  1.00  0.00     0.037 C 
ATOM      4  C   UNL     1      -5.509  89.085  -8.974  1.00  0.00     0.021 C 
ATOM      5  C   UNL     1      -6.349  87.151 -10.261  1.00  0.00     0.334 C 
ATOM      6  O   UNL     1      -7.072  87.753 -11.099  1.00  0.00    -0.247 OA
ATOM      7  O   UNL     1      -6.247  85.777 -10.190  1.00  0.00    -0.455 OA
ENDROOT
BRANCH   2   8
ATOM      8  C   UNL     1      -3.541  86.845  -7.929  1.00  0.00     0.017 C 
BRANCH   8   9
ATOM      9  C   UNL     1      -2.875  85.502  -7.516  1.00  0.00     0.031 C 
BRANCH   9  10
ATOM     10  C   UNL     1      -3.120  85.104  -6.063  1.00  0.00    -0.077 C 
ATOM     11  C   UNL     1      -3.238  86.212  -5.045  1.00  0.00     0.039 C 
ATOM     12  C   UNL     1      -3.368  83.838  -5.629  1.00  0.00    -0.028 CG0
ATOM     13  G   UNL     1      -3.296  82.554  -6.434  1.00  0.00     0.000 G0
ENDBRANCH   9  10
ENDBRANCH   8   9
ENDBRANCH   2   8
BRANCH   1  14
ATOM     14  C   UNL     1      -5.652  84.210  -8.392  1.00  0.00     0.192 C 
ATOM     15  C   UNL     1      -4.763  83.015  -8.473  1.00  0.00     0.096 C 
ATOM     16  O   UNL     1      -6.038  83.040  -9.080  1.00  0.00    -0.362 OA
ATOM     17  C   UNL     1      -3.666  82.833  -9.533  1.00  0.00     0.045 C 
BRANCH  15  18
ATOM     18  C   UNL     1      -4.650  82.248  -7.146  1.00  0.00     0.042 C 
BRANCH  18  19
ATOM     19  C   UNL     1      -3.311  82.539  -6.436  1.00  0.00     0.030 CG0
ATOM     20  G   UNL     1      -3.357  83.828  -5.638  1.00  0.00     0.000 G0
ENDBRANCH  18  19
ENDBRANCH  15  18
ENDBRANCH   1  14
TORSDOF 0
ENDMDL
MODEL 3
REMARK VINA RESULT:    -3.206     11.399     13.718
REMARK INTER + INTRA:          -3.812
REMARK INTER:                  -4.334
REMARK INTRA:                   0.522
REMARK UNBOUND:                 0.518
REMARK SMILES C=C1C(=O)O[C@@H]2[C@H]3O[C@]3(C)CCC=C(C)CC[C@@H]12
REMARK SMILES IDX 6 1 18 2 2 3 1 4 3 5 4 6 5 7 17 8 16 9 14 10 15 11 13 12
REMARK SMILES IDX 7 14 9 15 8 16 10 17 11 18 12 19
REMARK H PARENT
REMARK Flexibility Score: 70.00
ROOT
ATOM      1  C   UNL     1      -5.634  91.548 -12.270  1.00  0.00     0.216 C 
ATOM      2  C   UNL     1      -5.761  90.421 -11.204  1.00  0.00     0.070 C 
ATOM      3  C   UNL     1      -6.358  89.295 -11.998  1.00  0.00     0.037 C 
ATOM      4  C   UNL     1      -6.771  88.116 -11.530  1.00  0.00     0.021 C 
ATOM      5  C   UNL     1      -6.188  89.627 -13.396  1.00  0.00     0.334 C 
ATOM      6  O   UNL     1      -6.442  88.868 -14.368  1.00  0.00    -0.247 OA
ATOM      7  O   UNL     1      -5.660  90.894 -13.534  1.00  0.00    -0.455 OA
ENDROOT
BRANCH   2   8
ATOM      8  C   UNL     1      -6.586  90.857  -9.968  1.00  0.00     0.017 C 
BRANCH   8   9
ATOM      9  C   UNL     1      -6.240  92.295  -9.492  1.00  0.00     0.031 C 
BRANCH   9  10
ATOM     10  C   UNL     1      -4.951  92.391  -8.679  1.00  0.00    -0.077 C 
ATOM     11  C   UNL     1      -4.599  91.227  -7.785  1.00  0.00     0.039 C 
ATOM     12  C   UNL     1      -4.028  93.384  -8.791  1.00  0.00    -0.028 CG0
ATOM     13  G   UNL     1      -4.139  94.664  -9.597  1.00  0.00     0.000 G0
ENDBRANCH   9  10
ENDBRANCH   8   9
ENDBRANCH   2   8
BRANCH   1  14
ATOM     14  C   UNL     1      -4.350  92.357 -12.056  1.00  0.00     0.192 C 
ATOM     15  C   UNL     1      -4.509  93.839 -11.998  1.00  0.00     0.096 C 
ATOM     16  O   UNL     1      -3.938  93.192 -13.116  1.00  0.00    -0.362 OA
ATOM     17  C   UNL     1      -5.792  94.580 -12.402  1.00  0.00     0.045 C 
BRANCH  15  18
ATOM     18  C   UNL     1      -3.531  94.519 -11.026  1.00  0.00     0.042 C 
BRANCH  18  19
ATOM     19  C   UNL     1      -4.144  94.664  -9.617  1.00  0.00     0.030 CG0
ATOM     20  G   UNL     1      -4.000  93.393  -8.800  1.00  0.00     0.000 G0
ENDBRANCH  18  19
ENDBRANCH  15  18
ENDBRANCH   1  14
TORSDOF 0
ENDMDL
MODEL 4
REMARK VINA RESULT:    -3.088     10.879     13.628
REMARK INTER + INTRA:          -3.652
REMARK INTER:                  -4.197
REMARK INTRA:                   0.545
REMARK UNBOUND:                 0.518
REMARK SMILES C=C1C(=O)O[C@@H]2[C@H]3O[C@]3(C)CCC=C(C)CC[C@@H]12
REMARK SMILES IDX 6 1 18 2 2 3 1 4 3 5 4 6 5 7 17 8 16 9 14 10 15 11 13 12
REMARK SMILES IDX 7 14 9 15 8 16 10 17 11 18 12 19
REMARK H PARENT
REMARK Flexibility Score: 70.00
ROOT
ATOM      1  C   UNL     1      -4.741  92.311 -11.843  1.00  0.00     0.216 C 
ATOM      2  C   UNL     1      -5.314  92.497 -10.407  1.00  0.00     0.070 C 
ATOM      3  C   UNL     1      -4.390  93.530  -9.826  1.00  0.00     0.037 C 
ATOM      4  C   UNL     1      -4.375  93.973  -8.568  1.00  0.00     0.021 C 
ATOM      5  C   UNL     1      -3.675  94.127 -10.932  1.00  0.00     0.334 C 
ATOM      6  O   UNL     1      -2.908  95.123 -10.860  1.00  0.00    -0.247 OA
ATOM      7  O   UNL     1      -3.978  93.481 -12.112  1.00  0.00    -0.455 OA
ENDROOT
BRANCH   2   8
ATOM      8  C   UNL     1      -5.388  91.169  -9.615  1.00  0.00     0.017 C 
BRANCH   8   9
ATOM      9  C   UNL     1      -6.784  90.493  -9.705  1.00  0.00     0.031 C 
BRANCH   9  10
ATOM     10  C   UNL     1      -6.792  89.175 -10.474  1.00  0.00    -0.077 C 
ATOM     11  C   UNL     1      -6.174  87.971  -9.805  1.00  0.00     0.039 C 
ATOM     12  C   UNL     1      -7.425  88.964 -11.661  1.00  0.00    -0.028 CG0
ATOM     13  G   UNL     1      -8.103  89.996 -12.543  1.00  0.00     0.000 G0
ENDBRANCH   9  10
ENDBRANCH   8   9
ENDBRANCH   2   8
BRANCH   1  14
ATOM     14  C   UNL     1      -5.873  92.103 -12.856  1.00  0.00     0.192 C 
ATOM     15  C   UNL     1      -5.902  90.781 -13.546  1.00  0.00     0.096 C 
ATOM     16  O   UNL     1      -5.499  91.961 -14.210  1.00  0.00    -0.362 OA
ATOM     17  C   UNL     1      -4.749  89.767 -13.504  1.00  0.00     0.045 C 
BRANCH  15  18
ATOM     18  C   UNL     1      -7.324  90.280 -13.843  1.00  0.00     0.042 C 
BRANCH  18  19
ATOM     19  C   UNL     1      -8.109  90.003 -12.543  1.00  0.00     0.030 CG0
ATOM     20  G   UNL     1      -7.426  88.960 -11.677  1.00  0.00     0.000 G0
ENDBRANCH  18  19
ENDBRANCH  15  18
ENDBRANCH   1  14
TORSDOF 0
ENDMDL
MODEL 5
REMARK VINA RESULT:    -3.086     10.070     12.213
REMARK INTER + INTRA:          -3.650
REMARK INTER:                  -4.220
REMARK INTRA:                   0.571
REMARK UNBOUND:                 0.518
REMARK SMILES C=C1C(=O)O[C@@H]2[C@H]3O[C@]3(C)CCC=C(C)CC[C@@H]12
REMARK SMILES IDX 6 1 18 2 2 3 1 4 3 5 4 6 5 7 17 8 16 9 14 10 15 11 13 12
REMARK SMILES IDX 7 14 9 15 8 16 10 17 11 18 12 19
REMARK H PARENT
REMARK Flexibility Score: 70.00
ROOT
ATOM      1  C   UNL     1      -5.752  90.316 -10.804  1.00  0.00     0.216 C 
ATOM      2  C   UNL     1      -6.584  89.120 -11.354  1.00  0.00     0.070 C 
ATOM      3  C   UNL     1      -6.293  88.041 -10.351  1.00  0.00     0.037 C 
ATOM      4  C   UNL     1      -6.678  86.765 -10.413  1.00  0.00     0.021 C 
ATOM      5  C   UNL     1      -5.719  88.686  -9.190  1.00  0.00     0.334 C 
ATOM      6  O   UNL     1      -5.466  88.130  -8.089  1.00  0.00    -0.247 OA
ATOM      7  O   UNL     1      -5.518  90.029  -9.430  1.00  0.00    -0.455 OA
ENDROOT
BRANCH   2   8
ATOM      8  C   UNL     1      -6.225  88.764 -12.818  1.00  0.00     0.017 C 
BRANCH   8   9
ATOM      9  C   UNL     1      -7.125  89.498 -13.851  1.00  0.00     0.031 C 
BRANCH   9  10
ATOM     10  C   UNL     1      -6.393  90.548 -14.683  1.00  0.00    -0.077 C 
ATOM     11  C   UNL     1      -5.419  90.058 -15.727  1.00  0.00     0.039 C 
ATOM     12  C   UNL     1      -6.641  91.885 -14.649  1.00  0.00    -0.028 CG0
ATOM     13  G   UNL     1      -7.550  92.634 -13.692  1.00  0.00     0.000 G0
ENDBRANCH   9  10
ENDBRANCH   8   9
ENDBRANCH   2   8
BRANCH   1  14
ATOM     14  C   UNL     1      -6.503  91.638 -11.007  1.00  0.00     0.192 C 
ATOM     15  C   UNL     1      -5.815  92.662 -11.844  1.00  0.00     0.096 C 
ATOM     16  O   UNL     1      -5.922  92.794 -10.442  1.00  0.00    -0.362 OA
ATOM     17  C   UNL     1      -4.339  92.575 -12.265  1.00  0.00     0.045 C 
BRANCH  15  18
ATOM     18  C   UNL     1      -6.780  93.508 -12.688  1.00  0.00     0.042 C 
BRANCH  18  19
ATOM     19  C   UNL     1      -7.560  92.639 -13.698  1.00  0.00     0.030 CG0
ATOM     20  G   UNL     1      -6.634  91.889 -14.637  1.00  0.00     0.000 G0
ENDBRANCH  18  19
ENDBRANCH  15  18
ENDBRANCH   1  14
TORSDOF 0
ENDMDL
MODEL 6
REMARK VINA RESULT:    -3.085     12.976     14.539
REMARK INTER + INTRA:          -3.649
REMARK INTER:                  -4.272
REMARK INTRA:                   0.624
REMARK UNBOUND:                 0.518
REMARK SMILES C=C1C(=O)O[C@@H]2[C@H]3O[C@]3(C)CCC=C(C)CC[C@@H]12
REMARK SMILES IDX 6 1 18 2 2 3 1 4 3 5 4 6 5 7 17 8 16 9 14 10 15 11 13 12
REMARK SMILES IDX 7 14 9 15 8 16 10 17 11 18 12 19
REMARK H PARENT
REMARK Flexibility Score: 70.00
ROOT
ATOM      1  C   UNL     1      -4.842  92.823 -12.300  1.00  0.00     0.216 C 
ATOM      2  C   UNL     1      -4.627  91.287 -12.160  1.00  0.00     0.070 C 
ATOM      3  C   UNL     1      -4.545  90.844 -13.593  1.00  0.00     0.037 C 
ATOM      4  C   UNL     1      -4.471  89.589 -14.040  1.00  0.00     0.021 C 
ATOM      5  C   UNL     1      -4.327  92.030 -14.391  1.00  0.00     0.334 C 
ATOM      6  O   UNL     1      -4.074  92.051 -15.624  1.00  0.00    -0.247 OA
ATOM      7  O   UNL     1      -4.388  93.162 -13.605  1.00  0.00    -0.455 OA
ENDROOT
BRANCH   2   8
ATOM      8  C   UNL     1      -5.737  90.601 -11.327  1.00  0.00     0.017 C 
BRANCH   8   9
ATOM      9  C   UNL     1      -6.108  91.401 -10.047  1.00  0.00     0.031 C 
BRANCH   9  10
ATOM     10  C   UNL     1      -5.086  91.287  -8.920  1.00  0.00    -0.077 C 
ATOM     11  C   UNL     1      -4.358  89.973  -8.765  1.00  0.00     0.039 C 
ATOM     12  C   UNL     1      -4.682  92.313  -8.122  1.00  0.00    -0.028 CG0
ATOM     13  G   UNL     1      -5.255  93.716  -8.060  1.00  0.00     0.000 G0
ENDBRANCH   9  10
ENDBRANCH   8   9
ENDBRANCH   2   8
BRANCH   1  14
ATOM     14  C   UNL     1      -4.086  93.580 -11.202  1.00  0.00     0.192 C 
ATOM     15  C   UNL     1      -4.874  94.593 -10.442  1.00  0.00     0.096 C 
ATOM     16  O   UNL     1      -3.900  94.965 -11.395  1.00  0.00    -0.362 OA
ATOM     17  C   UNL     1      -6.262  95.095 -10.867  1.00  0.00     0.045 C 
BRANCH  15  18
ATOM     18  C   UNL     1      -4.464  94.701  -8.965  1.00  0.00     0.042 C 
BRANCH  18  19
ATOM     19  C   UNL     1      -5.263  93.718  -8.083  1.00  0.00     0.030 CG0
ATOM     20  G   UNL     1      -4.684  92.316  -8.125  1.00  0.00     0.000 G0
ENDBRANCH  18  19
ENDBRANCH  15  18
ENDBRANCH   1  14
TORSDOF 0
ENDMDL
MODEL 7
REMARK VINA RESULT:    -3.036      3.496      6.000
REMARK INTER + INTRA:          -3.582
REMARK INTER:                  -4.066
REMARK INTRA:                   0.484
REMARK UNBOUND:                 0.518
REMARK SMILES C=C1C(=O)O[C@@H]2[C@H]3O[C@]3(C)CCC=C(C)CC[C@@H]12
REMARK SMILES IDX 6 1 18 2 2 3 1 4 3 5 4 6 5 7 17 8 16 9 14 10 15 11 13 12
REMARK SMILES IDX 7 14 9 15 8 16 10 17 11 18 12 19
REMARK H PARENT
REMARK Flexibility Score: 70.00
ROOT
ATOM      1  C   UNL     1      -9.979  84.682  -9.010  1.00  0.00     0.216 C 
ATOM      2  C   UNL     1      -9.033  83.493  -8.671  1.00  0.00     0.070 C 
ATOM      3  C   UNL     1      -7.728  83.944  -9.261  1.00  0.00     0.037 C 
ATOM      4  C   UNL     1      -6.599  83.237  -9.341  1.00  0.00     0.021 C 
ATOM      5  C   UNL     1      -7.847  85.362  -9.517  1.00  0.00     0.334 C 
ATOM      6  O   UNL     1      -6.914  86.124  -9.887  1.00  0.00    -0.247 OA
ATOM      7  O   UNL     1      -9.129  85.797  -9.257  1.00  0.00    -0.455 OA
ENDROOT
BRANCH   2   8
ATOM      8  C   UNL     1      -9.559  82.139  -9.206  1.00  0.00     0.017 C 
BRANCH   8   9
ATOM      9  C   UNL     1     -11.092  81.971  -9.013  1.00  0.00     0.031 C 
BRANCH   9  10
ATOM     10  C   UNL     1     -11.493  81.435  -7.641  1.00  0.00    -0.077 C 
ATOM     11  C   UNL     1     -10.560  80.454  -6.972  1.00  0.00     0.039 C 
ATOM     12  C   UNL     1     -12.561  81.864  -6.915  1.00  0.00    -0.028 CG0
ATOM     13  G   UNL     1     -13.654  82.821  -7.354  1.00  0.00     0.000 G0
ENDBRANCH   9  10
ENDBRANCH   8   9
ENDBRANCH   2   8
BRANCH   1  14
ATOM     14  C   UNL     1     -10.964  84.938  -7.864  1.00  0.00     0.192 C 
ATOM     15  C   UNL     1     -12.412  84.866  -8.213  1.00  0.00     0.096 C 
ATOM     16  O   UNL     1     -11.765  86.096  -7.958  1.00  0.00    -0.362 OA
ATOM     17  C   UNL     1     -12.945  84.827  -9.654  1.00  0.00     0.045 C 
BRANCH  15  18
ATOM     18  C   UNL     1     -13.284  84.302  -7.081  1.00  0.00     0.042 C 
BRANCH  18  19
ATOM     19  C   UNL     1     -13.668  82.830  -7.342  1.00  0.00     0.030 CG0
ATOM     20  G   UNL     1     -12.571  81.872  -6.917  1.00  0.00     0.000 G0
ENDBRANCH  18  19
ENDBRANCH  15  18
ENDBRANCH   1  14
TORSDOF 0
ENDMDL
MODEL 8
REMARK VINA RESULT:    -3.013      5.605      7.722
REMARK INTER + INTRA:          -3.552
REMARK INTER:                  -4.058
REMARK INTRA:                   0.506
REMARK UNBOUND:                 0.518
REMARK SMILES C=C1C(=O)O[C@@H]2[C@H]3O[C@]3(C)CCC=C(C)CC[C@@H]12
REMARK SMILES IDX 6 1 18 2 2 3 1 4 3 5 4 6 5 7 17 8 16 9 14 10 15 11 13 12
REMARK SMILES IDX 7 14 9 15 8 16 10 17 11 18 12 19
REMARK H PARENT
REMARK Flexibility Score: 70.00
ROOT
ATOM      1  C   UNL     1      -7.278  83.772  -8.568  1.00  0.00     0.216 C 
ATOM      2  C   UNL     1      -7.942  85.171  -8.734  1.00  0.00     0.070 C 
ATOM      3  C   UNL     1      -9.381  84.815  -8.972  1.00  0.00     0.037 C 
ATOM      4  C   UNL     1     -10.372  85.653  -9.284  1.00  0.00     0.021 C 
ATOM      5  C   UNL     1      -9.548  83.435  -8.574  1.00  0.00     0.334 C 
ATOM      6  O   UNL     1     -10.642  82.817  -8.501  1.00  0.00    -0.247 OA
ATOM      7  O   UNL     1      -8.333  82.878  -8.232  1.00  0.00    -0.455 OA
ENDROOT
BRANCH   2   8
ATOM      8  C   UNL     1      -7.284  86.016  -9.852  1.00  0.00     0.017 C 
BRANCH   8   9
ATOM      9  C   UNL     1      -5.733  85.922  -9.842  1.00  0.00     0.031 C 
BRANCH   9  10
ATOM     10  C   UNL     1      -5.060  86.810  -8.799  1.00  0.00    -0.077 C 
ATOM     11  C   UNL     1      -5.710  88.135  -8.483  1.00  0.00     0.039 C 
ATOM     12  C   UNL     1      -3.991  86.449  -8.037  1.00  0.00    -0.028 CG0
ATOM     13  G   UNL     1      -3.150  85.192  -8.159  1.00  0.00     0.000 G0
ENDBRANCH   9  10
ENDBRANCH   8   9
ENDBRANCH   2   8
BRANCH   1  14
ATOM     14  C   UNL     1      -6.182  83.814  -7.496  1.00  0.00     0.192 C 
ATOM     15  C   UNL     1      -4.845  83.296  -7.904  1.00  0.00     0.096 C 
ATOM     16  O   UNL     1      -5.692  82.573  -7.036  1.00  0.00    -0.362 OA
ATOM     17  C   UNL     1      -4.590  82.501  -9.194  1.00  0.00     0.045 C 
BRANCH  15  18
ATOM     18  C   UNL     1      -3.675  84.048  -7.251  1.00  0.00     0.042 C 
BRANCH  18  19
ATOM     19  C   UNL     1      -3.156  85.185  -8.157  1.00  0.00     0.030 CG0
ATOM     20  G   UNL     1      -4.001  86.440  -8.036  1.00  0.00     0.000 G0
ENDBRANCH  18  19
ENDBRANCH  15  18
ENDBRANCH   1  14
TORSDOF 0
ENDMDL
MODEL 9
REMARK VINA RESULT:    -2.998     11.596     14.138
REMARK INTER + INTRA:          -3.531
REMARK INTER:                  -4.098
REMARK INTRA:                   0.568
REMARK UNBOUND:                 0.518
REMARK SMILES C=C1C(=O)O[C@@H]2[C@H]3O[C@]3(C)CCC=C(C)CC[C@@H]12
REMARK SMILES IDX 6 1 18 2 2 3 1 4 3 5 4 6 5 7 17 8 16 9 14 10 15 11 13 12
REMARK SMILES IDX 7 14 9 15 8 16 10 17 11 18 12 19
REMARK H PARENT
REMARK Flexibility Score: 70.00
ROOT
ATOM      1  C   UNL     1      -6.009  92.185 -11.502  1.00  0.00     0.216 C 
ATOM      2  C   UNL     1      -4.571  92.666 -11.857  1.00  0.00     0.070 C 
ATOM      3  C   UNL     1      -4.323  93.725 -10.821  1.00  0.00     0.037 C 
ATOM      4  C   UNL     1      -3.267  94.536 -10.743  1.00  0.00     0.021 C 
ATOM      5  C   UNL     1      -5.322  93.550  -9.790  1.00  0.00     0.334 C 
ATOM      6  O   UNL     1      -5.360  94.163  -8.691  1.00  0.00    -0.247 OA
ATOM      7  O   UNL     1      -6.226  92.572 -10.150  1.00  0.00    -0.455 OA
ENDROOT
BRANCH   2   8
ATOM      8  C   UNL     1      -4.446  93.145 -13.324  1.00  0.00     0.017 C 
BRANCH   8   9
ATOM      9  C   UNL     1      -4.003  92.012 -14.290  1.00  0.00     0.031 C 
BRANCH   9  10
ATOM     10  C   UNL     1      -5.082  91.574 -15.277  1.00  0.00    -0.077 C 
ATOM     11  C   UNL     1      -5.444  92.531 -16.388  1.00  0.00     0.039 C 
ATOM     12  C   UNL     1      -5.655  90.340 -15.315  1.00  0.00    -0.028 CG0
ATOM     13  G   UNL     1      -5.482  89.209 -14.318  1.00  0.00     0.000 G0
ENDBRANCH   9  10
ENDBRANCH   8   9
ENDBRANCH   2   8
BRANCH   1  14
ATOM     14  C   UNL     1      -6.142  90.671 -11.706  1.00  0.00     0.192 C 
ATOM     15  C   UNL     1      -7.168  90.230 -12.694  1.00  0.00     0.096 C 
ATOM     16  O   UNL     1      -7.357  90.078 -11.302  1.00  0.00    -0.362 OA
ATOM     17  C   UNL     1      -8.243  91.155 -13.285  1.00  0.00     0.045 C 
BRANCH  15  18
ATOM     18  C   UNL     1      -6.762  88.969 -13.472  1.00  0.00     0.042 C 
BRANCH  18  19
ATOM     19  C   UNL     1      -5.482  89.205 -14.303  1.00  0.00     0.030 CG0
ATOM     20  G   UNL     1      -5.655  90.329 -15.307  1.00  0.00     0.000 G0
ENDBRANCH  18  19
ENDBRANCH  15  18
ENDBRANCH   1  14
TORSDOF 0
ENDMDL
