MODEL 1
REMARK VINA RESULT:    -3.536      0.000      0.000
REMARK INTER + INTRA:         -11.496
REMARK INTER:                  -9.324
REMARK INTRA:                  -2.172
REMARK UNBOUND:                -2.172
REMARK SMILES CCCCCCCCCCCCCCCCCCCCCCCCCCCCCC(=O)[O-]
REMARK SMILES IDX 16 1 17 2 18 3 19 4 20 5 21 6 22 7 23 8 24 9 25 10 26 11
REMARK SMILES IDX 27 12 28 13 29 14 30 15 31 16 32 17 15 18 14 19 13 20 12 21
REMARK SMILES IDX 11 22 10 23 9 24 8 25 7 26 6 27 5 28 4 29 3 30 2 31 1 32
REMARK H PARENT
REMARK Flexibility Score: inf
ROOT
ATOM      1  C   UNL     1      -7.882  -8.847   0.155  1.00  0.00     0.000 C 
ENDROOT
BRANCH   1   2
ATOM      2  C   UNL     1      -7.448  -9.977   1.104  1.00  0.00     0.000 C 
BRANCH   2   3
ATOM      3  C   UNL     1      -6.095  -9.698   1.783  1.00  0.00     0.000 C 
BRANCH   3   4
ATOM      4  C   UNL     1      -4.893 -10.363   1.079  1.00  0.00     0.000 C 
BRANCH   4   5
ATOM      5  C   UNL     1      -5.328 -11.277  -0.076  1.00  0.00     0.000 C 
BRANCH   5   6
ATOM      6  C   UNL     1      -4.915 -12.730   0.184  1.00  0.00     0.000 C 
BRANCH   6   7
ATOM      7  C   UNL     1      -6.106 -13.560   0.673  1.00  0.00     0.000 C 
BRANCH   7   8
ATOM      8  C   UNL     1      -5.723 -15.035   0.836  1.00  0.00     0.000 C 
BRANCH   8   9
ATOM      9  C   UNL     1      -6.969 -15.933   0.823  1.00  0.00     0.000 C 
BRANCH   9  10
ATOM     10  C   UNL     1      -6.636 -17.431   0.930  1.00  0.00     0.000 C 
BRANCH  10  11
ATOM     11  C   UNL     1      -5.272 -17.751   1.568  1.00  0.00     0.000 C 
BRANCH  11  12
ATOM     12  C   UNL     1      -5.043 -19.256   1.770  1.00  0.00     0.000 C 
BRANCH  12  13
ATOM     13  C   UNL     1      -4.997 -19.988   0.423  1.00  0.00     0.006 C 
BRANCH  13  14
ATOM     14  C   UNL     1      -6.394 -20.451  -0.002  1.00  0.00     0.053 C 
BRANCH  14  15
ATOM     15  C   UNL     1      -6.465 -20.636  -1.486  1.00  0.00     0.041 C 
ATOM     16  O   UNL     1      -5.442 -20.456  -2.198  1.00  0.00    -0.550 OA
ATOM     17  O   UNL     1      -7.666 -20.992  -2.087  1.00  0.00    -0.550 OA
ENDBRANCH  14  15
ENDBRANCH  13  14
ENDBRANCH  12  13
ENDBRANCH  11  12
ENDBRANCH  10  11
ENDBRANCH   9  10
ENDBRANCH   8   9
ENDBRANCH   7   8
ENDBRANCH   6   7
ENDBRANCH   5   6
ENDBRANCH   4   5
ENDBRANCH   3   4
ENDBRANCH   2   3
ENDBRANCH   1   2
BRANCH   1  18
ATOM     18  C   UNL     1      -6.768  -7.816  -0.092  1.00  0.00     0.000 C 
BRANCH  18  19
ATOM     19  C   UNL     1      -7.207  -6.376   0.225  1.00  0.00     0.000 C 
BRANCH  19  20
ATOM     20  C   UNL     1      -6.219  -5.638   1.143  1.00  0.00     0.000 C 
BRANCH  20  21
ATOM     21  C   UNL     1      -5.447  -4.505   0.433  1.00  0.00     0.000 C 
BRANCH  21  22
ATOM     22  C   UNL     1      -4.875  -3.480   1.429  1.00  0.00     0.000 C 
BRANCH  22  23
ATOM     23  C   UNL     1      -5.610  -3.502   2.786  1.00  0.00     0.000 C 
BRANCH  23  24
ATOM     24  C   UNL     1      -6.399  -2.215   3.090  1.00  0.00    -0.000 C 
BRANCH  24  25
ATOM     25  C   UNL     1      -7.644  -1.991   2.215  1.00  0.00    -0.000 C 
BRANCH  25  26
ATOM     26  C   UNL     1      -8.866  -1.530   3.028  1.00  0.00    -0.000 C 
BRANCH  26  27
ATOM     27  C   UNL     1      -9.960  -2.607   3.125  1.00  0.00    -0.000 C 
BRANCH  27  28
ATOM     28  C   UNL     1      -9.438  -4.042   2.902  1.00  0.00    -0.000 C 
BRANCH  28  29
ATOM     29  C   UNL     1     -10.041  -4.687   1.645  1.00  0.00    -0.000 C 
BRANCH  29  30
ATOM     30  C   UNL     1     -10.408  -6.154   1.896  1.00  0.00    -0.000 C 
BRANCH  30  31
ATOM     31  C   UNL     1     -10.763  -6.864   0.586  1.00  0.00    -0.003 C 
ATOM     32  C   UNL     1     -12.146  -6.455   0.091  1.00  0.00     0.004 C 
ENDBRANCH  30  31
ENDBRANCH  29  30
ENDBRANCH  28  29
ENDBRANCH  27  28
ENDBRANCH  26  27
ENDBRANCH  25  26
ENDBRANCH  24  25
ENDBRANCH  23  24
ENDBRANCH  22  23
ENDBRANCH  21  22
ENDBRANCH  20  21
ENDBRANCH  19  20
ENDBRANCH  18  19
ENDBRANCH   1  18
TORSDOF 28
ENDMDL
MODEL 2
REMARK VINA RESULT:    -3.492      1.410      3.543
REMARK INTER + INTRA:         -11.379
REMARK INTER:                  -9.389
REMARK INTRA:                  -1.990
REMARK UNBOUND:                -2.172
REMARK SMILES CCCCCCCCCCCCCCCCCCCCCCCCCCCCCC(=O)[O-]
REMARK SMILES IDX 16 1 17 2 18 3 19 4 20 5 21 6 22 7 23 8 24 9 25 10 26 11
REMARK SMILES IDX 27 12 28 13 29 14 30 15 31 16 32 17 15 18 14 19 13 20 12 21
REMARK SMILES IDX 11 22 10 23 9 24 8 25 7 26 6 27 5 28 4 29 3 30 2 31 1 32
REMARK H PARENT
REMARK Flexibility Score: inf
ROOT
ATOM      1  C   UNL     1      -7.299  -8.049  -0.383  1.00  0.00     0.000 C 
ENDROOT
BRANCH   1   2
ATOM      2  C   UNL     1      -7.501  -9.533  -0.030  1.00  0.00     0.000 C 
BRANCH   2   3
ATOM      3  C   UNL     1      -6.333 -10.421  -0.495  1.00  0.00     0.000 C 
BRANCH   3   4
ATOM      4  C   UNL     1      -6.429 -11.883  -0.013  1.00  0.00     0.000 C 
BRANCH   4   5
ATOM      5  C   UNL     1      -6.604 -11.983   1.509  1.00  0.00     0.000 C 
BRANCH   5   6
ATOM      6  C   UNL     1      -5.985 -13.276   2.054  1.00  0.00     0.000 C 
BRANCH   6   7
ATOM      7  C   UNL     1      -6.295 -14.462   1.134  1.00  0.00     0.000 C 
BRANCH   7   8
ATOM      8  C   UNL     1      -5.029 -15.270   0.829  1.00  0.00     0.000 C 
BRANCH   8   9
ATOM      9  C   UNL     1      -4.932 -16.504   1.738  1.00  0.00     0.000 C 
BRANCH   9  10
ATOM     10  C   UNL     1      -6.039 -17.538   1.474  1.00  0.00     0.000 C 
BRANCH  10  11
ATOM     11  C   UNL     1      -5.757 -18.949   2.020  1.00  0.00     0.000 C 
BRANCH  11  12
ATOM     12  C   UNL     1      -6.961 -19.893   1.895  1.00  0.00     0.000 C 
BRANCH  12  13
ATOM     13  C   UNL     1      -6.633 -21.080   0.981  1.00  0.00     0.006 C 
BRANCH  13  14
ATOM     14  C   UNL     1      -5.678 -20.665  -0.143  1.00  0.00     0.053 C 
BRANCH  14  15
ATOM     15  C   UNL     1      -6.384 -20.651  -1.463  1.00  0.00     0.041 C 
ATOM     16  O   UNL     1      -5.728 -20.544  -2.532  1.00  0.00    -0.550 OA
ATOM     17  O   UNL     1      -7.770 -20.741  -1.512  1.00  0.00    -0.550 OA
ENDBRANCH  14  15
ENDBRANCH  13  14
ENDBRANCH  12  13
ENDBRANCH  11  12
ENDBRANCH  10  11
ENDBRANCH   9  10
ENDBRANCH   8   9
ENDBRANCH   7   8
ENDBRANCH   6   7
ENDBRANCH   5   6
ENDBRANCH   4   5
ENDBRANCH   3   4
ENDBRANCH   2   3
ENDBRANCH   1   2
BRANCH   1  18
ATOM     18  C   UNL     1      -6.497  -7.287   0.685  1.00  0.00     0.000 C 
BRANCH  18  19
ATOM     19  C   UNL     1      -5.955  -8.206   1.793  1.00  0.00     0.000 C 
BRANCH  19  20
ATOM     20  C   UNL     1      -6.706  -8.045   3.125  1.00  0.00     0.000 C 
BRANCH  20  21
ATOM     21  C   UNL     1      -7.859  -7.020   3.062  1.00  0.00     0.000 C 
BRANCH  21  22
ATOM     22  C   UNL     1      -9.239  -7.702   3.029  1.00  0.00     0.000 C 
BRANCH  22  23
ATOM     23  C   UNL     1     -10.142  -7.152   1.904  1.00  0.00     0.000 C 
BRANCH  23  24
ATOM     24  C   UNL     1      -9.998  -5.637   1.672  1.00  0.00    -0.000 C 
BRANCH  24  25
ATOM     25  C   UNL     1      -9.855  -4.792   2.950  1.00  0.00    -0.000 C 
BRANCH  25  26
ATOM     26  C   UNL     1      -9.542  -3.316   2.654  1.00  0.00    -0.000 C 
BRANCH  26  27
ATOM     27  C   UNL     1      -8.077  -2.946   2.940  1.00  0.00    -0.000 C 
BRANCH  27  28
ATOM     28  C   UNL     1      -7.062  -3.733   2.084  1.00  0.00    -0.000 C 
BRANCH  28  29
ATOM     29  C   UNL     1      -5.658  -3.110   2.133  1.00  0.00    -0.000 C 
BRANCH  29  30
ATOM     30  C   UNL     1      -5.733  -1.580   2.193  1.00  0.00    -0.000 C 
BRANCH  30  31
ATOM     31  C   UNL     1      -5.953  -0.986   0.797  1.00  0.00    -0.003 C 
ATOM     32  C   UNL     1      -5.164  -1.751  -0.260  1.00  0.00     0.004 C 
ENDBRANCH  30  31
ENDBRANCH  29  30
ENDBRANCH  28  29
ENDBRANCH  27  28
ENDBRANCH  26  27
ENDBRANCH  25  26
ENDBRANCH  24  25
ENDBRANCH  23  24
ENDBRANCH  22  23
ENDBRANCH  21  22
ENDBRANCH  20  21
ENDBRANCH  19  20
ENDBRANCH  18  19
ENDBRANCH   1  18
TORSDOF 28
ENDMDL
MODEL 3
REMARK VINA RESULT:    -2.196     19.799     25.244
REMARK INTER + INTRA:          -7.963
REMARK INTER:                  -5.503
REMARK INTRA:                  -2.460
REMARK UNBOUND:                -2.172
REMARK SMILES CCCCCCCCCCCCCCCCCCCCCCCCCCCCCC(=O)[O-]
REMARK SMILES IDX 16 1 17 2 18 3 19 4 20 5 21 6 22 7 23 8 24 9 25 10 26 11
REMARK SMILES IDX 27 12 28 13 29 14 30 15 31 16 32 17 15 18 14 19 13 20 12 21
REMARK SMILES IDX 11 22 10 23 9 24 8 25 7 26 6 27 5 28 4 29 3 30 2 31 1 32
REMARK H PARENT
REMARK Flexibility Score: inf
ROOT
ATOM      1  C   UNL     1     -22.668  -9.519 -15.598  1.00  0.00     0.000 C 
ENDROOT
BRANCH   1   2
ATOM      2  C   UNL     1     -22.953  -8.452 -16.669  1.00  0.00     0.000 C 
BRANCH   2   3
ATOM      3  C   UNL     1     -24.431  -8.025 -16.705  1.00  0.00     0.000 C 
BRANCH   3   4
ATOM      4  C   UNL     1     -24.638  -6.500 -16.827  1.00  0.00     0.000 C 
BRANCH   4   5
ATOM      5  C   UNL     1     -23.937  -5.727 -15.701  1.00  0.00     0.000 C 
BRANCH   5   6
ATOM      6  C   UNL     1     -24.687  -4.430 -15.371  1.00  0.00     0.000 C 
BRANCH   6   7
ATOM      7  C   UNL     1     -23.709  -3.316 -14.983  1.00  0.00     0.000 C 
BRANCH   7   8
ATOM      8  C   UNL     1     -24.428  -2.185 -14.239  1.00  0.00     0.000 C 
BRANCH   8   9
ATOM      9  C   UNL     1     -24.024  -2.157 -12.758  1.00  0.00     0.000 C 
BRANCH   9  10
ATOM     10  C   UNL     1     -23.335  -3.452 -12.295  1.00  0.00     0.000 C 
BRANCH  10  11
ATOM     11  C   UNL     1     -21.901  -3.274 -11.766  1.00  0.00     0.000 C 
BRANCH  11  12
ATOM     12  C   UNL     1     -20.880  -2.997 -12.878  1.00  0.00     0.000 C 
BRANCH  12  13
ATOM     13  C   UNL     1     -20.618  -4.260 -13.707  1.00  0.00     0.006 C 
BRANCH  13  14
ATOM     14  C   UNL     1     -20.084  -5.396 -12.828  1.00  0.00     0.053 C 
BRANCH  14  15
ATOM     15  C   UNL     1     -20.134  -6.702 -13.559  1.00  0.00     0.041 C 
ATOM     16  O   UNL     1     -20.311  -7.777 -12.926  1.00  0.00    -0.550 OA
ATOM     17  O   UNL     1     -19.970  -6.735 -14.938  1.00  0.00    -0.550 OA
ENDBRANCH  14  15
ENDBRANCH  13  14
ENDBRANCH  12  13
ENDBRANCH  11  12
ENDBRANCH  10  11
ENDBRANCH   9  10
ENDBRANCH   8   9
ENDBRANCH   7   8
ENDBRANCH   6   7
ENDBRANCH   5   6
ENDBRANCH   4   5
ENDBRANCH   3   4
ENDBRANCH   2   3
ENDBRANCH   1   2
BRANCH   1  18
ATOM     18  C   UNL     1     -23.212 -10.905 -15.979  1.00  0.00     0.000 C 
BRANCH  18  19
ATOM     19  C   UNL     1     -22.198 -12.035 -15.724  1.00  0.00     0.000 C 
BRANCH  19  20
ATOM     20  C   UNL     1     -22.062 -12.997 -16.916  1.00  0.00     0.000 C 
BRANCH  20  21
ATOM     21  C   UNL     1     -22.817 -14.329 -16.722  1.00  0.00     0.000 C 
BRANCH  21  22
ATOM     22  C   UNL     1     -21.956 -15.545 -17.111  1.00  0.00     0.000 C 
BRANCH  22  23
ATOM     23  C   UNL     1     -20.562 -15.518 -16.448  1.00  0.00     0.000 C 
BRANCH  23  24
ATOM     24  C   UNL     1     -19.768 -16.827 -16.611  1.00  0.00    -0.000 C 
BRANCH  24  25
ATOM     25  C   UNL     1     -18.485 -16.921 -15.767  1.00  0.00    -0.000 C 
BRANCH  25  26
ATOM     26  C   UNL     1     -18.103 -18.371 -15.426  1.00  0.00    -0.000 C 
BRANCH  26  27
ATOM     27  C   UNL     1     -19.264 -19.359 -15.630  1.00  0.00    -0.000 C 
BRANCH  27  28
ATOM     28  C   UNL     1     -19.957 -19.778 -14.316  1.00  0.00    -0.000 C 
BRANCH  28  29
ATOM     29  C   UNL     1     -21.436 -20.133 -14.532  1.00  0.00    -0.000 C 
BRANCH  29  30
ATOM     30  C   UNL     1     -21.973 -19.509 -15.825  1.00  0.00    -0.000 C 
BRANCH  30  31
ATOM     31  C   UNL     1     -23.202 -18.636 -15.545  1.00  0.00    -0.003 C 
ATOM     32  C   UNL     1     -23.731 -18.863 -14.132  1.00  0.00     0.004 C 
ENDBRANCH  30  31
ENDBRANCH  29  30
ENDBRANCH  28  29
ENDBRANCH  27  28
ENDBRANCH  26  27
ENDBRANCH  25  26
ENDBRANCH  24  25
ENDBRANCH  23  24
ENDBRANCH  22  23
ENDBRANCH  21  22
ENDBRANCH  20  21
ENDBRANCH  19  20
ENDBRANCH  18  19
ENDBRANCH   1  18
TORSDOF 28
ENDMDL
MODEL 4
REMARK VINA RESULT:    -2.174     19.941     25.250
REMARK INTER + INTRA:          -7.906
REMARK INTER:                  -5.426
REMARK INTRA:                  -2.480
REMARK UNBOUND:                -2.172
REMARK SMILES CCCCCCCCCCCCCCCCCCCCCCCCCCCCCC(=O)[O-]
REMARK SMILES IDX 16 1 17 2 18 3 19 4 20 5 21 6 22 7 23 8 24 9 25 10 26 11
REMARK SMILES IDX 27 12 28 13 29 14 30 15 31 16 32 17 15 18 14 19 13 20 12 21
REMARK SMILES IDX 11 22 10 23 9 24 8 25 7 26 6 27 5 28 4 29 3 30 2 31 1 32
REMARK H PARENT
REMARK Flexibility Score: inf
ROOT
ATOM      1  C   UNL     1     -22.587  -7.902 -16.356  1.00  0.00     0.000 C 
ENDROOT
BRANCH   1   2
ATOM      2  C   UNL     1     -23.670  -6.925 -16.847  1.00  0.00     0.000 C 
BRANCH   2   3
ATOM      3  C   UNL     1     -24.568  -6.409 -15.708  1.00  0.00     0.000 C 
BRANCH   3   4
ATOM      4  C   UNL     1     -24.790  -4.882 -15.731  1.00  0.00     0.000 C 
BRANCH   4   5
ATOM      5  C   UNL     1     -24.464  -4.267 -17.100  1.00  0.00     0.000 C 
BRANCH   5   6
ATOM      6  C   UNL     1     -23.395  -3.175 -16.974  1.00  0.00     0.000 C 
BRANCH   6   7
ATOM      7  C   UNL     1     -24.023  -1.838 -16.564  1.00  0.00     0.000 C 
BRANCH   7   8
ATOM      8  C   UNL     1     -23.461  -1.353 -15.223  1.00  0.00     0.000 C 
BRANCH   8   9
ATOM      9  C   UNL     1     -24.304  -1.875 -14.051  1.00  0.00     0.000 C 
BRANCH   9  10
ATOM     10  C   UNL     1     -23.455  -2.336 -12.854  1.00  0.00     0.000 C 
BRANCH  10  11
ATOM     11  C   UNL     1     -22.189  -3.131 -13.221  1.00  0.00     0.000 C 
BRANCH  11  12
ATOM     12  C   UNL     1     -22.148  -4.525 -12.578  1.00  0.00     0.000 C 
BRANCH  12  13
ATOM     13  C   UNL     1     -21.734  -5.588 -13.603  1.00  0.00     0.006 C 
BRANCH  13  14
ATOM     14  C   UNL     1     -20.614  -6.478 -13.055  1.00  0.00     0.053 C 
BRANCH  14  15
ATOM     15  C   UNL     1     -19.720  -6.948 -14.160  1.00  0.00     0.041 C 
ATOM     16  O   UNL     1     -19.618  -6.280 -15.222  1.00  0.00    -0.550 OA
ATOM     17  O   UNL     1     -19.009  -8.135 -14.023  1.00  0.00    -0.550 OA
ENDBRANCH  14  15
ENDBRANCH  13  14
ENDBRANCH  12  13
ENDBRANCH  11  12
ENDBRANCH  10  11
ENDBRANCH   9  10
ENDBRANCH   8   9
ENDBRANCH   7   8
ENDBRANCH   6   7
ENDBRANCH   5   6
ENDBRANCH   4   5
ENDBRANCH   3   4
ENDBRANCH   2   3
ENDBRANCH   1   2
BRANCH   1  18
ATOM     18  C   UNL     1     -22.594  -9.233 -17.124  1.00  0.00     0.000 C 
BRANCH  18  19
ATOM     19  C   UNL     1     -23.908 -10.015 -16.953  1.00  0.00     0.000 C 
BRANCH  19  20
ATOM     20  C   UNL     1     -23.878 -10.982 -15.759  1.00  0.00     0.000 C 
BRANCH  20  21
ATOM     21  C   UNL     1     -22.630 -11.891 -15.734  1.00  0.00     0.000 C 
BRANCH  21  22
ATOM     22  C   UNL     1     -22.514 -12.753 -17.005  1.00  0.00     0.000 C 
BRANCH  22  23
ATOM     23  C   UNL     1     -22.566 -14.264 -16.700  1.00  0.00     0.000 C 
BRANCH  23  24
ATOM     24  C   UNL     1     -21.298 -15.030 -17.120  1.00  0.00    -0.000 C 
BRANCH  24  25
ATOM     25  C   UNL     1     -20.116 -14.923 -16.141  1.00  0.00    -0.000 C 
BRANCH  25  26
ATOM     26  C   UNL     1     -18.981 -15.906 -16.471  1.00  0.00    -0.000 C 
BRANCH  26  27
ATOM     27  C   UNL     1     -19.290 -17.347 -16.032  1.00  0.00    -0.000 C 
BRANCH  27  28
ATOM     28  C   UNL     1     -18.071 -18.291 -16.103  1.00  0.00    -0.000 C 
BRANCH  28  29
ATOM     29  C   UNL     1     -18.032 -19.273 -14.921  1.00  0.00    -0.000 C 
BRANCH  29  30
ATOM     30  C   UNL     1     -19.141 -18.966 -13.909  1.00  0.00    -0.000 C 
BRANCH  30  31
ATOM     31  C   UNL     1     -20.302 -19.956 -14.049  1.00  0.00    -0.003 C 
ATOM     32  C   UNL     1     -20.129 -20.841 -15.279  1.00  0.00     0.004 C 
ENDBRANCH  30  31
ENDBRANCH  29  30
ENDBRANCH  28  29
ENDBRANCH  27  28
ENDBRANCH  26  27
ENDBRANCH  25  26
ENDBRANCH  24  25
ENDBRANCH  23  24
ENDBRANCH  22  23
ENDBRANCH  21  22
ENDBRANCH  20  21
ENDBRANCH  19  20
ENDBRANCH  18  19
ENDBRANCH   1  18
TORSDOF 28
ENDMDL
MODEL 5
REMARK VINA RESULT:    -2.106     20.104     25.665
REMARK INTER + INTRA:          -7.726
REMARK INTER:                  -5.180
REMARK INTRA:                  -2.546
REMARK UNBOUND:                -2.172
REMARK SMILES CCCCCCCCCCCCCCCCCCCCCCCCCCCCCC(=O)[O-]
REMARK SMILES IDX 16 1 17 2 18 3 19 4 20 5 21 6 22 7 23 8 24 9 25 10 26 11
REMARK SMILES IDX 27 12 28 13 29 14 30 15 31 16 32 17 15 18 14 19 13 20 12 21
REMARK SMILES IDX 11 22 10 23 9 24 8 25 7 26 6 27 5 28 4 29 3 30 2 31 1 32
REMARK H PARENT
REMARK Flexibility Score: inf
ROOT
ATOM      1  C   UNL     1     -23.898  -7.786 -16.158  1.00  0.00     0.000 C 
ENDROOT
BRANCH   1   2
ATOM      2  C   UNL     1     -24.868  -6.880 -16.936  1.00  0.00     0.000 C 
BRANCH   2   3
ATOM      3  C   UNL     1     -24.678  -5.387 -16.613  1.00  0.00     0.000 C 
BRANCH   3   4
ATOM      4  C   UNL     1     -23.202  -4.941 -16.564  1.00  0.00     0.000 C 
BRANCH   4   5
ATOM      5  C   UNL     1     -23.020  -3.485 -17.015  1.00  0.00     0.000 C 
BRANCH   5   6
ATOM      6  C   UNL     1     -22.982  -2.534 -15.812  1.00  0.00     0.000 C 
BRANCH   6   7
ATOM      7  C   UNL     1     -24.227  -1.642 -15.779  1.00  0.00     0.000 C 
BRANCH   7   8
ATOM      8  C   UNL     1     -24.713  -1.424 -14.342  1.00  0.00     0.000 C 
BRANCH   8   9
ATOM      9  C   UNL     1     -24.445  -2.664 -13.476  1.00  0.00     0.000 C 
BRANCH   9  10
ATOM     10  C   UNL     1     -23.660  -2.347 -12.192  1.00  0.00     0.000 C 
BRANCH  10  11
ATOM     11  C   UNL     1     -22.788  -3.498 -11.660  1.00  0.00     0.000 C 
BRANCH  11  12
ATOM     12  C   UNL     1     -22.787  -4.726 -12.581  1.00  0.00     0.000 C 
BRANCH  12  13
ATOM     13  C   UNL     1     -21.362  -5.076 -13.024  1.00  0.00     0.006 C 
BRANCH  13  14
ATOM     14  C   UNL     1     -21.358  -6.274 -13.980  1.00  0.00     0.053 C 
BRANCH  14  15
ATOM     15  C   UNL     1     -20.682  -7.453 -13.352  1.00  0.00     0.041 C 
ATOM     16  O   UNL     1     -21.185  -8.009 -12.341  1.00  0.00    -0.550 OA
ATOM     17  O   UNL     1     -19.486  -7.930 -13.875  1.00  0.00    -0.550 OA
ENDBRANCH  14  15
ENDBRANCH  13  14
ENDBRANCH  12  13
ENDBRANCH  11  12
ENDBRANCH  10  11
ENDBRANCH   9  10
ENDBRANCH   8   9
ENDBRANCH   7   8
ENDBRANCH   6   7
ENDBRANCH   5   6
ENDBRANCH   4   5
ENDBRANCH   3   4
ENDBRANCH   2   3
ENDBRANCH   1   2
BRANCH   1  18
ATOM     18  C   UNL     1     -22.999  -8.625 -17.080  1.00  0.00     0.000 C 
BRANCH  18  19
ATOM     19  C   UNL     1     -22.435  -9.878 -16.386  1.00  0.00     0.000 C 
BRANCH  19  20
ATOM     20  C   UNL     1     -23.275 -11.138 -16.651  1.00  0.00     0.000 C 
BRANCH  20  21
ATOM     21  C   UNL     1     -22.644 -12.428 -16.087  1.00  0.00     0.000 C 
BRANCH  21  22
ATOM     22  C   UNL     1     -22.627 -13.567 -17.124  1.00  0.00     0.000 C 
BRANCH  22  23
ATOM     23  C   UNL     1     -21.743 -14.753 -16.684  1.00  0.00     0.000 C 
BRANCH  23  24
ATOM     24  C   UNL     1     -22.279 -16.127 -17.125  1.00  0.00    -0.000 C 
BRANCH  24  25
ATOM     25  C   UNL     1     -23.770 -16.370 -16.836  1.00  0.00    -0.000 C 
BRANCH  25  26
ATOM     26  C   UNL     1     -24.013 -17.623 -15.978  1.00  0.00    -0.000 C 
BRANCH  26  27
ATOM     27  C   UNL     1     -23.045 -18.772 -16.308  1.00  0.00    -0.000 C 
BRANCH  27  28
ATOM     28  C   UNL     1     -22.571 -19.557 -15.067  1.00  0.00    -0.000 C 
BRANCH  28  29
ATOM     29  C   UNL     1     -21.629 -20.713 -15.441  1.00  0.00    -0.000 C 
BRANCH  29  30
ATOM     30  C   UNL     1     -20.486 -20.845 -14.429  1.00  0.00    -0.000 C 
BRANCH  30  31
ATOM     31  C   UNL     1     -19.616 -19.583 -14.413  1.00  0.00    -0.003 C 
ATOM     32  C   UNL     1     -18.161 -19.909 -14.733  1.00  0.00     0.004 C 
ENDBRANCH  30  31
ENDBRANCH  29  30
ENDBRANCH  28  29
ENDBRANCH  27  28
ENDBRANCH  26  27
ENDBRANCH  25  26
ENDBRANCH  24  25
ENDBRANCH  23  24
ENDBRANCH  22  23
ENDBRANCH  21  22
ENDBRANCH  20  21
ENDBRANCH  19  20
ENDBRANCH  18  19
ENDBRANCH   1  18
TORSDOF 28
ENDMDL
MODEL 6
REMARK VINA RESULT:    -1.940     19.864     22.450
REMARK INTER + INTRA:          -7.287
REMARK INTER:                  -4.893
REMARK INTRA:                  -2.394
REMARK UNBOUND:                -2.172
REMARK SMILES CCCCCCCCCCCCCCCCCCCCCCCCCCCCCC(=O)[O-]
REMARK SMILES IDX 16 1 17 2 18 3 19 4 20 5 21 6 22 7 23 8 24 9 25 10 26 11
REMARK SMILES IDX 27 12 28 13 29 14 30 15 31 16 32 17 15 18 14 19 13 20 12 21
REMARK SMILES IDX 11 22 10 23 9 24 8 25 7 26 6 27 5 28 4 29 3 30 2 31 1 32
REMARK H PARENT
REMARK Flexibility Score: inf
ROOT
ATOM      1  C   UNL     1     -19.332  -8.931 -13.422  1.00  0.00     0.000 C 
ENDROOT
BRANCH   1   2
ATOM      2  C   UNL     1     -20.830  -9.269 -13.508  1.00  0.00     0.000 C 
BRANCH   2   3
ATOM      3  C   UNL     1     -21.133 -10.379 -14.530  1.00  0.00     0.000 C 
BRANCH   3   4
ATOM      4  C   UNL     1     -22.302 -10.050 -15.483  1.00  0.00     0.000 C 
BRANCH   4   5
ATOM      5  C   UNL     1     -23.587 -10.804 -15.109  1.00  0.00     0.000 C 
BRANCH   5   6
ATOM      6  C   UNL     1     -24.582 -10.814 -16.276  1.00  0.00     0.000 C 
BRANCH   6   7
ATOM      7  C   UNL     1     -24.418 -12.079 -17.125  1.00  0.00     0.000 C 
BRANCH   7   8
ATOM      8  C   UNL     1     -23.193 -12.887 -16.682  1.00  0.00     0.000 C 
BRANCH   8   9
ATOM      9  C   UNL     1     -23.311 -14.352 -17.125  1.00  0.00     0.000 C 
BRANCH   9  10
ATOM     10  C   UNL     1     -22.168 -15.237 -16.597  1.00  0.00     0.000 C 
BRANCH  10  11
ATOM     11  C   UNL     1     -22.272 -16.727 -16.969  1.00  0.00     0.000 C 
BRANCH  11  12
ATOM     12  C   UNL     1     -23.577 -17.377 -16.488  1.00  0.00     0.000 C 
BRANCH  12  13
ATOM     13  C   UNL     1     -23.305 -18.747 -15.856  1.00  0.00     0.006 C 
BRANCH  13  14
ATOM     14  C   UNL     1     -21.850 -19.176 -16.073  1.00  0.00     0.053 C 
BRANCH  14  15
ATOM     15  C   UNL     1     -21.301 -19.835 -14.846  1.00  0.00     0.041 C 
ATOM     16  O   UNL     1     -21.854 -20.865 -14.377  1.00  0.00    -0.550 OA
ATOM     17  O   UNL     1     -20.186 -19.303 -14.210  1.00  0.00    -0.550 OA
ENDBRANCH  14  15
ENDBRANCH  13  14
ENDBRANCH  12  13
ENDBRANCH  11  12
ENDBRANCH  10  11
ENDBRANCH   9  10
ENDBRANCH   8   9
ENDBRANCH   7   8
ENDBRANCH   6   7
ENDBRANCH   5   6
ENDBRANCH   4   5
ENDBRANCH   3   4
ENDBRANCH   2   3
ENDBRANCH   1   2
BRANCH   1  18
ATOM     18  C   UNL     1     -18.979  -7.610 -14.124  1.00  0.00     0.000 C 
BRANCH  18  19
ATOM     19  C   UNL     1     -20.182  -6.660 -14.250  1.00  0.00     0.000 C 
BRANCH  19  20
ATOM     20  C   UNL     1     -20.167  -5.844 -15.553  1.00  0.00     0.000 C 
BRANCH  20  21
ATOM     21  C   UNL     1     -21.577  -5.530 -16.099  1.00  0.00     0.000 C 
BRANCH  21  22
ATOM     22  C   UNL     1     -22.429  -6.801 -16.269  1.00  0.00     0.000 C 
BRANCH  22  23
ATOM     23  C   UNL     1     -23.911  -6.484 -16.559  1.00  0.00     0.000 C 
BRANCH  23  24
ATOM     24  C   UNL     1     -24.316  -5.036 -16.227  1.00  0.00    -0.000 C 
BRANCH  24  25
ATOM     25  C   UNL     1     -24.470  -4.730 -14.727  1.00  0.00    -0.000 C 
BRANCH  25  26
ATOM     26  C   UNL     1     -24.996  -3.310 -14.461  1.00  0.00    -0.000 C 
BRANCH  26  27
ATOM     27  C   UNL     1     -24.204  -2.573 -13.368  1.00  0.00    -0.000 C 
BRANCH  27  28
ATOM     28  C   UNL     1     -23.766  -3.483 -12.201  1.00  0.00    -0.000 C 
BRANCH  28  29
ATOM     29  C   UNL     1     -22.298  -3.921 -12.331  1.00  0.00    -0.000 C 
BRANCH  29  30
ATOM     30  C   UNL     1     -21.384  -2.721 -12.599  1.00  0.00    -0.000 C 
BRANCH  30  31
ATOM     31  C   UNL     1     -20.609  -2.901 -13.909  1.00  0.00    -0.003 C 
ATOM     32  C   UNL     1     -20.903  -1.767 -14.886  1.00  0.00     0.004 C 
ENDBRANCH  30  31
ENDBRANCH  29  30
ENDBRANCH  28  29
ENDBRANCH  27  28
ENDBRANCH  26  27
ENDBRANCH  25  26
ENDBRANCH  24  25
ENDBRANCH  23  24
ENDBRANCH  22  23
ENDBRANCH  21  22
ENDBRANCH  20  21
ENDBRANCH  19  20
ENDBRANCH  18  19
ENDBRANCH   1  18
TORSDOF 28
ENDMDL
MODEL 7
REMARK VINA RESULT:    -1.847     19.955     25.208
REMARK INTER + INTRA:          -7.042
REMARK INTER:                  -4.494
REMARK INTRA:                  -2.548
REMARK UNBOUND:                -2.172
REMARK SMILES CCCCCCCCCCCCCCCCCCCCCCCCCCCCCC(=O)[O-]
REMARK SMILES IDX 16 1 17 2 18 3 19 4 20 5 21 6 22 7 23 8 24 9 25 10 26 11
REMARK SMILES IDX 27 12 28 13 29 14 30 15 31 16 32 17 15 18 14 19 13 20 12 21
REMARK SMILES IDX 11 22 10 23 9 24 8 25 7 26 6 27 5 28 4 29 3 30 2 31 1 32
REMARK H PARENT
REMARK Flexibility Score: inf
ROOT
ATOM      1  C   UNL     1     -21.309  -8.945 -13.141  1.00  0.00     0.000 C 
ENDROOT
BRANCH   1   2
ATOM      2  C   UNL     1     -20.037  -8.111 -12.914  1.00  0.00     0.000 C 
BRANCH   2   3
ATOM      3  C   UNL     1     -19.448  -7.555 -14.223  1.00  0.00     0.000 C 
BRANCH   3   4
ATOM      4  C   UNL     1     -19.758  -6.063 -14.464  1.00  0.00     0.000 C 
BRANCH   4   5
ATOM      5  C   UNL     1     -20.290  -5.801 -15.880  1.00  0.00     0.000 C 
BRANCH   5   6
ATOM      6  C   UNL     1     -21.741  -6.274 -16.022  1.00  0.00     0.000 C 
BRANCH   6   7
ATOM      7  C   UNL     1     -22.682  -5.419 -15.167  1.00  0.00     0.000 C 
BRANCH   7   8
ATOM      8  C   UNL     1     -24.095  -5.390 -15.761  1.00  0.00     0.000 C 
BRANCH   8   9
ATOM      9  C   UNL     1     -24.266  -4.198 -16.715  1.00  0.00     0.000 C 
BRANCH   9  10
ATOM     10  C   UNL     1     -22.930  -3.556 -17.125  1.00  0.00     0.000 C 
BRANCH  10  11
ATOM     11  C   UNL     1     -22.675  -2.154 -16.544  1.00  0.00     0.000 C 
BRANCH  11  12
ATOM     12  C   UNL     1     -21.368  -2.065 -15.742  1.00  0.00     0.000 C 
BRANCH  12  13
ATOM     13  C   UNL     1     -21.654  -1.790 -14.261  1.00  0.00     0.006 C 
BRANCH  13  14
ATOM     14  C   UNL     1     -20.944  -2.809 -13.363  1.00  0.00     0.053 C 
BRANCH  14  15
ATOM     15  C   UNL     1     -21.463  -2.736 -11.961  1.00  0.00     0.041 C 
ATOM     16  O   UNL     1     -20.775  -2.191 -11.058  1.00  0.00    -0.550 OA
ATOM     17  O   UNL     1     -22.700  -3.284 -11.647  1.00  0.00    -0.550 OA
ENDBRANCH  14  15
ENDBRANCH  13  14
ENDBRANCH  12  13
ENDBRANCH  11  12
ENDBRANCH  10  11
ENDBRANCH   9  10
ENDBRANCH   8   9
ENDBRANCH   7   8
ENDBRANCH   6   7
ENDBRANCH   5   6
ENDBRANCH   4   5
ENDBRANCH   3   4
ENDBRANCH   2   3
ENDBRANCH   1   2
BRANCH   1  18
ATOM     18  C   UNL     1     -21.211  -9.857 -14.375  1.00  0.00     0.000 C 
BRANCH  18  19
ATOM     19  C   UNL     1     -22.564 -10.051 -15.083  1.00  0.00     0.000 C 
BRANCH  19  20
ATOM     20  C   UNL     1     -22.934 -11.531 -15.269  1.00  0.00     0.000 C 
BRANCH  20  21
ATOM     21  C   UNL     1     -23.687 -11.816 -16.587  1.00  0.00     0.000 C 
BRANCH  21  22
ATOM     22  C   UNL     1     -23.399 -13.230 -17.125  1.00  0.00     0.000 C 
BRANCH  22  23
ATOM     23  C   UNL     1     -22.085 -13.817 -16.569  1.00  0.00     0.000 C 
BRANCH  23  24
ATOM     24  C   UNL     1     -21.740 -15.211 -17.123  1.00  0.00    -0.000 C 
BRANCH  24  25
ATOM     25  C   UNL     1     -20.271 -15.635 -16.956  1.00  0.00    -0.000 C 
BRANCH  25  26
ATOM     26  C   UNL     1     -20.094 -17.162 -16.910  1.00  0.00    -0.000 C 
BRANCH  26  27
ATOM     27  C   UNL     1     -21.174 -17.865 -16.071  1.00  0.00    -0.000 C 
BRANCH  27  28
ATOM     28  C   UNL     1     -20.660 -19.112 -15.322  1.00  0.00    -0.000 C 
BRANCH  28  29
ATOM     29  C   UNL     1     -20.084 -20.166 -16.281  1.00  0.00    -0.000 C 
BRANCH  29  30
ATOM     30  C   UNL     1     -18.692 -20.623 -15.831  1.00  0.00    -0.000 C 
BRANCH  30  31
ATOM     31  C   UNL     1     -17.811 -19.423 -15.464  1.00  0.00    -0.003 C 
ATOM     32  C   UNL     1     -17.150 -18.824 -16.701  1.00  0.00     0.004 C 
ENDBRANCH  30  31
ENDBRANCH  29  30
ENDBRANCH  28  29
ENDBRANCH  27  28
ENDBRANCH  26  27
ENDBRANCH  25  26
ENDBRANCH  24  25
ENDBRANCH  23  24
ENDBRANCH  22  23
ENDBRANCH  21  22
ENDBRANCH  20  21
ENDBRANCH  19  20
ENDBRANCH  18  19
ENDBRANCH   1  18
TORSDOF 28
ENDMDL
MODEL 8
REMARK VINA RESULT:    -1.610     20.006     25.489
REMARK INTER + INTRA:          -6.417
REMARK INTER:                  -4.331
REMARK INTRA:                  -2.086
REMARK UNBOUND:                -2.172
REMARK SMILES CCCCCCCCCCCCCCCCCCCCCCCCCCCCCC(=O)[O-]
REMARK SMILES IDX 16 1 17 2 18 3 19 4 20 5 21 6 22 7 23 8 24 9 25 10 26 11
REMARK SMILES IDX 27 12 28 13 29 14 30 15 31 16 32 17 15 18 14 19 13 20 12 21
REMARK SMILES IDX 11 22 10 23 9 24 8 25 7 26 6 27 5 28 4 29 3 30 2 31 1 32
REMARK H PARENT
REMARK Flexibility Score: inf
ROOT
ATOM      1  C   UNL     1     -21.050  -8.977 -13.921  1.00  0.00     0.000 C 
ENDROOT
BRANCH   1   2
ATOM      2  C   UNL     1     -20.428  -7.572 -13.991  1.00  0.00     0.000 C 
BRANCH   2   3
ATOM      3  C   UNL     1     -20.829  -6.682 -12.801  1.00  0.00     0.000 C 
BRANCH   3   4
ATOM      4  C   UNL     1     -20.121  -5.312 -12.778  1.00  0.00     0.000 C 
BRANCH   4   5
ATOM      5  C   UNL     1     -19.602  -4.902 -14.164  1.00  0.00     0.000 C 
BRANCH   5   6
ATOM      6  C   UNL     1     -19.872  -3.418 -14.438  1.00  0.00     0.000 C 
BRANCH   6   7
ATOM      7  C   UNL     1     -20.461  -3.217 -15.839  1.00  0.00     0.000 C 
BRANCH   7   8
ATOM      8  C   UNL     1     -20.531  -4.544 -16.604  1.00  0.00     0.000 C 
BRANCH   8   9
ATOM      9  C   UNL     1     -21.977  -4.874 -17.001  1.00  0.00     0.000 C 
BRANCH   9  10
ATOM     10  C   UNL     1     -23.007  -3.911 -16.387  1.00  0.00     0.000 C 
BRANCH  10  11
ATOM     11  C   UNL     1     -24.197  -4.590 -15.686  1.00  0.00     0.000 C 
BRANCH  11  12
ATOM     12  C   UNL     1     -24.975  -3.637 -14.767  1.00  0.00     0.000 C 
BRANCH  12  13
ATOM     13  C   UNL     1     -24.473  -2.197 -14.921  1.00  0.00     0.006 C 
BRANCH  13  14
ATOM     14  C   UNL     1     -24.268  -1.533 -13.555  1.00  0.00     0.053 C 
BRANCH  14  15
ATOM     15  C   UNL     1     -23.004  -2.015 -12.914  1.00  0.00     0.041 C 
ATOM     16  O   UNL     1     -22.009  -1.249 -12.817  1.00  0.00    -0.550 OA
ATOM     17  O   UNL     1     -22.919  -3.317 -12.435  1.00  0.00    -0.550 OA
ENDBRANCH  14  15
ENDBRANCH  13  14
ENDBRANCH  12  13
ENDBRANCH  11  12
ENDBRANCH  10  11
ENDBRANCH   9  10
ENDBRANCH   8   9
ENDBRANCH   7   8
ENDBRANCH   6   7
ENDBRANCH   5   6
ENDBRANCH   4   5
ENDBRANCH   3   4
ENDBRANCH   2   3
ENDBRANCH   1   2
BRANCH   1  18
ATOM     18  C   UNL     1     -21.538  -9.481 -15.289  1.00  0.00     0.000 C 
BRANCH  18  19
ATOM     19  C   UNL     1     -22.741 -10.434 -15.181  1.00  0.00     0.000 C 
BRANCH  19  20
ATOM     20  C   UNL     1     -22.828 -11.424 -16.354  1.00  0.00     0.000 C 
BRANCH  20  21
ATOM     21  C   UNL     1     -23.035 -12.887 -15.910  1.00  0.00     0.000 C 
BRANCH  21  22
ATOM     22  C   UNL     1     -23.428 -13.800 -17.086  1.00  0.00     0.000 C 
BRANCH  22  23
ATOM     23  C   UNL     1     -22.603 -15.104 -17.123  1.00  0.00     0.000 C 
BRANCH  23  24
ATOM     24  C   UNL     1     -23.439 -16.379 -16.910  1.00  0.00    -0.000 C 
BRANCH  24  25
ATOM     25  C   UNL     1     -22.634 -17.689 -16.876  1.00  0.00    -0.000 C 
BRANCH  25  26
ATOM     26  C   UNL     1     -21.123 -17.454 -16.714  1.00  0.00    -0.000 C 
BRANCH  26  27
ATOM     27  C   UNL     1     -20.382 -18.684 -16.162  1.00  0.00    -0.000 C 
BRANCH  27  28
ATOM     28  C   UNL     1     -19.310 -18.337 -15.107  1.00  0.00    -0.000 C 
BRANCH  28  29
ATOM     29  C   UNL     1     -18.654 -19.595 -14.516  1.00  0.00    -0.000 C 
BRANCH  29  30
ATOM     30  C   UNL     1     -18.700 -20.763 -15.508  1.00  0.00    -0.000 C 
BRANCH  30  31
ATOM     31  C   UNL     1     -17.294 -21.121 -16.001  1.00  0.00    -0.003 C 
ATOM     32  C   UNL     1     -16.395 -19.890 -16.052  1.00  0.00     0.004 C 
ENDBRANCH  30  31
ENDBRANCH  29  30
ENDBRANCH  28  29
ENDBRANCH  27  28
ENDBRANCH  26  27
ENDBRANCH  25  26
ENDBRANCH  24  25
ENDBRANCH  23  24
ENDBRANCH  22  23
ENDBRANCH  21  22
ENDBRANCH  20  21
ENDBRANCH  19  20
ENDBRANCH  18  19
ENDBRANCH   1  18
TORSDOF 28
ENDMDL
MODEL 9
REMARK VINA RESULT:    -1.561     20.592     25.683
REMARK INTER + INTRA:          -6.288
REMARK INTER:                  -3.954
REMARK INTRA:                  -2.334
REMARK UNBOUND:                -2.172
REMARK SMILES CCCCCCCCCCCCCCCCCCCCCCCCCCCCCC(=O)[O-]
REMARK SMILES IDX 16 1 17 2 18 3 19 4 20 5 21 6 22 7 23 8 24 9 25 10 26 11
REMARK SMILES IDX 27 12 28 13 29 14 30 15 31 16 32 17 15 18 14 19 13 20 12 21
REMARK SMILES IDX 11 22 10 23 9 24 8 25 7 26 6 27 5 28 4 29 3 30 2 31 1 32
REMARK H PARENT
REMARK Flexibility Score: inf
ROOT
ATOM      1  C   UNL     1     -21.324  -8.952 -13.109  1.00  0.00     0.000 C 
ENDROOT
BRANCH   1   2
ATOM      2  C   UNL     1     -20.112  -8.072 -12.759  1.00  0.00     0.000 C 
BRANCH   2   3
ATOM      3  C   UNL     1     -19.508  -7.372 -13.990  1.00  0.00     0.000 C 
BRANCH   3   4
ATOM      4  C   UNL     1     -19.872  -5.877 -14.100  1.00  0.00     0.000 C 
BRANCH   4   5
ATOM      5  C   UNL     1     -20.385  -5.505 -15.499  1.00  0.00     0.000 C 
BRANCH   5   6
ATOM      6  C   UNL     1     -21.815  -6.014 -15.717  1.00  0.00     0.000 C 
BRANCH   6   7
ATOM      7  C   UNL     1     -22.831  -5.119 -15.000  1.00  0.00     0.000 C 
BRANCH   7   8
ATOM      8  C   UNL     1     -24.220  -5.239 -15.637  1.00  0.00     0.000 C 
BRANCH   8   9
ATOM      9  C   UNL     1     -24.430  -4.157 -16.706  1.00  0.00     0.000 C 
BRANCH   9  10
ATOM     10  C   UNL     1     -23.124  -3.459 -17.124  1.00  0.00     0.000 C 
BRANCH  10  11
ATOM     11  C   UNL     1     -22.983  -2.002 -16.648  1.00  0.00     0.000 C 
BRANCH  11  12
ATOM     12  C   UNL     1     -21.919  -1.828 -15.555  1.00  0.00     0.000 C 
BRANCH  12  13
ATOM     13  C   UNL     1     -22.573  -1.548 -14.196  1.00  0.00     0.006 C 
BRANCH  13  14
ATOM     14  C   UNL     1     -24.090  -1.751 -14.260  1.00  0.00     0.053 C 
BRANCH  14  15
ATOM     15  C   UNL     1     -24.609  -2.296 -12.966  1.00  0.00     0.041 C 
ATOM     16  O   UNL     1     -24.995  -1.514 -12.057  1.00  0.00    -0.550 OA
ATOM     17  O   UNL     1     -24.654  -3.669 -12.757  1.00  0.00    -0.550 OA
ENDBRANCH  14  15
ENDBRANCH  13  14
ENDBRANCH  12  13
ENDBRANCH  11  12
ENDBRANCH  10  11
ENDBRANCH   9  10
ENDBRANCH   8   9
ENDBRANCH   7   8
ENDBRANCH   6   7
ENDBRANCH   5   6
ENDBRANCH   4   5
ENDBRANCH   3   4
ENDBRANCH   2   3
ENDBRANCH   1   2
BRANCH   1  18
ATOM     18  C   UNL     1     -21.096  -9.808 -14.365  1.00  0.00     0.000 C 
BRANCH  18  19
ATOM     19  C   UNL     1     -22.387 -10.051 -15.166  1.00  0.00     0.000 C 
BRANCH  19  20
ATOM     20  C   UNL     1     -22.738 -11.542 -15.299  1.00  0.00     0.000 C 
BRANCH  20  21
ATOM     21  C   UNL     1     -23.491 -11.883 -16.602  1.00  0.00     0.000 C 
BRANCH  21  22
ATOM     22  C   UNL     1     -23.139 -13.288 -17.124  1.00  0.00     0.000 C 
BRANCH  22  23
ATOM     23  C   UNL     1     -21.803 -13.811 -16.558  1.00  0.00     0.000 C 
BRANCH  23  24
ATOM     24  C   UNL     1     -21.450 -15.241 -17.008  1.00  0.00    -0.000 C 
BRANCH  24  25
ATOM     25  C   UNL     1     -19.959 -15.605 -16.914  1.00  0.00    -0.000 C 
BRANCH  25  26
ATOM     26  C   UNL     1     -19.699 -17.106 -17.124  1.00  0.00    -0.000 C 
BRANCH  26  27
ATOM     27  C   UNL     1     -20.960 -17.965 -16.929  1.00  0.00    -0.000 C 
BRANCH  27  28
ATOM     28  C   UNL     1     -20.953 -18.787 -15.623  1.00  0.00    -0.000 C 
BRANCH  28  29
ATOM     29  C   UNL     1     -22.375 -19.118 -15.142  1.00  0.00    -0.000 C 
BRANCH  29  30
ATOM     30  C   UNL     1     -23.425 -18.326 -15.928  1.00  0.00    -0.000 C 
BRANCH  30  31
ATOM     31  C   UNL     1     -24.571 -17.876 -15.016  1.00  0.00    -0.003 C 
ATOM     32  C   UNL     1     -24.548 -18.627 -13.689  1.00  0.00     0.004 C 
ENDBRANCH  30  31
ENDBRANCH  29  30
ENDBRANCH  28  29
ENDBRANCH  27  28
ENDBRANCH  26  27
ENDBRANCH  25  26
ENDBRANCH  24  25
ENDBRANCH  23  24
ENDBRANCH  22  23
ENDBRANCH  21  22
ENDBRANCH  20  21
ENDBRANCH  19  20
ENDBRANCH  18  19
ENDBRANCH   1  18
TORSDOF 28
ENDMDL
