MODEL 1
REMARK VINA RESULT:    -6.452      0.000      0.000
REMARK INTER + INTRA:          -9.511
REMARK INTER:                  -8.716
REMARK INTRA:                  -0.795
REMARK UNBOUND:                -0.795
REMARK SMILES O=c1c(-c2ccc(O)cc2)coc2c([C@H]3O[C@@H](CO)[C@@H](O)[C@@H](O)[C@H]3O)c(O)ccc12
REMARK SMILES IDX 3 1 11 2 12 3 13 4 30 5 2 6 1 7 29 8 28 9 26 10 14 11 4 12
REMARK SMILES IDX 5 13 6 14 7 15 10 16 9 17 8 18 15 20 24 21 16 22 22 23 17 24
REMARK SMILES IDX 20 25 25 26 23 28 18 30 19 31 21 33 27 35
REMARK H PARENT 8 19 25 27 23 29 19 32 21 34 27 36
REMARK Flexibility Score: inf
ROOT
ATOM      1  C   UNL     1      13.174 -13.634  16.525  1.00  0.00     0.065 A 
ATOM      2  C   UNL     1      12.888 -12.273  16.376  1.00  0.00     0.208 A 
ATOM      3  O   UNL     1      11.596 -11.933  16.080  1.00  0.00    -0.463 OA
ATOM      4  C   UNL     1      10.560 -12.837  15.910  1.00  0.00     0.147 A 
ATOM      5  C   UNL     1      10.856 -14.211  16.045  1.00  0.00     0.066 A 
ATOM      6  C   UNL     1      12.165 -14.599  16.378  1.00  0.00     0.200 A 
ATOM      7  O   UNL     1      12.435 -15.820  16.563  1.00  0.00    -0.288 OA
ATOM      8  C   UNL     1       9.855 -15.168  15.839  1.00  0.00     0.020 A 
ATOM      9  C   UNL     1       8.587 -14.774  15.445  1.00  0.00     0.047 A 
ATOM     10  C   UNL     1       8.272 -13.426  15.286  1.00  0.00     0.125 A 
ATOM     11  C   UNL     1       9.231 -12.410  15.591  1.00  0.00     0.069 A 
ENDROOT
BRANCH   1  12
ATOM     12  C   UNL     1      14.576 -14.021  16.820  1.00  0.00    -0.011 A 
ATOM     13  C   UNL     1      15.560 -13.959  15.817  1.00  0.00     0.013 A 
ATOM     14  C   UNL     1      16.883 -14.311  16.103  1.00  0.00     0.047 A 
ATOM     15  C   UNL     1      17.239 -14.722  17.394  1.00  0.00     0.115 A 
ATOM     16  C   UNL     1      14.945 -14.417  18.118  1.00  0.00     0.013 A 
ATOM     17  C   UNL     1      16.267 -14.774  18.399  1.00  0.00     0.047 A 
BRANCH  15  18
ATOM     18  O   UNL     1      18.555 -15.072  17.689  1.00  0.00    -0.508 OA
ATOM     19  H   UNL     1      18.828 -15.363  18.620  1.00  0.00     0.293 HD
ENDBRANCH  15  18
ENDBRANCH   1  12
BRANCH  11  20
ATOM     20  C   UNL     1       8.734 -10.944  15.558  1.00  0.00     0.188 C 
ATOM     21  C   UNL     1       9.639  -9.696  15.801  1.00  0.00     0.179 C 
ATOM     22  O   UNL     1       7.506 -10.814  16.270  1.00  0.00    -0.362 OA
ATOM     23  C   UNL     1       9.842  -9.359  17.289  1.00  0.00     0.177 C 
ATOM     24  C   UNL     1       7.650 -10.619  17.673  1.00  0.00     0.176 C 
ATOM     25  C   UNL     1       8.487  -9.355  18.003  1.00  0.00     0.177 C 
BRANCH  21  26
ATOM     26  O   UNL     1      10.852  -9.739  15.099  1.00  0.00    -0.387 OA
ATOM     27  H   UNL     1      11.553 -10.021  15.744  1.00  0.00     0.211 HD
ENDBRANCH  21  26
BRANCH  23  28
ATOM     28  O   UNL     1      10.716 -10.256  17.921  1.00  0.00    -0.387 OA
ATOM     29  H   UNL     1      11.289 -10.656  17.216  1.00  0.00     0.211 HD
ENDBRANCH  23  28
BRANCH  24  30
ATOM     30  C   UNL     1       8.075 -11.908  18.410  1.00  0.00     0.191 C 
BRANCH  30  31
ATOM     31  O   UNL     1       7.498 -11.950  19.686  1.00  0.00    -0.394 OA
ATOM     32  H   UNL     1       6.642 -11.454  19.619  1.00  0.00     0.210 HD
ENDBRANCH  30  31
ENDBRANCH  24  30
BRANCH  25  33
ATOM     33  O   UNL     1       8.678  -9.212  19.387  1.00  0.00    -0.388 OA
ATOM     34  H   UNL     1       8.734 -10.128  19.765  1.00  0.00     0.211 HD
ENDBRANCH  25  33
ENDBRANCH  11  20
BRANCH  10  35
ATOM     35  O   UNL     1       6.986 -13.142  14.814  1.00  0.00    -0.507 OA
ATOM     36  H   UNL     1       6.696 -13.236  13.852  1.00  0.00     0.293 HD
ENDBRANCH  10  35
TORSDOF 9
ENDMDL
MODEL 2
REMARK VINA RESULT:    -6.291      2.393      7.472
REMARK INTER + INTRA:          -9.293
REMARK INTER:                  -9.112
REMARK INTRA:                  -0.180
REMARK UNBOUND:                -0.795
REMARK SMILES O=c1c(-c2ccc(O)cc2)coc2c([C@H]3O[C@@H](CO)[C@@H](O)[C@@H](O)[C@H]3O)c(O)ccc12
REMARK SMILES IDX 3 1 11 2 12 3 13 4 30 5 2 6 1 7 29 8 28 9 26 10 14 11 4 12
REMARK SMILES IDX 5 13 6 14 7 15 10 16 9 17 8 18 15 20 24 21 16 22 22 23 17 24
REMARK SMILES IDX 20 25 25 26 23 28 18 30 19 31 21 33 27 35
REMARK H PARENT 8 19 25 27 23 29 19 32 21 34 27 36
REMARK Flexibility Score: inf
ROOT
ATOM      1  C   UNL     1      10.258 -11.433  16.542  1.00  0.00     0.065 A 
ATOM      2  C   UNL     1      10.663 -12.764  16.682  1.00  0.00     0.208 A 
ATOM      3  O   UNL     1      11.544 -13.251  15.756  1.00  0.00    -0.463 OA
ATOM      4  C   UNL     1      12.053 -12.526  14.690  1.00  0.00     0.147 A 
ATOM      5  C   UNL     1      11.629 -11.188  14.543  1.00  0.00     0.066 A 
ATOM      6  C   UNL     1      10.748 -10.641  15.490  1.00  0.00     0.200 A 
ATOM      7  O   UNL     1      10.406  -9.427  15.409  1.00  0.00    -0.288 OA
ATOM      8  C   UNL     1      12.078 -10.426  13.457  1.00  0.00     0.020 A 
ATOM      9  C   UNL     1      12.892 -10.999  12.494  1.00  0.00     0.047 A 
ATOM     10  C   UNL     1      13.310 -12.324  12.606  1.00  0.00     0.125 A 
ATOM     11  C   UNL     1      12.965 -13.106  13.751  1.00  0.00     0.069 A 
ENDROOT
BRANCH   1  12
ATOM     12  C   UNL     1       9.283 -10.896  17.522  1.00  0.00    -0.011 A 
ATOM     13  C   UNL     1       8.420 -11.761  18.219  1.00  0.00     0.013 A 
ATOM     14  C   UNL     1       7.513 -11.252  19.154  1.00  0.00     0.047 A 
ATOM     15  C   UNL     1       7.460  -9.876  19.407  1.00  0.00     0.115 A 
ATOM     16  C   UNL     1       9.236  -9.517  17.796  1.00  0.00     0.013 A 
ATOM     17  C   UNL     1       8.324  -9.011  18.726  1.00  0.00     0.047 A 
BRANCH  15  18
ATOM     18  O   UNL     1       6.561  -9.360  20.338  1.00  0.00    -0.508 OA
ATOM     19  H   UNL     1       6.746  -9.408  21.334  1.00  0.00     0.293 HD
ENDBRANCH  15  18
ENDBRANCH   1  12
BRANCH  11  20
ATOM     20  C   UNL     1      13.624 -14.502  13.871  1.00  0.00     0.188 C 
ATOM     21  C   UNL     1      13.352 -15.514  15.028  1.00  0.00     0.179 C 
ATOM     22  O   UNL     1      15.021 -14.423  13.599  1.00  0.00    -0.362 OA
ATOM     23  C   UNL     1      14.194 -15.254  16.289  1.00  0.00     0.177 C 
ATOM     24  C   UNL     1      15.826 -14.068  14.717  1.00  0.00     0.176 C 
ATOM     25  C   UNL     1      15.662 -15.065  15.895  1.00  0.00     0.177 C 
BRANCH  21  26
ATOM     26  O   UNL     1      11.991 -15.669  15.327  1.00  0.00    -0.387 OA
ATOM     27  H   UNL     1      11.535 -14.826  15.066  1.00  0.00     0.211 HD
ENDBRANCH  21  26
BRANCH  23  28
ATOM     28  O   UNL     1      13.743 -14.137  17.009  1.00  0.00    -0.387 OA
ATOM     29  H   UNL     1      12.758 -14.223  17.098  1.00  0.00     0.211 HD
ENDBRANCH  23  28
BRANCH  24  30
ATOM     30  C   UNL     1      15.698 -12.574  15.089  1.00  0.00     0.191 C 
BRANCH  30  31
ATOM     31  O   UNL     1      16.732 -12.199  15.956  1.00  0.00    -0.394 OA
ATOM     32  H   UNL     1      17.410 -11.740  15.395  1.00  0.00     0.210 HD
ENDBRANCH  30  31
ENDBRANCH  24  30
BRANCH  25  33
ATOM     33  O   UNL     1      16.410 -14.666  17.014  1.00  0.00    -0.388 OA
ATOM     34  H   UNL     1      17.348 -14.941  16.845  1.00  0.00     0.211 HD
ENDBRANCH  25  33
ENDBRANCH  11  20
BRANCH  10  35
ATOM     35  O   UNL     1      14.069 -12.825  11.542  1.00  0.00    -0.507 OA
ATOM     36  H   UNL     1      15.078 -12.845  11.518  1.00  0.00     0.293 HD
ENDBRANCH  10  35
TORSDOF 9
ENDMDL
MODEL 3
REMARK VINA RESULT:    -6.140      2.747      7.043
REMARK INTER + INTRA:          -9.088
REMARK INTER:                  -8.414
REMARK INTRA:                  -0.675
REMARK UNBOUND:                -0.795
REMARK SMILES O=c1c(-c2ccc(O)cc2)coc2c([C@H]3O[C@@H](CO)[C@@H](O)[C@@H](O)[C@H]3O)c(O)ccc12
REMARK SMILES IDX 3 1 11 2 12 3 13 4 30 5 2 6 1 7 29 8 28 9 26 10 14 11 4 12
REMARK SMILES IDX 5 13 6 14 7 15 10 16 9 17 8 18 15 20 24 21 16 22 22 23 17 24
REMARK SMILES IDX 20 25 25 26 23 28 18 30 19 31 21 33 27 35
REMARK H PARENT 8 19 25 27 23 29 19 32 21 34 27 36
REMARK Flexibility Score: inf
ROOT
ATOM      1  C   UNL     1      11.668 -12.671  15.922  1.00  0.00     0.065 A 
ATOM      2  C   UNL     1      10.935 -13.858  15.829  1.00  0.00     0.208 A 
ATOM      3  O   UNL     1      11.506 -14.989  16.344  1.00  0.00    -0.463 OA
ATOM      4  C   UNL     1      12.757 -15.043  16.938  1.00  0.00     0.147 A 
ATOM      5  C   UNL     1      13.501 -13.846  17.015  1.00  0.00     0.066 A 
ATOM      6  C   UNL     1      12.936 -12.657  16.525  1.00  0.00     0.200 A 
ATOM      7  O   UNL     1      13.562 -11.565  16.640  1.00  0.00    -0.288 OA
ATOM      8  C   UNL     1      14.789 -13.854  17.565  1.00  0.00     0.020 A 
ATOM      9  C   UNL     1      15.359 -15.046  17.982  1.00  0.00     0.047 A 
ATOM     10  C   UNL     1      14.654 -16.245  17.900  1.00  0.00     0.125 A 
ATOM     11  C   UNL     1      13.299 -16.267  17.446  1.00  0.00     0.069 A 
ENDROOT
BRANCH   1  12
ATOM     12  C   UNL     1      11.074 -11.440  15.345  1.00  0.00    -0.011 A 
ATOM     13  C   UNL     1      11.410 -11.025  14.044  1.00  0.00     0.013 A 
ATOM     14  C   UNL     1      10.836  -9.872  13.499  1.00  0.00     0.047 A 
ATOM     15  C   UNL     1       9.916  -9.124  14.244  1.00  0.00     0.115 A 
ATOM     16  C   UNL     1      10.136 -10.693  16.080  1.00  0.00     0.013 A 
ATOM     17  C   UNL     1       9.569  -9.537  15.535  1.00  0.00     0.047 A 
BRANCH  15  18
ATOM     18  O   UNL     1       9.337  -7.975  13.709  1.00  0.00    -0.508 OA
ATOM     19  H   UNL     1       9.443  -7.072  14.157  1.00  0.00     0.293 HD
ENDBRANCH  15  18
ENDBRANCH   1  12
BRANCH  11  20
ATOM     20  C   UNL     1      12.543 -17.614  17.562  1.00  0.00     0.188 C 
ATOM     21  C   UNL     1      11.076 -17.849  17.084  1.00  0.00     0.179 C 
ATOM     22  O   UNL     1      12.746 -18.195  18.847  1.00  0.00    -0.362 OA
ATOM     23  C   UNL     1      10.013 -17.420  18.111  1.00  0.00     0.177 C 
ATOM     24  C   UNL     1      11.856 -17.734  19.857  1.00  0.00     0.176 C 
ATOM     25  C   UNL     1      10.371 -17.990  19.487  1.00  0.00     0.177 C 
BRANCH  21  26
ATOM     26  O   UNL     1      10.813 -17.333  15.807  1.00  0.00    -0.387 OA
ATOM     27  H   UNL     1      10.324 -16.477  15.932  1.00  0.00     0.211 HD
ENDBRANCH  21  26
BRANCH  23  28
ATOM     28  O   UNL     1       9.882 -16.025  18.189  1.00  0.00    -0.387 OA
ATOM     29  H   UNL     1       9.003 -15.789  17.793  1.00  0.00     0.211 HD
ENDBRANCH  23  28
BRANCH  24  30
ATOM     30  C   UNL     1      12.185 -16.300  20.327  1.00  0.00     0.191 C 
BRANCH  30  31
ATOM     31  O   UNL     1      11.147 -15.800  21.123  1.00  0.00    -0.394 OA
ATOM     32  H   UNL     1      10.873 -14.940  20.712  1.00  0.00     0.210 HD
ENDBRANCH  30  31
ENDBRANCH  24  30
BRANCH  25  33
ATOM     33  O   UNL     1       9.502 -17.471  20.460  1.00  0.00    -0.388 OA
ATOM     34  H   UNL     1      10.063 -16.972  21.109  1.00  0.00     0.211 HD
ENDBRANCH  25  33
ENDBRANCH  11  20
BRANCH  10  35
ATOM     35  O   UNL     1      15.349 -17.399  18.279  1.00  0.00    -0.507 OA
ATOM     36  H   UNL     1      16.244 -17.401  18.746  1.00  0.00     0.293 HD
ENDBRANCH  10  35
TORSDOF 9
ENDMDL
MODEL 4
REMARK VINA RESULT:    -6.132      3.144      5.495
REMARK INTER + INTRA:          -9.077
REMARK INTER:                  -8.605
REMARK INTRA:                  -0.473
REMARK UNBOUND:                -0.795
REMARK SMILES O=c1c(-c2ccc(O)cc2)coc2c([C@H]3O[C@@H](CO)[C@@H](O)[C@@H](O)[C@H]3O)c(O)ccc12
REMARK SMILES IDX 3 1 11 2 12 3 13 4 30 5 2 6 1 7 29 8 28 9 26 10 14 11 4 12
REMARK SMILES IDX 5 13 6 14 7 15 10 16 9 17 8 18 15 20 24 21 16 22 22 23 17 24
REMARK SMILES IDX 20 25 25 26 23 28 18 30 19 31 21 33 27 35
REMARK H PARENT 8 19 25 27 23 29 19 32 21 34 27 36
REMARK Flexibility Score: inf
ROOT
ATOM      1  C   UNL     1      14.135 -12.282  13.928  1.00  0.00     0.065 A 
ATOM      2  C   UNL     1      14.360 -13.235  14.926  1.00  0.00     0.208 A 
ATOM      3  O   UNL     1      13.336 -13.482  15.799  1.00  0.00    -0.463 OA
ATOM      4  C   UNL     1      12.103 -12.851  15.770  1.00  0.00     0.147 A 
ATOM      5  C   UNL     1      11.885 -11.878  14.770  1.00  0.00     0.066 A 
ATOM      6  C   UNL     1      12.901 -11.617  13.836  1.00  0.00     0.200 A 
ATOM      7  O   UNL     1      12.702 -10.794  12.898  1.00  0.00    -0.288 OA
ATOM      8  C   UNL     1      10.673 -11.179  14.725  1.00  0.00     0.020 A 
ATOM      9  C   UNL     1       9.706 -11.398  15.693  1.00  0.00     0.047 A 
ATOM     10  C   UNL     1       9.903 -12.340  16.701  1.00  0.00     0.125 A 
ATOM     11  C   UNL     1      11.079 -13.153  16.724  1.00  0.00     0.069 A 
ENDROOT
BRANCH   1  12
ATOM     12  C   UNL     1      15.244 -11.984  12.989  1.00  0.00    -0.011 A 
ATOM     13  C   UNL     1      15.733 -10.672  12.854  1.00  0.00     0.013 A 
ATOM     14  C   UNL     1      16.789 -10.398  11.979  1.00  0.00     0.047 A 
ATOM     15  C   UNL     1      17.371 -11.429  11.232  1.00  0.00     0.115 A 
ATOM     16  C   UNL     1      15.846 -13.017  12.249  1.00  0.00     0.013 A 
ATOM     17  C   UNL     1      16.896 -12.739  11.370  1.00  0.00     0.047 A 
BRANCH  15  18
ATOM     18  O   UNL     1      18.424 -11.166  10.359  1.00  0.00    -0.508 OA
ATOM     19  H   UNL     1      18.502 -10.278   9.878  1.00  0.00     0.293 HD
ENDBRANCH  15  18
ENDBRANCH   1  12
BRANCH  11  20
ATOM     20  C   UNL     1      11.124 -14.290  17.773  1.00  0.00     0.188 C 
ATOM     21  C   UNL     1      12.320 -15.275  17.961  1.00  0.00     0.179 C 
ATOM     22  O   UNL     1       9.888 -14.999  17.799  1.00  0.00    -0.362 OA
ATOM     23  C   UNL     1      12.295 -16.471  16.992  1.00  0.00     0.177 C 
ATOM     24  C   UNL     1       9.779 -16.041  16.835  1.00  0.00     0.176 C 
ATOM     25  C   UNL     1      10.900 -17.102  16.993  1.00  0.00     0.177 C 
BRANCH  21  26
ATOM     26  O   UNL     1      13.570 -14.640  17.981  1.00  0.00    -0.387 OA
ATOM     27  H   UNL     1      13.757 -14.392  18.925  1.00  0.00     0.211 HD
ENDBRANCH  21  26
BRANCH  23  28
ATOM     28  O   UNL     1      12.655 -16.105  15.687  1.00  0.00    -0.387 OA
ATOM     29  H   UNL     1      13.542 -15.661  15.739  1.00  0.00     0.211 HD
ENDBRANCH  23  28
BRANCH  24  30
ATOM     30  C   UNL     1       9.573 -15.502  15.402  1.00  0.00     0.191 C 
BRANCH  30  31
ATOM     31  O   UNL     1       8.234 -15.648  15.017  1.00  0.00    -0.394 OA
ATOM     32  H   UNL     1       8.090 -16.620  14.881  1.00  0.00     0.210 HD
ENDBRANCH  30  31
ENDBRANCH  24  30
BRANCH  25  33
ATOM     33  O   UNL     1      10.820 -18.087  15.996  1.00  0.00    -0.388 OA
ATOM     34  H   UNL     1       9.869 -18.138  15.718  1.00  0.00     0.211 HD
ENDBRANCH  25  33
ENDBRANCH  11  20
BRANCH  10  35
ATOM     35  O   UNL     1       8.897 -12.429  17.670  1.00  0.00    -0.507 OA
ATOM     36  H   UNL     1       8.261 -11.681  17.906  1.00  0.00     0.293 HD
ENDBRANCH  10  35
TORSDOF 9
ENDMDL
MODEL 5
REMARK VINA RESULT:    -6.065      2.527      7.614
REMARK INTER + INTRA:          -8.988
REMARK INTER:                  -8.927
REMARK INTRA:                  -0.060
REMARK UNBOUND:                -0.795
REMARK SMILES O=c1c(-c2ccc(O)cc2)coc2c([C@H]3O[C@@H](CO)[C@@H](O)[C@@H](O)[C@H]3O)c(O)ccc12
REMARK SMILES IDX 3 1 11 2 12 3 13 4 30 5 2 6 1 7 29 8 28 9 26 10 14 11 4 12
REMARK SMILES IDX 5 13 6 14 7 15 10 16 9 17 8 18 15 20 24 21 16 22 22 23 17 24
REMARK SMILES IDX 20 25 25 26 23 28 18 30 19 31 21 33 27 35
REMARK H PARENT 8 19 25 27 23 29 19 32 21 34 27 36
REMARK Flexibility Score: inf
ROOT
ATOM      1  C   UNL     1      10.847 -11.814  15.405  1.00  0.00     0.065 A 
ATOM      2  C   UNL     1      12.162 -11.338  15.397  1.00  0.00     0.208 A 
ATOM      3  O   UNL     1      13.104 -12.092  16.042  1.00  0.00    -0.463 OA
ATOM      4  C   UNL     1      12.847 -13.281  16.705  1.00  0.00     0.147 A 
ATOM      5  C   UNL     1      11.515 -13.750  16.724  1.00  0.00     0.066 A 
ATOM      6  C   UNL     1      10.524 -13.020  16.048  1.00  0.00     0.200 A 
ATOM      7  O   UNL     1       9.338 -13.456  16.003  1.00  0.00    -0.288 OA
ATOM      8  C   UNL     1      11.195 -14.922  17.419  1.00  0.00     0.020 A 
ATOM      9  C   UNL     1      12.170 -15.595  18.137  1.00  0.00     0.047 A 
ATOM     10  C   UNL     1      13.488 -15.144  18.151  1.00  0.00     0.125 A 
ATOM     11  C   UNL     1      13.883 -14.014  17.369  1.00  0.00     0.069 A 
ENDROOT
BRANCH   1  12
ATOM     12  C   UNL     1       9.808 -10.996  14.732  1.00  0.00    -0.011 A 
ATOM     13  C   UNL     1      10.172  -9.940  13.878  1.00  0.00     0.013 A 
ATOM     14  C   UNL     1       9.190  -9.180  13.234  1.00  0.00     0.047 A 
ATOM     15  C   UNL     1       7.834  -9.470  13.432  1.00  0.00     0.115 A 
ATOM     16  C   UNL     1       8.444 -11.292  14.911  1.00  0.00     0.013 A 
ATOM     17  C   UNL     1       7.465 -10.527  14.271  1.00  0.00     0.047 A 
BRANCH  15  18
ATOM     18  O   UNL     1       6.849  -8.721  12.793  1.00  0.00    -0.508 OA
ATOM     19  H   UNL     1       7.085  -8.007  12.113  1.00  0.00     0.293 HD
ENDBRANCH  15  18
ENDBRANCH   1  12
BRANCH  11  20
ATOM     20  C   UNL     1      15.398 -13.699  17.307  1.00  0.00     0.188 C 
ATOM     21  C   UNL     1      16.021 -12.492  16.539  1.00  0.00     0.179 C 
ATOM     22  O   UNL     1      16.147 -14.886  17.058  1.00  0.00    -0.362 OA
ATOM     23  C   UNL     1      16.241 -12.758  15.039  1.00  0.00     0.177 C 
ATOM     24  C   UNL     1      16.273 -15.233  15.683  1.00  0.00     0.176 C 
ATOM     25  C   UNL     1      16.946 -14.106  14.856  1.00  0.00     0.177 C 
BRANCH  21  26
ATOM     26  O   UNL     1      15.354 -11.280  16.767  1.00  0.00    -0.387 OA
ATOM     27  H   UNL     1      15.634 -10.652  16.049  1.00  0.00     0.211 HD
ENDBRANCH  21  26
BRANCH  23  28
ATOM     28  O   UNL     1      15.039 -12.743  14.315  1.00  0.00    -0.387 OA
ATOM     29  H   UNL     1      14.375 -13.264  14.836  1.00  0.00     0.211 HD
ENDBRANCH  23  28
BRANCH  24  30
ATOM     30  C   UNL     1      14.963 -15.799  15.092  1.00  0.00     0.191 C 
BRANCH  30  31
ATOM     31  O   UNL     1      15.243 -16.645  14.012  1.00  0.00    -0.394 OA
ATOM     32  H   UNL     1      15.980 -16.213  13.506  1.00  0.00     0.210 HD
ENDBRANCH  30  31
ENDBRANCH  24  30
BRANCH  25  33
ATOM     33  O   UNL     1      17.003 -14.433  13.492  1.00  0.00    -0.388 OA
ATOM     34  H   UNL     1      16.905 -15.418  13.429  1.00  0.00     0.211 HD
ENDBRANCH  25  33
ENDBRANCH  11  20
BRANCH  10  35
ATOM     35  O   UNL     1      14.377 -15.853  18.967  1.00  0.00    -0.507 OA
ATOM     36  H   UNL     1      15.372 -15.688  19.006  1.00  0.00     0.293 HD
ENDBRANCH  10  35
TORSDOF 9
ENDMDL
MODEL 6
REMARK VINA RESULT:    -6.055      2.868      8.499
REMARK INTER + INTRA:          -8.974
REMARK INTER:                  -8.570
REMARK INTRA:                  -0.403
REMARK UNBOUND:                -0.795
REMARK SMILES O=c1c(-c2ccc(O)cc2)coc2c([C@H]3O[C@@H](CO)[C@@H](O)[C@@H](O)[C@H]3O)c(O)ccc12
REMARK SMILES IDX 3 1 11 2 12 3 13 4 30 5 2 6 1 7 29 8 28 9 26 10 14 11 4 12
REMARK SMILES IDX 5 13 6 14 7 15 10 16 9 17 8 18 15 20 24 21 16 22 22 23 17 24
REMARK SMILES IDX 20 25 25 26 23 28 18 30 19 31 21 33 27 35
REMARK H PARENT 8 19 25 27 23 29 19 32 21 34 27 36
REMARK Flexibility Score: inf
ROOT
ATOM      1  C   UNL     1      12.460 -11.993  14.576  1.00  0.00     0.065 A 
ATOM      2  C   UNL     1      12.781 -13.351  14.670  1.00  0.00     0.208 A 
ATOM      3  O   UNL     1      13.991 -13.745  14.167  1.00  0.00    -0.463 OA
ATOM      4  C   UNL     1      14.911 -12.900  13.567  1.00  0.00     0.147 A 
ATOM      5  C   UNL     1      14.576 -11.532  13.460  1.00  0.00     0.066 A 
ATOM      6  C   UNL     1      13.356 -11.084  13.991  1.00  0.00     0.200 A 
ATOM      7  O   UNL     1      13.067  -9.853  13.959  1.00  0.00    -0.288 OA
ATOM      8  C   UNL     1      15.450 -10.644  12.822  1.00  0.00     0.020 A 
ATOM      9  C   UNL     1      16.618 -11.113  12.243  1.00  0.00     0.047 A 
ATOM     10  C   UNL     1      16.964 -12.461  12.317  1.00  0.00     0.125 A 
ATOM     11  C   UNL     1      16.156 -13.384  13.052  1.00  0.00     0.069 A 
ENDROOT
BRANCH   1  12
ATOM     12  C   UNL     1      11.141 -11.554  15.094  1.00  0.00    -0.011 A 
ATOM     13  C   UNL     1      10.392 -10.580  14.407  1.00  0.00     0.013 A 
ATOM     14  C   UNL     1       9.142 -10.180  14.891  1.00  0.00     0.047 A 
ATOM     15  C   UNL     1       8.624 -10.749  16.060  1.00  0.00     0.115 A 
ATOM     16  C   UNL     1      10.605 -12.134  16.257  1.00  0.00     0.013 A 
ATOM     17  C   UNL     1       9.358 -11.726  16.741  1.00  0.00     0.047 A 
BRANCH  15  18
ATOM     18  O   UNL     1       7.379 -10.358  16.548  1.00  0.00    -0.508 OA
ATOM     19  H   UNL     1       6.553 -10.376  15.961  1.00  0.00     0.293 HD
ENDBRANCH  15  18
ENDBRANCH   1  12
BRANCH  11  20
ATOM     20  C   UNL     1      16.714 -14.818  13.229  1.00  0.00     0.188 C 
ATOM     21  C   UNL     1      15.976 -15.968  13.982  1.00  0.00     0.179 C 
ATOM     22  O   UNL     1      18.088 -14.778  13.605  1.00  0.00    -0.362 OA
ATOM     23  C   UNL     1      16.179 -15.940  15.508  1.00  0.00     0.177 C 
ATOM     24  C   UNL     1      18.319 -14.633  15.002  1.00  0.00     0.176 C 
ATOM     25  C   UNL     1      17.670 -15.778  15.823  1.00  0.00     0.177 C 
BRANCH  21  26
ATOM     26  O   UNL     1      14.624 -16.089  13.633  1.00  0.00    -0.387 OA
ATOM     27  H   UNL     1      14.282 -16.914  14.068  1.00  0.00     0.211 HD
ENDBRANCH  21  26
BRANCH  23  28
ATOM     28  O   UNL     1      15.445 -14.915  16.122  1.00  0.00    -0.387 OA
ATOM     29  H   UNL     1      16.055 -14.453  16.755  1.00  0.00     0.211 HD
ENDBRANCH  23  28
BRANCH  24  30
ATOM     30  C   UNL     1      18.021 -13.203  15.506  1.00  0.00     0.191 C 
BRANCH  30  31
ATOM     31  O   UNL     1      18.869 -12.878  16.573  1.00  0.00    -0.394 OA
ATOM     32  H   UNL     1      19.335 -13.718  16.821  1.00  0.00     0.210 HD
ENDBRANCH  30  31
ENDBRANCH  24  30
BRANCH  25  33
ATOM     33  O   UNL     1      17.847 -15.587  17.203  1.00  0.00    -0.388 OA
ATOM     34  H   UNL     1      17.570 -16.430  17.647  1.00  0.00     0.211 HD
ENDBRANCH  25  33
ENDBRANCH  11  20
BRANCH  10  35
ATOM     35  O   UNL     1      18.126 -12.841  11.636  1.00  0.00    -0.507 OA
ATOM     36  H   UNL     1      18.909 -13.316  12.062  1.00  0.00     0.293 HD
ENDBRANCH  10  35
TORSDOF 9
ENDMDL
MODEL 7
REMARK VINA RESULT:    -6.007      3.175      5.487
REMARK INTER + INTRA:          -8.909
REMARK INTER:                  -8.281
REMARK INTRA:                  -0.628
REMARK UNBOUND:                -0.795
REMARK SMILES O=c1c(-c2ccc(O)cc2)coc2c([C@H]3O[C@@H](CO)[C@@H](O)[C@@H](O)[C@H]3O)c(O)ccc12
REMARK SMILES IDX 3 1 11 2 12 3 13 4 30 5 2 6 1 7 29 8 28 9 26 10 14 11 4 12
REMARK SMILES IDX 5 13 6 14 7 15 10 16 9 17 8 18 15 20 24 21 16 22 22 23 17 24
REMARK SMILES IDX 20 25 25 26 23 28 18 30 19 31 21 33 27 35
REMARK H PARENT 8 19 25 27 23 29 19 32 21 34 27 36
REMARK Flexibility Score: inf
ROOT
ATOM      1  C   UNL     1      14.814 -14.402  13.613  1.00  0.00     0.065 A 
ATOM      2  C   UNL     1      14.720 -15.117  14.812  1.00  0.00     0.208 A 
ATOM      3  O   UNL     1      13.744 -14.738  15.692  1.00  0.00    -0.463 OA
ATOM      4  C   UNL     1      12.854 -13.696  15.486  1.00  0.00     0.147 A 
ATOM      5  C   UNL     1      12.963 -12.967  14.282  1.00  0.00     0.066 A 
ATOM      6  C   UNL     1      13.932 -13.344  13.339  1.00  0.00     0.200 A 
ATOM      7  O   UNL     1      14.004 -12.742  12.230  1.00  0.00    -0.288 OA
ATOM      8  C   UNL     1      12.117 -11.877  14.044  1.00  0.00     0.020 A 
ATOM      9  C   UNL     1      11.211 -11.474  15.012  1.00  0.00     0.047 A 
ATOM     10  C   UNL     1      11.096 -12.165  16.217  1.00  0.00     0.125 A 
ATOM     11  C   UNL     1      11.862 -13.348  16.458  1.00  0.00     0.069 A 
ENDROOT
BRANCH   1  12
ATOM     12  C   UNL     1      15.883 -14.784  12.659  1.00  0.00    -0.011 A 
ATOM     13  C   UNL     1      17.230 -14.804  13.064  1.00  0.00     0.013 A 
ATOM     14  C   UNL     1      18.234 -15.178  12.165  1.00  0.00     0.047 A 
ATOM     15  C   UNL     1      17.904 -15.542  10.854  1.00  0.00     0.115 A 
ATOM     16  C   UNL     1      15.559 -15.168  11.345  1.00  0.00     0.013 A 
ATOM     17  C   UNL     1      16.565 -15.536  10.447  1.00  0.00     0.047 A 
BRANCH  15  18
ATOM     18  O   UNL     1      18.897 -15.919   9.952  1.00  0.00    -0.508 OA
ATOM     19  H   UNL     1      19.282 -15.261   9.285  1.00  0.00     0.293 HD
ENDBRANCH  15  18
ENDBRANCH   1  12
BRANCH  11  20
ATOM     20  C   UNL     1      11.535 -14.145  17.745  1.00  0.00     0.188 C 
ATOM     21  C   UNL     1      12.270 -15.447  18.191  1.00  0.00     0.179 C 
ATOM     22  O   UNL     1      10.125 -14.292  17.899  1.00  0.00    -0.362 OA
ATOM     23  C   UNL     1      11.724 -16.725  17.527  1.00  0.00     0.177 C 
ATOM     24  C   UNL     1       9.562 -15.397  17.201  1.00  0.00     0.176 C 
ATOM     25  C   UNL     1      10.196 -16.745  17.635  1.00  0.00     0.177 C 
BRANCH  21  26
ATOM     26  O   UNL     1      13.666 -15.361  18.099  1.00  0.00    -0.387 OA
ATOM     27  H   UNL     1      14.039 -15.746  18.936  1.00  0.00     0.211 HD
ENDBRANCH  21  26
BRANCH  23  28
ATOM     28  O   UNL     1      12.112 -16.832  16.183  1.00  0.00    -0.387 OA
ATOM     29  H   UNL     1      12.374 -17.777  16.027  1.00  0.00     0.211 HD
ENDBRANCH  23  28
BRANCH  24  30
ATOM     30  C   UNL     1       9.486 -15.160  15.677  1.00  0.00     0.191 C 
BRANCH  30  31
ATOM     31  O   UNL     1       8.359 -15.797  15.142  1.00  0.00    -0.394 OA
ATOM     32  H   UNL     1       7.585 -15.216  15.359  1.00  0.00     0.210 HD
ENDBRANCH  30  31
ENDBRANCH  24  30
BRANCH  25  33
ATOM     33  O   UNL     1       9.680 -17.819  16.893  1.00  0.00    -0.388 OA
ATOM     34  H   UNL     1      10.455 -18.374  16.614  1.00  0.00     0.211 HD
ENDBRANCH  25  33
ENDBRANCH  11  20
BRANCH  10  35
ATOM     35  O   UNL     1      10.204 -11.631  17.154  1.00  0.00    -0.507 OA
ATOM     36  H   UNL     1      10.474 -11.265  18.056  1.00  0.00     0.293 HD
ENDBRANCH  10  35
TORSDOF 9
ENDMDL
MODEL 8
REMARK VINA RESULT:    -5.923      4.520      7.282
REMARK INTER + INTRA:          -8.795
REMARK INTER:                  -8.015
REMARK INTRA:                  -0.780
REMARK UNBOUND:                -0.795
REMARK SMILES O=c1c(-c2ccc(O)cc2)coc2c([C@H]3O[C@@H](CO)[C@@H](O)[C@@H](O)[C@H]3O)c(O)ccc12
REMARK SMILES IDX 3 1 11 2 12 3 13 4 30 5 2 6 1 7 29 8 28 9 26 10 14 11 4 12
REMARK SMILES IDX 5 13 6 14 7 15 10 16 9 17 8 18 15 20 24 21 16 22 22 23 17 24
REMARK SMILES IDX 20 25 25 26 23 28 18 30 19 31 21 33 27 35
REMARK H PARENT 8 19 25 27 23 29 19 32 21 34 27 36
REMARK Flexibility Score: inf
ROOT
ATOM      1  C   UNL     1      15.874 -15.182  11.670  1.00  0.00     0.065 A 
ATOM      2  C   UNL     1      14.539 -15.058  12.069  1.00  0.00     0.208 A 
ATOM      3  O   UNL     1      14.275 -15.144  13.408  1.00  0.00    -0.463 OA
ATOM      4  C   UNL     1      15.229 -15.353  14.391  1.00  0.00     0.147 A 
ATOM      5  C   UNL     1      16.573 -15.494  13.984  1.00  0.00     0.066 A 
ATOM      6  C   UNL     1      16.890 -15.382  12.620  1.00  0.00     0.200 A 
ATOM      7  O   UNL     1      18.095 -15.444  12.244  1.00  0.00    -0.288 OA
ATOM      8  C   UNL     1      17.570 -15.751  14.933  1.00  0.00     0.020 A 
ATOM      9  C   UNL     1      17.234 -15.926  16.265  1.00  0.00     0.047 A 
ATOM     10  C   UNL     1      15.912 -15.811  16.691  1.00  0.00     0.125 A 
ATOM     11  C   UNL     1      14.877 -15.442  15.776  1.00  0.00     0.069 A 
ENDROOT
BRANCH   1  12
ATOM     12  C   UNL     1      16.176 -15.118  10.219  1.00  0.00    -0.011 A 
ATOM     13  C   UNL     1      15.926 -16.224   9.387  1.00  0.00     0.013 A 
ATOM     14  C   UNL     1      16.198 -16.154   8.017  1.00  0.00     0.047 A 
ATOM     15  C   UNL     1      16.716 -14.978   7.462  1.00  0.00     0.115 A 
ATOM     16  C   UNL     1      16.680 -13.934   9.651  1.00  0.00     0.013 A 
ATOM     17  C   UNL     1      16.956 -13.869   8.282  1.00  0.00     0.047 A 
BRANCH  15  18
ATOM     18  O   UNL     1      16.988 -14.897   6.098  1.00  0.00    -0.508 OA
ATOM     19  H   UNL     1      16.251 -14.979   5.407  1.00  0.00     0.293 HD
ENDBRANCH  15  18
ENDBRANCH   1  12
BRANCH  11  20
ATOM     20  C   UNL     1      13.477 -15.163  16.376  1.00  0.00     0.188 C 
ATOM     21  C   UNL     1      12.201 -14.847  15.536  1.00  0.00     0.179 C 
ATOM     22  O   UNL     1      13.575 -14.274  17.486  1.00  0.00    -0.362 OA
ATOM     23  C   UNL     1      12.077 -13.368  15.130  1.00  0.00     0.177 C 
ATOM     24  C   UNL     1      13.583 -12.893  17.142  1.00  0.00     0.176 C 
ATOM     25  C   UNL     1      12.311 -12.479  16.356  1.00  0.00     0.177 C 
BRANCH  21  26
ATOM     26  O   UNL     1      12.021 -15.709  14.444  1.00  0.00    -0.387 OA
ATOM     27  H   UNL     1      12.908 -16.105  14.235  1.00  0.00     0.211 HD
ENDBRANCH  21  26
BRANCH  23  28
ATOM     28  O   UNL     1      12.972 -13.020  14.108  1.00  0.00    -0.387 OA
ATOM     29  H   UNL     1      13.611 -13.774  14.007  1.00  0.00     0.211 HD
ENDBRANCH  23  28
BRANCH  24  30
ATOM     30  C   UNL     1      14.923 -12.445  16.519  1.00  0.00     0.191 C 
BRANCH  30  31
ATOM     31  O   UNL     1      15.184 -11.107  16.839  1.00  0.00    -0.394 OA
ATOM     32  H   UNL     1      14.316 -10.632  16.772  1.00  0.00     0.210 HD
ENDBRANCH  30  31
ENDBRANCH  24  30
BRANCH  25  33
ATOM     33  O   UNL     1      12.362 -11.132  15.966  1.00  0.00    -0.388 OA
ATOM     34  H   UNL     1      11.778 -10.630  16.592  1.00  0.00     0.211 HD
ENDBRANCH  25  33
ENDBRANCH  11  20
BRANCH  10  35
ATOM     35  O   UNL     1      15.672 -16.079  18.044  1.00  0.00    -0.507 OA
ATOM     36  H   UNL     1      15.507 -17.000  18.424  1.00  0.00     0.293 HD
ENDBRANCH  10  35
TORSDOF 9
ENDMDL
MODEL 9
REMARK VINA RESULT:    -5.852      4.034      6.874
REMARK INTER + INTRA:          -8.699
REMARK INTER:                  -7.952
REMARK INTRA:                  -0.747
REMARK UNBOUND:                -0.795
REMARK SMILES O=c1c(-c2ccc(O)cc2)coc2c([C@H]3O[C@@H](CO)[C@@H](O)[C@@H](O)[C@H]3O)c(O)ccc12
REMARK SMILES IDX 3 1 11 2 12 3 13 4 30 5 2 6 1 7 29 8 28 9 26 10 14 11 4 12
REMARK SMILES IDX 5 13 6 14 7 15 10 16 9 17 8 18 15 20 24 21 16 22 22 23 17 24
REMARK SMILES IDX 20 25 25 26 23 28 18 30 19 31 21 33 27 35
REMARK H PARENT 8 19 25 27 23 29 19 32 21 34 27 36
REMARK Flexibility Score: inf
ROOT
ATOM      1  C   UNL     1      12.847 -15.775  17.334  1.00  0.00     0.065 A 
ATOM      2  C   UNL     1      12.687 -14.396  17.166  1.00  0.00     0.208 A 
ATOM      3  O   UNL     1      13.626 -13.743  16.416  1.00  0.00    -0.463 OA
ATOM      4  C   UNL     1      14.723 -14.347  15.822  1.00  0.00     0.147 A 
ATOM      5  C   UNL     1      14.890 -15.737  16.007  1.00  0.00     0.066 A 
ATOM      6  C   UNL     1      13.930 -16.448  16.746  1.00  0.00     0.200 A 
ATOM      7  O   UNL     1      14.030 -17.702  16.870  1.00  0.00    -0.288 OA
ATOM      8  C   UNL     1      16.005 -16.388  15.465  1.00  0.00     0.020 A 
ATOM      9  C   UNL     1      16.977 -15.662  14.797  1.00  0.00     0.047 A 
ATOM     10  C   UNL     1      16.847 -14.287  14.616  1.00  0.00     0.125 A 
ATOM     11  C   UNL     1      15.674 -13.598  15.057  1.00  0.00     0.069 A 
ENDROOT
BRANCH   1  12
ATOM     12  C   UNL     1      11.852 -16.494  18.167  1.00  0.00    -0.011 A 
ATOM     13  C   UNL     1      11.724 -16.206  19.538  1.00  0.00     0.013 A 
ATOM     14  C   UNL     1      10.774 -16.875  20.316  1.00  0.00     0.047 A 
ATOM     15  C   UNL     1       9.938 -17.835  19.733  1.00  0.00     0.115 A 
ATOM     16  C   UNL     1      10.995 -17.447  17.586  1.00  0.00     0.013 A 
ATOM     17  C   UNL     1      10.051 -18.118  18.368  1.00  0.00     0.047 A 
BRANCH  15  18
ATOM     18  O   UNL     1       8.987 -18.505  20.500  1.00  0.00    -0.508 OA
ATOM     19  H   UNL     1       7.996 -18.416  20.308  1.00  0.00     0.293 HD
ENDBRANCH  15  18
ENDBRANCH   1  12
BRANCH  11  20
ATOM     20  C   UNL     1      15.541 -12.110  14.652  1.00  0.00     0.188 C 
ATOM     21  C   UNL     1      14.343 -11.190  15.043  1.00  0.00     0.179 C 
ATOM     22  O   UNL     1      15.876 -11.931  13.278  1.00  0.00    -0.362 OA
ATOM     23  C   UNL     1      13.128 -11.323  14.107  1.00  0.00     0.177 C 
ATOM     24  C   UNL     1      14.806 -12.162  12.369  1.00  0.00     0.176 C 
ATOM     25  C   UNL     1      13.592 -11.237  12.650  1.00  0.00     0.177 C 
BRANCH  21  26
ATOM     26  O   UNL     1      13.980 -11.287  16.394  1.00  0.00    -0.387 OA
ATOM     27  H   UNL     1      12.993 -11.181  16.441  1.00  0.00     0.211 HD
ENDBRANCH  21  26
BRANCH  23  28
ATOM     28  O   UNL     1      12.424 -12.517  14.317  1.00  0.00    -0.387 OA
ATOM     29  H   UNL     1      12.458 -12.712  15.290  1.00  0.00     0.211 HD
ENDBRANCH  23  28
BRANCH  24  30
ATOM     30  C   UNL     1      14.474 -13.662  12.212  1.00  0.00     0.191 C 
BRANCH  30  31
ATOM     31  O   UNL     1      13.857 -13.896  10.976  1.00  0.00    -0.394 OA
ATOM     32  H   UNL     1      13.100 -13.257  10.920  1.00  0.00     0.210 HD
ENDBRANCH  30  31
ENDBRANCH  24  30
BRANCH  25  33
ATOM     33  O   UNL     1      12.519 -11.520  11.790  1.00  0.00    -0.388 OA
ATOM     34  H   UNL     1      12.911 -11.883  10.953  1.00  0.00     0.211 HD
ENDBRANCH  25  33
ENDBRANCH  11  20
BRANCH  10  35
ATOM     35  O   UNL     1      17.920 -13.639  13.993  1.00  0.00    -0.507 OA
ATOM     36  H   UNL     1      18.676 -13.184  14.483  1.00  0.00     0.293 HD
ENDBRANCH  10  35
TORSDOF 9
ENDMDL
