MODEL 1
REMARK VINA RESULT:    -5.106      0.000      0.000
REMARK INTER + INTRA:         -12.694
REMARK INTER:                  -9.882
REMARK INTRA:                  -2.812
REMARK UNBOUND:                -2.812
REMARK SMILES CCCCCCCCCCCCCCCCCC(=O)[O-]
REMARK SMILES IDX 10 1 11 2 12 3 13 4 14 5 15 6 16 7 17 8 18 9 19 10 20 11
REMARK SMILES IDX 9 12 8 13 7 14 6 15 5 16 4 17 3 18 2 19 1 20
REMARK H PARENT
REMARK Flexibility Score: inf
ROOT
ATOM      1  C   UNL     1     121.633 175.975 129.516  1.00  0.00     0.000 C 
ENDROOT
BRANCH   1   2
ATOM      2  C   UNL     1     120.303 175.999 130.300  1.00  0.00     0.000 C 
BRANCH   2   3
ATOM      3  C   UNL     1     119.133 176.529 129.451  1.00  0.00     0.000 C 
BRANCH   3   4
ATOM      4  C   UNL     1     119.305 176.234 127.952  1.00  0.00     0.000 C 
BRANCH   4   5
ATOM      5  C   UNL     1     118.909 177.426 127.067  1.00  0.00     0.000 C 
BRANCH   5   6
ATOM      6  C   UNL     1     119.746 178.666 127.400  1.00  0.00     0.000 C 
BRANCH   6   7
ATOM      7  C   UNL     1     119.405 179.827 126.458  1.00  0.00     0.006 C 
BRANCH   7   8
ATOM      8  C   UNL     1     120.494 180.014 125.397  1.00  0.00     0.053 C 
BRANCH   8   9
ATOM      9  C   UNL     1     120.054 179.434 124.090  1.00  0.00     0.041 C 
ATOM     10  O   UNL     1     120.876 179.311 123.143  1.00  0.00    -0.550 OA
ATOM     11  O   UNL     1     118.724 179.074 123.899  1.00  0.00    -0.550 OA
ENDBRANCH   8   9
ENDBRANCH   7   8
ENDBRANCH   6   7
ENDBRANCH   5   6
ENDBRANCH   4   5
ENDBRANCH   3   4
ENDBRANCH   2   3
ENDBRANCH   1   2
BRANCH   1  12
ATOM     12  C   UNL     1     122.714 176.912 130.091  1.00  0.00     0.000 C 
BRANCH  12  13
ATOM     13  C   UNL     1     122.323 178.398 130.144  1.00  0.00    -0.000 C 
BRANCH  13  14
ATOM     14  C   UNL     1     123.349 179.311 129.455  1.00  0.00    -0.000 C 
BRANCH  14  15
ATOM     15  C   UNL     1     124.089 178.556 128.339  1.00  0.00    -0.000 C 
BRANCH  15  16
ATOM     16  C   UNL     1     123.441 178.762 126.957  1.00  0.00    -0.000 C 
BRANCH  16  17
ATOM     17  C   UNL     1     124.236 178.123 125.800  1.00  0.00    -0.000 C 
BRANCH  17  18
ATOM     18  C   UNL     1     123.363 177.249 124.871  1.00  0.00    -0.000 C 
BRANCH  18  19
ATOM     19  C   UNL     1     122.149 176.624 125.579  1.00  0.00    -0.003 C 
ATOM     20  C   UNL     1     122.267 175.109 125.738  1.00  0.00     0.004 C 
ENDBRANCH  18  19
ENDBRANCH  17  18
ENDBRANCH  16  17
ENDBRANCH  15  16
ENDBRANCH  14  15
ENDBRANCH  13  14
ENDBRANCH  12  13
ENDBRANCH   1  12
TORSDOF 16
ENDMDL
MODEL 2
REMARK VINA RESULT:    -5.039      1.649      3.482
REMARK INTER + INTRA:         -12.565
REMARK INTER:                  -9.579
REMARK INTRA:                  -2.986
REMARK UNBOUND:                -2.812
REMARK SMILES CCCCCCCCCCCCCCCCCC(=O)[O-]
REMARK SMILES IDX 10 1 11 2 12 3 13 4 14 5 15 6 16 7 17 8 18 9 19 10 20 11
REMARK SMILES IDX 9 12 8 13 7 14 6 15 5 16 4 17 3 18 2 19 1 20
REMARK H PARENT
REMARK Flexibility Score: inf
ROOT
ATOM      1  C   UNL     1     122.555 176.488 130.231  1.00  0.00     0.000 C 
ENDROOT
BRANCH   1   2
ATOM      2  C   UNL     1     122.886 177.582 129.192  1.00  0.00     0.000 C 
BRANCH   2   3
ATOM      3  C   UNL     1     121.866 178.734 129.212  1.00  0.00     0.000 C 
BRANCH   3   4
ATOM      4  C   UNL     1     121.313 179.063 127.816  1.00  0.00     0.000 C 
BRANCH   4   5
ATOM      5  C   UNL     1     122.405 179.078 126.736  1.00  0.00     0.000 C 
BRANCH   5   6
ATOM      6  C   UNL     1     121.808 178.855 125.342  1.00  0.00     0.000 C 
BRANCH   6   7
ATOM      7  C   UNL     1     120.614 179.787 125.101  1.00  0.00     0.006 C 
BRANCH   7   8
ATOM      8  C   UNL     1     119.613 179.159 124.125  1.00  0.00     0.053 C 
BRANCH   8   9
ATOM      9  C   UNL     1     118.258 179.070 124.752  1.00  0.00     0.041 C 
ATOM     10  O   UNL     1     118.126 178.587 125.909  1.00  0.00    -0.550 OA
ATOM     11  O   UNL     1     117.133 179.476 124.043  1.00  0.00    -0.550 OA
ENDBRANCH   8   9
ENDBRANCH   7   8
ENDBRANCH   6   7
ENDBRANCH   5   6
ENDBRANCH   4   5
ENDBRANCH   3   4
ENDBRANCH   2   3
ENDBRANCH   1   2
BRANCH   1  12
ATOM     12  C   UNL     1     121.245 176.736 131.005  1.00  0.00     0.000 C 
BRANCH  12  13
ATOM     13  C   UNL     1     120.195 175.620 130.880  1.00  0.00    -0.000 C 
BRANCH  13  14
ATOM     14  C   UNL     1     118.839 176.131 130.370  1.00  0.00    -0.000 C 
BRANCH  14  15
ATOM     15  C   UNL     1     118.897 176.425 128.862  1.00  0.00    -0.000 C 
BRANCH  15  16
ATOM     16  C   UNL     1     119.619 175.317 128.072  1.00  0.00    -0.000 C 
BRANCH  16  17
ATOM     17  C   UNL     1     120.227 175.803 126.741  1.00  0.00    -0.000 C 
BRANCH  17  18
ATOM     18  C   UNL     1     121.653 175.262 126.488  1.00  0.00    -0.000 C 
BRANCH  18  19
ATOM     19  C   UNL     1     122.053 174.120 127.439  1.00  0.00    -0.003 C 
ATOM     20  C   UNL     1     122.972 173.093 126.783  1.00  0.00     0.004 C 
ENDBRANCH  18  19
ENDBRANCH  17  18
ENDBRANCH  16  17
ENDBRANCH  15  16
ENDBRANCH  14  15
ENDBRANCH  13  14
ENDBRANCH  12  13
ENDBRANCH   1  12
TORSDOF 16
ENDMDL
MODEL 3
REMARK VINA RESULT:    -5.010      3.014      4.205
REMARK INTER + INTRA:         -12.509
REMARK INTER:                  -9.956
REMARK INTRA:                  -2.553
REMARK UNBOUND:                -2.812
REMARK SMILES CCCCCCCCCCCCCCCCCC(=O)[O-]
REMARK SMILES IDX 10 1 11 2 12 3 13 4 14 5 15 6 16 7 17 8 18 9 19 10 20 11
REMARK SMILES IDX 9 12 8 13 7 14 6 15 5 16 4 17 3 18 2 19 1 20
REMARK H PARENT
REMARK Flexibility Score: inf
ROOT
ATOM      1  C   UNL     1     121.516 176.424 130.375  1.00  0.00     0.000 C 
ENDROOT
BRANCH   1   2
ATOM      2  C   UNL     1     120.222 175.864 131.005  1.00  0.00     0.000 C 
BRANCH   2   3
ATOM      3  C   UNL     1     118.958 176.349 130.273  1.00  0.00     0.000 C 
BRANCH   3   4
ATOM      4  C   UNL     1     118.806 175.729 128.874  1.00  0.00     0.000 C 
BRANCH   4   5
ATOM      5  C   UNL     1     119.054 176.744 127.748  1.00  0.00     0.000 C 
BRANCH   5   6
ATOM      6  C   UNL     1     119.964 176.156 126.663  1.00  0.00     0.000 C 
BRANCH   6   7
ATOM      7  C   UNL     1     120.286 174.685 126.955  1.00  0.00     0.006 C 
BRANCH   7   8
ATOM      8  C   UNL     1     121.783 174.489 127.214  1.00  0.00     0.053 C 
BRANCH   8   9
ATOM      9  C   UNL     1     122.009 173.310 128.105  1.00  0.00     0.041 C 
ATOM     10  O   UNL     1     123.026 172.583 127.948  1.00  0.00    -0.550 OA
ATOM     11  O   UNL     1     121.072 172.982 129.080  1.00  0.00    -0.550 OA
ENDBRANCH   8   9
ENDBRANCH   7   8
ENDBRANCH   6   7
ENDBRANCH   5   6
ENDBRANCH   4   5
ENDBRANCH   3   4
ENDBRANCH   2   3
ENDBRANCH   1   2
BRANCH   1  12
ATOM     12  C   UNL     1     122.009 177.734 131.022  1.00  0.00     0.000 C 
BRANCH  12  13
ATOM     13  C   UNL     1     122.674 178.726 130.053  1.00  0.00    -0.000 C 
BRANCH  13  14
ATOM     14  C   UNL     1     121.868 178.929 128.760  1.00  0.00    -0.000 C 
BRANCH  14  15
ATOM     15  C   UNL     1     122.664 178.441 127.539  1.00  0.00    -0.000 C 
BRANCH  15  16
ATOM     16  C   UNL     1     122.361 179.261 126.271  1.00  0.00    -0.000 C 
BRANCH  16  17
ATOM     17  C   UNL     1     120.904 179.760 126.191  1.00  0.00    -0.000 C 
BRANCH  17  18
ATOM     18  C   UNL     1     120.185 179.337 124.890  1.00  0.00    -0.000 C 
BRANCH  18  19
ATOM     19  C   UNL     1     121.147 178.884 123.778  1.00  0.00    -0.003 C 
ATOM     20  C   UNL     1     120.751 179.407 122.399  1.00  0.00     0.004 C 
ENDBRANCH  18  19
ENDBRANCH  17  18
ENDBRANCH  16  17
ENDBRANCH  15  16
ENDBRANCH  14  15
ENDBRANCH  13  14
ENDBRANCH  12  13
ENDBRANCH   1  12
TORSDOF 16
ENDMDL
MODEL 4
REMARK VINA RESULT:    -5.006      1.840      4.662
REMARK INTER + INTRA:         -12.500
REMARK INTER:                 -10.257
REMARK INTRA:                  -2.243
REMARK UNBOUND:                -2.812
REMARK SMILES CCCCCCCCCCCCCCCCCC(=O)[O-]
REMARK SMILES IDX 10 1 11 2 12 3 13 4 14 5 15 6 16 7 17 8 18 9 19 10 20 11
REMARK SMILES IDX 9 12 8 13 7 14 6 15 5 16 4 17 3 18 2 19 1 20
REMARK H PARENT
REMARK Flexibility Score: inf
ROOT
ATOM      1  C   UNL     1     122.652 177.356 129.587  1.00  0.00     0.000 C 
ENDROOT
BRANCH   1   2
ATOM      2  C   UNL     1     122.988 178.862 129.663  1.00  0.00     0.000 C 
BRANCH   2   3
ATOM      3  C   UNL     1     123.855 179.328 128.480  1.00  0.00     0.000 C 
BRANCH   3   4
ATOM      4  C   UNL     1     123.119 179.242 127.133  1.00  0.00     0.000 C 
BRANCH   4   5
ATOM      5  C   UNL     1     123.810 178.294 126.142  1.00  0.00     0.000 C 
BRANCH   5   6
ATOM      6  C   UNL     1     122.797 177.360 125.470  1.00  0.00     0.000 C 
BRANCH   6   7
ATOM      7  C   UNL     1     123.494 176.407 124.491  1.00  0.00     0.006 C 
BRANCH   7   8
ATOM      8  C   UNL     1     124.765 177.040 123.916  1.00  0.00     0.053 C 
BRANCH   8   9
ATOM      9  C   UNL     1     124.685 177.109 122.424  1.00  0.00     0.041 C 
ATOM     10  O   UNL     1     123.608 177.446 121.863  1.00  0.00    -0.550 OA
ATOM     11  O   UNL     1     125.785 176.754 121.649  1.00  0.00    -0.550 OA
ENDBRANCH   8   9
ENDBRANCH   7   8
ENDBRANCH   6   7
ENDBRANCH   5   6
ENDBRANCH   4   5
ENDBRANCH   3   4
ENDBRANCH   2   3
ENDBRANCH   1   2
BRANCH   1  12
ATOM     12  C   UNL     1     121.472 176.933 130.484  1.00  0.00     0.000 C 
BRANCH  12  13
ATOM     13  C   UNL     1     120.183 176.566 129.731  1.00  0.00    -0.000 C 
BRANCH  13  14
ATOM     14  C   UNL     1     120.307 176.748 128.211  1.00  0.00    -0.000 C 
BRANCH  14  15
ATOM     15  C   UNL     1     119.268 177.756 127.694  1.00  0.00    -0.000 C 
BRANCH  15  16
ATOM     16  C   UNL     1     119.888 179.129 127.371  1.00  0.00    -0.000 C 
BRANCH  16  17
ATOM     17  C   UNL     1     119.201 179.856 126.198  1.00  0.00    -0.000 C 
BRANCH  17  18
ATOM     18  C   UNL     1     120.150 180.125 125.007  1.00  0.00    -0.000 C 
BRANCH  18  19
ATOM     19  C   UNL     1     120.020 179.091 123.875  1.00  0.00    -0.003 C 
ATOM     20  C   UNL     1     120.791 179.486 122.617  1.00  0.00     0.004 C 
ENDBRANCH  18  19
ENDBRANCH  17  18
ENDBRANCH  16  17
ENDBRANCH  15  16
ENDBRANCH  14  15
ENDBRANCH  13  14
ENDBRANCH  12  13
ENDBRANCH   1  12
TORSDOF 16
ENDMDL
MODEL 5
REMARK VINA RESULT:    -4.987      1.610      4.332
REMARK INTER + INTRA:         -12.464
REMARK INTER:                 -10.051
REMARK INTRA:                  -2.413
REMARK UNBOUND:                -2.812
REMARK SMILES CCCCCCCCCCCCCCCCCC(=O)[O-]
REMARK SMILES IDX 10 1 11 2 12 3 13 4 14 5 15 6 16 7 17 8 18 9 19 10 20 11
REMARK SMILES IDX 9 12 8 13 7 14 6 15 5 16 4 17 3 18 2 19 1 20
REMARK H PARENT
REMARK Flexibility Score: inf
ROOT
ATOM      1  C   UNL     1     120.124 176.103 131.099  1.00  0.00     0.000 C 
ENDROOT
BRANCH   1   2
ATOM      2  C   UNL     1     121.532 176.363 130.520  1.00  0.00     0.000 C 
BRANCH   2   3
ATOM      3  C   UNL     1     122.177 177.634 131.100  1.00  0.00     0.000 C 
BRANCH   3   4
ATOM      4  C   UNL     1     122.130 178.823 130.127  1.00  0.00     0.000 C 
BRANCH   4   5
ATOM      5  C   UNL     1     123.528 179.349 129.770  1.00  0.00     0.000 C 
BRANCH   5   6
ATOM      6  C   UNL     1     123.992 178.812 128.411  1.00  0.00     0.000 C 
BRANCH   6   7
ATOM      7  C   UNL     1     122.800 178.598 127.470  1.00  0.00     0.006 C 
BRANCH   7   8
ATOM      8  C   UNL     1     122.762 177.158 126.948  1.00  0.00     0.053 C 
BRANCH   8   9
ATOM      9  C   UNL     1     122.968 177.133 125.467  1.00  0.00     0.041 C 
ATOM     10  O   UNL     1     122.274 176.370 124.744  1.00  0.00    -0.550 OA
ATOM     11  O   UNL     1     123.961 177.917 124.887  1.00  0.00    -0.550 OA
ENDBRANCH   8   9
ENDBRANCH   7   8
ENDBRANCH   6   7
ENDBRANCH   5   6
ENDBRANCH   4   5
ENDBRANCH   3   4
ENDBRANCH   2   3
ENDBRANCH   1   2
BRANCH   1  12
ATOM     12  C   UNL     1     119.001 176.115 130.043  1.00  0.00     0.000 C 
BRANCH  12  13
ATOM     13  C   UNL     1     119.483 176.102 128.583  1.00  0.00    -0.000 C 
BRANCH  13  14
ATOM     14  C   UNL     1     119.256 177.442 127.867  1.00  0.00    -0.000 C 
BRANCH  14  15
ATOM     15  C   UNL     1     118.782 177.216 126.422  1.00  0.00    -0.000 C 
BRANCH  15  16
ATOM     16  C   UNL     1     118.426 178.532 125.705  1.00  0.00    -0.000 C 
BRANCH  16  17
ATOM     17  C   UNL     1     119.430 179.672 125.971  1.00  0.00    -0.000 C 
BRANCH  17  18
ATOM     18  C   UNL     1     120.499 179.814 124.863  1.00  0.00    -0.000 C 
BRANCH  18  19
ATOM     19  C   UNL     1     120.023 179.320 123.486  1.00  0.00    -0.003 C 
ATOM     20  C   UNL     1     121.176 178.997 122.538  1.00  0.00     0.004 C 
ENDBRANCH  18  19
ENDBRANCH  17  18
ENDBRANCH  16  17
ENDBRANCH  15  16
ENDBRANCH  14  15
ENDBRANCH  13  14
ENDBRANCH  12  13
ENDBRANCH   1  12
TORSDOF 16
ENDMDL
MODEL 6
REMARK VINA RESULT:    -4.894      2.809      5.491
REMARK INTER + INTRA:         -12.284
REMARK INTER:                  -9.393
REMARK INTRA:                  -2.891
REMARK UNBOUND:                -2.812
REMARK SMILES CCCCCCCCCCCCCCCCCC(=O)[O-]
REMARK SMILES IDX 10 1 11 2 12 3 13 4 14 5 15 6 16 7 17 8 18 9 19 10 20 11
REMARK SMILES IDX 9 12 8 13 7 14 6 15 5 16 4 17 3 18 2 19 1 20
REMARK H PARENT
REMARK Flexibility Score: inf
ROOT
ATOM      1  C   UNL     1     119.568 178.292 125.616  1.00  0.00     0.000 C 
ENDROOT
BRANCH   1   2
ATOM      2  C   UNL     1     120.546 179.270 124.928  1.00  0.00     0.000 C 
BRANCH   2   3
ATOM      3  C   UNL     1     121.521 178.551 123.979  1.00  0.00     0.000 C 
BRANCH   3   4
ATOM      4  C   UNL     1     122.704 177.906 124.718  1.00  0.00     0.000 C 
BRANCH   4   5
ATOM      5  C   UNL     1     122.686 176.372 124.636  1.00  0.00     0.000 C 
BRANCH   5   6
ATOM      6  C   UNL     1     122.472 175.746 126.018  1.00  0.00     0.000 C 
BRANCH   6   7
ATOM      7  C   UNL     1     121.896 174.329 125.896  1.00  0.00     0.006 C 
BRANCH   7   8
ATOM      8  C   UNL     1     120.505 174.243 126.531  1.00  0.00     0.053 C 
BRANCH   8   9
ATOM      9  C   UNL     1     120.243 172.856 127.027  1.00  0.00     0.041 C 
ATOM     10  O   UNL     1     119.552 172.675 128.066  1.00  0.00    -0.550 OA
ATOM     11  O   UNL     1     120.801 171.763 126.372  1.00  0.00    -0.550 OA
ENDBRANCH   8   9
ENDBRANCH   7   8
ENDBRANCH   6   7
ENDBRANCH   5   6
ENDBRANCH   4   5
ENDBRANCH   3   4
ENDBRANCH   2   3
ENDBRANCH   1   2
BRANCH   1  12
ATOM     12  C   UNL     1     119.834 178.098 127.122  1.00  0.00     0.000 C 
BRANCH  12  13
ATOM     13  C   UNL     1     120.721 179.174 127.768  1.00  0.00    -0.000 C 
BRANCH  13  14
ATOM     14  C   UNL     1     122.043 178.610 128.313  1.00  0.00    -0.000 C 
BRANCH  14  15
ATOM     15  C   UNL     1     122.176 178.886 129.819  1.00  0.00    -0.000 C 
BRANCH  15  16
ATOM     16  C   UNL     1     122.017 177.611 130.669  1.00  0.00    -0.000 C 
BRANCH  16  17
ATOM     17  C   UNL     1     122.095 176.308 129.848  1.00  0.00    -0.000 C 
BRANCH  17  18
ATOM     18  C   UNL     1     120.821 175.439 129.962  1.00  0.00    -0.000 C 
BRANCH  18  19
ATOM     19  C   UNL     1     119.613 176.195 130.540  1.00  0.00    -0.003 C 
ATOM     20  C   UNL     1     118.319 175.924 129.775  1.00  0.00     0.004 C 
ENDBRANCH  18  19
ENDBRANCH  17  18
ENDBRANCH  16  17
ENDBRANCH  15  16
ENDBRANCH  14  15
ENDBRANCH  13  14
ENDBRANCH  12  13
ENDBRANCH   1  12
TORSDOF 16
ENDMDL
MODEL 7
REMARK VINA RESULT:    -4.857      1.458      3.388
REMARK INTER + INTRA:         -12.213
REMARK INTER:                  -9.610
REMARK INTRA:                  -2.603
REMARK UNBOUND:                -2.812
REMARK SMILES CCCCCCCCCCCCCCCCCC(=O)[O-]
REMARK SMILES IDX 10 1 11 2 12 3 13 4 14 5 15 6 16 7 17 8 18 9 19 10 20 11
REMARK SMILES IDX 9 12 8 13 7 14 6 15 5 16 4 17 3 18 2 19 1 20
REMARK H PARENT
REMARK Flexibility Score: inf
ROOT
ATOM      1  C   UNL     1     123.652 178.839 128.330  1.00  0.00     0.000 C 
ENDROOT
BRANCH   1   2
ATOM      2  C   UNL     1     123.327 179.380 126.920  1.00  0.00     0.000 C 
BRANCH   2   3
ATOM      3  C   UNL     1     122.940 178.259 125.938  1.00  0.00     0.000 C 
BRANCH   3   4
ATOM      4  C   UNL     1     121.535 178.448 125.343  1.00  0.00     0.000 C 
BRANCH   4   5
ATOM      5  C   UNL     1     120.883 179.769 125.777  1.00  0.00     0.000 C 
BRANCH   5   6
ATOM      6  C   UNL     1     119.617 179.517 126.604  1.00  0.00     0.000 C 
BRANCH   6   7
ATOM      7  C   UNL     1     118.630 178.628 125.839  1.00  0.00     0.006 C 
BRANCH   7   8
ATOM      8  C   UNL     1     117.751 179.461 124.901  1.00  0.00     0.053 C 
BRANCH   8   9
ATOM      9  C   UNL     1     117.848 178.946 123.500  1.00  0.00     0.041 C 
ATOM     10  O   UNL     1     118.958 178.935 122.904  1.00  0.00    -0.550 OA
ATOM     11  O   UNL     1     116.703 178.521 122.832  1.00  0.00    -0.550 OA
ENDBRANCH   8   9
ENDBRANCH   7   8
ENDBRANCH   6   7
ENDBRANCH   5   6
ENDBRANCH   4   5
ENDBRANCH   3   4
ENDBRANCH   2   3
ENDBRANCH   1   2
BRANCH   1  12
ATOM     12  C   UNL     1     122.418 178.693 129.243  1.00  0.00     0.000 C 
BRANCH  12  13
ATOM     13  C   UNL     1     122.528 177.592 130.311  1.00  0.00    -0.000 C 
BRANCH  13  14
ATOM     14  C   UNL     1     121.277 176.702 130.382  1.00  0.00    -0.000 C 
BRANCH  14  15
ATOM     15  C   UNL     1     120.269 177.089 129.288  1.00  0.00    -0.000 C 
BRANCH  15  16
ATOM     16  C   UNL     1     120.348 176.166 128.058  1.00  0.00    -0.000 C 
BRANCH  16  17
ATOM     17  C   UNL     1     121.237 174.924 128.274  1.00  0.00    -0.000 C 
BRANCH  17  18
ATOM     18  C   UNL     1     122.320 174.754 127.184  1.00  0.00    -0.000 C 
BRANCH  18  19
ATOM     19  C   UNL     1     121.743 174.548 125.773  1.00  0.00    -0.003 C 
ATOM     20  C   UNL     1     120.778 173.367 125.690  1.00  0.00     0.004 C 
ENDBRANCH  18  19
ENDBRANCH  17  18
ENDBRANCH  16  17
ENDBRANCH  15  16
ENDBRANCH  14  15
ENDBRANCH  13  14
ENDBRANCH  12  13
ENDBRANCH   1  12
TORSDOF 16
ENDMDL
MODEL 8
REMARK VINA RESULT:    -4.832      2.659      5.101
REMARK INTER + INTRA:         -12.164
REMARK INTER:                  -9.523
REMARK INTRA:                  -2.641
REMARK UNBOUND:                -2.812
REMARK SMILES CCCCCCCCCCCCCCCCCC(=O)[O-]
REMARK SMILES IDX 10 1 11 2 12 3 13 4 14 5 15 6 16 7 17 8 18 9 19 10 20 11
REMARK SMILES IDX 9 12 8 13 7 14 6 15 5 16 4 17 3 18 2 19 1 20
REMARK H PARENT
REMARK Flexibility Score: inf
ROOT
ATOM      1  C   UNL     1     123.404 177.272 130.189  1.00  0.00     0.000 C 
ENDROOT
BRANCH   1   2
ATOM      2  C   UNL     1     123.755 178.554 129.403  1.00  0.00     0.000 C 
BRANCH   2   3
ATOM      3  C   UNL     1     122.659 178.940 128.394  1.00  0.00     0.000 C 
BRANCH   3   4
ATOM      4  C   UNL     1     123.213 179.197 126.983  1.00  0.00     0.000 C 
BRANCH   4   5
ATOM      5  C   UNL     1     123.567 177.900 126.241  1.00  0.00     0.000 C 
BRANCH   5   6
ATOM      6  C   UNL     1     122.548 176.795 126.541  1.00  0.00     0.000 C 
BRANCH   6   7
ATOM      7  C   UNL     1     122.692 175.631 125.552  1.00  0.00     0.006 C 
BRANCH   7   8
ATOM      8  C   UNL     1     121.912 174.403 126.029  1.00  0.00     0.053 C 
BRANCH   8   9
ATOM      9  C   UNL     1     122.794 173.504 126.836  1.00  0.00     0.041 C 
ATOM     10  O   UNL     1     123.657 172.786 126.265  1.00  0.00    -0.550 OA
ATOM     11  O   UNL     1     122.633 173.422 128.215  1.00  0.00    -0.550 OA
ENDBRANCH   8   9
ENDBRANCH   7   8
ENDBRANCH   6   7
ENDBRANCH   5   6
ENDBRANCH   4   5
ENDBRANCH   3   4
ENDBRANCH   2   3
ENDBRANCH   1   2
BRANCH   1  12
ATOM     12  C   UNL     1     121.941 177.215 130.670  1.00  0.00     0.000 C 
BRANCH  12  13
ATOM     13  C   UNL     1     121.127 176.025 130.135  1.00  0.00    -0.000 C 
BRANCH  13  14
ATOM     14  C   UNL     1     119.709 175.959 130.722  1.00  0.00    -0.000 C 
BRANCH  14  15
ATOM     15  C   UNL     1     118.662 176.346 129.665  1.00  0.00    -0.000 C 
BRANCH  15  16
ATOM     16  C   UNL     1     119.266 176.472 128.254  1.00  0.00    -0.000 C 
BRANCH  16  17
ATOM     17  C   UNL     1     119.238 177.910 127.697  1.00  0.00    -0.000 C 
BRANCH  17  18
ATOM     18  C   UNL     1     119.132 177.964 126.155  1.00  0.00    -0.000 C 
BRANCH  18  19
ATOM     19  C   UNL     1     119.639 179.286 125.552  1.00  0.00    -0.003 C 
ATOM     20  C   UNL     1     120.524 179.079 124.325  1.00  0.00     0.004 C 
ENDBRANCH  18  19
ENDBRANCH  17  18
ENDBRANCH  16  17
ENDBRANCH  15  16
ENDBRANCH  14  15
ENDBRANCH  13  14
ENDBRANCH  12  13
ENDBRANCH   1  12
TORSDOF 16
ENDMDL
