MODEL 1
REMARK VINA RESULT:    -7.168      0.000      0.000
REMARK INTER + INTRA:          -8.947
REMARK INTER:                  -8.634
REMARK INTRA:                  -0.313
REMARK UNBOUND:                -0.313
REMARK SMILES Oc1cc(O)c2cc(O)c(-c3ccc(O)c(O)c3)[o+]c2c1
REMARK SMILES IDX 10 1 19 2 20 3 21 4 2 5 3 6 4 7 6 8 7 9 8 10 11 11 12 12
REMARK SMILES IDX 13 13 14 14 18 15 16 16 15 17 17 19 9 21 1 23 5 25
REMARK H PARENT 15 18 17 20 9 22 1 24 5 26
REMARK Flexibility Score: inf
ROOT
ATOM      1  C   UNL     1      37.311  29.009   8.998  1.00  0.00     0.402 A 
ATOM      2  O   UNL     1      37.469  30.288   8.663  1.00  0.00    -0.202 OA
ATOM      3  C   UNL     1      36.696  30.912   7.782  1.00  0.00     0.368 A 
ATOM      4  C   UNL     1      36.939  32.259   7.498  1.00  0.00     0.162 A 
ATOM      5  C   UNL     1      36.141  32.940   6.578  1.00  0.00     0.128 A 
ATOM      6  C   UNL     1      35.091  32.273   5.938  1.00  0.00     0.093 A 
ATOM      7  C   UNL     1      34.827  30.924   6.204  1.00  0.00     0.136 A 
ATOM      8  C   UNL     1      35.637  30.227   7.137  1.00  0.00     0.125 A 
ATOM      9  C   UNL     1      35.455  28.872   7.457  1.00  0.00     0.078 A 
ATOM     10  C   UNL     1      36.298  28.250   8.383  1.00  0.00     0.223 A 
ENDROOT
BRANCH   1  11
ATOM     11  C   UNL     1      38.232  28.429  10.002  1.00  0.00     0.087 A 
ATOM     12  C   UNL     1      39.312  27.613   9.622  1.00  0.00     0.022 A 
ATOM     13  C   UNL     1      40.153  27.059  10.589  1.00  0.00     0.051 A 
ATOM     14  C   UNL     1      39.920  27.299  11.949  1.00  0.00     0.157 A 
ATOM     15  C   UNL     1      37.991  28.650  11.370  1.00  0.00     0.068 A 
ATOM     16  C   UNL     1      38.835  28.093  12.340  1.00  0.00     0.158 A 
BRANCH  14  17
ATOM     17  O   UNL     1      40.759  26.748  12.917  1.00  0.00    -0.504 OA
ATOM     18  H   UNL     1      40.907  25.748  12.983  1.00  0.00     0.293 HD
ENDBRANCH  14  17
BRANCH  16  19
ATOM     19  O   UNL     1      38.602  28.324  13.695  1.00  0.00    -0.504 OA
ATOM     20  H   UNL     1      39.361  28.516  14.338  1.00  0.00     0.293 HD
ENDBRANCH  16  19
ENDBRANCH   1  11
BRANCH  10  21
ATOM     21  O   UNL     1      36.149  26.893   8.664  1.00  0.00    -0.500 OA
ATOM     22  H   UNL     1      36.453  26.177   8.013  1.00  0.00     0.294 HD
ENDBRANCH  10  21
BRANCH   5  23
ATOM     23  O   UNL     1      36.399  34.282   6.309  1.00  0.00    -0.507 OA
ATOM     24  H   UNL     1      35.694  34.997   6.450  1.00  0.00     0.293 HD
ENDBRANCH   5  23
BRANCH   7  25
ATOM     25  O   UNL     1      33.759  30.331   5.526  1.00  0.00    -0.507 OA
ATOM     26  H   UNL     1      33.591  30.422   4.534  1.00  0.00     0.293 HD
ENDBRANCH   7  25
TORSDOF 6
ENDMDL
MODEL 2
REMARK VINA RESULT:    -7.149      1.498      6.919
REMARK INTER + INTRA:          -8.925
REMARK INTER:                  -8.667
REMARK INTRA:                  -0.257
REMARK UNBOUND:                -0.313
REMARK SMILES Oc1cc(O)c2cc(O)c(-c3ccc(O)c(O)c3)[o+]c2c1
REMARK SMILES IDX 10 1 19 2 20 3 21 4 2 5 3 6 4 7 6 8 7 9 8 10 11 11 12 12
REMARK SMILES IDX 13 13 14 14 18 15 16 16 15 17 17 19 9 21 1 23 5 25
REMARK H PARENT 15 18 17 20 9 22 1 24 5 26
REMARK Flexibility Score: inf
ROOT
ATOM      1  C   UNL     1      37.689  29.053   9.045  1.00  0.00     0.402 A 
ATOM      2  O   UNL     1      38.256  29.314  10.220  1.00  0.00    -0.202 OA
ATOM      3  C   UNL     1      38.858  28.391  10.961  1.00  0.00     0.368 A 
ATOM      4  C   UNL     1      39.429  28.764  12.181  1.00  0.00     0.162 A 
ATOM      5  C   UNL     1      40.070  27.815  12.979  1.00  0.00     0.128 A 
ATOM      6  C   UNL     1      40.143  26.484  12.556  1.00  0.00     0.093 A 
ATOM      7  C   UNL     1      39.579  26.084  11.337  1.00  0.00     0.136 A 
ATOM      8  C   UNL     1      38.925  27.045  10.525  1.00  0.00     0.125 A 
ATOM      9  C   UNL     1      38.320  26.734   9.296  1.00  0.00     0.078 A 
ATOM     10  C   UNL     1      37.688  27.735   8.552  1.00  0.00     0.223 A 
ENDROOT
BRANCH   1  11
ATOM     11  C   UNL     1      37.057  30.171   8.308  1.00  0.00     0.087 A 
ATOM     12  C   UNL     1      35.660  30.272   8.184  1.00  0.00     0.022 A 
ATOM     13  C   UNL     1      35.089  31.324   7.464  1.00  0.00     0.051 A 
ATOM     14  C   UNL     1      35.904  32.281   6.846  1.00  0.00     0.157 A 
ATOM     15  C   UNL     1      37.870  31.123   7.668  1.00  0.00     0.068 A 
ATOM     16  C   UNL     1      37.296  32.178   6.945  1.00  0.00     0.158 A 
BRANCH  14  17
ATOM     17  O   UNL     1      35.337  33.333   6.128  1.00  0.00    -0.504 OA
ATOM     18  H   UNL     1      34.496  33.206   5.576  1.00  0.00     0.293 HD
ENDBRANCH  14  17
BRANCH  16  19
ATOM     19  O   UNL     1      38.105  33.128   6.323  1.00  0.00    -0.504 OA
ATOM     20  H   UNL     1      37.716  33.972   5.918  1.00  0.00     0.293 HD
ENDBRANCH  16  19
ENDBRANCH   1  11
BRANCH  10  21
ATOM     21  O   UNL     1      37.044  27.417   7.356  1.00  0.00    -0.500 OA
ATOM     22  H   UNL     1      36.669  28.135   6.746  1.00  0.00     0.294 HD
ENDBRANCH  10  21
BRANCH   5  23
ATOM     23  O   UNL     1      40.632  28.207  14.192  1.00  0.00    -0.507 OA
ATOM     24  H   UNL     1      41.636  28.199  14.337  1.00  0.00     0.293 HD
ENDBRANCH   5  23
BRANCH   7  25
ATOM     25  O   UNL     1      39.697  24.737  10.984  1.00  0.00    -0.507 OA
ATOM     26  H   UNL     1      38.998  24.034  11.175  1.00  0.00     0.293 HD
ENDBRANCH   7  25
TORSDOF 6
ENDMDL
MODEL 3
REMARK VINA RESULT:    -7.008      4.311      5.555
REMARK INTER + INTRA:          -8.755
REMARK INTER:                  -8.506
REMARK INTRA:                  -0.249
REMARK UNBOUND:                -0.313
REMARK SMILES Oc1cc(O)c2cc(O)c(-c3ccc(O)c(O)c3)[o+]c2c1
REMARK SMILES IDX 10 1 19 2 20 3 21 4 2 5 3 6 4 7 6 8 7 9 8 10 11 11 12 12
REMARK SMILES IDX 13 13 14 14 18 15 16 16 15 17 17 19 9 21 1 23 5 25
REMARK H PARENT 15 18 17 20 9 22 1 24 5 26
REMARK Flexibility Score: inf
ROOT
ATOM      1  C   UNL     1      39.820  28.670   6.734  1.00  0.00     0.402 A 
ATOM      2  O   UNL     1      38.907  29.460   6.175  1.00  0.00    -0.202 OA
ATOM      3  C   UNL     1      37.806  29.860   6.801  1.00  0.00     0.368 A 
ATOM      4  C   UNL     1      36.907  30.694   6.130  1.00  0.00     0.162 A 
ATOM      5  C   UNL     1      35.743  31.132   6.765  1.00  0.00     0.128 A 
ATOM      6  C   UNL     1      35.476  30.736   8.080  1.00  0.00     0.093 A 
ATOM      7  C   UNL     1      36.361  29.901   8.774  1.00  0.00     0.136 A 
ATOM      8  C   UNL     1      37.543  29.452   8.131  1.00  0.00     0.125 A 
ATOM      9  C   UNL     1      38.480  28.603   8.744  1.00  0.00     0.078 A 
ATOM     10  C   UNL     1      39.621  28.198   8.045  1.00  0.00     0.223 A 
ENDROOT
BRANCH   1  11
ATOM     11  C   UNL     1      41.011  28.301   5.935  1.00  0.00     0.087 A 
ATOM     12  C   UNL     1      42.298  28.743   6.291  1.00  0.00     0.022 A 
ATOM     13  C   UNL     1      43.403  28.401   5.509  1.00  0.00     0.051 A 
ATOM     14  C   UNL     1      43.239  27.626   4.354  1.00  0.00     0.157 A 
ATOM     15  C   UNL     1      40.850  27.541   4.764  1.00  0.00     0.068 A 
ATOM     16  C   UNL     1      41.960  27.198   3.979  1.00  0.00     0.158 A 
BRANCH  14  17
ATOM     17  O   UNL     1      44.340  27.282   3.572  1.00  0.00    -0.504 OA
ATOM     18  H   UNL     1      44.231  26.844   2.664  1.00  0.00     0.293 HD
ENDBRANCH  14  17
BRANCH  16  19
ATOM     19  O   UNL     1      41.798  26.433   2.825  1.00  0.00    -0.504 OA
ATOM     20  H   UNL     1      41.793  26.856   1.905  1.00  0.00     0.293 HD
ENDBRANCH  16  19
ENDBRANCH   1  11
BRANCH  10  21
ATOM     21  O   UNL     1      40.527  27.316   8.634  1.00  0.00    -0.500 OA
ATOM     22  H   UNL     1      41.525  27.395   8.479  1.00  0.00     0.294 HD
ENDBRANCH  10  21
BRANCH   5  23
ATOM     23  O   UNL     1      34.860  31.962   6.079  1.00  0.00    -0.507 OA
ATOM     24  H   UNL     1      34.532  32.834   6.481  1.00  0.00     0.293 HD
ENDBRANCH   5  23
BRANCH   7  25
ATOM     25  O   UNL     1      36.024  29.554  10.085  1.00  0.00    -0.507 OA
ATOM     26  H   UNL     1      36.633  29.673  10.881  1.00  0.00     0.293 HD
ENDBRANCH   7  25
TORSDOF 6
ENDMDL
MODEL 4
REMARK VINA RESULT:    -6.949      4.130      6.716
REMARK INTER + INTRA:          -8.684
REMARK INTER:                  -8.654
REMARK INTRA:                  -0.030
REMARK UNBOUND:                -0.313
REMARK SMILES Oc1cc(O)c2cc(O)c(-c3ccc(O)c(O)c3)[o+]c2c1
REMARK SMILES IDX 10 1 19 2 20 3 21 4 2 5 3 6 4 7 6 8 7 9 8 10 11 11 12 12
REMARK SMILES IDX 13 13 14 14 18 15 16 16 15 17 17 19 9 21 1 23 5 25
REMARK H PARENT 15 18 17 20 9 22 1 24 5 26
REMARK Flexibility Score: inf
ROOT
ATOM      1  C   UNL     1      40.273  28.286   7.499  1.00  0.00     0.402 A 
ATOM      2  O   UNL     1      40.523  27.852   8.732  1.00  0.00    -0.202 OA
ATOM      3  C   UNL     1      39.676  28.002   9.743  1.00  0.00     0.368 A 
ATOM      4  C   UNL     1      40.026  27.509  11.003  1.00  0.00     0.162 A 
ATOM      5  C   UNL     1      39.154  27.651  12.083  1.00  0.00     0.128 A 
ATOM      6  C   UNL     1      37.923  28.289  11.905  1.00  0.00     0.093 A 
ATOM      7  C   UNL     1      37.547  28.792  10.653  1.00  0.00     0.136 A 
ATOM      8  C   UNL     1      38.432  28.652   9.553  1.00  0.00     0.125 A 
ATOM      9  C   UNL     1      38.146  29.137   8.266  1.00  0.00     0.078 A 
ATOM     10  C   UNL     1      39.070  28.966   7.231  1.00  0.00     0.223 A 
ENDROOT
BRANCH   1  11
ATOM     11  C   UNL     1      41.294  28.049   6.452  1.00  0.00     0.087 A 
ATOM     12  C   UNL     1      42.634  28.435   6.634  1.00  0.00     0.022 A 
ATOM     13  C   UNL     1      43.574  28.221   5.623  1.00  0.00     0.051 A 
ATOM     14  C   UNL     1      43.188  27.632   4.412  1.00  0.00     0.157 A 
ATOM     15  C   UNL     1      40.909  27.477   5.227  1.00  0.00     0.068 A 
ATOM     16  C   UNL     1      41.852  27.263   4.213  1.00  0.00     0.158 A 
BRANCH  14  17
ATOM     17  O   UNL     1      44.124  27.416   3.403  1.00  0.00    -0.504 OA
ATOM     18  H   UNL     1      44.340  28.130   2.717  1.00  0.00     0.293 HD
ENDBRANCH  14  17
BRANCH  16  19
ATOM     19  O   UNL     1      41.469  26.683   3.005  1.00  0.00    -0.504 OA
ATOM     20  H   UNL     1      40.796  27.129   2.393  1.00  0.00     0.293 HD
ENDBRANCH  16  19
ENDBRANCH   1  11
BRANCH  10  21
ATOM     21  O   UNL     1      38.809  29.491   5.966  1.00  0.00    -0.500 OA
ATOM     22  H   UNL     1      38.392  30.406   5.844  1.00  0.00     0.294 HD
ENDBRANCH  10  21
BRANCH   5  23
ATOM     23  O   UNL     1      39.522  27.152  13.331  1.00  0.00    -0.507 OA
ATOM     24  H   UNL     1      39.515  27.737  14.159  1.00  0.00     0.293 HD
ENDBRANCH   5  23
BRANCH   7  25
ATOM     25  O   UNL     1      36.300  29.413  10.557  1.00  0.00    -0.507 OA
ATOM     26  H   UNL     1      36.028  30.036   9.810  1.00  0.00     0.293 HD
ENDBRANCH   7  25
TORSDOF 6
ENDMDL
MODEL 5
REMARK VINA RESULT:    -6.894     12.787     15.170
REMARK INTER + INTRA:          -8.618
REMARK INTER:                  -8.368
REMARK INTRA:                  -0.250
REMARK UNBOUND:                -0.313
REMARK SMILES Oc1cc(O)c2cc(O)c(-c3ccc(O)c(O)c3)[o+]c2c1
REMARK SMILES IDX 10 1 19 2 20 3 21 4 2 5 3 6 4 7 6 8 7 9 8 10 11 11 12 12
REMARK SMILES IDX 13 13 14 14 18 15 16 16 15 17 17 19 9 21 1 23 5 25
REMARK H PARENT 15 18 17 20 9 22 1 24 5 26
REMARK Flexibility Score: inf
ROOT
ATOM      1  C   UNL     1      46.853  38.608   8.858  1.00  0.00     0.402 A 
ATOM      2  O   UNL     1      47.899  37.790   8.947  1.00  0.00    -0.202 OA
ATOM      3  C   UNL     1      48.418  37.393  10.103  1.00  0.00     0.368 A 
ATOM      4  C   UNL     1      49.517  36.529  10.094  1.00  0.00     0.162 A 
ATOM      5  C   UNL     1      50.081  36.093  11.294  1.00  0.00     0.128 A 
ATOM      6  C   UNL     1      49.544  36.522  12.512  1.00  0.00     0.093 A 
ATOM      7  C   UNL     1      48.443  37.387  12.549  1.00  0.00     0.136 A 
ATOM      8  C   UNL     1      47.869  37.834  11.331  1.00  0.00     0.125 A 
ATOM      9  C   UNL     1      46.774  38.712  11.271  1.00  0.00     0.078 A 
ATOM     10  C   UNL     1      46.264  39.113  10.032  1.00  0.00     0.223 A 
ENDROOT
BRANCH   1  11
ATOM     11  C   UNL     1      46.360  38.971   7.509  1.00  0.00     0.087 A 
ATOM     12  C   UNL     1      45.096  38.554   7.054  1.00  0.00     0.022 A 
ATOM     13  C   UNL     1      44.662  38.889   5.769  1.00  0.00     0.051 A 
ATOM     14  C   UNL     1      45.488  39.632   4.916  1.00  0.00     0.157 A 
ATOM     15  C   UNL     1      47.192  39.698   6.641  1.00  0.00     0.068 A 
ATOM     16  C   UNL     1      46.757  40.033   5.351  1.00  0.00     0.158 A 
BRANCH  14  17
ATOM     17  O   UNL     1      45.057  39.968   3.634  1.00  0.00    -0.504 OA
ATOM     18  H   UNL     1      45.595  40.588   3.039  1.00  0.00     0.293 HD
ENDBRANCH  14  17
BRANCH  16  19
ATOM     19  O   UNL     1      47.579  40.766   4.497  1.00  0.00    -0.504 OA
ATOM     20  H   UNL     1      48.146  41.534   4.837  1.00  0.00     0.293 HD
ENDBRANCH  16  19
ENDBRANCH   1  11
BRANCH  10  21
ATOM     21  O   UNL     1      45.210  40.023   9.970  1.00  0.00    -0.500 OA
ATOM     22  H   UNL     1      44.513  40.083  10.705  1.00  0.00     0.294 HD
ENDBRANCH  10  21
BRANCH   5  23
ATOM     23  O   UNL     1      51.175  35.232  11.263  1.00  0.00    -0.507 OA
ATOM     24  H   UNL     1      51.060  34.226  11.322  1.00  0.00     0.293 HD
ENDBRANCH   5  23
BRANCH   7  25
ATOM     25  O   UNL     1      47.964  37.766  13.805  1.00  0.00    -0.507 OA
ATOM     26  H   UNL     1      48.223  38.618  14.281  1.00  0.00     0.293 HD
ENDBRANCH   7  25
TORSDOF 6
ENDMDL
MODEL 6
REMARK VINA RESULT:    -6.779      1.754      2.703
REMARK INTER + INTRA:          -8.479
REMARK INTER:                  -8.131
REMARK INTRA:                  -0.348
REMARK UNBOUND:                -0.313
REMARK SMILES Oc1cc(O)c2cc(O)c(-c3ccc(O)c(O)c3)[o+]c2c1
REMARK SMILES IDX 10 1 19 2 20 3 21 4 2 5 3 6 4 7 6 8 7 9 8 10 11 11 12 12
REMARK SMILES IDX 13 13 14 14 18 15 16 16 15 17 17 19 9 21 1 23 5 25
REMARK H PARENT 15 18 17 20 9 22 1 24 5 26
REMARK Flexibility Score: inf
ROOT
ATOM      1  C   UNL     1      38.014  28.757   8.564  1.00  0.00     0.402 A 
ATOM      2  O   UNL     1      36.708  29.008   8.614  1.00  0.00    -0.202 OA
ATOM      3  C   UNL     1      36.039  29.586   7.624  1.00  0.00     0.368 A 
ATOM      4  C   UNL     1      34.666  29.806   7.768  1.00  0.00     0.162 A 
ATOM      5  C   UNL     1      33.936  30.409   6.743  1.00  0.00     0.128 A 
ATOM      6  C   UNL     1      34.581  30.795   5.563  1.00  0.00     0.093 A 
ATOM      7  C   UNL     1      35.956  30.586   5.393  1.00  0.00     0.136 A 
ATOM      8  C   UNL     1      36.701  29.975   6.434  1.00  0.00     0.125 A 
ATOM      9  C   UNL     1      38.084  29.739   6.357  1.00  0.00     0.078 A 
ATOM     10  C   UNL     1      38.752  29.136   7.427  1.00  0.00     0.223 A 
ENDROOT
BRANCH   1  11
ATOM     11  C   UNL     1      38.646  28.097   9.730  1.00  0.00     0.087 A 
ATOM     12  C   UNL     1      39.205  28.845  10.782  1.00  0.00     0.022 A 
ATOM     13  C   UNL     1      39.815  28.200  11.860  1.00  0.00     0.051 A 
ATOM     14  C   UNL     1      39.889  26.802  11.897  1.00  0.00     0.157 A 
ATOM     15  C   UNL     1      38.742  26.695   9.763  1.00  0.00     0.068 A 
ATOM     16  C   UNL     1      39.355  26.048  10.845  1.00  0.00     0.158 A 
BRANCH  14  17
ATOM     17  O   UNL     1      40.497  26.156  12.972  1.00  0.00    -0.504 OA
ATOM     18  H   UNL     1      41.308  26.547  13.437  1.00  0.00     0.293 HD
ENDBRANCH  14  17
BRANCH  16  19
ATOM     19  O   UNL     1      39.436  24.657  10.881  1.00  0.00    -0.504 OA
ATOM     20  H   UNL     1      39.756  24.124  10.081  1.00  0.00     0.293 HD
ENDBRANCH  16  19
ENDBRANCH   1  11
BRANCH  10  21
ATOM     21  O   UNL     1      40.133  28.946   7.372  1.00  0.00    -0.500 OA
ATOM     22  H   UNL     1      40.772  29.720   7.227  1.00  0.00     0.294 HD
ENDBRANCH  10  21
BRANCH   5  23
ATOM     23  O   UNL     1      32.569  30.619   6.907  1.00  0.00    -0.507 OA
ATOM     24  H   UNL     1      32.076  31.333   6.381  1.00  0.00     0.293 HD
ENDBRANCH   5  23
BRANCH   7  25
ATOM     25  O   UNL     1      36.524  30.997   4.185  1.00  0.00    -0.507 OA
ATOM     26  H   UNL     1      37.452  30.743   3.875  1.00  0.00     0.293 HD
ENDBRANCH   7  25
TORSDOF 6
ENDMDL
MODEL 7
REMARK VINA RESULT:    -6.759      3.219      4.122
REMARK INTER + INTRA:          -8.455
REMARK INTER:                  -8.119
REMARK INTRA:                  -0.336
REMARK UNBOUND:                -0.313
REMARK SMILES Oc1cc(O)c2cc(O)c(-c3ccc(O)c(O)c3)[o+]c2c1
REMARK SMILES IDX 10 1 19 2 20 3 21 4 2 5 3 6 4 7 6 8 7 9 8 10 11 11 12 12
REMARK SMILES IDX 13 13 14 14 18 15 16 16 15 17 17 19 9 21 1 23 5 25
REMARK H PARENT 15 18 17 20 9 22 1 24 5 26
REMARK Flexibility Score: inf
ROOT
ATOM      1  C   UNL     1      38.179  29.145   6.943  1.00  0.00     0.402 A 
ATOM      2  O   UNL     1      37.706  30.207   6.295  1.00  0.00    -0.202 OA
ATOM      3  C   UNL     1      36.430  30.573   6.329  1.00  0.00     0.368 A 
ATOM      4  C   UNL     1      36.029  31.707   5.617  1.00  0.00     0.162 A 
ATOM      5  C   UNL     1      34.694  32.116   5.637  1.00  0.00     0.128 A 
ATOM      6  C   UNL     1      33.753  31.388   6.372  1.00  0.00     0.093 A 
ATOM      7  C   UNL     1      34.129  30.248   7.093  1.00  0.00     0.136 A 
ATOM      8  C   UNL     1      35.484  29.828   7.074  1.00  0.00     0.125 A 
ATOM      9  C   UNL     1      35.949  28.691   7.755  1.00  0.00     0.078 A 
ATOM     10  C   UNL     1      37.300  28.336   7.686  1.00  0.00     0.223 A 
ENDROOT
BRANCH   1  11
ATOM     11  C   UNL     1      39.626  28.846   6.836  1.00  0.00     0.087 A 
ATOM     12  C   UNL     1      40.523  29.192   7.862  1.00  0.00     0.022 A 
ATOM     13  C   UNL     1      41.887  28.920   7.728  1.00  0.00     0.051 A 
ATOM     14  C   UNL     1      42.376  28.314   6.563  1.00  0.00     0.157 A 
ATOM     15  C   UNL     1      40.125  28.257   5.661  1.00  0.00     0.068 A 
ATOM     16  C   UNL     1      41.494  27.985   5.527  1.00  0.00     0.158 A 
BRANCH  14  17
ATOM     17  O   UNL     1      43.736  28.040   6.428  1.00  0.00    -0.504 OA
ATOM     18  H   UNL     1      44.310  27.797   7.227  1.00  0.00     0.293 HD
ENDBRANCH  14  17
BRANCH  16  19
ATOM     19  O   UNL     1      41.984  27.388   4.367  1.00  0.00    -0.504 OA
ATOM     20  H   UNL     1      42.631  27.871   3.755  1.00  0.00     0.293 HD
ENDBRANCH  16  19
ENDBRANCH   1  11
BRANCH  10  21
ATOM     21  O   UNL     1      37.753  27.180   8.321  1.00  0.00    -0.500 OA
ATOM     22  H   UNL     1      38.076  26.375   7.795  1.00  0.00     0.294 HD
ENDBRANCH  10  21
BRANCH   5  23
ATOM     23  O   UNL     1      34.315  33.250   4.921  1.00  0.00    -0.507 OA
ATOM     24  H   UNL     1      33.986  33.187   3.964  1.00  0.00     0.293 HD
ENDBRANCH   5  23
BRANCH   7  25
ATOM     25  O   UNL     1      33.131  29.578   7.805  1.00  0.00    -0.507 OA
ATOM     26  H   UNL     1      32.548  30.006   8.510  1.00  0.00     0.293 HD
ENDBRANCH   7  25
TORSDOF 6
ENDMDL
MODEL 8
REMARK VINA RESULT:    -6.649      4.458      7.078
REMARK INTER + INTRA:          -8.323
REMARK INTER:                  -8.130
REMARK INTRA:                  -0.193
REMARK UNBOUND:                -0.313
REMARK SMILES Oc1cc(O)c2cc(O)c(-c3ccc(O)c(O)c3)[o+]c2c1
REMARK SMILES IDX 10 1 19 2 20 3 21 4 2 5 3 6 4 7 6 8 7 9 8 10 11 11 12 12
REMARK SMILES IDX 13 13 14 14 18 15 16 16 15 17 17 19 9 21 1 23 5 25
REMARK H PARENT 15 18 17 20 9 22 1 24 5 26
REMARK Flexibility Score: inf
ROOT
ATOM      1  C   UNL     1      39.198  28.980   6.476  1.00  0.00     0.402 A 
ATOM      2  O   UNL     1      39.578  28.246   5.433  1.00  0.00    -0.202 OA
ATOM      3  C   UNL     1      40.850  28.035   5.115  1.00  0.00     0.368 A 
ATOM      4  C   UNL     1      41.151  27.245   4.002  1.00  0.00     0.162 A 
ATOM      5  C   UNL     1      42.479  27.005   3.645  1.00  0.00     0.128 A 
ATOM      6  C   UNL     1      43.515  27.557   4.406  1.00  0.00     0.093 A 
ATOM      7  C   UNL     1      43.240  28.352   5.526  1.00  0.00     0.136 A 
ATOM      8  C   UNL     1      41.892  28.600   5.890  1.00  0.00     0.125 A 
ATOM      9  C   UNL     1      41.522  29.395   6.988  1.00  0.00     0.078 A 
ATOM     10  C   UNL     1      40.171  29.599   7.283  1.00  0.00     0.223 A 
ENDROOT
BRANCH   1  11
ATOM     11  C   UNL     1      37.747  29.132   6.734  1.00  0.00     0.087 A 
ATOM     12  C   UNL     1      37.113  30.384   6.639  1.00  0.00     0.022 A 
ATOM     13  C   UNL     1      35.748  30.506   6.909  1.00  0.00     0.051 A 
ATOM     14  C   UNL     1      35.000  29.384   7.291  1.00  0.00     0.157 A 
ATOM     15  C   UNL     1      36.996  28.015   7.137  1.00  0.00     0.068 A 
ATOM     16  C   UNL     1      35.626  28.138   7.409  1.00  0.00     0.158 A 
BRANCH  14  17
ATOM     17  O   UNL     1      33.638  29.503   7.560  1.00  0.00    -0.504 OA
ATOM     18  H   UNL     1      33.011  29.983   6.924  1.00  0.00     0.293 HD
ENDBRANCH  14  17
BRANCH  16  19
ATOM     19  O   UNL     1      34.881  27.025   7.796  1.00  0.00    -0.504 OA
ATOM     20  H   UNL     1      35.196  26.407   8.534  1.00  0.00     0.293 HD
ENDBRANCH  16  19
ENDBRANCH   1  11
BRANCH  10  21
ATOM     21  O   UNL     1      39.803  30.428   8.342  1.00  0.00    -0.500 OA
ATOM     22  H   UNL     1      38.845  30.478   8.671  1.00  0.00     0.294 HD
ENDBRANCH  10  21
BRANCH   5  23
ATOM     23  O   UNL     1      42.757  26.215   2.532  1.00  0.00    -0.507 OA
ATOM     24  H   UNL     1      42.392  25.273   2.447  1.00  0.00     0.293 HD
ENDBRANCH   5  23
BRANCH   7  25
ATOM     25  O   UNL     1      44.330  28.863   6.235  1.00  0.00    -0.507 OA
ATOM     26  H   UNL     1      44.356  29.779   6.661  1.00  0.00     0.293 HD
ENDBRANCH   7  25
TORSDOF 6
ENDMDL
MODEL 9
REMARK VINA RESULT:    -6.629     12.744     13.845
REMARK INTER + INTRA:          -8.298
REMARK INTER:                  -8.049
REMARK INTRA:                  -0.249
REMARK UNBOUND:                -0.313
REMARK SMILES Oc1cc(O)c2cc(O)c(-c3ccc(O)c(O)c3)[o+]c2c1
REMARK SMILES IDX 10 1 19 2 20 3 21 4 2 5 3 6 4 7 6 8 7 9 8 10 11 11 12 12
REMARK SMILES IDX 13 13 14 14 18 15 16 16 15 17 17 19 9 21 1 23 5 25
REMARK H PARENT 15 18 17 20 9 22 1 24 5 26
REMARK Flexibility Score: inf
ROOT
ATOM      1  C   UNL     1      47.589  38.161   9.236  1.00  0.00     0.402 A 
ATOM      2  O   UNL     1      47.824  38.888   8.146  1.00  0.00    -0.202 OA
ATOM      3  C   UNL     1      46.965  38.991   7.139  1.00  0.00     0.368 A 
ATOM      4  C   UNL     1      47.300  39.782   6.037  1.00  0.00     0.162 A 
ATOM      5  C   UNL     1      46.415  39.910   4.965  1.00  0.00     0.128 A 
ATOM      6  C   UNL     1      45.185  39.244   4.994  1.00  0.00     0.093 A 
ATOM      7  C   UNL     1      44.825  38.445   6.086  1.00  0.00     0.136 A 
ATOM      8  C   UNL     1      45.723  38.311   7.176  1.00  0.00     0.125 A 
ATOM      9  C   UNL     1      45.453  37.521   8.306  1.00  0.00     0.078 A 
ATOM     10  C   UNL     1      46.390  37.433   9.340  1.00  0.00     0.223 A 
ENDROOT
BRANCH   1  11
ATOM     11  C   UNL     1      48.623  38.134  10.296  1.00  0.00     0.087 A 
ATOM     12  C   UNL     1      49.388  36.981  10.546  1.00  0.00     0.022 A 
ATOM     13  C   UNL     1      50.341  36.973  11.567  1.00  0.00     0.051 A 
ATOM     14  C   UNL     1      50.534  38.111  12.362  1.00  0.00     0.157 A 
ATOM     15  C   UNL     1      48.807  39.265  11.110  1.00  0.00     0.068 A 
ATOM     16  C   UNL     1      49.764  39.257  12.135  1.00  0.00     0.158 A 
BRANCH  14  17
ATOM     17  O   UNL     1      51.485  38.106  13.380  1.00  0.00    -0.504 OA
ATOM     18  H   UNL     1      52.326  38.670  13.324  1.00  0.00     0.293 HD
ENDBRANCH  14  17
BRANCH  16  19
ATOM     19  O   UNL     1      49.953  40.385  12.932  1.00  0.00    -0.504 OA
ATOM     20  H   UNL     1      50.857  40.836  13.004  1.00  0.00     0.293 HD
ENDBRANCH  16  19
ENDBRANCH   1  11
BRANCH  10  21
ATOM     21  O   UNL     1      46.144  36.610  10.439  1.00  0.00    -0.500 OA
ATOM     22  H   UNL     1      46.087  35.602  10.348  1.00  0.00     0.294 HD
ENDBRANCH  10  21
BRANCH   5  23
ATOM     23  O   UNL     1      46.768  40.704   3.876  1.00  0.00    -0.507 OA
ATOM     24  H   UNL     1      47.534  41.367   3.930  1.00  0.00     0.293 HD
ENDBRANCH   5  23
BRANCH   7  25
ATOM     25  O   UNL     1      43.579  37.816   6.040  1.00  0.00    -0.507 OA
ATOM     26  H   UNL     1      43.066  37.505   6.853  1.00  0.00     0.293 HD
ENDBRANCH   7  25
TORSDOF 6
ENDMDL
