MODEL 1
REMARK VINA RESULT:    -3.968      0.000      0.000
REMARK INTER + INTRA:          -5.910
REMARK INTER:                  -5.359
REMARK INTRA:                  -0.551
REMARK UNBOUND:                -0.551
REMARK SMILES CCCCCCC=CC(=O)[O-]
REMARK SMILES IDX 5 1 6 2 7 3 8 4 9 5 10 6 11 7 4 8 3 9 2 10 1 11
REMARK H PARENT
REMARK Flexibility Score: inf
ROOT
ATOM      1  C   UNL     1       4.877  11.313   6.121  1.00  0.00     0.004 C 
ENDROOT
BRANCH   1   2
ATOM      2  C   UNL     1       5.203  10.224   7.156  1.00  0.00     0.027 C 
BRANCH   2   3
ATOM      3  C   UNL     1       4.243  10.267   8.313  1.00  0.00    -0.025 C 
ATOM      4  C   UNL     1       3.916   9.232   9.105  1.00  0.00     0.020 C 
BRANCH   4   5
ATOM      5  C   UNL     1       4.449   7.855   9.023  1.00  0.00     0.064 C 
ATOM      6  O   UNL     1       3.852   6.942   8.397  1.00  0.00    -0.545 OA
ATOM      7  O   UNL     1       5.659   7.567   9.642  1.00  0.00    -0.545 OA
ENDBRANCH   4   5
ENDBRANCH   2   3
ENDBRANCH   1   2
BRANCH   1   8
ATOM      8  C   UNL     1       4.070  12.475   6.722  1.00  0.00     0.000 C 
BRANCH   8   9
ATOM      9  C   UNL     1       4.739  13.840   6.490  1.00  0.00    -0.000 C 
BRANCH   9  10
ATOM     10  C   UNL     1       5.232  14.483   7.796  1.00  0.00    -0.003 C 
ATOM     11  C   UNL     1       6.276  13.629   8.516  1.00  0.00     0.004 C 
ENDBRANCH   9  10
ENDBRANCH   8   9
ENDBRANCH   1   8
TORSDOF 6
ENDMDL
MODEL 2
REMARK VINA RESULT:    -3.837      2.915      5.066
REMARK INTER + INTRA:          -5.734
REMARK INTER:                  -5.054
REMARK INTRA:                  -0.680
REMARK UNBOUND:                -0.551
REMARK SMILES CCCCCCC=CC(=O)[O-]
REMARK SMILES IDX 5 1 6 2 7 3 8 4 9 5 10 6 11 7 4 8 3 9 2 10 1 11
REMARK H PARENT
REMARK Flexibility Score: inf
ROOT
ATOM      1  C   UNL     1       4.864  11.082   6.342  1.00  0.00     0.004 C 
ENDROOT
BRANCH   1   2
ATOM      2  C   UNL     1       4.042  12.273   6.860  1.00  0.00     0.027 C 
BRANCH   2   3
ATOM      3  C   UNL     1       4.601  13.578   6.363  1.00  0.00    -0.025 C 
ATOM      4  C   UNL     1       5.563  14.302   6.958  1.00  0.00     0.020 C 
BRANCH   4   5
ATOM      5  C   UNL     1       6.288  13.954   8.199  1.00  0.00     0.064 C 
ATOM      6  O   UNL     1       7.359  13.296   8.187  1.00  0.00    -0.545 OA
ATOM      7  O   UNL     1       5.777  14.386   9.417  1.00  0.00    -0.545 OA
ENDBRANCH   4   5
ENDBRANCH   2   3
ENDBRANCH   1   2
BRANCH   1   8
ATOM      8  C   UNL     1       5.453  10.233   7.480  1.00  0.00     0.000 C 
BRANCH   8   9
ATOM      9  C   UNL     1       4.870  10.603   8.855  1.00  0.00    -0.000 C 
BRANCH   9  10
ATOM     10  C   UNL     1       4.302   9.386   9.600  1.00  0.00    -0.003 C 
ATOM     11  C   UNL     1       4.191   8.148   8.710  1.00  0.00     0.004 C 
ENDBRANCH   9  10
ENDBRANCH   8   9
ENDBRANCH   1   8
TORSDOF 6
ENDMDL
MODEL 3
REMARK VINA RESULT:    -3.739      1.692      2.834
REMARK INTER + INTRA:          -5.602
REMARK INTER:                  -4.775
REMARK INTRA:                  -0.827
REMARK UNBOUND:                -0.551
REMARK SMILES CCCCCCC=CC(=O)[O-]
REMARK SMILES IDX 5 1 6 2 7 3 8 4 9 5 10 6 11 7 4 8 3 9 2 10 1 11
REMARK H PARENT
REMARK Flexibility Score: inf
ROOT
ATOM      1  C   UNL     1       4.776  13.885   6.410  1.00  0.00     0.004 C 
ENDROOT
BRANCH   1   2
ATOM      2  C   UNL     1       3.990  12.585   6.642  1.00  0.00     0.027 C 
BRANCH   2   3
ATOM      3  C   UNL     1       4.834  11.377   6.343  1.00  0.00    -0.025 C 
ATOM      4  C   UNL     1       5.132  10.391   7.206  1.00  0.00     0.020 C 
BRANCH   4   5
ATOM      5  C   UNL     1       4.672  10.275   8.606  1.00  0.00     0.064 C 
ATOM      6  O   UNL     1       5.100  11.031   9.516  1.00  0.00    -0.545 OA
ATOM      7  O   UNL     1       3.723   9.311   8.923  1.00  0.00    -0.545 OA
ENDBRANCH   4   5
ENDBRANCH   2   3
ENDBRANCH   1   2
BRANCH   1   8
ATOM      8  C   UNL     1       5.495  14.373   7.678  1.00  0.00     0.000 C 
BRANCH   8   9
ATOM      9  C   UNL     1       7.026  14.333   7.541  1.00  0.00    -0.000 C 
BRANCH   9  10
ATOM     10  C   UNL     1       7.640  13.071   8.166  1.00  0.00    -0.003 C 
ATOM     11  C   UNL     1       8.447  12.248   7.162  1.00  0.00     0.004 C 
ENDBRANCH   9  10
ENDBRANCH   8   9
ENDBRANCH   1   8
TORSDOF 6
ENDMDL
MODEL 4
REMARK VINA RESULT:    -3.625      2.604      4.677
REMARK INTER + INTRA:          -5.447
REMARK INTER:                  -4.750
REMARK INTRA:                  -0.697
REMARK UNBOUND:                -0.551
REMARK SMILES CCCCCCC=CC(=O)[O-]
REMARK SMILES IDX 5 1 6 2 7 3 8 4 9 5 10 6 11 7 4 8 3 9 2 10 1 11
REMARK H PARENT
REMARK Flexibility Score: inf
ROOT
ATOM      1  C   UNL     1       4.597  13.459   6.136  1.00  0.00     0.004 C 
ENDROOT
BRANCH   1   2
ATOM      2  C   UNL     1       5.092  14.007   7.484  1.00  0.00     0.027 C 
BRANCH   2   3
ATOM      3  C   UNL     1       6.457  14.624   7.353  1.00  0.00    -0.025 C 
ATOM      4  C   UNL     1       7.629  13.981   7.487  1.00  0.00     0.020 C 
BRANCH   4   5
ATOM      5  C   UNL     1       7.819  12.541   7.759  1.00  0.00     0.064 C 
ATOM      6  O   UNL     1       8.100  11.719   6.849  1.00  0.00    -0.545 OA
ATOM      7  O   UNL     1       7.700  12.084   9.066  1.00  0.00    -0.545 OA
ENDBRANCH   4   5
ENDBRANCH   2   3
ENDBRANCH   1   2
BRANCH   1   8
ATOM      8  C   UNL     1       4.614  11.923   6.082  1.00  0.00     0.000 C 
BRANCH   8   9
ATOM      9  C   UNL     1       4.275  11.281   7.438  1.00  0.00    -0.000 C 
BRANCH   9  10
ATOM     10  C   UNL     1       5.040   9.970   7.677  1.00  0.00    -0.003 C 
ATOM     11  C   UNL     1       4.268   8.988   8.556  1.00  0.00     0.004 C 
ENDBRANCH   9  10
ENDBRANCH   8   9
ENDBRANCH   1   8
TORSDOF 6
ENDMDL
MODEL 5
REMARK VINA RESULT:    -3.539      2.404      2.935
REMARK INTER + INTRA:          -5.331
REMARK INTER:                  -4.507
REMARK INTRA:                  -0.824
REMARK UNBOUND:                -0.551
REMARK SMILES CCCCCCC=CC(=O)[O-]
REMARK SMILES IDX 5 1 6 2 7 3 8 4 9 5 10 6 11 7 4 8 3 9 2 10 1 11
REMARK H PARENT
REMARK Flexibility Score: inf
ROOT
ATOM      1  C   UNL     1       3.822  11.527   7.123  1.00  0.00     0.004 C 
ENDROOT
BRANCH   1   2
ATOM      2  C   UNL     1       4.700  10.446   7.772  1.00  0.00     0.027 C 
BRANCH   2   3
ATOM      3  C   UNL     1       5.561  11.024   8.861  1.00  0.00    -0.025 C 
ATOM      4  C   UNL     1       6.903  11.093   8.852  1.00  0.00     0.020 C 
BRANCH   4   5
ATOM      5  C   UNL     1       7.802  10.646   7.768  1.00  0.00     0.064 C 
ATOM      6  O   UNL     1       7.852  11.232   6.655  1.00  0.00    -0.545 OA
ATOM      7  O   UNL     1       8.631   9.554   7.991  1.00  0.00    -0.545 OA
ENDBRANCH   4   5
ENDBRANCH   2   3
ENDBRANCH   1   2
BRANCH   1   8
ATOM      8  C   UNL     1       4.614  12.436   6.170  1.00  0.00     0.000 C 
BRANCH   8   9
ATOM      9  C   UNL     1       4.595  13.910   6.609  1.00  0.00    -0.000 C 
BRANCH   9  10
ATOM     10  C   UNL     1       5.956  14.381   7.146  1.00  0.00    -0.003 C 
ATOM     11  C   UNL     1       5.881  14.876   8.590  1.00  0.00     0.004 C 
ENDBRANCH   9  10
ENDBRANCH   8   9
ENDBRANCH   1   8
TORSDOF 6
ENDMDL
MODEL 6
REMARK VINA RESULT:    -3.484     16.896     17.857
REMARK INTER + INTRA:          -5.258
REMARK INTER:                  -4.982
REMARK INTRA:                  -0.275
REMARK UNBOUND:                -0.551
REMARK SMILES CCCCCCC=CC(=O)[O-]
REMARK SMILES IDX 5 1 6 2 7 3 8 4 9 5 10 6 11 7 4 8 3 9 2 10 1 11
REMARK H PARENT
REMARK Flexibility Score: inf
ROOT
ATOM      1  C   UNL     1       4.071   3.416  -9.668  1.00  0.00     0.004 C 
ENDROOT
BRANCH   1   2
ATOM      2  C   UNL     1       4.665   2.914  -8.342  1.00  0.00     0.027 C 
BRANCH   2   3
ATOM      3  C   UNL     1       5.262   1.542  -8.496  1.00  0.00    -0.025 C 
ATOM      4  C   UNL     1       5.305   0.591  -7.549  1.00  0.00     0.020 C 
BRANCH   4   5
ATOM      5  C   UNL     1       4.754   0.683  -6.180  1.00  0.00     0.064 C 
ATOM      6  O   UNL     1       5.393   1.214  -5.236  1.00  0.00    -0.545 OA
ATOM      7  O   UNL     1       3.482   0.182  -5.934  1.00  0.00    -0.545 OA
ENDBRANCH   4   5
ENDBRANCH   2   3
ENDBRANCH   1   2
BRANCH   1   8
ATOM      8  C   UNL     1       3.688   4.903  -9.617  1.00  0.00     0.000 C 
BRANCH   8   9
ATOM      9  C   UNL     1       2.173   5.118  -9.466  1.00  0.00    -0.000 C 
BRANCH   9  10
ATOM     10  C   UNL     1       1.806   6.596  -9.259  1.00  0.00    -0.003 C 
ATOM     11  C   UNL     1       3.029   7.479  -9.011  1.00  0.00     0.004 C 
ENDBRANCH   9  10
ENDBRANCH   8   9
ENDBRANCH   1   8
TORSDOF 6
ENDMDL
MODEL 7
REMARK VINA RESULT:    -3.472      9.425     11.498
REMARK INTER + INTRA:          -5.241
REMARK INTER:                  -4.689
REMARK INTRA:                  -0.552
REMARK UNBOUND:                -0.551
REMARK SMILES CCCCCCC=CC(=O)[O-]
REMARK SMILES IDX 5 1 6 2 7 3 8 4 9 5 10 6 11 7 4 8 3 9 2 10 1 11
REMARK H PARENT
REMARK Flexibility Score: inf
ROOT
ATOM      1  C   UNL     1       7.480   0.934   7.326  1.00  0.00     0.004 C 
ENDROOT
BRANCH   1   2
ATOM      2  C   UNL     1       8.049  -0.382   6.772  1.00  0.00     0.027 C 
BRANCH   2   3
ATOM      3  C   UNL     1       7.504  -0.679   5.402  1.00  0.00    -0.025 C 
ATOM      4  C   UNL     1       7.003  -1.855   4.991  1.00  0.00     0.020 C 
BRANCH   4   5
ATOM      5  C   UNL     1       6.856  -3.083   5.800  1.00  0.00     0.064 C 
ATOM      6  O   UNL     1       7.639  -4.061   5.681  1.00  0.00    -0.545 OA
ATOM      7  O   UNL     1       5.831  -3.152   6.735  1.00  0.00    -0.545 OA
ENDBRANCH   4   5
ENDBRANCH   2   3
ENDBRANCH   1   2
BRANCH   1   8
ATOM      8  C   UNL     1       8.328   2.154   6.936  1.00  0.00     0.000 C 
BRANCH   8   9
ATOM      9  C   UNL     1       7.491   3.275   6.298  1.00  0.00    -0.000 C 
BRANCH   9  10
ATOM     10  C   UNL     1       7.813   3.475   4.809  1.00  0.00    -0.003 C 
ATOM     11  C   UNL     1       8.963   2.591   4.329  1.00  0.00     0.004 C 
ENDBRANCH   9  10
ENDBRANCH   8   9
ENDBRANCH   1   8
TORSDOF 6
ENDMDL
MODEL 8
REMARK VINA RESULT:    -3.434      2.808      4.617
REMARK INTER + INTRA:          -5.190
REMARK INTER:                  -4.532
REMARK INTRA:                  -0.658
REMARK UNBOUND:                -0.551
REMARK SMILES CCCCCCC=CC(=O)[O-]
REMARK SMILES IDX 5 1 6 2 7 3 8 4 9 5 10 6 11 7 4 8 3 9 2 10 1 11
REMARK H PARENT
REMARK Flexibility Score: inf
ROOT
ATOM      1  C   UNL     1       7.686  14.124   7.995  1.00  0.00     0.004 C 
ENDROOT
BRANCH   1   2
ATOM      2  C   UNL     1       6.239  13.794   8.398  1.00  0.00     0.027 C 
BRANCH   2   3
ATOM      3  C   UNL     1       5.260  14.292   7.370  1.00  0.00    -0.025 C 
ATOM      4  C   UNL     1       4.499  13.526   6.572  1.00  0.00     0.020 C 
BRANCH   4   5
ATOM      5  C   UNL     1       4.443  12.049   6.557  1.00  0.00     0.064 C 
ATOM      6  O   UNL     1       4.103  11.381   7.567  1.00  0.00    -0.545 OA
ATOM      7  O   UNL     1       4.760  11.378   5.382  1.00  0.00    -0.545 OA
ENDBRANCH   4   5
ENDBRANCH   2   3
ENDBRANCH   1   2
BRANCH   1   8
ATOM      8  C   UNL     1       8.656  12.968   8.281  1.00  0.00     0.000 C 
BRANCH   8   9
ATOM      9  C   UNL     1       9.062  12.210   7.006  1.00  0.00    -0.000 C 
BRANCH   9  10
ATOM     10  C   UNL     1       8.067  11.097   6.640  1.00  0.00    -0.003 C 
ATOM     11  C   UNL     1       7.536  10.355   7.866  1.00  0.00     0.004 C 
ENDBRANCH   9  10
ENDBRANCH   8   9
ENDBRANCH   1   8
TORSDOF 6
ENDMDL
MODEL 9
REMARK VINA RESULT:    -3.386      7.125     10.198
REMARK INTER + INTRA:          -5.125
REMARK INTER:                  -4.853
REMARK INTRA:                  -0.272
REMARK UNBOUND:                -0.551
REMARK SMILES CCCCCCC=CC(=O)[O-]
REMARK SMILES IDX 5 1 6 2 7 3 8 4 9 5 10 6 11 7 4 8 3 9 2 10 1 11
REMARK H PARENT
REMARK Flexibility Score: inf
ROOT
ATOM      1  C   UNL     1      -0.768   4.236  10.031  1.00  0.00     0.004 C 
ENDROOT
BRANCH   1   2
ATOM      2  C   UNL     1       0.614   3.569   9.940  1.00  0.00     0.027 C 
BRANCH   2   3
ATOM      3  C   UNL     1       1.715   4.594   9.944  1.00  0.00    -0.025 C 
ATOM      4  C   UNL     1       2.651   4.749   8.993  1.00  0.00     0.020 C 
BRANCH   4   5
ATOM      5  C   UNL     1       2.774   3.972   7.741  1.00  0.00     0.064 C 
ATOM      6  O   UNL     1       2.567   4.486   6.612  1.00  0.00    -0.545 OA
ATOM      7  O   UNL     1       3.149   2.637   7.815  1.00  0.00    -0.545 OA
ENDBRANCH   4   5
ENDBRANCH   2   3
ENDBRANCH   1   2
BRANCH   1   8
ATOM      8  C   UNL     1      -1.909   3.282   9.644  1.00  0.00     0.000 C 
BRANCH   8   9
ATOM      9  C   UNL     1      -1.530   1.803   9.827  1.00  0.00    -0.000 C 
BRANCH   9  10
ATOM     10  C   UNL     1      -2.259   0.882   8.836  1.00  0.00    -0.003 C 
ATOM     11  C   UNL     1      -3.002  -0.261   9.529  1.00  0.00     0.004 C 
ENDBRANCH   9  10
ENDBRANCH   8   9
ENDBRANCH   1   8
TORSDOF 6
ENDMDL
