MODEL 1
REMARK VINA RESULT:    -4.356      0.000      0.000
REMARK INTER + INTRA:          -4.755
REMARK INTER:                  -4.611
REMARK INTRA:                  -0.144
REMARK UNBOUND:                -0.144
REMARK SMILES CC(C)[C@@H]1CC[C@H](C)CC1=O
REMARK SMILES IDX 8 1 7 2 6 3 5 4 4 5 10 6 11 7 9 8 2 9 1 10 3 11
REMARK H PARENT
REMARK Flexibility Score: inf
ROOT
ATOM      1  C   UNL     1      69.422  52.467  23.389  1.00  0.00     0.008 C 
ATOM      2  C   UNL     1      70.276  51.754  22.329  1.00  0.00    -0.007 C 
ATOM      3  C   UNL     1      69.528  50.556  21.699  1.00  0.00     0.004 C 
ATOM      4  C   UNL     1      68.387  50.985  20.753  1.00  0.00     0.012 C 
ATOM      5  C   UNL     1      68.885  51.943  19.644  1.00  0.00     0.058 C 
ATOM      6  C   UNL     1      69.630  53.080  20.321  1.00  0.00     0.136 C 
ATOM      7  O   UNL     1      69.278  54.244  20.205  1.00  0.00    -0.299 OA
ATOM      8  C   UNL     1      70.763  52.731  21.243  1.00  0.00     0.079 C 
ENDROOT
BRANCH   5   9
ATOM      9  C   UNL     1      67.740  52.442  18.700  1.00  0.00    -0.007 C 
ATOM     10  C   UNL     1      66.536  51.483  18.667  1.00  0.00     0.008 C 
ATOM     11  C   UNL     1      68.258  52.625  17.260  1.00  0.00     0.008 C 
ENDBRANCH   5   9
TORSDOF 1
ENDMDL
MODEL 2
REMARK VINA RESULT:    -4.285      1.177      3.899
REMARK INTER + INTRA:          -4.679
REMARK INTER:                  -4.584
REMARK INTRA:                  -0.095
REMARK UNBOUND:                -0.144
REMARK SMILES CC(C)[C@@H]1CC[C@H](C)CC1=O
REMARK SMILES IDX 8 1 7 2 6 3 5 4 4 5 10 6 11 7 9 8 2 9 1 10 3 11
REMARK H PARENT
REMARK Flexibility Score: inf
ROOT
ATOM      1  C   UNL     1      68.617  52.721  17.282  1.00  0.00     0.008 C 
ATOM      2  C   UNL     1      67.949  53.360  18.509  1.00  0.00    -0.007 C 
ATOM      3  C   UNL     1      66.998  52.372  19.226  1.00  0.00     0.004 C 
ATOM      4  C   UNL     1      67.746  51.257  19.986  1.00  0.00     0.012 C 
ATOM      5  C   UNL     1      68.771  51.831  20.993  1.00  0.00     0.058 C 
ATOM      6  C   UNL     1      69.655  52.809  20.240  1.00  0.00     0.136 C 
ATOM      7  O   UNL     1      70.865  52.655  20.156  1.00  0.00    -0.299 OA
ATOM      8  C   UNL     1      68.992  53.928  19.490  1.00  0.00     0.079 C 
ENDROOT
BRANCH   5   9
ATOM      9  C   UNL     1      69.587  50.724  21.741  1.00  0.00    -0.007 C 
ATOM     10  C   UNL     1      68.776  49.435  21.962  1.00  0.00     0.008 C 
ATOM     11  C   UNL     1      70.074  51.235  23.111  1.00  0.00     0.008 C 
ENDBRANCH   5   9
TORSDOF 1
ENDMDL
MODEL 3
REMARK VINA RESULT:    -4.219      1.821      3.640
REMARK INTER + INTRA:          -4.609
REMARK INTER:                  -4.449
REMARK INTRA:                  -0.160
REMARK UNBOUND:                -0.144
REMARK SMILES CC(C)[C@@H]1CC[C@H](C)CC1=O
REMARK SMILES IDX 8 1 7 2 6 3 5 4 4 5 10 6 11 7 9 8 2 9 1 10 3 11
REMARK H PARENT
REMARK Flexibility Score: inf
ROOT
ATOM      1  C   UNL     1      66.017  52.748  19.642  1.00  0.00     0.008 C 
ATOM      2  C   UNL     1      66.942  51.562  19.325  1.00  0.00    -0.007 C 
ATOM      3  C   UNL     1      67.294  51.494  17.820  1.00  0.00     0.004 C 
ATOM      4  C   UNL     1      68.266  52.606  17.376  1.00  0.00     0.012 C 
ATOM      5  C   UNL     1      69.561  52.616  18.223  1.00  0.00     0.058 C 
ATOM      6  C   UNL     1      69.152  52.657  19.685  1.00  0.00     0.136 C 
ATOM      7  O   UNL     1      69.486  53.571  20.425  1.00  0.00    -0.299 OA
ATOM      8  C   UNL     1      68.219  51.594  20.187  1.00  0.00     0.079 C 
ENDROOT
BRANCH   5   9
ATOM      9  C   UNL     1      70.545  53.769  17.834  1.00  0.00    -0.007 C 
ATOM     10  C   UNL     1      70.186  54.429  16.490  1.00  0.00     0.008 C 
ATOM     11  C   UNL     1      71.994  53.249  17.751  1.00  0.00     0.008 C 
ENDBRANCH   5   9
TORSDOF 1
ENDMDL
MODEL 4
REMARK VINA RESULT:    -4.069      1.574      4.043
REMARK INTER + INTRA:          -4.451
REMARK INTER:                  -4.272
REMARK INTRA:                  -0.178
REMARK UNBOUND:                -0.144
REMARK SMILES CC(C)[C@@H]1CC[C@H](C)CC1=O
REMARK SMILES IDX 8 1 7 2 6 3 5 4 4 5 10 6 11 7 9 8 2 9 1 10 3 11
REMARK H PARENT
REMARK Flexibility Score: inf
ROOT
ATOM      1  C   UNL     1      69.405  54.919  18.089  1.00  0.00     0.008 C 
ATOM      2  C   UNL     1      69.534  53.468  17.600  1.00  0.00    -0.007 C 
ATOM      3  C   UNL     1      70.740  52.748  18.249  1.00  0.00     0.004 C 
ATOM      4  C   UNL     1      70.516  52.418  19.739  1.00  0.00     0.012 C 
ATOM      5  C   UNL     1      69.225  51.594  19.962  1.00  0.00     0.058 C 
ATOM      6  C   UNL     1      68.087  52.336  19.283  1.00  0.00     0.136 C 
ATOM      7  O   UNL     1      67.113  52.735  19.904  1.00  0.00    -0.299 OA
ATOM      8  C   UNL     1      68.234  52.676  17.828  1.00  0.00     0.079 C 
ENDROOT
BRANCH   5   9
ATOM      9  C   UNL     1      68.939  51.290  21.470  1.00  0.00    -0.007 C 
ATOM     10  C   UNL     1      69.630  52.286  22.419  1.00  0.00     0.008 C 
ATOM     11  C   UNL     1      69.398  49.866  21.839  1.00  0.00     0.008 C 
ENDBRANCH   5   9
TORSDOF 1
ENDMDL
MODEL 5
REMARK VINA RESULT:    -4.051      1.770      2.586
REMARK INTER + INTRA:          -4.432
REMARK INTER:                  -4.268
REMARK INTRA:                  -0.164
REMARK UNBOUND:                -0.144
REMARK SMILES CC(C)[C@@H]1CC[C@H](C)CC1=O
REMARK SMILES IDX 8 1 7 2 6 3 5 4 4 5 10 6 11 7 9 8 2 9 1 10 3 11
REMARK H PARENT
REMARK Flexibility Score: inf
ROOT
ATOM      1  C   UNL     1      70.367  54.809  21.455  1.00  0.00     0.008 C 
ATOM      2  C   UNL     1      69.193  54.124  22.173  1.00  0.00    -0.007 C 
ATOM      3  C   UNL     1      67.830  54.541  21.573  1.00  0.00     0.004 C 
ATOM      4  C   UNL     1      67.571  53.933  20.179  1.00  0.00     0.012 C 
ATOM      5  C   UNL     1      67.695  52.390  20.189  1.00  0.00     0.058 C 
ATOM      6  C   UNL     1      69.037  52.043  20.810  1.00  0.00     0.136 C 
ATOM      7  O   UNL     1      69.890  51.416  20.200  1.00  0.00    -0.299 OA
ATOM      8  C   UNL     1      69.347  52.591  22.173  1.00  0.00     0.079 C 
ENDROOT
BRANCH   5   9
ATOM      9  C   UNL     1      67.493  51.746  18.778  1.00  0.00    -0.007 C 
ATOM     10  C   UNL     1      67.925  52.677  17.631  1.00  0.00     0.008 C 
ATOM     11  C   UNL     1      66.018  51.355  18.559  1.00  0.00     0.008 C 
ENDBRANCH   5   9
TORSDOF 1
ENDMDL
MODEL 6
REMARK VINA RESULT:    -3.848      1.939      3.403
REMARK INTER + INTRA:          -4.217
REMARK INTER:                  -4.052
REMARK INTRA:                  -0.165
REMARK UNBOUND:                -0.144
REMARK SMILES CC(C)[C@@H]1CC[C@H](C)CC1=O
REMARK SMILES IDX 8 1 7 2 6 3 5 4 4 5 10 6 11 7 9 8 2 9 1 10 3 11
REMARK H PARENT
REMARK Flexibility Score: inf
ROOT
ATOM      1  C   UNL     1      71.763  54.411  19.189  1.00  0.00     0.008 C 
ATOM      2  C   UNL     1      70.784  54.544  18.012  1.00  0.00    -0.007 C 
ATOM      3  C   UNL     1      70.483  53.175  17.358  1.00  0.00     0.004 C 
ATOM      4  C   UNL     1      69.593  52.269  18.233  1.00  0.00     0.012 C 
ATOM      5  C   UNL     1      68.270  52.968  18.632  1.00  0.00     0.058 C 
ATOM      6  C   UNL     1      68.630  54.312  19.242  1.00  0.00     0.136 C 
ATOM      7  O   UNL     1      68.322  54.605  20.388  1.00  0.00    -0.299 OA
ATOM      8  C   UNL     1      69.482  55.249  18.436  1.00  0.00     0.079 C 
ENDROOT
BRANCH   5   9
ATOM      9  C   UNL     1      67.369  52.096  19.567  1.00  0.00    -0.007 C 
ATOM     10  C   UNL     1      68.184  51.132  20.449  1.00  0.00     0.008 C 
ATOM     11  C   UNL     1      66.361  51.271  18.744  1.00  0.00     0.008 C 
ENDBRANCH   5   9
TORSDOF 1
ENDMDL
MODEL 7
REMARK VINA RESULT:    -3.730      1.678      4.362
REMARK INTER + INTRA:          -4.092
REMARK INTER:                  -3.955
REMARK INTRA:                  -0.138
REMARK UNBOUND:                -0.144
REMARK SMILES CC(C)[C@@H]1CC[C@H](C)CC1=O
REMARK SMILES IDX 8 1 7 2 6 3 5 4 4 5 10 6 11 7 9 8 2 9 1 10 3 11
REMARK H PARENT
REMARK Flexibility Score: inf
ROOT
ATOM      1  C   UNL     1      66.553  51.980  19.139  1.00  0.00     0.008 C 
ATOM      2  C   UNL     1      67.868  52.751  18.947  1.00  0.00    -0.007 C 
ATOM      3  C   UNL     1      67.885  54.070  19.756  1.00  0.00     0.004 C 
ATOM      4  C   UNL     1      68.026  53.845  21.276  1.00  0.00     0.012 C 
ATOM      5  C   UNL     1      69.272  52.995  21.622  1.00  0.00     0.058 C 
ATOM      6  C   UNL     1      69.212  51.732  20.781  1.00  0.00     0.136 C 
ATOM      7  O   UNL     1      69.171  50.620  21.287  1.00  0.00    -0.299 OA
ATOM      8  C   UNL     1      69.090  51.879  19.293  1.00  0.00     0.079 C 
ENDROOT
BRANCH   5   9
ATOM      9  C   UNL     1      69.413  52.702  23.153  1.00  0.00    -0.007 C 
ATOM     10  C   UNL     1      68.727  53.766  24.028  1.00  0.00     0.008 C 
ATOM     11  C   UNL     1      70.897  52.618  23.560  1.00  0.00     0.008 C 
ENDBRANCH   5   9
TORSDOF 1
ENDMDL
MODEL 8
REMARK VINA RESULT:    -3.701      1.659      4.060
REMARK INTER + INTRA:          -4.061
REMARK INTER:                  -3.887
REMARK INTRA:                  -0.174
REMARK UNBOUND:                -0.144
REMARK SMILES CC(C)[C@@H]1CC[C@H](C)CC1=O
REMARK SMILES IDX 8 1 7 2 6 3 5 4 4 5 10 6 11 7 9 8 2 9 1 10 3 11
REMARK H PARENT
REMARK Flexibility Score: inf
ROOT
ATOM      1  C   UNL     1      66.489  50.989  19.059  1.00  0.00     0.008 C 
ATOM      2  C   UNL     1      66.680  52.483  18.753  1.00  0.00    -0.007 C 
ATOM      3  C   UNL     1      66.865  53.315  20.044  1.00  0.00     0.004 C 
ATOM      4  C   UNL     1      68.236  53.091  20.716  1.00  0.00     0.012 C 
ATOM      5  C   UNL     1      69.408  53.357  19.741  1.00  0.00     0.058 C 
ATOM      6  C   UNL     1      69.157  52.535  18.488  1.00  0.00     0.136 C 
ATOM      7  O   UNL     1      69.943  51.682  18.106  1.00  0.00    -0.299 OA
ATOM      8  C   UNL     1      67.847  52.716  17.777  1.00  0.00     0.079 C 
ENDROOT
BRANCH   5   9
ATOM      9  C   UNL     1      70.812  53.084  20.376  1.00  0.00    -0.007 C 
ATOM     10  C   UNL     1      70.723  52.346  21.724  1.00  0.00     0.008 C 
ATOM     11  C   UNL     1      71.582  54.401  20.590  1.00  0.00     0.008 C 
ENDBRANCH   5   9
TORSDOF 1
ENDMDL
MODEL 9
REMARK VINA RESULT:    -3.664      2.371      3.596
REMARK INTER + INTRA:          -4.022
REMARK INTER:                  -3.862
REMARK INTRA:                  -0.161
REMARK UNBOUND:                -0.144
REMARK SMILES CC(C)[C@@H]1CC[C@H](C)CC1=O
REMARK SMILES IDX 8 1 7 2 6 3 5 4 4 5 10 6 11 7 9 8 2 9 1 10 3 11
REMARK H PARENT
REMARK Flexibility Score: inf
ROOT
ATOM      1  C   UNL     1      69.139  51.193  20.891  1.00  0.00     0.008 C 
ATOM      2  C   UNL     1      68.644  52.639  20.735  1.00  0.00    -0.007 C 
ATOM      3  C   UNL     1      69.805  53.657  20.831  1.00  0.00     0.004 C 
ATOM      4  C   UNL     1      70.723  53.645  19.591  1.00  0.00     0.012 C 
ATOM      5  C   UNL     1      69.930  53.867  18.281  1.00  0.00     0.058 C 
ATOM      6  C   UNL     1      68.793  52.860  18.258  1.00  0.00     0.136 C 
ATOM      7  O   UNL     1      68.684  52.029  17.368  1.00  0.00    -0.299 OA
ATOM      8  C   UNL     1      67.853  52.829  19.427  1.00  0.00     0.079 C 
ENDROOT
BRANCH   5   9
ATOM      9  C   UNL     1      70.825  53.804  16.999  1.00  0.00    -0.007 C 
ATOM     10  C   UNL     1      72.330  53.820  17.323  1.00  0.00     0.008 C 
ATOM     11  C   UNL     1      70.517  54.984  16.057  1.00  0.00     0.008 C 
ENDBRANCH   5   9
TORSDOF 1
ENDMDL
