MODEL 1
REMARK VINA RESULT:    -5.096      0.000      0.000
REMARK INTER + INTRA:          -5.916
REMARK INTER:                  -5.692
REMARK INTRA:                  -0.224
REMARK UNBOUND:                -0.224
REMARK SMILES O=C([O-])c1ccccc1C(=O)[O-]
REMARK SMILES IDX 4 1 9 2 5 3 8 4 6 5 7 6 2 7 1 8 3 9 10 10 11 11 12 12
REMARK H PARENT
REMARK Flexibility Score: inf
ROOT
ATOM      1  C   UNL     1     115.138 -49.904  28.476  1.00  0.00     0.006 A 
ATOM      2  C   UNL     1     116.443 -49.549  28.917  1.00  0.00     0.006 A 
ATOM      3  C   UNL     1     114.997 -50.876  27.468  1.00  0.00     0.010 A 
ATOM      4  C   UNL     1     117.560 -50.131  28.290  1.00  0.00     0.010 A 
ATOM      5  C   UNL     1     116.119 -51.457  26.875  1.00  0.00     0.001 A 
ATOM      6  C   UNL     1     117.397 -51.077  27.277  1.00  0.00     0.001 A 
ENDROOT
BRANCH   1   7
ATOM      7  C   UNL     1     113.915 -49.241  28.982  1.00  0.00     0.072 C 
ATOM      8  O   UNL     1     113.266 -49.750  29.934  1.00  0.00    -0.545 OA
ATOM      9  O   UNL     1     113.428 -48.089  28.375  1.00  0.00    -0.545 OA
ENDBRANCH   1   7
BRANCH   2  10
ATOM     10  C   UNL     1     116.688 -48.640  30.061  1.00  0.00     0.072 C 
ATOM     11  O   UNL     1     116.935 -47.419  29.873  1.00  0.00    -0.545 OA
ATOM     12  O   UNL     1     116.580 -49.114  31.363  1.00  0.00    -0.545 OA
ENDBRANCH   2  10
TORSDOF 2
ENDMDL
MODEL 2
REMARK VINA RESULT:    -5.065      0.117      3.155
REMARK INTER + INTRA:          -5.881
REMARK INTER:                  -5.662
REMARK INTRA:                  -0.219
REMARK UNBOUND:                -0.224
REMARK SMILES O=C([O-])c1ccccc1C(=O)[O-]
REMARK SMILES IDX 4 1 9 2 5 3 8 4 6 5 7 6 2 7 1 8 3 9 10 10 11 11 12 12
REMARK H PARENT
REMARK Flexibility Score: inf
ROOT
ATOM      1  C   UNL     1     116.400 -49.499  28.859  1.00  0.00     0.006 A 
ATOM      2  C   UNL     1     115.100 -49.877  28.419  1.00  0.00     0.006 A 
ATOM      3  C   UNL     1     117.525 -50.093  28.258  1.00  0.00     0.010 A 
ATOM      4  C   UNL     1     114.972 -50.880  27.441  1.00  0.00     0.010 A 
ATOM      5  C   UNL     1     117.375 -51.072  27.273  1.00  0.00     0.001 A 
ATOM      6  C   UNL     1     116.102 -51.473  26.875  1.00  0.00     0.001 A 
ENDROOT
BRANCH   1   7
ATOM      7  C   UNL     1     116.623 -48.555  29.977  1.00  0.00     0.072 C 
ATOM      8  O   UNL     1     117.030 -47.386  29.748  1.00  0.00    -0.545 OA
ATOM      9  O   UNL     1     116.452 -48.962  31.295  1.00  0.00    -0.545 OA
ENDBRANCH   1   7
BRANCH   2  10
ATOM     10  C   UNL     1     113.864 -49.212  28.893  1.00  0.00     0.072 C 
ATOM     11  O   UNL     1     113.166 -49.725  29.809  1.00  0.00    -0.545 OA
ATOM     12  O   UNL     1     113.496 -47.975  28.378  1.00  0.00    -0.545 OA
ENDBRANCH   2  10
TORSDOF 2
ENDMDL
MODEL 3
REMARK VINA RESULT:    -5.062      0.948      3.099
REMARK INTER + INTRA:          -5.877
REMARK INTER:                  -5.661
REMARK INTRA:                  -0.216
REMARK UNBOUND:                -0.224
REMARK SMILES O=C([O-])c1ccccc1C(=O)[O-]
REMARK SMILES IDX 4 1 9 2 5 3 8 4 6 5 7 6 2 7 1 8 3 9 10 10 11 11 12 12
REMARK H PARENT
REMARK Flexibility Score: inf
ROOT
ATOM      1  C   UNL     1     117.019 -49.746  28.944  1.00  0.00     0.006 A 
ATOM      2  C   UNL     1     115.604 -49.765  28.790  1.00  0.00     0.006 A 
ATOM      3  C   UNL     1     117.816 -50.454  28.026  1.00  0.00     0.010 A 
ATOM      4  C   UNL     1     115.037 -50.543  27.765  1.00  0.00     0.010 A 
ATOM      5  C   UNL     1     117.233 -51.203  27.002  1.00  0.00     0.001 A 
ATOM      6  C   UNL     1     115.846 -51.257  26.879  1.00  0.00     0.001 A 
ENDROOT
BRANCH   1   7
ATOM      7  C   UNL     1     117.691 -49.068  30.075  1.00  0.00     0.072 C 
ATOM      8  O   UNL     1     118.238 -47.946  29.907  1.00  0.00    -0.545 OA
ATOM      9  O   UNL     1     117.788 -49.686  31.317  1.00  0.00    -0.545 OA
ENDBRANCH   1   7
BRANCH   2  10
ATOM     10  C   UNL     1     114.692 -48.944  29.621  1.00  0.00     0.072 C 
ATOM     11  O   UNL     1     114.257 -47.839  29.200  1.00  0.00    -0.545 OA
ATOM     12  O   UNL     1     114.251 -49.419  30.850  1.00  0.00    -0.545 OA
ENDBRANCH   2  10
TORSDOF 2
ENDMDL
MODEL 4
REMARK VINA RESULT:    -5.018      0.789      2.920
REMARK INTER + INTRA:          -5.829
REMARK INTER:                  -5.661
REMARK INTRA:                  -0.168
REMARK UNBOUND:                -0.224
REMARK SMILES O=C([O-])c1ccccc1C(=O)[O-]
REMARK SMILES IDX 4 1 9 2 5 3 8 4 6 5 7 6 2 7 1 8 3 9 10 10 11 11 12 12
REMARK H PARENT
REMARK Flexibility Score: inf
ROOT
ATOM      1  C   UNL     1     115.942 -49.446  29.300  1.00  0.00     0.006 A 
ATOM      2  C   UNL     1     114.834 -49.839  28.497  1.00  0.00     0.006 A 
ATOM      3  C   UNL     1     117.241 -49.803  28.895  1.00  0.00     0.010 A 
ATOM      4  C   UNL     1     115.062 -50.629  27.356  1.00  0.00     0.010 A 
ATOM      5  C   UNL     1     117.446 -50.569  27.746  1.00  0.00     0.001 A 
ATOM      6  C   UNL     1     116.358 -50.991  26.985  1.00  0.00     0.001 A 
ENDROOT
BRANCH   1   7
ATOM      7  C   UNL     1     115.783 -48.734  30.588  1.00  0.00     0.072 C 
ATOM      8  O   UNL     1     115.696 -49.383  31.664  1.00  0.00    -0.545 OA
ATOM      9  O   UNL     1     115.661 -47.350  30.624  1.00  0.00    -0.545 OA
ENDBRANCH   1   7
BRANCH   2  10
ATOM     10  C   UNL     1     113.446 -49.396  28.767  1.00  0.00     0.072 C 
ATOM     11  O   UNL     1     112.874 -48.571  28.007  1.00  0.00    -0.545 OA
ATOM     12  O   UNL     1     112.734 -49.942  29.828  1.00  0.00    -0.545 OA
ENDBRANCH   2  10
TORSDOF 2
ENDMDL
MODEL 5
REMARK VINA RESULT:    -4.953      6.501      8.122
REMARK INTER + INTRA:          -5.756
REMARK INTER:                  -5.629
REMARK INTRA:                  -0.127
REMARK UNBOUND:                -0.224
REMARK SMILES O=C([O-])c1ccccc1C(=O)[O-]
REMARK SMILES IDX 4 1 9 2 5 3 8 4 6 5 7 6 2 7 1 8 3 9 10 10 11 11 12 12
REMARK H PARENT
REMARK Flexibility Score: inf
ROOT
ATOM      1  C   UNL     1     110.559 -50.900  32.989  1.00  0.00     0.006 A 
ATOM      2  C   UNL     1     109.579 -50.082  33.619  1.00  0.00     0.006 A 
ATOM      3  C   UNL     1     111.545 -50.292  32.190  1.00  0.00     0.010 A 
ATOM      4  C   UNL     1     109.583 -48.697  33.375  1.00  0.00     0.010 A 
ATOM      5  C   UNL     1     111.543 -48.912  31.979  1.00  0.00     0.001 A 
ATOM      6  C   UNL     1     110.557 -48.118  32.560  1.00  0.00     0.001 A 
ENDROOT
BRANCH   1   7
ATOM      7  C   UNL     1     110.547 -52.377  33.080  1.00  0.00     0.072 C 
ATOM      8  O   UNL     1     111.453 -52.981  33.712  1.00  0.00    -0.545 OA
ATOM      9  O   UNL     1     109.578 -53.121  32.415  1.00  0.00    -0.545 OA
ENDBRANCH   1   7
BRANCH   2  10
ATOM     10  C   UNL     1     108.587 -50.612  34.584  1.00  0.00     0.072 C 
ATOM     11  O   UNL     1     107.568 -51.236  34.183  1.00  0.00    -0.545 OA
ATOM     12  O   UNL     1     108.807 -50.485  35.950  1.00  0.00    -0.545 OA
ENDBRANCH   2  10
TORSDOF 2
ENDMDL
MODEL 6
REMARK VINA RESULT:    -4.905      1.400      1.941
REMARK INTER + INTRA:          -5.702
REMARK INTER:                  -5.528
REMARK INTRA:                  -0.174
REMARK UNBOUND:                -0.224
REMARK SMILES O=C([O-])c1ccccc1C(=O)[O-]
REMARK SMILES IDX 4 1 9 2 5 3 8 4 6 5 7 6 2 7 1 8 3 9 10 10 11 11 12 12
REMARK H PARENT
REMARK Flexibility Score: inf
ROOT
ATOM      1  C   UNL     1     115.589 -50.001  28.613  1.00  0.00     0.006 A 
ATOM      2  C   UNL     1     116.149 -49.678  29.881  1.00  0.00     0.006 A 
ATOM      3  C   UNL     1     116.442 -50.426  27.577  1.00  0.00     0.010 A 
ATOM      4  C   UNL     1     117.546 -49.730  30.047  1.00  0.00     0.010 A 
ATOM      5  C   UNL     1     117.822 -50.491  27.770  1.00  0.00     0.001 A 
ATOM      6  C   UNL     1     118.374 -50.132  28.998  1.00  0.00     0.001 A 
ENDROOT
BRANCH   1   7
ATOM      7  C   UNL     1     114.149 -49.841  28.311  1.00  0.00     0.072 C 
ATOM      8  O   UNL     1     113.447 -50.846  28.022  1.00  0.00    -0.545 OA
ATOM      9  O   UNL     1     113.566 -48.579  28.276  1.00  0.00    -0.545 OA
ENDBRANCH   1   7
BRANCH   2  10
ATOM     10  C   UNL     1     115.324 -49.354  31.068  1.00  0.00     0.072 C 
ATOM     11  O   UNL     1     114.908 -50.265  31.833  1.00  0.00    -0.545 OA
ATOM     12  O   UNL     1     115.055 -48.029  31.389  1.00  0.00    -0.545 OA
ENDBRANCH   2  10
TORSDOF 2
ENDMDL
MODEL 7
REMARK VINA RESULT:    -4.721      5.709      7.000
REMARK INTER + INTRA:          -5.497
REMARK INTER:                  -5.351
REMARK INTRA:                  -0.145
REMARK UNBOUND:                -0.224
REMARK SMILES O=C([O-])c1ccccc1C(=O)[O-]
REMARK SMILES IDX 4 1 9 2 5 3 8 4 6 5 7 6 2 7 1 8 3 9 10 10 11 11 12 12
REMARK H PARENT
REMARK Flexibility Score: inf
ROOT
ATOM      1  C   UNL     1     110.433 -48.924  32.489  1.00  0.00     0.006 A 
ATOM      2  C   UNL     1     110.228 -47.844  31.585  1.00  0.00     0.006 A 
ATOM      3  C   UNL     1     111.270 -49.988  32.105  1.00  0.00     0.010 A 
ATOM      4  C   UNL     1     110.815 -47.899  30.307  1.00  0.00     0.010 A 
ATOM      5  C   UNL     1     111.860 -50.012  30.840  1.00  0.00     0.001 A 
ATOM      6  C   UNL     1     111.624 -48.976  29.939  1.00  0.00     0.001 A 
ENDROOT
BRANCH   1   7
ATOM      7  C   UNL     1     109.745 -49.014  33.797  1.00  0.00     0.072 C 
ATOM      8  O   UNL     1     110.133 -48.311  34.767  1.00  0.00    -0.545 OA
ATOM      9  O   UNL     1     108.709 -49.920  33.993  1.00  0.00    -0.545 OA
ENDBRANCH   1   7
BRANCH   2  10
ATOM     10  C   UNL     1     109.478 -46.620  31.949  1.00  0.00     0.072 C 
ATOM     11  O   UNL     1     108.224 -46.573  31.829  1.00  0.00    -0.545 OA
ATOM     12  O   UNL     1     110.145 -45.529  32.493  1.00  0.00    -0.545 OA
ENDBRANCH   2  10
TORSDOF 2
ENDMDL
MODEL 8
REMARK VINA RESULT:    -4.649      2.382      3.510
REMARK INTER + INTRA:          -5.416
REMARK INTER:                  -5.242
REMARK INTRA:                  -0.174
REMARK UNBOUND:                -0.224
REMARK SMILES O=C([O-])c1ccccc1C(=O)[O-]
REMARK SMILES IDX 4 1 9 2 5 3 8 4 6 5 7 6 2 7 1 8 3 9 10 10 11 11 12 12
REMARK H PARENT
REMARK Flexibility Score: inf
ROOT
ATOM      1  C   UNL     1     117.621 -48.475  29.684  1.00  0.00     0.006 A 
ATOM      2  C   UNL     1     118.173 -47.242  30.131  1.00  0.00     0.006 A 
ATOM      3  C   UNL     1     118.108 -49.052  28.497  1.00  0.00     0.010 A 
ATOM      4  C   UNL     1     119.146 -46.600  29.342  1.00  0.00     0.010 A 
ATOM      5  C   UNL     1     119.089 -48.409  27.741  1.00  0.00     0.001 A 
ATOM      6  C   UNL     1     119.598 -47.180  28.156  1.00  0.00     0.001 A 
ENDROOT
BRANCH   1   7
ATOM      7  C   UNL     1     116.499 -49.147  30.378  1.00  0.00     0.072 C 
ATOM      8  O   UNL     1     116.729 -50.042  31.234  1.00  0.00    -0.545 OA
ATOM      9  O   UNL     1     115.181 -48.851  30.050  1.00  0.00    -0.545 OA
ENDBRANCH   1   7
BRANCH   2  10
ATOM     10  C   UNL     1     117.823 -46.627  31.433  1.00  0.00     0.072 C 
ATOM     11  O   UNL     1     118.227 -47.133  32.514  1.00  0.00    -0.545 OA
ATOM     12  O   UNL     1     117.100 -45.441  31.472  1.00  0.00    -0.545 OA
ENDBRANCH   2  10
TORSDOF 2
ENDMDL
MODEL 9
REMARK VINA RESULT:    -4.591      5.354      6.701
REMARK INTER + INTRA:          -5.352
REMARK INTER:                  -5.180
REMARK INTRA:                  -0.172
REMARK UNBOUND:                -0.224
REMARK SMILES O=C([O-])c1ccccc1C(=O)[O-]
REMARK SMILES IDX 4 1 9 2 5 3 8 4 6 5 7 6 2 7 1 8 3 9 10 10 11 11 12 12
REMARK H PARENT
REMARK Flexibility Score: inf
ROOT
ATOM      1  C   UNL     1     110.341 -48.963  32.462  1.00  0.00     0.006 A 
ATOM      2  C   UNL     1     111.259 -49.957  32.019  1.00  0.00     0.006 A 
ATOM      3  C   UNL     1     110.095 -47.846  31.643  1.00  0.00     0.010 A 
ATOM      4  C   UNL     1     111.944 -49.764  30.806  1.00  0.00     0.010 A 
ATOM      5  C   UNL     1     110.771 -47.685  30.433  1.00  0.00     0.001 A 
ATOM      6  C   UNL     1     111.702 -48.636  30.021  1.00  0.00     0.001 A 
ENDROOT
BRANCH   1   7
ATOM      7  C   UNL     1     109.682 -49.017  33.787  1.00  0.00     0.072 C 
ATOM      8  O   UNL     1     110.079 -48.274  34.723  1.00  0.00    -0.545 OA
ATOM      9  O   UNL     1     108.665 -49.931  34.037  1.00  0.00    -0.545 OA
ENDBRANCH   1   7
BRANCH   2  10
ATOM     10  C   UNL     1     111.480 -51.230  32.744  1.00  0.00     0.072 C 
ATOM     11  O   UNL     1     112.362 -51.316  33.641  1.00  0.00    -0.545 OA
ATOM     12  O   UNL     1     110.668 -52.328  32.489  1.00  0.00    -0.545 OA
ENDBRANCH   2  10
TORSDOF 2
ENDMDL
