MODEL 1
REMARK VINA RESULT:    -4.430      0.000      0.000
REMARK INTER + INTRA:          -4.975
REMARK INTER:                  -4.819
REMARK INTRA:                  -0.157
REMARK UNBOUND:                -0.157
REMARK SMILES CC(C)c1cc2c(cc1O)[C@@]1(C)CCCC(C)(C)[C@@H]1CC2=O
REMARK SMILES IDX 4 1 9 2 8 3 7 4 6 5 5 6 21 7 22 8 20 9 19 10 11 11 13 12
REMARK SMILES IDX 14 13 15 14 16 15 17 16 18 17 12 18 2 19 1 20 3 21 10 22
REMARK H PARENT 10 23
REMARK Flexibility Score: inf
ROOT
ATOM      1  C   UNL     1      27.482  42.401  20.566  1.00  0.00    -0.003 A 
ATOM      2  C   UNL     1      26.678  41.953  21.646  1.00  0.00     0.119 A 
ATOM      3  C   UNL     1      26.147  40.660  21.629  1.00  0.00     0.051 A 
ATOM      4  C   UNL     1      26.374  39.773  20.558  1.00  0.00    -0.027 A 
ATOM      5  C   UNL     1      27.247  40.184  19.526  1.00  0.00     0.022 A 
ATOM      6  C   UNL     1      27.770  41.489  19.533  1.00  0.00     0.020 A 
ATOM      7  C   UNL     1      27.624  39.251  18.441  1.00  0.00     0.163 C 
ATOM      8  O   UNL     1      28.384  39.626  17.506  1.00  0.00    -0.294 OA
ATOM      9  C   UNL     1      27.158  37.831  18.463  1.00  0.00     0.086 C 
ATOM     10  C   UNL     1      25.781  37.720  19.153  1.00  0.00     0.013 C 
ATOM     11  C   UNL     1      25.786  38.346  20.599  1.00  0.00    -0.003 C 
ATOM     12  C   UNL     1      24.307  38.396  21.133  1.00  0.00     0.012 C 
ATOM     13  C   UNL     1      23.336  37.381  20.502  1.00  0.00     0.001 C 
ATOM     14  C   UNL     1      24.027  36.072  20.125  1.00  0.00     0.007 C 
ATOM     15  C   UNL     1      25.125  36.279  19.038  1.00  0.00    -0.031 C 
ATOM     16  C   UNL     1      26.162  35.133  19.161  1.00  0.00     0.011 C 
ATOM     17  C   UNL     1      24.456  36.138  17.643  1.00  0.00     0.011 C 
ATOM     18  C   UNL     1      26.671  37.546  21.591  1.00  0.00     0.017 C 
ENDROOT
BRANCH   1  19
ATOM     19  C   UNL     1      28.074  43.806  20.453  1.00  0.00     0.017 C 
ATOM     20  C   UNL     1      28.561  44.125  19.033  1.00  0.00     0.012 C 
ATOM     21  C   UNL     1      29.125  44.111  21.532  1.00  0.00     0.012 C 
ENDBRANCH   1  19
BRANCH   2  22
ATOM     22  O   UNL     1      26.376  42.735  22.763  1.00  0.00    -0.508 OA
ATOM     23  H   UNL     1      25.477  43.136  22.958  1.00  0.00     0.293 HD
ENDBRANCH   2  22
TORSDOF 2
ENDMDL
MODEL 2
REMARK VINA RESULT:    -4.351      3.346      6.340
REMARK INTER + INTRA:          -4.889
REMARK INTER:                  -4.649
REMARK INTRA:                  -0.239
REMARK UNBOUND:                -0.157
REMARK SMILES CC(C)c1cc2c(cc1O)[C@@]1(C)CCCC(C)(C)[C@@H]1CC2=O
REMARK SMILES IDX 4 1 9 2 8 3 7 4 6 5 5 6 21 7 22 8 20 9 19 10 11 11 13 12
REMARK SMILES IDX 14 13 15 14 16 15 17 16 18 17 12 18 2 19 1 20 3 21 10 22
REMARK H PARENT 10 23
REMARK Flexibility Score: inf
ROOT
ATOM      1  C   UNL     1      27.582  34.471  23.477  1.00  0.00    -0.003 A 
ATOM      2  C   UNL     1      26.658  35.473  23.876  1.00  0.00     0.119 A 
ATOM      3  C   UNL     1      26.354  36.523  23.006  1.00  0.00     0.051 A 
ATOM      4  C   UNL     1      26.945  36.635  21.732  1.00  0.00    -0.027 A 
ATOM      5  C   UNL     1      27.795  35.592  21.299  1.00  0.00     0.022 A 
ATOM      6  C   UNL     1      28.116  34.543  22.177  1.00  0.00     0.020 A 
ATOM      7  C   UNL     1      28.346  35.590  19.925  1.00  0.00     0.163 C 
ATOM      8  O   UNL     1      29.124  34.672  19.546  1.00  0.00    -0.294 OA
ATOM      9  C   UNL     1      27.944  36.642  18.943  1.00  0.00     0.086 C 
ATOM     10  C   UNL     1      27.638  37.973  19.665  1.00  0.00     0.013 C 
ATOM     11  C   UNL     1      26.556  37.801  20.798  1.00  0.00    -0.003 C 
ATOM     12  C   UNL     1      26.473  39.137  21.624  1.00  0.00     0.012 C 
ATOM     13  C   UNL     1      26.931  40.408  20.883  1.00  0.00     0.001 C 
ATOM     14  C   UNL     1      26.631  40.349  19.387  1.00  0.00     0.007 C 
ATOM     15  C   UNL     1      27.401  39.194  18.679  1.00  0.00    -0.031 C 
ATOM     16  C   UNL     1      26.620  38.793  17.400  1.00  0.00     0.011 C 
ATOM     17  C   UNL     1      28.778  39.744  18.216  1.00  0.00     0.011 C 
ATOM     18  C   UNL     1      25.154  37.449  20.234  1.00  0.00     0.017 C 
ENDROOT
BRANCH   1  19
ATOM     19  C   UNL     1      28.028  33.306  24.361  1.00  0.00     0.017 C 
ATOM     20  C   UNL     1      29.123  33.710  25.357  1.00  0.00     0.012 C 
ATOM     21  C   UNL     1      28.378  32.039  23.564  1.00  0.00     0.012 C 
ENDBRANCH   1  19
BRANCH   2  22
ATOM     22  O   UNL     1      26.007  35.478  25.110  1.00  0.00    -0.508 OA
ATOM     23  H   UNL     1      26.225  36.094  25.873  1.00  0.00     0.293 HD
ENDBRANCH   2  22
TORSDOF 2
ENDMDL
MODEL 3
REMARK VINA RESULT:    -4.306      1.770      6.598
REMARK INTER + INTRA:          -4.840
REMARK INTER:                  -5.242
REMARK INTRA:                   0.401
REMARK UNBOUND:                -0.157
REMARK SMILES CC(C)c1cc2c(cc1O)[C@@]1(C)CCCC(C)(C)[C@@H]1CC2=O
REMARK SMILES IDX 4 1 9 2 8 3 7 4 6 5 5 6 21 7 22 8 20 9 19 10 11 11 13 12
REMARK SMILES IDX 14 13 15 14 16 15 17 16 18 17 12 18 2 19 1 20 3 21 10 22
REMARK H PARENT 10 23
REMARK Flexibility Score: inf
ROOT
ATOM      1  C   UNL     1      26.909  36.644  19.648  1.00  0.00    -0.003 A 
ATOM      2  C   UNL     1      28.177  37.100  19.200  1.00  0.00     0.119 A 
ATOM      3  C   UNL     1      28.533  38.441  19.368  1.00  0.00     0.051 A 
ATOM      4  C   UNL     1      27.665  39.375  19.967  1.00  0.00    -0.027 A 
ATOM      5  C   UNL     1      26.441  38.905  20.495  1.00  0.00     0.022 A 
ATOM      6  C   UNL     1      26.073  37.561  20.312  1.00  0.00     0.020 A 
ATOM      7  C   UNL     1      25.545  39.813  21.245  1.00  0.00     0.163 C 
ATOM      8  O   UNL     1      24.442  39.399  21.695  1.00  0.00    -0.294 OA
ATOM      9  C   UNL     1      25.957  41.220  21.535  1.00  0.00     0.086 C 
ATOM     10  C   UNL     1      26.865  41.764  20.410  1.00  0.00     0.013 C 
ATOM     11  C   UNL     1      28.116  40.839  20.154  1.00  0.00    -0.003 C 
ATOM     12  C   UNL     1      28.855  41.337  18.857  1.00  0.00     0.012 C 
ATOM     13  C   UNL     1      28.629  42.816  18.488  1.00  0.00     0.001 C 
ATOM     14  C   UNL     1      28.448  43.701  19.718  1.00  0.00     0.007 C 
ATOM     15  C   UNL     1      27.181  43.314  20.539  1.00  0.00    -0.031 C 
ATOM     16  C   UNL     1      27.389  43.767  22.008  1.00  0.00     0.011 C 
ATOM     17  C   UNL     1      25.978  44.123  19.981  1.00  0.00     0.011 C 
ATOM     18  C   UNL     1      29.107  40.834  21.348  1.00  0.00     0.017 C 
ENDROOT
BRANCH   1  19
ATOM     19  C   UNL     1      26.393  35.215  19.472  1.00  0.00     0.017 C 
ATOM     20  C   UNL     1      27.528  34.189  19.379  1.00  0.00     0.012 C 
ATOM     21  C   UNL     1      25.362  35.077  18.341  1.00  0.00     0.012 C 
ENDBRANCH   1  19
BRANCH   2  22
ATOM     22  O   UNL     1      29.124  36.276  18.589  1.00  0.00    -0.508 OA
ATOM     23  H   UNL     1      29.226  36.152  17.598  1.00  0.00     0.293 HD
ENDBRANCH   2  22
TORSDOF 2
ENDMDL
MODEL 4
REMARK VINA RESULT:    -3.743      2.302      6.158
REMARK INTER + INTRA:          -4.228
REMARK INTER:                  -4.223
REMARK INTRA:                  -0.004
REMARK UNBOUND:                -0.157
REMARK SMILES CC(C)c1cc2c(cc1O)[C@@]1(C)CCCC(C)(C)[C@@H]1CC2=O
REMARK SMILES IDX 4 1 9 2 8 3 7 4 6 5 5 6 21 7 22 8 20 9 19 10 11 11 13 12
REMARK SMILES IDX 14 13 15 14 16 15 17 16 18 17 12 18 2 19 1 20 3 21 10 22
REMARK H PARENT 10 23
REMARK Flexibility Score: inf
ROOT
ATOM      1  C   UNL     1      27.782  36.653  19.928  1.00  0.00    -0.003 A 
ATOM      2  C   UNL     1      27.324  36.967  21.234  1.00  0.00     0.119 A 
ATOM      3  C   UNL     1      27.137  38.302  21.603  1.00  0.00     0.051 A 
ATOM      4  C   UNL     1      27.397  39.367  20.717  1.00  0.00    -0.027 A 
ATOM      5  C   UNL     1      27.765  39.053  19.389  1.00  0.00     0.022 A 
ATOM      6  C   UNL     1      27.971  37.712  19.020  1.00  0.00     0.020 A 
ATOM      7  C   UNL     1      27.929  40.123  18.380  1.00  0.00     0.163 C 
ATOM      8  O   UNL     1      28.281  39.845  17.201  1.00  0.00    -0.294 OA
ATOM      9  C   UNL     1      27.623  41.545  18.723  1.00  0.00     0.086 C 
ATOM     10  C   UNL     1      27.913  41.820  20.215  1.00  0.00     0.013 C 
ATOM     11  C   UNL     1      27.147  40.823  21.165  1.00  0.00    -0.003 C 
ATOM     12  C   UNL     1      27.671  41.023  22.635  1.00  0.00     0.012 C 
ATOM     13  C   UNL     1      28.283  42.403  22.941  1.00  0.00     0.001 C 
ATOM     14  C   UNL     1      27.615  43.525  22.149  1.00  0.00     0.007 C 
ATOM     15  C   UNL     1      27.808  43.354  20.612  1.00  0.00    -0.031 C 
ATOM     16  C   UNL     1      26.650  44.086  19.886  1.00  0.00     0.011 C 
ATOM     17  C   UNL     1      29.124  44.072  20.207  1.00  0.00     0.011 C 
ATOM     18  C   UNL     1      25.610  41.026  21.127  1.00  0.00     0.017 C 
ENDROOT
BRANCH   1  19
ATOM     19  C   UNL     1      28.071  35.237  19.430  1.00  0.00     0.017 C 
ATOM     20  C   UNL     1      26.797  34.491  19.012  1.00  0.00     0.012 C 
ATOM     21  C   UNL     1      28.956  34.425  20.389  1.00  0.00     0.012 C 
ENDBRANCH   1  19
BRANCH   2  22
ATOM     22  O   UNL     1      27.034  36.006  22.204  1.00  0.00    -0.508 OA
ATOM     23  H   UNL     1      26.767  35.058  22.013  1.00  0.00     0.293 HD
ENDBRANCH   2  22
TORSDOF 2
ENDMDL
MODEL 5
REMARK VINA RESULT:    -3.294      4.743      8.169
REMARK INTER + INTRA:          -3.740
REMARK INTER:                  -3.504
REMARK INTRA:                  -0.236
REMARK UNBOUND:                -0.157
REMARK SMILES CC(C)c1cc2c(cc1O)[C@@]1(C)CCCC(C)(C)[C@@H]1CC2=O
REMARK SMILES IDX 4 1 9 2 8 3 7 4 6 5 5 6 21 7 22 8 20 9 19 10 11 11 13 12
REMARK SMILES IDX 14 13 15 14 16 15 17 16 18 17 12 18 2 19 1 20 3 21 10 22
REMARK H PARENT 10 23
REMARK Flexibility Score: inf
ROOT
ATOM      1  C   UNL     1      28.261  32.030  23.790  1.00  0.00    -0.003 A 
ATOM      2  C   UNL     1      28.595  31.884  22.418  1.00  0.00     0.119 A 
ATOM      3  C   UNL     1      28.402  32.951  21.537  1.00  0.00     0.051 A 
ATOM      4  C   UNL     1      27.871  34.185  21.963  1.00  0.00    -0.027 A 
ATOM      5  C   UNL     1      27.624  34.363  23.343  1.00  0.00     0.022 A 
ATOM      6  C   UNL     1      27.801  33.286  24.229  1.00  0.00     0.020 A 
ATOM      7  C   UNL     1      27.186  35.676  23.867  1.00  0.00     0.163 C 
ATOM      8  O   UNL     1      26.941  35.829  25.095  1.00  0.00    -0.294 OA
ATOM      9  C   UNL     1      27.082  36.860  22.962  1.00  0.00     0.086 C 
ATOM     10  C   UNL     1      26.705  36.420  21.530  1.00  0.00     0.013 C 
ATOM     11  C   UNL     1      27.702  35.342  20.956  1.00  0.00    -0.003 C 
ATOM     12  C   UNL     1      27.122  34.788  19.602  1.00  0.00     0.012 C 
ATOM     13  C   UNL     1      26.148  35.724  18.862  1.00  0.00     0.001 C 
ATOM     14  C   UNL     1      26.492  37.198  19.063  1.00  0.00     0.007 C 
ATOM     15  C   UNL     1      26.377  37.630  20.556  1.00  0.00    -0.031 C 
ATOM     16  C   UNL     1      27.299  38.856  20.787  1.00  0.00     0.011 C 
ATOM     17  C   UNL     1      24.920  38.103  20.811  1.00  0.00     0.011 C 
ATOM     18  C   UNL     1      29.124  35.915  20.717  1.00  0.00     0.017 C 
ENDROOT
BRANCH   1  19
ATOM     19  C   UNL     1      28.382  30.919  24.833  1.00  0.00     0.017 C 
ATOM     20  C   UNL     1      27.080  30.125  24.997  1.00  0.00     0.012 C 
ATOM     21  C   UNL     1      28.965  31.402  26.171  1.00  0.00     0.012 C 
ENDBRANCH   1  19
BRANCH   2  22
ATOM     22  O   UNL     1      29.125  30.713  21.871  1.00  0.00    -0.508 OA
ATOM     23  H   UNL     1      30.003  30.650  21.388  1.00  0.00     0.293 HD
ENDBRANCH   2  22
TORSDOF 2
ENDMDL
