MODEL 1
REMARK VINA RESULT:     4.929      0.000      0.000
REMARK INTER + INTRA:           7.110
REMARK INTER:                   6.802
REMARK INTRA:                   0.309
REMARK UNBOUND:                 0.309
REMARK SMILES CC[C@@H](CC[C@H](C)[C@H]1CC[C@H]2C3=CC[C@H]4C[C@@H](O)CC[C@@]4(C)[C@H]3CC[C@@]12C)C(C)C
REMARK SMILES IDX 5 1 4 2 3 3 2 4 1 5 28 6 29 7 30 8 6 9 7 10 8 11 9 12 26 13
REMARK SMILES IDX 10 14 11 15 25 16 27 17 12 18 24 19 23 20 13 21 21 22 14 23
REMARK SMILES IDX 15 24 20 25 22 26 16 27 19 28 17 29 18 30
REMARK H PARENT 18 31
REMARK Flexibility Score: inf
ROOT
ATOM      1  C   UNL     1     139.285 125.855 145.184  1.00  0.00     0.004 C 
ENDROOT
BRANCH   1   2
ATOM      2  C   UNL     1     140.009 126.404 143.929  1.00  0.00     0.004 C 
BRANCH   2   3
ATOM      3  C   UNL     1     141.528 126.054 143.837  1.00  0.00    -0.009 C 
BRANCH   3   4
ATOM      4  C   UNL     1     142.370 127.240 144.396  1.00  0.00     0.000 C 
ATOM      5  C   UNL     1     143.263 127.925 143.361  1.00  0.00     0.004 C 
ENDBRANCH   3   4
BRANCH   3   6
ATOM      6  C   UNL     1     141.887 125.616 142.372  1.00  0.00    -0.014 C 
ATOM      7  C   UNL     1     140.774 124.811 141.677  1.00  0.00     0.007 C 
ATOM      8  C   UNL     1     143.237 124.895 142.257  1.00  0.00     0.007 C 
ENDBRANCH   3   6
ENDBRANCH   2   3
ENDBRANCH   1   2
BRANCH   1   9
ATOM      9  C   UNL     1     137.819 126.373 145.366  1.00  0.00    -0.011 C 
ATOM     10  C   UNL     1     137.584 126.872 146.802  1.00  0.00     0.008 C 
BRANCH   9  11
ATOM     11  C   UNL     1     136.659 125.418 144.886  1.00  0.00    -0.002 C 
ATOM     12  C   UNL     1     135.545 126.129 144.111  1.00  0.00     0.005 C 
ATOM     13  C   UNL     1     136.939 124.097 144.097  1.00  0.00    -0.023 C 
ATOM     14  C   UNL     1     134.726 125.031 143.450  1.00  0.00     0.009 C 
ATOM     15  C   UNL     1     135.531 123.725 143.556  1.00  0.00     0.021 C 
ATOM     16  C   UNL     1     137.934 124.309 142.934  1.00  0.00     0.008 C 
ATOM     17  C   UNL     1     137.440 122.963 145.036  1.00  0.00     0.012 C 
ATOM     18  C   UNL     1     135.490 122.933 142.256  1.00  0.00    -0.067 C 
ATOM     19  C   UNL     1     138.052 123.091 142.015  1.00  0.00     0.009 C 
ATOM     20  C   UNL     1     136.710 122.623 141.392  1.00  0.00     0.021 C 
ATOM     21  C   UNL     1     134.299 122.490 141.811  1.00  0.00    -0.027 C 
ATOM     22  C   UNL     1     136.455 123.056 139.888  1.00  0.00    -0.023 C 
ATOM     23  C   UNL     1     134.208 121.817 140.474  1.00  0.00     0.031 C 
ATOM     24  C   UNL     1     134.986 122.633 139.414  1.00  0.00     0.002 C 
ATOM     25  C   UNL     1     136.662 124.598 139.747  1.00  0.00     0.010 C 
ATOM     26  C   UNL     1     137.479 122.328 138.974  1.00  0.00     0.012 C 
ATOM     27  C   UNL     1     134.131 123.832 138.945  1.00  0.00     0.036 C 
ATOM     28  C   UNL     1     136.240 125.163 138.379  1.00  0.00     0.032 C 
ATOM     29  C   UNL     1     134.874 124.639 137.875  1.00  0.00     0.114 C 
BRANCH  29  30
ATOM     30  O   UNL     1     134.063 125.708 137.465  1.00  0.00    -0.393 OA
ATOM     31  H   UNL     1     134.669 126.402 137.096  1.00  0.00     0.210 HD
ENDBRANCH  29  30
ENDBRANCH   9  11
ENDBRANCH   1   9
TORSDOF 7
ENDMDL
MODEL 2
REMARK VINA RESULT:     5.962      1.877      3.287
REMARK INTER + INTRA:           8.537
REMARK INTER:                   9.841
REMARK INTRA:                  -1.304
REMARK UNBOUND:                 0.309
REMARK SMILES CC[C@@H](CC[C@H](C)[C@H]1CC[C@H]2C3=CC[C@H]4C[C@@H](O)CC[C@@]4(C)[C@H]3CC[C@@]12C)C(C)C
REMARK SMILES IDX 5 1 4 2 3 3 2 4 1 5 28 6 29 7 30 8 6 9 7 10 8 11 9 12 26 13
REMARK SMILES IDX 10 14 11 15 25 16 27 17 12 18 24 19 23 20 13 21 21 22 14 23
REMARK SMILES IDX 15 24 20 25 22 26 16 27 19 28 17 29 18 30
REMARK H PARENT 18 31
REMARK Flexibility Score: inf
ROOT
ATOM      1  C   UNL     1     135.817 127.151 146.033  1.00  0.00     0.004 C 
ENDROOT
BRANCH   1   2
ATOM      2  C   UNL     1     137.170 127.859 146.287  1.00  0.00     0.004 C 
BRANCH   2   3
ATOM      3  C   UNL     1     138.269 126.968 146.946  1.00  0.00    -0.009 C 
BRANCH   3   4
ATOM      4  C   UNL     1     139.086 126.241 145.836  1.00  0.00     0.000 C 
ATOM      5  C   UNL     1     140.480 126.820 145.594  1.00  0.00     0.004 C 
ENDBRANCH   3   4
BRANCH   3   6
ATOM      6  C   UNL     1     137.618 126.023 148.018  1.00  0.00    -0.014 C 
ATOM      7  C   UNL     1     138.111 126.284 149.453  1.00  0.00     0.007 C 
ATOM      8  C   UNL     1     137.718 124.531 147.669  1.00  0.00     0.007 C 
ENDBRANCH   3   6
ENDBRANCH   2   3
ENDBRANCH   1   2
BRANCH   1   9
ATOM      9  C   UNL     1     135.382 127.103 144.530  1.00  0.00    -0.011 C 
ATOM     10  C   UNL     1     134.449 128.277 144.187  1.00  0.00     0.008 C 
BRANCH   9  11
ATOM     11  C   UNL     1     134.811 125.733 143.995  1.00  0.00    -0.002 C 
ATOM     12  C   UNL     1     133.891 125.872 142.779  1.00  0.00     0.005 C 
ATOM     13  C   UNL     1     135.735 124.510 143.682  1.00  0.00    -0.023 C 
ATOM     14  C   UNL     1     133.729 124.470 142.210  1.00  0.00     0.009 C 
ATOM     15  C   UNL     1     134.793 123.578 142.871  1.00  0.00     0.021 C 
ATOM     16  C   UNL     1     136.969 124.908 142.841  1.00  0.00     0.008 C 
ATOM     17  C   UNL     1     136.180 123.780 144.981  1.00  0.00     0.012 C 
ATOM     18  C   UNL     1     135.458 122.654 141.859  1.00  0.00    -0.067 C 
ATOM     19  C   UNL     1     137.764 123.703 142.334  1.00  0.00     0.009 C 
ATOM     20  C   UNL     1     136.938 122.695 141.491  1.00  0.00     0.021 C 
ATOM     21  C   UNL     1     134.695 121.749 141.218  1.00  0.00    -0.027 C 
ATOM     22  C   UNL     1     137.122 122.792 139.919  1.00  0.00    -0.023 C 
ATOM     23  C   UNL     1     135.293 120.911 140.127  1.00  0.00     0.031 C 
ATOM     24  C   UNL     1     136.118 121.800 139.166  1.00  0.00     0.002 C 
ATOM     25  C   UNL     1     136.896 124.268 139.457  1.00  0.00     0.010 C 
ATOM     26  C   UNL     1     138.572 122.370 139.554  1.00  0.00     0.012 C 
ATOM     27  C   UNL     1     135.171 122.525 138.183  1.00  0.00     0.036 C 
ATOM     28  C   UNL     1     136.843 124.443 137.930  1.00  0.00     0.032 C 
ATOM     29  C   UNL     1     135.971 123.391 137.204  1.00  0.00     0.114 C 
BRANCH  29  30
ATOM     30  O   UNL     1     135.081 124.022 136.321  1.00  0.00    -0.393 OA
ATOM     31  H   UNL     1     135.481 123.955 135.415  1.00  0.00     0.210 HD
ENDBRANCH  29  30
ENDBRANCH   9  11
ENDBRANCH   1   9
TORSDOF 7
ENDMDL
MODEL 3
REMARK VINA RESULT:     6.300      2.521      6.647
REMARK INTER + INTRA:           9.003
REMARK INTER:                   9.848
REMARK INTRA:                  -0.846
REMARK UNBOUND:                 0.309
REMARK SMILES CC[C@@H](CC[C@H](C)[C@H]1CC[C@H]2C3=CC[C@H]4C[C@@H](O)CC[C@@]4(C)[C@H]3CC[C@@]12C)C(C)C
REMARK SMILES IDX 5 1 4 2 3 3 2 4 1 5 28 6 29 7 30 8 6 9 7 10 8 11 9 12 26 13
REMARK SMILES IDX 10 14 11 15 25 16 27 17 12 18 24 19 23 20 13 21 21 22 14 23
REMARK SMILES IDX 15 24 20 25 22 26 16 27 19 28 17 29 18 30
REMARK H PARENT 18 31
REMARK Flexibility Score: inf
ROOT
ATOM      1  C   UNL     1     137.819 124.097 138.298  1.00  0.00     0.004 C 
ENDROOT
BRANCH   1   2
ATOM      2  C   UNL     1     137.025 123.153 137.361  1.00  0.00     0.004 C 
BRANCH   2   3
ATOM      3  C   UNL     1     135.479 123.373 137.356  1.00  0.00    -0.009 C 
BRANCH   3   4
ATOM      4  C   UNL     1     135.153 124.791 137.911  1.00  0.00     0.000 C 
ATOM      5  C   UNL     1     133.852 125.395 137.380  1.00  0.00     0.004 C 
ENDBRANCH   3   4
BRANCH   3   6
ATOM      6  C   UNL     1     134.768 122.187 138.101  1.00  0.00    -0.014 C 
ATOM      7  C   UNL     1     133.954 122.629 139.330  1.00  0.00     0.007 C 
ATOM      8  C   UNL     1     135.711 121.028 138.457  1.00  0.00     0.007 C 
ENDBRANCH   3   6
ENDBRANCH   2   3
ENDBRANCH   1   2
BRANCH   1   9
ATOM      9  C   UNL     1     139.073 123.443 138.968  1.00  0.00    -0.011 C 
ATOM     10  C   UNL     1     139.328 122.034 138.404  1.00  0.00     0.008 C 
BRANCH   9  11
ATOM     11  C   UNL     1     139.131 123.457 140.544  1.00  0.00    -0.002 C 
ATOM     12  C   UNL     1     139.492 124.819 141.144  1.00  0.00     0.005 C 
ATOM     13  C   UNL     1     137.960 122.909 141.426  1.00  0.00    -0.023 C 
ATOM     14  C   UNL     1     139.163 124.727 142.626  1.00  0.00     0.009 C 
ATOM     15  C   UNL     1     138.317 123.459 142.834  1.00  0.00     0.021 C 
ATOM     16  C   UNL     1     136.583 123.436 140.965  1.00  0.00     0.008 C 
ATOM     17  C   UNL     1     137.956 121.355 141.472  1.00  0.00     0.012 C 
ATOM     18  C   UNL     1     137.151 123.712 143.781  1.00  0.00    -0.067 C 
ATOM     19  C   UNL     1     135.454 123.098 141.940  1.00  0.00     0.009 C 
ATOM     20  C   UNL     1     135.680 123.608 143.388  1.00  0.00     0.021 C 
ATOM     21  C   UNL     1     137.420 124.078 145.048  1.00  0.00    -0.027 C 
ATOM     22  C   UNL     1     134.899 124.929 143.788  1.00  0.00    -0.023 C 
ATOM     23  C   UNL     1     136.297 124.456 145.968  1.00  0.00     0.031 C 
ATOM     24  C   UNL     1     135.324 125.422 145.250  1.00  0.00     0.002 C 
ATOM     25  C   UNL     1     135.174 126.040 142.725  1.00  0.00     0.010 C 
ATOM     26  C   UNL     1     133.375 124.625 143.812  1.00  0.00     0.012 C 
ATOM     27  C   UNL     1     135.906 126.853 145.262  1.00  0.00     0.036 C 
ATOM     28  C   UNL     1     134.637 127.427 143.117  1.00  0.00     0.032 C 
ATOM     29  C   UNL     1     134.944 127.832 144.579  1.00  0.00     0.114 C 
BRANCH  29  30
ATOM     30  O   UNL     1     135.499 129.121 144.621  1.00  0.00    -0.393 OA
ATOM     31  H   UNL     1     136.330 129.058 145.159  1.00  0.00     0.210 HD
ENDBRANCH  29  30
ENDBRANCH   9  11
ENDBRANCH   1   9
TORSDOF 7
ENDMDL
MODEL 4
REMARK VINA RESULT:     6.793      1.698      2.864
REMARK INTER + INTRA:           9.683
REMARK INTER:                  11.146
REMARK INTRA:                  -1.463
REMARK UNBOUND:                 0.309
REMARK SMILES CC[C@@H](CC[C@H](C)[C@H]1CC[C@H]2C3=CC[C@H]4C[C@@H](O)CC[C@@]4(C)[C@H]3CC[C@@]12C)C(C)C
REMARK SMILES IDX 5 1 4 2 3 3 2 4 1 5 28 6 29 7 30 8 6 9 7 10 8 11 9 12 26 13
REMARK SMILES IDX 10 14 11 15 25 16 27 17 12 18 24 19 23 20 13 21 21 22 14 23
REMARK SMILES IDX 15 24 20 25 22 26 16 27 19 28 17 29 18 30
REMARK H PARENT 18 31
REMARK Flexibility Score: inf
ROOT
ATOM      1  C   UNL     1     135.881 127.418 146.085  1.00  0.00     0.004 C 
ENDROOT
BRANCH   1   2
ATOM      2  C   UNL     1     137.400 127.646 146.285  1.00  0.00     0.004 C 
BRANCH   2   3
ATOM      3  C   UNL     1     138.289 126.376 146.099  1.00  0.00    -0.009 C 
BRANCH   3   4
ATOM      4  C   UNL     1     138.400 125.614 147.454  1.00  0.00     0.000 C 
ATOM      5  C   UNL     1     137.974 126.429 148.675  1.00  0.00     0.004 C 
ENDBRANCH   3   4
BRANCH   3   6
ATOM      6  C   UNL     1     139.662 126.776 145.448  1.00  0.00    -0.014 C 
ATOM      7  C   UNL     1     140.038 125.920 144.226  1.00  0.00     0.007 C 
ATOM      8  C   UNL     1     140.824 126.842 146.449  1.00  0.00     0.007 C 
ENDBRANCH   3   6
ENDBRANCH   2   3
ENDBRANCH   1   2
BRANCH   1   9
ATOM      9  C   UNL     1     135.423 127.375 144.589  1.00  0.00    -0.011 C 
ATOM     10  C   UNL     1     134.545 128.590 144.246  1.00  0.00     0.008 C 
BRANCH   9  11
ATOM     11  C   UNL     1     134.779 126.030 144.077  1.00  0.00    -0.002 C 
ATOM     12  C   UNL     1     133.908 126.190 142.828  1.00  0.00     0.005 C 
ATOM     13  C   UNL     1     135.628 124.739 143.832  1.00  0.00    -0.023 C 
ATOM     14  C   UNL     1     133.670 124.784 142.297  1.00  0.00     0.009 C 
ATOM     15  C   UNL     1     134.651 123.845 143.019  1.00  0.00     0.021 C 
ATOM     16  C   UNL     1     136.911 125.027 143.021  1.00  0.00     0.008 C 
ATOM     17  C   UNL     1     135.982 124.024 145.166  1.00  0.00     0.012 C 
ATOM     18  C   UNL     1     135.283 122.847 142.058  1.00  0.00    -0.067 C 
ATOM     19  C   UNL     1     137.639 123.756 142.577  1.00  0.00     0.009 C 
ATOM     20  C   UNL     1     136.774 122.778 141.739  1.00  0.00     0.021 C 
ATOM     21  C   UNL     1     134.481 121.974 141.420  1.00  0.00    -0.027 C 
ATOM     22  C   UNL     1     137.012 122.812 140.171  1.00  0.00    -0.023 C 
ATOM     23  C   UNL     1     135.055 121.064 140.375  1.00  0.00     0.031 C 
ATOM     24  C   UNL     1     135.967 121.864 139.415  1.00  0.00     0.002 C 
ATOM     25  C   UNL     1     136.901 124.283 139.658  1.00  0.00     0.010 C 
ATOM     26  C   UNL     1     138.441 122.283 139.868  1.00  0.00     0.012 C 
ATOM     27  C   UNL     1     135.103 122.618 138.381  1.00  0.00     0.036 C 
ATOM     28  C   UNL     1     136.906 124.412 138.125  1.00  0.00     0.032 C 
ATOM     29  C   UNL     1     135.989 123.397 137.402  1.00  0.00     0.114 C 
BRANCH  29  30
ATOM     30  O   UNL     1     135.171 124.056 136.471  1.00  0.00    -0.393 OA
ATOM     31  H   UNL     1     134.795 124.850 136.932  1.00  0.00     0.210 HD
ENDBRANCH  29  30
ENDBRANCH   9  11
ENDBRANCH   1   9
TORSDOF 7
ENDMDL
