MODEL 1
REMARK VINA RESULT:    -3.063      0.000      0.000
REMARK INTER + INTRA:          -7.944
REMARK INTER:                  -7.003
REMARK INTRA:                  -0.941
REMARK UNBOUND:                -0.941
REMARK SMILES CCCCCCCCCCCCCCCCCCCCCCCC(=O)[O-]
REMARK SMILES IDX 13 1 14 2 15 3 16 4 17 5 18 6 19 7 20 8 21 9 22 10 23 11
REMARK SMILES IDX 24 12 25 13 26 14 12 15 11 16 10 17 9 18 8 19 7 20 6 21 5 22
REMARK SMILES IDX 4 23 3 24 2 25 1 26
REMARK H PARENT
REMARK Flexibility Score: inf
ROOT
ATOM      1  C   UNL     1       7.390  24.968  24.741  1.00  0.00     0.000 C 
ENDROOT
BRANCH   1   2
ATOM      2  C   UNL     1       7.991  24.217  25.939  1.00  0.00     0.000 C 
BRANCH   2   3
ATOM      3  C   UNL     1       8.718  25.148  26.925  1.00  0.00     0.000 C 
BRANCH   3   4
ATOM      4  C   UNL     1       7.810  25.838  27.962  1.00  0.00     0.000 C 
BRANCH   4   5
ATOM      5  C   UNL     1       8.430  26.006  29.360  1.00  0.00     0.000 C 
BRANCH   5   6
ATOM      6  C   UNL     1       8.511  24.682  30.138  1.00  0.00     0.000 C 
BRANCH   6   7
ATOM      7  C   UNL     1       8.131  24.841  31.619  1.00  0.00     0.000 C 
BRANCH   7   8
ATOM      8  C   UNL     1       6.927  23.969  32.016  1.00  0.00     0.000 C 
BRANCH   8   9
ATOM      9  C   UNL     1       6.659  24.001  33.537  1.00  0.00     0.000 C 
BRANCH   9  10
ATOM     10  C   UNL     1       5.162  23.953  33.899  1.00  0.00     0.006 C 
BRANCH  10  11
ATOM     11  C   UNL     1       4.419  22.732  33.336  1.00  0.00     0.053 C 
BRANCH  11  12
ATOM     12  C   UNL     1       3.121  23.118  32.695  1.00  0.00     0.041 C 
ATOM     13  O   UNL     1       3.060  23.325  31.455  1.00  0.00    -0.550 OA
ATOM     14  O   UNL     1       1.971  23.227  33.468  1.00  0.00    -0.550 OA
ENDBRANCH  11  12
ENDBRANCH  10  11
ENDBRANCH   9  10
ENDBRANCH   8   9
ENDBRANCH   7   8
ENDBRANCH   6   7
ENDBRANCH   5   6
ENDBRANCH   4   5
ENDBRANCH   3   4
ENDBRANCH   2   3
ENDBRANCH   1   2
BRANCH   1  15
ATOM     15  C   UNL     1       8.136  24.617  23.445  1.00  0.00     0.000 C 
BRANCH  15  16
ATOM     16  C   UNL     1       8.708  25.855  22.735  1.00  0.00     0.000 C 
BRANCH  16  17
ATOM     17  C   UNL     1       9.125  25.563  21.286  1.00  0.00     0.000 C 
BRANCH  17  18
ATOM     18  C   UNL     1       8.878  26.778  20.383  1.00  0.00    -0.000 C 
BRANCH  18  19
ATOM     19  C   UNL     1       8.938  26.383  18.903  1.00  0.00    -0.000 C 
BRANCH  19  20
ATOM     20  C   UNL     1       8.894  27.620  17.997  1.00  0.00    -0.000 C 
BRANCH  20  21
ATOM     21  C   UNL     1       7.506  27.783  17.363  1.00  0.00    -0.000 C 
BRANCH  21  22
ATOM     22  C   UNL     1       7.050  29.251  17.289  1.00  0.00    -0.000 C 
BRANCH  22  23
ATOM     23  C   UNL     1       5.566  29.414  16.898  1.00  0.00    -0.000 C 
BRANCH  23  24
ATOM     24  C   UNL     1       4.662  28.405  17.620  1.00  0.00    -0.000 C 
BRANCH  24  25
ATOM     25  C   UNL     1       4.251  28.924  19.003  1.00  0.00    -0.003 C 
ATOM     26  C   UNL     1       2.970  28.250  19.486  1.00  0.00     0.004 C 
ENDBRANCH  24  25
ENDBRANCH  23  24
ENDBRANCH  22  23
ENDBRANCH  21  22
ENDBRANCH  20  21
ENDBRANCH  19  20
ENDBRANCH  18  19
ENDBRANCH  17  18
ENDBRANCH  16  17
ENDBRANCH  15  16
ENDBRANCH   1  15
TORSDOF 22
ENDMDL
MODEL 2
REMARK VINA RESULT:    -2.965      3.762      5.598
REMARK INTER + INTRA:          -7.719
REMARK INTER:                  -6.443
REMARK INTRA:                  -1.277
REMARK UNBOUND:                -0.941
REMARK SMILES CCCCCCCCCCCCCCCCCCCCCCCC(=O)[O-]
REMARK SMILES IDX 13 1 14 2 15 3 16 4 17 5 18 6 19 7 20 8 21 9 22 10 23 11
REMARK SMILES IDX 24 12 25 13 26 14 12 15 11 16 10 17 9 18 8 19 7 20 6 21 5 22
REMARK SMILES IDX 4 23 3 24 2 25 1 26
REMARK H PARENT
REMARK Flexibility Score: inf
ROOT
ATOM      1  C   UNL     1       8.597  26.561  26.972  1.00  0.00     0.000 C 
ENDROOT
BRANCH   1   2
ATOM      2  C   UNL     1       9.115  27.274  28.230  1.00  0.00     0.000 C 
BRANCH   2   3
ATOM      3  C   UNL     1       8.568  26.662  29.531  1.00  0.00     0.000 C 
BRANCH   3   4
ATOM      4  C   UNL     1       8.863  25.161  29.721  1.00  0.00     0.000 C 
BRANCH   4   5
ATOM      5  C   UNL     1       8.879  24.681  31.183  1.00  0.00     0.000 C 
BRANCH   5   6
ATOM      6  C   UNL     1       8.076  23.386  31.394  1.00  0.00     0.000 C 
BRANCH   6   7
ATOM      7  C   UNL     1       7.468  23.288  32.802  1.00  0.00     0.000 C 
BRANCH   7   8
ATOM      8  C   UNL     1       6.547  24.475  33.131  1.00  0.00     0.000 C 
BRANCH   8   9
ATOM      9  C   UNL     1       5.253  24.030  33.847  1.00  0.00     0.000 C 
BRANCH   9  10
ATOM     10  C   UNL     1       4.397  23.051  33.021  1.00  0.00     0.006 C 
BRANCH  10  11
ATOM     11  C   UNL     1       2.989  23.569  32.695  1.00  0.00     0.053 C 
BRANCH  11  12
ATOM     12  C   UNL     1       2.518  23.095  31.353  1.00  0.00     0.041 C 
ATOM     13  O   UNL     1       2.843  21.954  30.932  1.00  0.00    -0.550 OA
ATOM     14  O   UNL     1       1.700  23.909  30.579  1.00  0.00    -0.550 OA
ENDBRANCH  11  12
ENDBRANCH  10  11
ENDBRANCH   9  10
ENDBRANCH   8   9
ENDBRANCH   7   8
ENDBRANCH   6   7
ENDBRANCH   5   6
ENDBRANCH   4   5
ENDBRANCH   3   4
ENDBRANCH   2   3
ENDBRANCH   1   2
BRANCH   1  15
ATOM     15  C   UNL     1       7.121  26.899  26.719  1.00  0.00     0.000 C 
BRANCH  15  16
ATOM     16  C   UNL     1       6.190  26.349  27.812  1.00  0.00     0.000 C 
BRANCH  16  17
ATOM     17  C   UNL     1       4.706  26.611  27.509  1.00  0.00     0.000 C 
BRANCH  17  18
ATOM     18  C   UNL     1       4.448  26.647  25.998  1.00  0.00    -0.000 C 
BRANCH  18  19
ATOM     19  C   UNL     1       4.303  25.229  25.432  1.00  0.00    -0.000 C 
BRANCH  19  20
ATOM     20  C   UNL     1       4.065  25.259  23.917  1.00  0.00    -0.000 C 
BRANCH  20  21
ATOM     21  C   UNL     1       5.353  24.920  23.155  1.00  0.00    -0.000 C 
BRANCH  21  22
ATOM     22  C   UNL     1       6.609  24.985  24.042  1.00  0.00    -0.000 C 
BRANCH  22  23
ATOM     23  C   UNL     1       7.927  24.840  23.253  1.00  0.00    -0.000 C 
BRANCH  23  24
ATOM     24  C   UNL     1       9.125  24.565  24.173  1.00  0.00    -0.000 C 
BRANCH  24  25
ATOM     25  C   UNL     1       9.043  23.159  24.777  1.00  0.00    -0.003 C 
ATOM     26  C   UNL     1       8.940  23.217  26.299  1.00  0.00     0.004 C 
ENDBRANCH  24  25
ENDBRANCH  23  24
ENDBRANCH  22  23
ENDBRANCH  21  22
ENDBRANCH  20  21
ENDBRANCH  19  20
ENDBRANCH  18  19
ENDBRANCH  17  18
ENDBRANCH  16  17
ENDBRANCH  15  16
ENDBRANCH   1  15
TORSDOF 22
ENDMDL
MODEL 3
REMARK VINA RESULT:    -2.949      4.415     11.961
REMARK INTER + INTRA:          -7.683
REMARK INTER:                  -5.935
REMARK INTRA:                  -1.748
REMARK UNBOUND:                -0.941
REMARK SMILES CCCCCCCCCCCCCCCCCCCCCCCC(=O)[O-]
REMARK SMILES IDX 13 1 14 2 15 3 16 4 17 5 18 6 19 7 20 8 21 9 22 10 23 11
REMARK SMILES IDX 24 12 25 13 26 14 12 15 11 16 10 17 9 18 8 19 7 20 6 21 5 22
REMARK SMILES IDX 4 23 3 24 2 25 1 26
REMARK H PARENT
REMARK Flexibility Score: inf
ROOT
ATOM      1  C   UNL     1       5.726  24.600  23.127  1.00  0.00     0.000 C 
ENDROOT
BRANCH   1   2
ATOM      2  C   UNL     1       7.169  24.367  23.598  1.00  0.00     0.000 C 
BRANCH   2   3
ATOM      3  C   UNL     1       7.996  25.664  23.655  1.00  0.00     0.000 C 
BRANCH   3   4
ATOM      4  C   UNL     1       9.125  25.764  22.609  1.00  0.00     0.000 C 
BRANCH   4   5
ATOM      5  C   UNL     1       8.658  25.727  21.144  1.00  0.00     0.000 C 
BRANCH   5   6
ATOM      6  C   UNL     1       9.102  26.965  20.346  1.00  0.00     0.000 C 
BRANCH   6   7
ATOM      7  C   UNL     1       8.023  27.458  19.368  1.00  0.00     0.000 C 
BRANCH   7   8
ATOM      8  C   UNL     1       8.575  27.701  17.953  1.00  0.00     0.000 C 
BRANCH   8   9
ATOM      9  C   UNL     1       7.509  27.468  16.861  1.00  0.00     0.000 C 
BRANCH   9  10
ATOM     10  C   UNL     1       6.843  28.764  16.361  1.00  0.00     0.006 C 
BRANCH  10  11
ATOM     11  C   UNL     1       5.875  29.401  17.369  1.00  0.00     0.053 C 
BRANCH  11  12
ATOM     12  C   UNL     1       4.571  28.664  17.430  1.00  0.00     0.041 C 
ATOM     13  O   UNL     1       4.068  28.174  16.385  1.00  0.00    -0.550 OA
ATOM     14  O   UNL     1       3.924  28.500  18.649  1.00  0.00    -0.550 OA
ENDBRANCH  11  12
ENDBRANCH  10  11
ENDBRANCH   9  10
ENDBRANCH   8   9
ENDBRANCH   7   8
ENDBRANCH   6   7
ENDBRANCH   5   6
ENDBRANCH   4   5
ENDBRANCH   3   4
ENDBRANCH   2   3
ENDBRANCH   1   2
BRANCH   1  15
ATOM     15  C   UNL     1       5.017  25.626  24.023  1.00  0.00     0.000 C 
BRANCH  15  16
ATOM     16  C   UNL     1       4.935  25.177  25.491  1.00  0.00     0.000 C 
BRANCH  16  17
ATOM     17  C   UNL     1       4.610  26.336  26.445  1.00  0.00     0.000 C 
BRANCH  17  18
ATOM     18  C   UNL     1       5.891  26.966  27.007  1.00  0.00    -0.000 C 
BRANCH  18  19
ATOM     19  C   UNL     1       7.026  25.937  27.068  1.00  0.00    -0.000 C 
BRANCH  19  20
ATOM     20  C   UNL     1       8.392  26.625  27.183  1.00  0.00    -0.000 C 
BRANCH  20  21
ATOM     21  C   UNL     1       8.842  26.705  28.647  1.00  0.00    -0.000 C 
BRANCH  21  22
ATOM     22  C   UNL     1       9.036  25.320  29.291  1.00  0.00    -0.000 C 
BRANCH  22  23
ATOM     23  C   UNL     1       8.666  25.281  30.789  1.00  0.00    -0.000 C 
BRANCH  23  24
ATOM     24  C   UNL     1       7.516  24.305  31.075  1.00  0.00    -0.000 C 
BRANCH  24  25
ATOM     25  C   UNL     1       7.088  24.375  32.545  1.00  0.00    -0.003 C 
ATOM     26  C   UNL     1       7.226  25.793  33.093  1.00  0.00     0.004 C 
ENDBRANCH  24  25
ENDBRANCH  23  24
ENDBRANCH  22  23
ENDBRANCH  21  22
ENDBRANCH  20  21
ENDBRANCH  19  20
ENDBRANCH  18  19
ENDBRANCH  17  18
ENDBRANCH  16  17
ENDBRANCH  15  16
ENDBRANCH   1  15
TORSDOF 22
ENDMDL
MODEL 4
REMARK VINA RESULT:    -2.896      4.403     12.877
REMARK INTER + INTRA:          -7.560
REMARK INTER:                  -6.314
REMARK INTRA:                  -1.247
REMARK UNBOUND:                -0.941
REMARK SMILES CCCCCCCCCCCCCCCCCCCCCCCC(=O)[O-]
REMARK SMILES IDX 13 1 14 2 15 3 16 4 17 5 18 6 19 7 20 8 21 9 22 10 23 11
REMARK SMILES IDX 24 12 25 13 26 14 12 15 11 16 10 17 9 18 8 19 7 20 6 21 5 22
REMARK SMILES IDX 4 23 3 24 2 25 1 26
REMARK H PARENT
REMARK Flexibility Score: inf
ROOT
ATOM      1  C   UNL     1       7.485  26.708  25.769  1.00  0.00     0.000 C 
ENDROOT
BRANCH   1   2
ATOM      2  C   UNL     1       8.373  26.164  24.639  1.00  0.00     0.000 C 
BRANCH   2   3
ATOM      3  C   UNL     1       7.608  25.251  23.665  1.00  0.00     0.000 C 
BRANCH   3   4
ATOM      4  C   UNL     1       8.382  24.864  22.389  1.00  0.00     0.000 C 
BRANCH   4   5
ATOM      5  C   UNL     1       9.125  26.024  21.703  1.00  0.00     0.000 C 
BRANCH   5   6
ATOM      6  C   UNL     1       8.995  25.991  20.171  1.00  0.00     0.000 C 
BRANCH   6   7
ATOM      7  C   UNL     1       8.767  27.386  19.565  1.00  0.00     0.000 C 
BRANCH   7   8
ATOM      8  C   UNL     1       8.091  27.326  18.185  1.00  0.00     0.000 C 
BRANCH   8   9
ATOM      9  C   UNL     1       7.970  28.722  17.533  1.00  0.00     0.000 C 
BRANCH   9  10
ATOM     10  C   UNL     1       6.861  28.810  16.468  1.00  0.00     0.006 C 
BRANCH  10  11
ATOM     11  C   UNL     1       5.563  28.084  16.852  1.00  0.00     0.053 C 
BRANCH  11  12
ATOM     12  C   UNL     1       4.613  28.988  17.578  1.00  0.00     0.041 C 
ATOM     13  O   UNL     1       3.557  28.527  18.083  1.00  0.00    -0.550 OA
ATOM     14  O   UNL     1       4.910  30.339  17.715  1.00  0.00    -0.550 OA
ENDBRANCH  11  12
ENDBRANCH  10  11
ENDBRANCH   9  10
ENDBRANCH   8   9
ENDBRANCH   7   8
ENDBRANCH   6   7
ENDBRANCH   5   6
ENDBRANCH   4   5
ENDBRANCH   3   4
ENDBRANCH   2   3
ENDBRANCH   1   2
BRANCH   1  15
ATOM     15  C   UNL     1       7.129  25.596  26.767  1.00  0.00     0.000 C 
BRANCH  15  16
ATOM     16  C   UNL     1       8.028  25.606  28.014  1.00  0.00     0.000 C 
BRANCH  16  17
ATOM     17  C   UNL     1       8.645  24.230  28.306  1.00  0.00     0.000 C 
BRANCH  17  18
ATOM     18  C   UNL     1       8.823  24.012  29.814  1.00  0.00    -0.000 C 
BRANCH  18  19
ATOM     19  C   UNL     1       8.328  25.229  30.605  1.00  0.00    -0.000 C 
BRANCH  19  20
ATOM     20  C   UNL     1       7.337  24.812  31.698  1.00  0.00    -0.000 C 
BRANCH  20  21
ATOM     21  C   UNL     1       7.644  23.396  32.204  1.00  0.00    -0.000 C 
BRANCH  21  22
ATOM     22  C   UNL     1       6.882  23.040  33.492  1.00  0.00    -0.000 C 
BRANCH  22  23
ATOM     23  C   UNL     1       5.530  23.773  33.629  1.00  0.00    -0.000 C 
BRANCH  23  24
ATOM     24  C   UNL     1       4.338  22.844  33.359  1.00  0.00    -0.000 C 
BRANCH  24  25
ATOM     25  C   UNL     1       3.347  23.488  32.384  1.00  0.00    -0.003 C 
ATOM     26  C   UNL     1       2.481  22.433  31.701  1.00  0.00     0.004 C 
ENDBRANCH  24  25
ENDBRANCH  23  24
ENDBRANCH  22  23
ENDBRANCH  21  22
ENDBRANCH  20  21
ENDBRANCH  19  20
ENDBRANCH  18  19
ENDBRANCH  17  18
ENDBRANCH  16  17
ENDBRANCH  15  16
ENDBRANCH   1  15
TORSDOF 22
ENDMDL
MODEL 5
REMARK VINA RESULT:    -2.871      3.832     12.771
REMARK INTER + INTRA:          -7.505
REMARK INTER:                  -6.229
REMARK INTRA:                  -1.276
REMARK UNBOUND:                -0.941
REMARK SMILES CCCCCCCCCCCCCCCCCCCCCCCC(=O)[O-]
REMARK SMILES IDX 13 1 14 2 15 3 16 4 17 5 18 6 19 7 20 8 21 9 22 10 23 11
REMARK SMILES IDX 24 12 25 13 26 14 12 15 11 16 10 17 9 18 8 19 7 20 6 21 5 22
REMARK SMILES IDX 4 23 3 24 2 25 1 26
REMARK H PARENT
REMARK Flexibility Score: inf
ROOT
ATOM      1  C   UNL     1       7.995  24.964  23.945  1.00  0.00     0.000 C 
ENDROOT
BRANCH   1   2
ATOM      2  C   UNL     1       8.959  25.996  23.340  1.00  0.00     0.000 C 
BRANCH   2   3
ATOM      3  C   UNL     1       9.125  25.840  21.819  1.00  0.00     0.000 C 
BRANCH   3   4
ATOM      4  C   UNL     1       8.988  27.146  21.010  1.00  0.00     0.000 C 
BRANCH   4   5
ATOM      5  C   UNL     1       9.051  26.974  19.482  1.00  0.00     0.000 C 
BRANCH   5   6
ATOM      6  C   UNL     1       7.746  27.391  18.782  1.00  0.00     0.000 C 
BRANCH   6   7
ATOM      7  C   UNL     1       7.989  28.004  17.394  1.00  0.00     0.000 C 
BRANCH   7   8
ATOM      8  C   UNL     1       7.208  29.312  17.181  1.00  0.00     0.000 C 
BRANCH   8   9
ATOM      9  C   UNL     1       6.068  29.152  16.151  1.00  0.00     0.000 C 
BRANCH   9  10
ATOM     10  C   UNL     1       4.668  29.076  16.788  1.00  0.00     0.006 C 
BRANCH  10  11
ATOM     11  C   UNL     1       4.629  29.479  18.269  1.00  0.00     0.053 C 
BRANCH  11  12
ATOM     12  C   UNL     1       3.787  28.541  19.080  1.00  0.00     0.041 C 
ATOM     13  O   UNL     1       2.542  28.486  18.899  1.00  0.00    -0.550 OA
ATOM     14  O   UNL     1       4.384  27.710  20.020  1.00  0.00    -0.550 OA
ENDBRANCH  11  12
ENDBRANCH  10  11
ENDBRANCH   9  10
ENDBRANCH   8   9
ENDBRANCH   7   8
ENDBRANCH   6   7
ENDBRANCH   5   6
ENDBRANCH   4   5
ENDBRANCH   3   4
ENDBRANCH   2   3
ENDBRANCH   1   2
BRANCH   1  15
ATOM     15  C   UNL     1       8.769  23.850  24.665  1.00  0.00     0.000 C 
BRANCH  15  16
ATOM     16  C   UNL     1       8.753  24.009  26.194  1.00  0.00     0.000 C 
BRANCH  16  17
ATOM     17  C   UNL     1       7.909  25.208  26.653  1.00  0.00     0.000 C 
BRANCH  17  18
ATOM     18  C   UNL     1       8.389  25.734  28.011  1.00  0.00    -0.000 C 
BRANCH  18  19
ATOM     19  C   UNL     1       8.673  24.578  28.978  1.00  0.00    -0.000 C 
BRANCH  19  20
ATOM     20  C   UNL     1       8.796  25.081  30.422  1.00  0.00    -0.000 C 
BRANCH  20  21
ATOM     21  C   UNL     1       7.471  24.903  31.176  1.00  0.00    -0.000 C 
BRANCH  21  22
ATOM     22  C   UNL     1       7.462  25.607  32.545  1.00  0.00    -0.000 C 
BRANCH  22  23
ATOM     23  C   UNL     1       7.297  24.637  33.734  1.00  0.00    -0.000 C 
BRANCH  23  24
ATOM     24  C   UNL     1       7.519  23.174  33.323  1.00  0.00    -0.000 C 
BRANCH  24  25
ATOM     25  C   UNL     1       6.477  22.256  33.971  1.00  0.00    -0.003 C 
ATOM     26  C   UNL     1       5.093  22.900  33.961  1.00  0.00     0.004 C 
ENDBRANCH  24  25
ENDBRANCH  23  24
ENDBRANCH  22  23
ENDBRANCH  21  22
ENDBRANCH  20  21
ENDBRANCH  19  20
ENDBRANCH  18  19
ENDBRANCH  17  18
ENDBRANCH  16  17
ENDBRANCH  15  16
ENDBRANCH   1  15
TORSDOF 22
ENDMDL
MODEL 6
REMARK VINA RESULT:    -2.869      4.859     11.241
REMARK INTER + INTRA:          -7.499
REMARK INTER:                  -5.243
REMARK INTRA:                  -2.257
REMARK UNBOUND:                -0.941
REMARK SMILES CCCCCCCCCCCCCCCCCCCCCCCC(=O)[O-]
REMARK SMILES IDX 13 1 14 2 15 3 16 4 17 5 18 6 19 7 20 8 21 9 22 10 23 11
REMARK SMILES IDX 24 12 25 13 26 14 12 15 11 16 10 17 9 18 8 19 7 20 6 21 5 22
REMARK SMILES IDX 4 23 3 24 2 25 1 26
REMARK H PARENT
REMARK Flexibility Score: inf
ROOT
ATOM      1  C   UNL     1       8.361  26.441  21.639  1.00  0.00     0.000 C 
ENDROOT
BRANCH   1   2
ATOM      2  C   UNL     1       8.664  25.998  20.199  1.00  0.00     0.000 C 
BRANCH   2   3
ATOM      3  C   UNL     1       8.084  26.957  19.145  1.00  0.00     0.000 C 
BRANCH   3   4
ATOM      4  C   UNL     1       9.106  27.505  18.128  1.00  0.00     0.000 C 
BRANCH   4   5
ATOM      5  C   UNL     1       9.125  26.779  16.771  1.00  0.00     0.000 C 
BRANCH   5   6
ATOM      6  C   UNL     1       8.943  27.737  15.581  1.00  0.00     0.000 C 
BRANCH   6   7
ATOM      7  C   UNL     1       7.801  28.743  15.800  1.00  0.00     0.000 C 
BRANCH   7   8
ATOM      8  C   UNL     1       6.417  28.072  15.808  1.00  0.00     0.000 C 
BRANCH   8   9
ATOM      9  C   UNL     1       5.303  29.035  16.276  1.00  0.00     0.000 C 
BRANCH   9  10
ATOM     10  C   UNL     1       5.500  29.552  17.714  1.00  0.00     0.006 C 
BRANCH  10  11
ATOM     11  C   UNL     1       4.191  29.845  18.461  1.00  0.00     0.053 C 
BRANCH  11  12
ATOM     12  C   UNL     1       3.668  28.629  19.164  1.00  0.00     0.041 C 
ATOM     13  O   UNL     1       2.451  28.317  19.075  1.00  0.00    -0.550 OA
ATOM     14  O   UNL     1       4.532  27.827  19.899  1.00  0.00    -0.550 OA
ENDBRANCH  11  12
ENDBRANCH  10  11
ENDBRANCH   9  10
ENDBRANCH   8   9
ENDBRANCH   7   8
ENDBRANCH   6   7
ENDBRANCH   5   6
ENDBRANCH   4   5
ENDBRANCH   3   4
ENDBRANCH   2   3
ENDBRANCH   1   2
BRANCH   1  15
ATOM     15  C   UNL     1       9.097  25.550  22.651  1.00  0.00     0.000 C 
BRANCH  15  16
ATOM     16  C   UNL     1       8.965  26.058  24.095  1.00  0.00     0.000 C 
BRANCH  16  17
ATOM     17  C   UNL     1       8.510  24.958  25.067  1.00  0.00     0.000 C 
BRANCH  17  18
ATOM     18  C   UNL     1       9.115  25.167  26.461  1.00  0.00    -0.000 C 
BRANCH  18  19
ATOM     19  C   UNL     1       8.550  26.432  27.120  1.00  0.00    -0.000 C 
BRANCH  19  20
ATOM     20  C   UNL     1       7.263  26.125  27.894  1.00  0.00    -0.000 C 
BRANCH  20  21
ATOM     21  C   UNL     1       6.065  26.859  27.275  1.00  0.00    -0.000 C 
BRANCH  21  22
ATOM     22  C   UNL     1       4.938  25.905  26.839  1.00  0.00    -0.000 C 
BRANCH  22  23
ATOM     23  C   UNL     1       4.144  26.411  25.616  1.00  0.00    -0.000 C 
BRANCH  23  24
ATOM     24  C   UNL     1       3.941  25.312  24.563  1.00  0.00    -0.000 C 
BRANCH  24  25
ATOM     25  C   UNL     1       4.936  25.465  23.408  1.00  0.00    -0.003 C 
ATOM     26  C   UNL     1       5.419  24.105  22.913  1.00  0.00     0.004 C 
ENDBRANCH  24  25
ENDBRANCH  23  24
ENDBRANCH  22  23
ENDBRANCH  21  22
ENDBRANCH  20  21
ENDBRANCH  19  20
ENDBRANCH  18  19
ENDBRANCH  17  18
ENDBRANCH  16  17
ENDBRANCH  15  16
ENDBRANCH   1  15
TORSDOF 22
ENDMDL
MODEL 7
REMARK VINA RESULT:    -2.588      4.526     12.668
REMARK INTER + INTRA:          -6.858
REMARK INTER:                  -5.562
REMARK INTRA:                  -1.295
REMARK UNBOUND:                -0.941
REMARK SMILES CCCCCCCCCCCCCCCCCCCCCCCC(=O)[O-]
REMARK SMILES IDX 13 1 14 2 15 3 16 4 17 5 18 6 19 7 20 8 21 9 22 10 23 11
REMARK SMILES IDX 24 12 25 13 26 14 12 15 11 16 10 17 9 18 8 19 7 20 6 21 5 22
REMARK SMILES IDX 4 23 3 24 2 25 1 26
REMARK H PARENT
REMARK Flexibility Score: inf
ROOT
ATOM      1  C   UNL     1       5.806  25.858  25.272  1.00  0.00     0.000 C 
ENDROOT
BRANCH   1   2
ATOM      2  C   UNL     1       6.567  25.251  24.084  1.00  0.00     0.000 C 
BRANCH   2   3
ATOM      3  C   UNL     1       7.745  24.362  24.519  1.00  0.00     0.000 C 
BRANCH   3   4
ATOM      4  C   UNL     1       9.125  24.801  23.988  1.00  0.00     0.000 C 
BRANCH   4   5
ATOM      5  C   UNL     1       9.095  25.972  22.990  1.00  0.00     0.000 C 
BRANCH   5   6
ATOM      6  C   UNL     1       9.012  25.505  21.527  1.00  0.00     0.000 C 
BRANCH   6   7
ATOM      7  C   UNL     1       8.455  26.589  20.590  1.00  0.00     0.000 C 
BRANCH   7   8
ATOM      8  C   UNL     1       9.125  26.573  19.206  1.00  0.00     0.000 C 
BRANCH   8   9
ATOM      9  C   UNL     1       8.598  27.700  18.289  1.00  0.00     0.000 C 
BRANCH   9  10
ATOM     10  C   UNL     1       7.065  27.847  18.312  1.00  0.00     0.006 C 
BRANCH  10  11
ATOM     11  C   UNL     1       6.504  28.743  17.198  1.00  0.00     0.053 C 
BRANCH  11  12
ATOM     12  C   UNL     1       5.013  28.868  17.281  1.00  0.00     0.041 C 
ATOM     13  O   UNL     1       4.279  28.310  16.424  1.00  0.00    -0.550 OA
ATOM     14  O   UNL     1       4.434  29.583  18.322  1.00  0.00    -0.550 OA
ENDBRANCH  11  12
ENDBRANCH  10  11
ENDBRANCH   9  10
ENDBRANCH   8   9
ENDBRANCH   7   8
ENDBRANCH   6   7
ENDBRANCH   5   6
ENDBRANCH   4   5
ENDBRANCH   3   4
ENDBRANCH   2   3
ENDBRANCH   1   2
BRANCH   1  15
ATOM     15  C   UNL     1       6.606  25.698  26.573  1.00  0.00     0.000 C 
BRANCH  15  16
ATOM     16  C   UNL     1       7.633  26.822  26.781  1.00  0.00     0.000 C 
BRANCH  16  17
ATOM     17  C   UNL     1       8.608  26.524  27.931  1.00  0.00     0.000 C 
BRANCH  17  18
ATOM     18  C   UNL     1       7.965  25.606  28.978  1.00  0.00    -0.000 C 
BRANCH  18  19
ATOM     19  C   UNL     1       9.034  24.842  29.768  1.00  0.00    -0.000 C 
BRANCH  19  20
ATOM     20  C   UNL     1       8.799  24.964  31.278  1.00  0.00    -0.000 C 
BRANCH  20  21
ATOM     21  C   UNL     1       7.319  24.744  31.620  1.00  0.00    -0.000 C 
BRANCH  21  22
ATOM     22  C   UNL     1       7.018  24.915  33.120  1.00  0.00    -0.000 C 
BRANCH  22  23
ATOM     23  C   UNL     1       6.129  23.796  33.700  1.00  0.00    -0.000 C 
BRANCH  23  24
ATOM     24  C   UNL     1       6.795  22.416  33.600  1.00  0.00    -0.000 C 
BRANCH  24  25
ATOM     25  C   UNL     1       8.299  22.509  33.879  1.00  0.00    -0.003 C 
ATOM     26  C   UNL     1       9.036  21.285  33.342  1.00  0.00     0.004 C 
ENDBRANCH  24  25
ENDBRANCH  23  24
ENDBRANCH  22  23
ENDBRANCH  21  22
ENDBRANCH  20  21
ENDBRANCH  19  20
ENDBRANCH  18  19
ENDBRANCH  17  18
ENDBRANCH  16  17
ENDBRANCH  15  16
ENDBRANCH   1  15
TORSDOF 22
ENDMDL
MODEL 8
REMARK VINA RESULT:    -1.741     15.689     18.087
REMARK INTER + INTRA:          -4.920
REMARK INTER:                  -5.223
REMARK INTRA:                   0.303
REMARK UNBOUND:                -0.941
REMARK SMILES CCCCCCCCCCCCCCCCCCCCCCCC(=O)[O-]
REMARK SMILES IDX 13 1 14 2 15 3 16 4 17 5 18 6 19 7 20 8 21 9 22 10 23 11
REMARK SMILES IDX 24 12 25 13 26 14 12 15 11 16 10 17 9 18 8 19 7 20 6 21 5 22
REMARK SMILES IDX 4 23 3 24 2 25 1 26
REMARK H PARENT
REMARK Flexibility Score: inf
ROOT
ATOM      1  C   UNL     1      -6.974  25.860  23.368  1.00  0.00     0.000 C 
ENDROOT
BRANCH   1   2
ATOM      2  C   UNL     1      -8.139  26.516  24.125  1.00  0.00     0.000 C 
BRANCH   2   3
ATOM      3  C   UNL     1      -8.817  25.561  25.123  1.00  0.00     0.000 C 
BRANCH   3   4
ATOM      4  C   UNL     1     -10.218  25.998  25.596  1.00  0.00     0.000 C 
BRANCH   4   5
ATOM      5  C   UNL     1     -10.361  26.183  27.117  1.00  0.00     0.000 C 
BRANCH   5   6
ATOM      6  C   UNL     1      -9.964  27.593  27.586  1.00  0.00     0.000 C 
BRANCH   6   7
ATOM      7  C   UNL     1     -11.125  28.596  27.497  1.00  0.00     0.000 C 
BRANCH   7   8
ATOM      8  C   UNL     1     -10.940  29.615  26.360  1.00  0.00     0.000 C 
BRANCH   8   9
ATOM      9  C   UNL     1     -11.036  28.958  24.965  1.00  0.00     0.000 C 
BRANCH   9  10
ATOM     10  C   UNL     1     -10.100  29.594  23.919  1.00  0.00     0.006 C 
BRANCH  10  11
ATOM     11  C   UNL     1      -9.512  28.594  22.912  1.00  0.00     0.053 C 
BRANCH  11  12
ATOM     12  C   UNL     1     -10.507  28.216  21.858  1.00  0.00     0.041 C 
ATOM     13  O   UNL     1     -11.109  27.111  21.918  1.00  0.00    -0.550 OA
ATOM     14  O   UNL     1     -10.786  29.096  20.820  1.00  0.00    -0.550 OA
ENDBRANCH  11  12
ENDBRANCH  10  11
ENDBRANCH   9  10
ENDBRANCH   8   9
ENDBRANCH   7   8
ENDBRANCH   6   7
ENDBRANCH   5   6
ENDBRANCH   4   5
ENDBRANCH   3   4
ENDBRANCH   2   3
ENDBRANCH   1   2
BRANCH   1  15
ATOM     15  C   UNL     1      -7.452  25.278  22.029  1.00  0.00     0.000 C 
BRANCH  15  16
ATOM     16  C   UNL     1      -7.967  23.835  22.158  1.00  0.00     0.000 C 
BRANCH  16  17
ATOM     17  C   UNL     1      -9.123  23.710  23.163  1.00  0.00     0.000 C 
BRANCH  17  18
ATOM     18  C   UNL     1     -10.253  22.840  22.599  1.00  0.00    -0.000 C 
BRANCH  18  19
ATOM     19  C   UNL     1      -9.821  22.156  21.297  1.00  0.00    -0.000 C 
BRANCH  19  20
ATOM     20  C   UNL     1     -10.927  21.239  20.759  1.00  0.00    -0.000 C 
BRANCH  20  21
ATOM     21  C   UNL     1     -10.944  21.246  19.225  1.00  0.00    -0.000 C 
BRANCH  21  22
ATOM     22  C   UNL     1     -11.106  22.657  18.633  1.00  0.00    -0.000 C 
BRANCH  22  23
ATOM     23  C   UNL     1      -9.854  23.543  18.803  1.00  0.00    -0.000 C 
BRANCH  23  24
ATOM     24  C   UNL     1     -10.177  25.037  18.652  1.00  0.00    -0.000 C 
BRANCH  24  25
ATOM     25  C   UNL     1     -11.012  25.294  17.393  1.00  0.00    -0.003 C 
ATOM     26  C   UNL     1     -10.145  25.257  16.138  1.00  0.00     0.004 C 
ENDBRANCH  24  25
ENDBRANCH  23  24
ENDBRANCH  22  23
ENDBRANCH  21  22
ENDBRANCH  20  21
ENDBRANCH  19  20
ENDBRANCH  18  19
ENDBRANCH  17  18
ENDBRANCH  16  17
ENDBRANCH  15  16
ENDBRANCH   1  15
TORSDOF 22
ENDMDL
