MODEL 1
REMARK VINA RESULT:    -3.938      0.000      0.000
REMARK INTER + INTRA:          -4.053
REMARK INTER:                  -4.053
REMARK INTRA:                   0.000
REMARK UNBOUND:                 0.000
REMARK SMILES Nc1ncnc2nc[nH]c12
REMARK SMILES IDX 8 1 7 2 6 3 5 4 4 5 3 6 2 7 10 8 9 9 1 11
REMARK H PARENT 9 10 1 12 1 13
REMARK Flexibility Score: inf
ROOT
ATOM      1  C   UNL     1      46.042  52.854  39.472  1.00  0.00     0.199 A 
ATOM      2  N   UNL     1      47.103  52.449  40.221  1.00  0.00    -0.217 NA
ATOM      3  C   UNL     1      46.509  51.763  41.212  1.00  0.00     0.182 A 
ATOM      4  N   UNL     1      47.124  51.140  42.245  1.00  0.00    -0.215 NA
ATOM      5  C   UNL     1      46.344  50.489  43.161  1.00  0.00     0.226 A 
ATOM      6  N   UNL     1      44.979  50.473  43.028  1.00  0.00    -0.217 NA
ATOM      7  C   UNL     1      44.357  51.100  41.986  1.00  0.00     0.152 A 
ATOM      8  C   UNL     1      45.165  51.759  41.062  1.00  0.00     0.127 A 
ATOM      9  N   UNL     1      44.842  52.449  39.960  1.00  0.00    -0.340 N 
ATOM     10  H   UNL     1      43.896  52.636  39.560  1.00  0.00     0.168 HD
ENDROOT
BRANCH   7  11
ATOM     11  N   UNL     1      42.934  51.070  41.868  1.00  0.00    -0.382 N 
ATOM     12  H   UNL     1      42.441  50.262  41.429  1.00  0.00     0.158 HD
ATOM     13  H   UNL     1      42.364  51.869  42.224  1.00  0.00     0.158 HD
ENDBRANCH   7  11
TORSDOF 1
ENDMDL
MODEL 2
REMARK VINA RESULT:    -3.933      1.550      2.670
REMARK INTER + INTRA:          -4.048
REMARK INTER:                  -4.048
REMARK INTRA:                   0.000
REMARK UNBOUND:                 0.000
REMARK SMILES Nc1ncnc2nc[nH]c12
REMARK SMILES IDX 8 1 7 2 6 3 5 4 4 5 3 6 2 7 10 8 9 9 1 11
REMARK H PARENT 9 10 1 12 1 13
REMARK Flexibility Score: inf
ROOT
ATOM      1  C   UNL     1      47.125  51.302  40.809  1.00  0.00     0.199 A 
ATOM      2  N   UNL     1      46.048  50.729  40.206  1.00  0.00    -0.217 NA
ATOM      3  C   UNL     1      45.257  50.435  41.252  1.00  0.00     0.182 A 
ATOM      4  N   UNL     1      44.040  49.842  41.203  1.00  0.00    -0.215 NA
ATOM      5  C   UNL     1      43.382  49.625  42.381  1.00  0.00     0.226 A 
ATOM      6  N   UNL     1      43.946  49.998  43.575  1.00  0.00    -0.217 NA
ATOM      7  C   UNL     1      45.173  50.597  43.625  1.00  0.00     0.152 A 
ATOM      8  C   UNL     1      45.831  50.812  42.417  1.00  0.00     0.127 A 
ATOM      9  N   UNL     1      47.023  51.367  42.161  1.00  0.00    -0.340 N 
ATOM     10  H   UNL     1      47.717  51.761  42.834  1.00  0.00     0.168 HD
ENDROOT
BRANCH   7  11
ATOM     11  N   UNL     1      45.741  50.979  44.879  1.00  0.00    -0.382 N 
ATOM     12  H   UNL     1      46.750  51.231  44.965  1.00  0.00     0.158 HD
ATOM     13  H   UNL     1      45.144  51.010  45.735  1.00  0.00     0.158 HD
ENDBRANCH   7  11
TORSDOF 1
ENDMDL
MODEL 3
REMARK VINA RESULT:    -3.853      1.214      2.551
REMARK INTER + INTRA:          -3.965
REMARK INTER:                  -3.965
REMARK INTRA:                   0.000
REMARK UNBOUND:                 0.000
REMARK SMILES Nc1ncnc2nc[nH]c12
REMARK SMILES IDX 8 1 7 2 6 3 5 4 4 5 3 6 2 7 10 8 9 9 1 11
REMARK H PARENT 9 10 1 12 1 13
REMARK Flexibility Score: inf
ROOT
ATOM      1  C   UNL     1      47.124  50.985  40.239  1.00  0.00     0.199 A 
ATOM      2  N   UNL     1      46.555  52.042  39.597  1.00  0.00    -0.217 NA
ATOM      3  C   UNL     1      45.400  52.196  40.265  1.00  0.00     0.182 A 
ATOM      4  N   UNL     1      44.445  53.125  40.025  1.00  0.00    -0.215 NA
ATOM      5  C   UNL     1      43.331  53.124  40.818  1.00  0.00     0.226 A 
ATOM      6  N   UNL     1      43.194  52.204  41.826  1.00  0.00    -0.217 NA
ATOM      7  C   UNL     1      44.157  51.266  42.070  1.00  0.00     0.152 A 
ATOM      8  C   UNL     1      45.286  51.280  41.254  1.00  0.00     0.127 A 
ATOM      9  N   UNL     1      46.372  50.497  41.257  1.00  0.00    -0.340 N 
ATOM     10  H   UNL     1      46.598  49.697  41.889  1.00  0.00     0.168 HD
ENDROOT
BRANCH   7  11
ATOM     11  N   UNL     1      43.994  50.318  43.126  1.00  0.00    -0.382 N 
ATOM     12  H   UNL     1      44.236  50.556  44.113  1.00  0.00     0.158 HD
ATOM     13  H   UNL     1      43.625  49.364  42.918  1.00  0.00     0.158 HD
ENDBRANCH   7  11
TORSDOF 1
ENDMDL
MODEL 4
REMARK VINA RESULT:    -3.838      1.145      2.982
REMARK INTER + INTRA:          -3.950
REMARK INTER:                  -3.950
REMARK INTRA:                   0.000
REMARK UNBOUND:                 0.000
REMARK SMILES Nc1ncnc2nc[nH]c12
REMARK SMILES IDX 8 1 7 2 6 3 5 4 4 5 3 6 2 7 10 8 9 9 1 11
REMARK H PARENT 9 10 1 12 1 13
REMARK Flexibility Score: inf
ROOT
ATOM      1  C   UNL     1      44.536  50.532  43.250  1.00  0.00     0.199 A 
ATOM      2  N   UNL     1      45.861  50.409  42.964  1.00  0.00    -0.217 NA
ATOM      3  C   UNL     1      45.988  51.164  41.860  1.00  0.00     0.182 A 
ATOM      4  N   UNL     1      47.125  51.384  41.158  1.00  0.00    -0.215 NA
ATOM      5  C   UNL     1      47.055  52.187  40.054  1.00  0.00     0.226 A 
ATOM      6  N   UNL     1      45.862  52.748  39.675  1.00  0.00    -0.217 NA
ATOM      7  C   UNL     1      44.714  52.528  40.382  1.00  0.00     0.152 A 
ATOM      8  C   UNL     1      44.802  51.707  41.505  1.00  0.00     0.127 A 
ATOM      9  N   UNL     1      43.861  51.320  42.374  1.00  0.00    -0.340 N 
ATOM     10  H   UNL     1      42.845  51.560  42.388  1.00  0.00     0.168 HD
ENDROOT
BRANCH   7  11
ATOM     11  N   UNL     1      43.483  53.124  39.970  1.00  0.00    -0.382 N 
ATOM     12  H   UNL     1      42.984  52.802  39.112  1.00  0.00     0.158 HD
ATOM     13  H   UNL     1      43.065  53.899  40.531  1.00  0.00     0.158 HD
ENDBRANCH   7  11
TORSDOF 1
ENDMDL
MODEL 5
REMARK VINA RESULT:    -3.785      1.139      1.897
REMARK INTER + INTRA:          -3.896
REMARK INTER:                  -3.896
REMARK INTRA:                   0.000
REMARK UNBOUND:                 0.000
REMARK SMILES Nc1ncnc2nc[nH]c12
REMARK SMILES IDX 8 1 7 2 6 3 5 4 4 5 3 6 2 7 10 8 9 9 1 11
REMARK H PARENT 9 10 1 12 1 13
REMARK Flexibility Score: inf
ROOT
ATOM      1  C   UNL     1      43.378  53.022  40.390  1.00  0.00     0.199 A 
ATOM      2  N   UNL     1      44.663  53.125  39.953  1.00  0.00    -0.217 NA
ATOM      3  C   UNL     1      45.311  52.276  40.768  1.00  0.00     0.182 A 
ATOM      4  N   UNL     1      46.637  51.999  40.757  1.00  0.00    -0.215 NA
ATOM      5  C   UNL     1      47.114  51.100  41.670  1.00  0.00     0.226 A 
ATOM      6  N   UNL     1      46.268  50.503  42.569  1.00  0.00    -0.217 NA
ATOM      7  C   UNL     1      44.930  50.781  42.581  1.00  0.00     0.152 A 
ATOM      8  C   UNL     1      44.458  51.698  41.645  1.00  0.00     0.127 A 
ATOM      9  N   UNL     1      43.221  52.157  41.424  1.00  0.00    -0.340 N 
ATOM     10  H   UNL     1      42.335  51.915  41.922  1.00  0.00     0.168 HD
ENDROOT
BRANCH   7  11
ATOM     11  N   UNL     1      44.067  50.145  43.525  1.00  0.00    -0.382 N 
ATOM     12  H   UNL     1      43.918  50.542  44.479  1.00  0.00     0.158 HD
ATOM     13  H   UNL     1      43.569  49.264  43.267  1.00  0.00     0.158 HD
ENDBRANCH   7  11
TORSDOF 1
ENDMDL
MODEL 6
REMARK VINA RESULT:    -3.511      1.295      3.689
REMARK INTER + INTRA:          -3.614
REMARK INTER:                  -3.614
REMARK INTRA:                   0.000
REMARK UNBOUND:                 0.000
REMARK SMILES Nc1ncnc2nc[nH]c12
REMARK SMILES IDX 8 1 7 2 6 3 5 4 4 5 3 6 2 7 10 8 9 9 1 11
REMARK H PARENT 9 10 1 12 1 13
REMARK Flexibility Score: inf
ROOT
ATOM      1  C   UNL     1      43.057  49.747  43.063  1.00  0.00     0.199 A 
ATOM      2  N   UNL     1      43.201  50.307  41.832  1.00  0.00    -0.217 NA
ATOM      3  C   UNL     1      44.499  50.651  41.823  1.00  0.00     0.182 A 
ATOM      4  N   UNL     1      45.169  51.255  40.812  1.00  0.00    -0.215 NA
ATOM      5  C   UNL     1      46.497  51.526  40.991  1.00  0.00     0.226 A 
ATOM      6  N   UNL     1      47.125  51.194  42.165  1.00  0.00    -0.217 NA
ATOM      7  C   UNL     1      46.451  50.584  43.185  1.00  0.00     0.152 A 
ATOM      8  C   UNL     1      45.099  50.314  42.988  1.00  0.00     0.127 A 
ATOM      9  N   UNL     1      44.200  49.737  43.795  1.00  0.00    -0.340 N 
ATOM     10  H   UNL     1      44.334  49.362  44.760  1.00  0.00     0.168 HD
ENDROOT
BRANCH   7  11
ATOM     11  N   UNL     1      47.125  50.246  44.398  1.00  0.00    -0.382 N 
ATOM     12  H   UNL     1      46.956  50.777  45.281  1.00  0.00     0.158 HD
ATOM     13  H   UNL     1      47.804  49.453  44.414  1.00  0.00     0.158 HD
ENDBRANCH   7  11
TORSDOF 1
ENDMDL
MODEL 7
REMARK VINA RESULT:    -3.365      1.677      3.580
REMARK INTER + INTRA:          -3.463
REMARK INTER:                  -3.463
REMARK INTRA:                   0.000
REMARK UNBOUND:                 0.000
REMARK SMILES Nc1ncnc2nc[nH]c12
REMARK SMILES IDX 8 1 7 2 6 3 5 4 4 5 3 6 2 7 10 8 9 9 1 11
REMARK H PARENT 9 10 1 12 1 13
REMARK Flexibility Score: inf
ROOT
ATOM      1  C   UNL     1      43.798  50.272  41.927  1.00  0.00     0.199 A 
ATOM      2  N   UNL     1      43.859  51.631  41.924  1.00  0.00    -0.217 NA
ATOM      3  C   UNL     1      44.871  51.871  41.073  1.00  0.00     0.182 A 
ATOM      4  N   UNL     1      45.351  53.084  40.709  1.00  0.00    -0.215 NA
ATOM      5  C   UNL     1      46.393  53.125  39.825  1.00  0.00     0.226 A 
ATOM      6  N   UNL     1      46.932  51.965  39.327  1.00  0.00    -0.217 NA
ATOM      7  C   UNL     1      46.448  50.741  39.693  1.00  0.00     0.152 A 
ATOM      8  C   UNL     1      45.387  50.715  40.594  1.00  0.00     0.127 A 
ATOM      9  N   UNL     1      44.720  49.683  41.124  1.00  0.00    -0.340 N 
ATOM     10  H   UNL     1      44.864  48.661  40.964  1.00  0.00     0.168 HD
ENDROOT
BRANCH   7  11
ATOM     11  N   UNL     1      47.024  49.547  39.161  1.00  0.00    -0.382 N 
ATOM     12  H   UNL     1      47.655  48.945  39.735  1.00  0.00     0.158 HD
ATOM     13  H   UNL     1      46.816  49.261  38.179  1.00  0.00     0.158 HD
ENDBRANCH   7  11
TORSDOF 1
ENDMDL
MODEL 8
REMARK VINA RESULT:    -3.314      1.027      3.744
REMARK INTER + INTRA:          -3.410
REMARK INTER:                  -3.410
REMARK INTRA:                   0.000
REMARK UNBOUND:                 0.000
REMARK SMILES Nc1ncnc2nc[nH]c12
REMARK SMILES IDX 8 1 7 2 6 3 5 4 4 5 3 6 2 7 10 8 9 9 1 11
REMARK H PARENT 9 10 1 12 1 13
REMARK Flexibility Score: inf
ROOT
ATOM      1  C   UNL     1      45.617  50.238  43.066  1.00  0.00     0.199 A 
ATOM      2  N   UNL     1      44.341  50.711  43.040  1.00  0.00    -0.217 NA
ATOM      3  C   UNL     1      44.367  51.546  41.988  1.00  0.00     0.182 A 
ATOM      4  N   UNL     1      43.335  52.288  41.519  1.00  0.00    -0.215 NA
ATOM      5  C   UNL     1      43.557  53.084  40.430  1.00  0.00     0.226 A 
ATOM      6  N   UNL     1      44.793  53.125  39.836  1.00  0.00    -0.217 NA
ATOM      7  C   UNL     1      45.835  52.377  40.307  1.00  0.00     0.152 A 
ATOM      8  C   UNL     1      45.594  51.571  41.418  1.00  0.00     0.127 A 
ATOM      9  N   UNL     1      46.408  50.746  42.087  1.00  0.00    -0.340 N 
ATOM     10  H   UNL     1      47.414  50.534  41.908  1.00  0.00     0.168 HD
ENDROOT
BRANCH   7  11
ATOM     11  N   UNL     1      47.113  52.435  39.673  1.00  0.00    -0.382 N 
ATOM     12  H   UNL     1      47.558  53.346  39.427  1.00  0.00     0.158 HD
ATOM     13  H   UNL     1      47.623  51.552  39.445  1.00  0.00     0.158 HD
ENDBRANCH   7  11
TORSDOF 1
ENDMDL
