MODEL 1
REMARK VINA RESULT:    -3.585      0.000      0.000
REMARK INTER + INTRA:          -4.623
REMARK INTER:                  -4.423
REMARK INTRA:                  -0.200
REMARK UNBOUND:                -0.200
REMARK SMILES CCCCC=CC(C)=O
REMARK SMILES IDX 4 1 3 2 2 3 1 4 5 5 6 6 7 7 9 8 8 9
REMARK H PARENT
REMARK Flexibility Score: inf
ROOT
ATOM      1  C   UNL     1      -1.365  26.247  51.834  1.00  0.00     0.027 C 
ENDROOT
BRANCH   1   2
ATOM      2  C   UNL     1      -2.160  27.398  51.206  1.00  0.00     0.004 C 
BRANCH   2   3
ATOM      3  C   UNL     1      -1.337  28.690  51.191  1.00  0.00    -0.003 C 
ATOM      4  C   UNL     1      -1.066  29.155  49.763  1.00  0.00     0.004 C 
ENDBRANCH   2   3
ENDBRANCH   1   2
BRANCH   1   5
ATOM      5  C   UNL     1      -0.847  26.620  53.194  1.00  0.00    -0.023 C 
ATOM      6  C   UNL     1       0.389  26.285  53.585  1.00  0.00     0.042 C 
BRANCH   6   7
ATOM      7  C   UNL     1       0.938  26.620  54.914  1.00  0.00     0.152 C 
ATOM      8  O   UNL     1       2.066  27.175  54.979  1.00  0.00    -0.295 OA
ATOM      9  C   UNL     1       0.201  26.322  56.186  1.00  0.00     0.093 C 
ENDBRANCH   6   7
ENDBRANCH   1   5
TORSDOF 4
ENDMDL
MODEL 2
REMARK VINA RESULT:    -3.540      1.261      1.751
REMARK INTER + INTRA:          -4.568
REMARK INTER:                  -4.391
REMARK INTRA:                  -0.177
REMARK UNBOUND:                -0.200
REMARK SMILES CCCCC=CC(C)=O
REMARK SMILES IDX 4 1 3 2 2 3 1 4 5 5 6 6 7 7 9 8 8 9
REMARK H PARENT
REMARK Flexibility Score: inf
ROOT
ATOM      1  C   UNL     1      -1.644  26.633  52.864  1.00  0.00     0.027 C 
ENDROOT
BRANCH   1   2
ATOM      2  C   UNL     1      -1.737  26.498  51.338  1.00  0.00     0.004 C 
BRANCH   2   3
ATOM      3  C   UNL     1      -1.687  27.872  50.662  1.00  0.00    -0.003 C 
ATOM      4  C   UNL     1      -3.072  28.511  50.608  1.00  0.00     0.004 C 
ENDBRANCH   2   3
ENDBRANCH   1   2
BRANCH   1   5
ATOM      5  C   UNL     1      -0.249  26.363  53.351  1.00  0.00    -0.023 C 
ATOM      6  C   UNL     1       0.472  27.311  53.961  1.00  0.00     0.042 C 
BRANCH   6   7
ATOM      7  C   UNL     1       1.850  27.096  54.446  1.00  0.00     0.152 C 
ATOM      8  O   UNL     1       2.041  26.966  55.685  1.00  0.00    -0.295 OA
ATOM      9  C   UNL     1       3.027  27.028  53.519  1.00  0.00     0.093 C 
ENDBRANCH   6   7
ENDBRANCH   1   5
TORSDOF 4
ENDMDL
MODEL 3
REMARK VINA RESULT:    -3.422      2.270      5.095
REMARK INTER + INTRA:          -4.421
REMARK INTER:                  -4.185
REMARK INTRA:                  -0.237
REMARK UNBOUND:                -0.200
REMARK SMILES CCCCC=CC(C)=O
REMARK SMILES IDX 4 1 3 2 2 3 1 4 5 5 6 6 7 7 9 8 8 9
REMARK H PARENT
REMARK Flexibility Score: inf
ROOT
ATOM      1  C   UNL     1       1.071  26.257  53.753  1.00  0.00     0.027 C 
ENDROOT
BRANCH   1   2
ATOM      2  C   UNL     1       1.390  26.775  55.161  1.00  0.00     0.004 C 
BRANCH   2   3
ATOM      3  C   UNL     1       0.270  26.418  56.144  1.00  0.00    -0.003 C 
ATOM      4  C   UNL     1       0.321  24.941  56.526  1.00  0.00     0.004 C 
ENDBRANCH   2   3
ENDBRANCH   1   2
BRANCH   1   5
ATOM      5  C   UNL     1      -0.196  26.865  53.223  1.00  0.00    -0.023 C 
ATOM      6  C   UNL     1      -1.025  26.171  52.434  1.00  0.00     0.042 C 
BRANCH   6   7
ATOM      7  C   UNL     1      -2.275  26.729  51.880  1.00  0.00     0.152 C 
ATOM      8  O   UNL     1      -3.369  26.193  52.199  1.00  0.00    -0.295 OA
ATOM      9  C   UNL     1      -2.287  27.909  50.954  1.00  0.00     0.093 C 
ENDBRANCH   6   7
ENDBRANCH   1   5
TORSDOF 4
ENDMDL
MODEL 4
REMARK VINA RESULT:    -3.248      2.406      5.059
REMARK INTER + INTRA:          -4.207
REMARK INTER:                  -4.038
REMARK INTRA:                  -0.168
REMARK UNBOUND:                -0.200
REMARK SMILES CCCCC=CC(C)=O
REMARK SMILES IDX 4 1 3 2 2 3 1 4 5 5 6 6 7 7 9 8 8 9
REMARK H PARENT
REMARK Flexibility Score: inf
ROOT
ATOM      1  C   UNL     1      -1.389  26.249  52.509  1.00  0.00     0.027 C 
ENDROOT
BRANCH   1   2
ATOM      2  C   UNL     1      -0.498  27.030  53.484  1.00  0.00     0.004 C 
BRANCH   2   3
ATOM      3  C   UNL     1       0.811  26.281  53.752  1.00  0.00    -0.003 C 
ATOM      4  C   UNL     1       1.543  26.864  54.958  1.00  0.00     0.004 C 
ENDBRANCH   2   3
ENDBRANCH   1   2
BRANCH   1   5
ATOM      5  C   UNL     1      -1.616  27.022  51.241  1.00  0.00    -0.023 C 
ATOM      6  C   UNL     1      -1.411  28.344  51.184  1.00  0.00     0.042 C 
BRANCH   6   7
ATOM      7  C   UNL     1      -1.632  29.147  49.965  1.00  0.00     0.152 C 
ATOM      8  O   UNL     1      -0.664  29.333  49.181  1.00  0.00    -0.295 OA
ATOM      9  C   UNL     1      -2.964  29.749  49.630  1.00  0.00     0.093 C 
ENDBRANCH   6   7
ENDBRANCH   1   5
TORSDOF 4
ENDMDL
MODEL 5
REMARK VINA RESULT:    -3.214      2.160      3.164
REMARK INTER + INTRA:          -4.165
REMARK INTER:                  -4.008
REMARK INTRA:                  -0.157
REMARK UNBOUND:                -0.200
REMARK SMILES CCCCC=CC(C)=O
REMARK SMILES IDX 4 1 3 2 2 3 1 4 5 5 6 6 7 7 9 8 8 9
REMARK H PARENT
REMARK Flexibility Score: inf
ROOT
ATOM      1  C   UNL     1      -2.444  25.620  51.738  1.00  0.00     0.027 C 
ENDROOT
BRANCH   1   2
ATOM      2  C   UNL     1      -3.787  26.323  51.967  1.00  0.00     0.004 C 
BRANCH   2   3
ATOM      3  C   UNL     1      -4.958  25.368  51.712  1.00  0.00    -0.003 C 
ATOM      4  C   UNL     1      -4.465  23.946  51.458  1.00  0.00     0.004 C 
ENDBRANCH   2   3
ENDBRANCH   1   2
BRANCH   1   5
ATOM      5  C   UNL     1      -1.293  26.506  52.119  1.00  0.00    -0.023 C 
ATOM      6  C   UNL     1      -0.604  26.307  53.250  1.00  0.00     0.042 C 
BRANCH   6   7
ATOM      7  C   UNL     1       0.526  27.157  53.672  1.00  0.00     0.152 C 
ATOM      8  O   UNL     1       0.341  28.399  53.779  1.00  0.00    -0.295 OA
ATOM      9  C   UNL     1       1.884  26.597  53.978  1.00  0.00     0.093 C 
ENDBRANCH   6   7
ENDBRANCH   1   5
TORSDOF 4
ENDMDL
MODEL 6
REMARK VINA RESULT:    -3.088     14.990     16.421
REMARK INTER + INTRA:          -4.010
REMARK INTER:                  -3.823
REMARK INTRA:                  -0.186
REMARK UNBOUND:                -0.200
REMARK SMILES CCCCC=CC(C)=O
REMARK SMILES IDX 4 1 3 2 2 3 1 4 5 5 6 6 7 7 9 8 8 9
REMARK H PARENT
REMARK Flexibility Score: inf
ROOT
ATOM      1  C   UNL     1       3.116  42.303  49.813  1.00  0.00     0.027 C 
ENDROOT
BRANCH   1   2
ATOM      2  C   UNL     1       4.571  42.582  49.416  1.00  0.00     0.004 C 
BRANCH   2   3
ATOM      3  C   UNL     1       4.702  42.766  47.901  1.00  0.00    -0.003 C 
ATOM      4  C   UNL     1       5.513  41.634  47.276  1.00  0.00     0.004 C 
ENDBRANCH   2   3
ENDBRANCH   1   2
BRANCH   1   5
ATOM      5  C   UNL     1       2.213  42.313  48.613  1.00  0.00    -0.023 C 
ATOM      6  C   UNL     1       1.041  41.666  48.617  1.00  0.00     0.042 C 
BRANCH   6   7
ATOM      7  C   UNL     1       0.125  41.637  47.459  1.00  0.00     0.152 C 
ATOM      8  O   UNL     1      -0.144  42.720  46.875  1.00  0.00    -0.295 OA
ATOM      9  C   UNL     1      -0.494  40.367  46.956  1.00  0.00     0.093 C 
ENDBRANCH   6   7
ENDBRANCH   1   5
TORSDOF 4
ENDMDL
MODEL 7
REMARK VINA RESULT:    -3.066      2.699      4.378
REMARK INTER + INTRA:          -3.982
REMARK INTER:                  -3.749
REMARK INTRA:                  -0.233
REMARK UNBOUND:                -0.200
REMARK SMILES CCCCC=CC(C)=O
REMARK SMILES IDX 4 1 3 2 2 3 1 4 5 5 6 6 7 7 9 8 8 9
REMARK H PARENT
REMARK Flexibility Score: inf
ROOT
ATOM      1  C   UNL     1       0.260  27.607  53.422  1.00  0.00     0.027 C 
ENDROOT
BRANCH   1   2
ATOM      2  C   UNL     1      -0.633  26.368  53.278  1.00  0.00     0.004 C 
BRANCH   2   3
ATOM      3  C   UNL     1      -1.321  26.343  51.909  1.00  0.00    -0.003 C 
ATOM      4  C   UNL     1      -2.801  25.995  52.041  1.00  0.00     0.004 C 
ENDBRANCH   2   3
ENDBRANCH   1   2
BRANCH   1   5
ATOM      5  C   UNL     1      -0.553  28.869  53.411  1.00  0.00    -0.023 C 
ATOM      6  C   UNL     1      -0.275  29.871  52.568  1.00  0.00     0.042 C 
BRANCH   6   7
ATOM      7  C   UNL     1      -1.038  31.134  52.528  1.00  0.00     0.152 C 
ATOM      8  O   UNL     1      -0.489  32.185  52.952  1.00  0.00    -0.295 OA
ATOM      9  C   UNL     1      -2.440  31.210  52.001  1.00  0.00     0.093 C 
ENDBRANCH   6   7
ENDBRANCH   1   5
TORSDOF 4
ENDMDL
MODEL 8
REMARK VINA RESULT:    -3.048      2.424      4.867
REMARK INTER + INTRA:          -3.960
REMARK INTER:                  -3.768
REMARK INTRA:                  -0.192
REMARK UNBOUND:                -0.200
REMARK SMILES CCCCC=CC(C)=O
REMARK SMILES IDX 4 1 3 2 2 3 1 4 5 5 6 6 7 7 9 8 8 9
REMARK H PARENT
REMARK Flexibility Score: inf
ROOT
ATOM      1  C   UNL     1      -0.232  26.314  53.452  1.00  0.00     0.027 C 
ENDROOT
BRANCH   1   2
ATOM      2  C   UNL     1       0.989  26.661  54.313  1.00  0.00     0.004 C 
BRANCH   2   3
ATOM      3  C   UNL     1       0.669  26.516  55.804  1.00  0.00    -0.003 C 
ATOM      4  C   UNL     1       0.491  25.050  56.191  1.00  0.00     0.004 C 
ENDBRANCH   2   3
ENDBRANCH   1   2
BRANCH   1   5
ATOM      5  C   UNL     1      -0.699  27.505  52.664  1.00  0.00    -0.023 C 
ATOM      6  C   UNL     1      -0.149  28.713  52.834  1.00  0.00     0.042 C 
BRANCH   6   7
ATOM      7  C   UNL     1      -0.581  29.914  52.092  1.00  0.00     0.152 C 
ATOM      8  O   UNL     1      -0.894  29.794  50.878  1.00  0.00    -0.295 OA
ATOM      9  C   UNL     1      -0.662  31.268  52.732  1.00  0.00     0.093 C 
ENDBRANCH   6   7
ENDBRANCH   1   5
TORSDOF 4
ENDMDL
MODEL 9
REMARK VINA RESULT:    -2.954      1.807      2.135
REMARK INTER + INTRA:          -3.845
REMARK INTER:                  -3.704
REMARK INTRA:                  -0.140
REMARK UNBOUND:                -0.200
REMARK SMILES CCCCC=CC(C)=O
REMARK SMILES IDX 4 1 3 2 2 3 1 4 5 5 6 6 7 7 9 8 8 9
REMARK H PARENT
REMARK Flexibility Score: inf
ROOT
ATOM      1  C   UNL     1      -1.290  28.008  52.796  1.00  0.00     0.027 C 
ENDROOT
BRANCH   1   2
ATOM      2  C   UNL     1      -0.869  29.472  52.616  1.00  0.00     0.004 C 
BRANCH   2   3
ATOM      3  C   UNL     1      -1.945  30.423  53.150  1.00  0.00    -0.003 C 
ATOM      4  C   UNL     1      -1.794  31.818  52.551  1.00  0.00     0.004 C 
ENDBRANCH   2   3
ENDBRANCH   1   2
BRANCH   1   5
ATOM      5  C   UNL     1      -0.247  27.228  53.543  1.00  0.00    -0.023 C 
ATOM      6  C   UNL     1      -0.207  27.222  54.881  1.00  0.00     0.042 C 
BRANCH   6   7
ATOM      7  C   UNL     1       0.806  26.481  55.660  1.00  0.00     0.152 C 
ATOM      8  O   UNL     1       1.966  26.963  55.755  1.00  0.00    -0.295 OA
ATOM      9  C   UNL     1       0.503  25.178  56.339  1.00  0.00     0.093 C 
ENDBRANCH   6   7
ENDBRANCH   1   5
TORSDOF 4
ENDMDL
