MODEL 1
REMARK VINA RESULT:    -3.960      0.000      0.000
REMARK INTER + INTRA:          -5.444
REMARK INTER:                  -5.349
REMARK INTRA:                  -0.095
REMARK UNBOUND:                -0.095
REMARK SMILES [NH3+]CCCC[C@H]([NH3+])C(=O)[O-]
REMARK SMILES IDX 4 1 3 2 2 3 1 4 5 8 6 9 7 10 8 14 9 15 10 16
REMARK H PARENT 1 5 1 6 1 7 7 11 7 12 7 13
REMARK Flexibility Score: inf
ROOT
ATOM      1  C   UNL     1     123.518 115.627 132.711  1.00  0.00     0.012 C 
ENDROOT
BRANCH   1   2
ATOM      2  C   UNL     1     122.267 116.510 132.795  1.00  0.00     0.061 C 
BRANCH   2   3
ATOM      3  C   UNL     1     120.998 115.656 132.929  1.00  0.00     0.258 C 
BRANCH   3   4
ATOM      4  N   UNL     1     120.501 115.250 131.614  1.00  0.00    -0.358 N 
ATOM      5  H   UNL     1     120.769 114.258 131.419  1.00  0.00     0.344 HD
ATOM      6  H   UNL     1     120.893 115.875 130.873  1.00  0.00     0.344 HD
ATOM      7  H   UNL     1     119.458 115.326 131.604  1.00  0.00     0.344 HD
ENDBRANCH   3   4
ENDBRANCH   2   3
ENDBRANCH   1   2
BRANCH   1   8
ATOM      8  C   UNL     1     124.085 115.617 131.280  1.00  0.00     0.072 C 
BRANCH   8   9
ATOM      9  C   UNL     1     125.584 115.245 131.193  1.00  0.00     0.227 C 
BRANCH   9  10
ATOM     10  N   UNL     1     126.455 116.371 131.557  1.00  0.00    -0.350 N 
ATOM     11  H   UNL     1     127.435 116.032 131.700  1.00  0.00     0.345 HD
ATOM     12  H   UNL     1     126.124 116.844 132.429  1.00  0.00     0.345 HD
ATOM     13  H   UNL     1     126.463 117.071 130.780  1.00  0.00     0.345 HD
ENDBRANCH   9  10
BRANCH   9  14
ATOM     14  C   UNL     1     125.939 114.693 129.834  1.00  0.00     0.099 C 
ATOM     15  O   UNL     1     126.132 113.457 129.691  1.00  0.00    -0.544 OA
ATOM     16  O   UNL     1     126.009 115.527 128.724  1.00  0.00    -0.544 OA
ENDBRANCH   9  14
ENDBRANCH   8   9
ENDBRANCH   1   8
TORSDOF 7
ENDMDL
MODEL 2
REMARK VINA RESULT:    -3.863     11.569     13.495
REMARK INTER + INTRA:          -5.313
REMARK INTER:                  -5.212
REMARK INTRA:                  -0.102
REMARK UNBOUND:                -0.095
REMARK SMILES [NH3+]CCCC[C@H]([NH3+])C(=O)[O-]
REMARK SMILES IDX 4 1 3 2 2 3 1 4 5 8 6 9 7 10 8 14 9 15 10 16
REMARK H PARENT 1 5 1 6 1 7 7 11 7 12 7 13
REMARK Flexibility Score: inf
ROOT
ATOM      1  C   UNL     1     114.460 122.765 131.989  1.00  0.00     0.012 C 
ENDROOT
BRANCH   1   2
ATOM      2  C   UNL     1     115.449 121.730 132.538  1.00  0.00     0.061 C 
BRANCH   2   3
ATOM      3  C   UNL     1     116.810 122.373 132.841  1.00  0.00     0.258 C 
BRANCH   3   4
ATOM      4  N   UNL     1     117.381 122.977 131.637  1.00  0.00    -0.358 N 
ATOM      5  H   UNL     1     116.799 122.735 130.802  1.00  0.00     0.344 HD
ATOM      6  H   UNL     1     118.361 122.638 131.495  1.00  0.00     0.344 HD
ATOM      7  H   UNL     1     117.396 124.016 131.750  1.00  0.00     0.344 HD
ENDBRANCH   3   4
ENDBRANCH   2   3
ENDBRANCH   1   2
BRANCH   1   8
ATOM      8  C   UNL     1     113.621 122.169 130.845  1.00  0.00     0.072 C 
BRANCH   8   9
ATOM      9  C   UNL     1     112.261 122.870 130.621  1.00  0.00     0.227 C 
BRANCH   9  10
ATOM     10  N   UNL     1     111.215 122.344 131.509  1.00  0.00    -0.350 N 
ATOM     11  H   UNL     1     110.688 123.135 131.947  1.00  0.00     0.345 HD
ATOM     12  H   UNL     1     111.620 121.742 132.262  1.00  0.00     0.345 HD
ATOM     13  H   UNL     1     110.540 121.772 130.951  1.00  0.00     0.345 HD
ENDBRANCH   9  10
BRANCH   9  14
ATOM     14  C   UNL     1     111.836 122.806 129.175  1.00  0.00     0.099 C 
ATOM     15  O   UNL     1     112.455 122.058 128.372  1.00  0.00    -0.544 OA
ATOM     16  O   UNL     1     110.736 123.526 128.724  1.00  0.00    -0.544 OA
ENDBRANCH   9  14
ENDBRANCH   8   9
ENDBRANCH   1   8
TORSDOF 7
ENDMDL
MODEL 3
REMARK VINA RESULT:    -3.587      1.957      2.462
REMARK INTER + INTRA:          -4.941
REMARK INTER:                  -4.927
REMARK INTRA:                  -0.014
REMARK UNBOUND:                -0.095
REMARK SMILES [NH3+]CCCC[C@H]([NH3+])C(=O)[O-]
REMARK SMILES IDX 4 1 3 2 2 3 1 4 5 8 6 9 7 10 8 14 9 15 10 16
REMARK H PARENT 1 5 1 6 1 7 7 11 7 12 7 13
REMARK Flexibility Score: inf
ROOT
ATOM      1  C   UNL     1     125.425 114.886 131.966  1.00  0.00     0.012 C 
ENDROOT
BRANCH   1   2
ATOM      2  C   UNL     1     124.274 115.580 131.228  1.00  0.00     0.061 C 
BRANCH   2   3
ATOM      3  C   UNL     1     123.130 115.927 132.193  1.00  0.00     0.258 C 
BRANCH   3   4
ATOM      4  N   UNL     1     121.860 115.382 131.714  1.00  0.00    -0.358 N 
ATOM      5  H   UNL     1     121.448 116.013 130.988  1.00  0.00     0.344 HD
ATOM      6  H   UNL     1     121.191 115.275 132.511  1.00  0.00     0.344 HD
ATOM      7  H   UNL     1     122.030 114.442 131.287  1.00  0.00     0.344 HD
ENDBRANCH   3   4
ENDBRANCH   2   3
ENDBRANCH   1   2
BRANCH   1   8
ATOM      8  C   UNL     1     126.408 114.247 130.968  1.00  0.00     0.072 C 
BRANCH   8   9
ATOM      9  C   UNL     1     125.858 114.119 129.528  1.00  0.00     0.227 C 
BRANCH   9  10
ATOM     10  N   UNL     1     126.089 112.781 128.966  1.00  0.00    -0.350 N 
ATOM     11  H   UNL     1     126.896 112.808 128.301  1.00  0.00     0.345 HD
ATOM     12  H   UNL     1     125.243 112.425 128.465  1.00  0.00     0.345 HD
ATOM     13  H   UNL     1     126.324 112.115 129.737  1.00  0.00     0.345 HD
ENDBRANCH   9  10
BRANCH   9  14
ATOM     14  C   UNL     1     126.410 115.195 128.627  1.00  0.00     0.099 C 
ATOM     15  O   UNL     1     127.655 115.306 128.472  1.00  0.00    -0.544 OA
ATOM     16  O   UNL     1     125.559 116.038 127.922  1.00  0.00    -0.544 OA
ENDBRANCH   9  14
ENDBRANCH   8   9
ENDBRANCH   1   8
TORSDOF 7
ENDMDL
MODEL 4
REMARK VINA RESULT:    -3.556      2.964      4.502
REMARK INTER + INTRA:          -4.899
REMARK INTER:                  -4.827
REMARK INTRA:                  -0.072
REMARK UNBOUND:                -0.095
REMARK SMILES [NH3+]CCCC[C@H]([NH3+])C(=O)[O-]
REMARK SMILES IDX 4 1 3 2 2 3 1 4 5 8 6 9 7 10 8 14 9 15 10 16
REMARK H PARENT 1 5 1 6 1 7 7 11 7 12 7 13
REMARK Flexibility Score: inf
ROOT
ATOM      1  C   UNL     1     126.535 113.916 131.179  1.00  0.00     0.012 C 
ENDROOT
BRANCH   1   2
ATOM      2  C   UNL     1     125.989 113.848 129.748  1.00  0.00     0.061 C 
BRANCH   2   3
ATOM      3  C   UNL     1     126.655 114.903 128.853  1.00  0.00     0.258 C 
BRANCH   3   4
ATOM      4  N   UNL     1     125.685 115.493 127.931  1.00  0.00    -0.358 N 
ATOM      5  H   UNL     1     126.078 116.364 127.504  1.00  0.00     0.344 HD
ATOM      6  H   UNL     1     124.798 115.718 128.438  1.00  0.00     0.344 HD
ATOM      7  H   UNL     1     125.476 114.808 127.169  1.00  0.00     0.344 HD
ENDBRANCH   3   4
ENDBRANCH   2   3
ENDBRANCH   1   2
BRANCH   1   8
ATOM      8  C   UNL     1     125.513 114.571 132.125  1.00  0.00     0.072 C 
BRANCH   8   9
ATOM      9  C   UNL     1     124.947 115.918 131.616  1.00  0.00     0.227 C 
BRANCH   9  10
ATOM     10  N   UNL     1     125.848 117.041 131.908  1.00  0.00    -0.350 N 
ATOM     11  H   UNL     1     126.807 116.833 131.544  1.00  0.00     0.345 HD
ATOM     12  H   UNL     1     125.904 117.230 132.935  1.00  0.00     0.345 HD
ATOM     13  H   UNL     1     125.498 117.902 131.429  1.00  0.00     0.345 HD
ENDBRANCH   9  10
BRANCH   9  14
ATOM     14  C   UNL     1     123.560 116.174 132.151  1.00  0.00     0.099 C 
ATOM     15  O   UNL     1     122.620 115.390 131.854  1.00  0.00    -0.544 OA
ATOM     16  O   UNL     1     123.314 117.239 133.010  1.00  0.00    -0.544 OA
ENDBRANCH   9  14
ENDBRANCH   8   9
ENDBRANCH   1   8
TORSDOF 7
ENDMDL
MODEL 5
REMARK VINA RESULT:    -3.390     11.538     13.286
REMARK INTER + INTRA:          -4.674
REMARK INTER:                  -4.679
REMARK INTRA:                   0.005
REMARK UNBOUND:                -0.095
REMARK SMILES [NH3+]CCCC[C@H]([NH3+])C(=O)[O-]
REMARK SMILES IDX 4 1 3 2 2 3 1 4 5 8 6 9 7 10 8 14 9 15 10 16
REMARK H PARENT 1 5 1 6 1 7 7 11 7 12 7 13
REMARK Flexibility Score: inf
ROOT
ATOM      1  C   UNL     1     115.276 121.768 131.990  1.00  0.00     0.012 C 
ENDROOT
BRANCH   1   2
ATOM      2  C   UNL     1     116.212 122.203 133.124  1.00  0.00     0.061 C 
BRANCH   2   3
ATOM      3  C   UNL     1     117.649 122.383 132.614  1.00  0.00     0.258 C 
BRANCH   3   4
ATOM      4  N   UNL     1     117.663 123.081 131.329  1.00  0.00    -0.358 N 
ATOM      5  H   UNL     1     118.599 122.975 130.872  1.00  0.00     0.344 HD
ATOM      6  H   UNL     1     117.452 124.096 131.469  1.00  0.00     0.344 HD
ATOM      7  H   UNL     1     116.934 122.667 130.706  1.00  0.00     0.344 HD
ENDBRANCH   3   4
ENDBRANCH   2   3
ENDBRANCH   1   2
BRANCH   1   8
ATOM      8  C   UNL     1     114.313 122.906 131.608  1.00  0.00     0.072 C 
BRANCH   8   9
ATOM      9  C   UNL     1     113.049 122.442 130.846  1.00  0.00     0.227 C 
BRANCH   9  10
ATOM     10  N   UNL     1     113.297 122.291 129.405  1.00  0.00    -0.350 N 
ATOM     11  H   UNL     1     114.304 122.481 129.195  1.00  0.00     0.345 HD
ATOM     12  H   UNL     1     112.701 122.942 128.845  1.00  0.00     0.345 HD
ATOM     13  H   UNL     1     113.084 121.309 129.116  1.00  0.00     0.345 HD
ENDBRANCH   9  10
BRANCH   9  14
ATOM     14  C   UNL     1     111.877 123.354 131.109  1.00  0.00     0.099 C 
ATOM     15  O   UNL     1     111.977 124.272 131.965  1.00  0.00    -0.544 OA
ATOM     16  O   UNL     1     110.700 123.228 130.380  1.00  0.00    -0.544 OA
ENDBRANCH   9  14
ENDBRANCH   8   9
ENDBRANCH   1   8
TORSDOF 7
ENDMDL
MODEL 6
REMARK VINA RESULT:    -3.065      3.069      4.562
REMARK INTER + INTRA:          -4.235
REMARK INTER:                  -4.087
REMARK INTRA:                  -0.148
REMARK UNBOUND:                -0.095
REMARK SMILES [NH3+]CCCC[C@H]([NH3+])C(=O)[O-]
REMARK SMILES IDX 4 1 3 2 2 3 1 4 5 8 6 9 7 10 8 14 9 15 10 16
REMARK H PARENT 1 5 1 6 1 7 7 11 7 12 7 13
REMARK Flexibility Score: inf
ROOT
ATOM      1  C   UNL     1     126.563 114.790 129.071  1.00  0.00     0.012 C 
ENDROOT
BRANCH   1   2
ATOM      2  C   UNL     1     125.491 115.675 128.423  1.00  0.00     0.061 C 
BRANCH   2   3
ATOM      3  C   UNL     1     125.884 116.055 126.988  1.00  0.00     0.258 C 
BRANCH   3   4
ATOM      4  N   UNL     1     124.710 116.466 126.217  1.00  0.00    -0.358 N 
ATOM      5  H   UNL     1     125.007 116.992 125.363  1.00  0.00     0.344 HD
ATOM      6  H   UNL     1     124.087 117.067 126.804  1.00  0.00     0.344 HD
ATOM      7  H   UNL     1     124.180 115.615 125.923  1.00  0.00     0.344 HD
ENDBRANCH   3   4
ENDBRANCH   2   3
ENDBRANCH   1   2
BRANCH   1   8
ATOM      8  C   UNL     1     126.488 114.875 130.606  1.00  0.00     0.072 C 
BRANCH   8   9
ATOM      9  C   UNL     1     125.651 116.062 131.137  1.00  0.00     0.227 C 
BRANCH   9  10
ATOM     10  N   UNL     1     126.471 117.028 131.880  1.00  0.00    -0.350 N 
ATOM     11  H   UNL     1     126.643 116.678 132.851  1.00  0.00     0.345 HD
ATOM     12  H   UNL     1     126.008 117.965 131.930  1.00  0.00     0.345 HD
ATOM     13  H   UNL     1     127.396 117.138 131.405  1.00  0.00     0.345 HD
ENDBRANCH   9  10
BRANCH   9  14
ATOM     14  C   UNL     1     124.480 115.589 131.960  1.00  0.00     0.099 C 
ATOM     15  O   UNL     1     124.676 114.855 132.966  1.00  0.00    -0.544 OA
ATOM     16  O   UNL     1     123.185 115.992 131.654  1.00  0.00    -0.544 OA
ENDBRANCH   9  14
ENDBRANCH   8   9
ENDBRANCH   1   8
TORSDOF 7
ENDMDL
MODEL 7
REMARK VINA RESULT:    -3.041     21.579     22.650
REMARK INTER + INTRA:          -4.203
REMARK INTER:                  -4.137
REMARK INTRA:                  -0.066
REMARK UNBOUND:                -0.095
REMARK SMILES [NH3+]CCCC[C@H]([NH3+])C(=O)[O-]
REMARK SMILES IDX 4 1 3 2 2 3 1 4 5 8 6 9 7 10 8 14 9 15 10 16
REMARK H PARENT 1 5 1 6 1 7 7 11 7 12 7 13
REMARK Flexibility Score: inf
ROOT
ATOM      1  C   UNL     1     109.149 122.834 117.408  1.00  0.00     0.012 C 
ENDROOT
BRANCH   1   2
ATOM      2  C   UNL     1     108.875 122.721 118.912  1.00  0.00     0.061 C 
BRANCH   2   3
ATOM      3  C   UNL     1     109.019 121.269 119.392  1.00  0.00     0.258 C 
BRANCH   3   4
ATOM      4  N   UNL     1     108.894 121.185 120.847  1.00  0.00    -0.358 N 
ATOM      5  H   UNL     1     109.842 121.164 121.288  1.00  0.00     0.344 HD
ATOM      6  H   UNL     1     108.361 120.326 121.113  1.00  0.00     0.344 HD
ATOM      7  H   UNL     1     108.378 122.025 121.195  1.00  0.00     0.344 HD
ENDBRANCH   3   4
ENDBRANCH   2   3
ENDBRANCH   1   2
BRANCH   1   8
ATOM      8  C   UNL     1     109.173 124.308 116.965  1.00  0.00     0.072 C 
BRANCH   8   9
ATOM      9  C   UNL     1     109.100 124.513 115.433  1.00  0.00     0.227 C 
BRANCH   9  10
ATOM     10  N   UNL     1     109.936 123.547 114.706  1.00  0.00    -0.350 N 
ATOM     11  H   UNL     1     109.393 122.672 114.523  1.00  0.00     0.345 HD
ATOM     12  H   UNL     1     110.800 123.308 115.245  1.00  0.00     0.345 HD
ATOM     13  H   UNL     1     110.218 123.955 113.786  1.00  0.00     0.345 HD
ENDBRANCH   9  10
BRANCH   9  14
ATOM     14  C   UNL     1     109.439 125.931 115.048  1.00  0.00     0.099 C 
ATOM     15  O   UNL     1     108.895 126.453 114.039  1.00  0.00    -0.544 OA
ATOM     16  O   UNL     1     110.308 126.691 115.823  1.00  0.00    -0.544 OA
ENDBRANCH   9  14
ENDBRANCH   8   9
ENDBRANCH   1   8
TORSDOF 7
ENDMDL
MODEL 8
REMARK VINA RESULT:    -3.007     10.527     12.162
REMARK INTER + INTRA:          -4.157
REMARK INTER:                  -4.053
REMARK INTRA:                  -0.104
REMARK UNBOUND:                -0.095
REMARK SMILES [NH3+]CCCC[C@H]([NH3+])C(=O)[O-]
REMARK SMILES IDX 4 1 3 2 2 3 1 4 5 8 6 9 7 10 8 14 9 15 10 16
REMARK H PARENT 1 5 1 6 1 7 7 11 7 12 7 13
REMARK Flexibility Score: inf
ROOT
ATOM      1  C   UNL     1     113.628 122.593 130.910  1.00  0.00     0.012 C 
ENDROOT
BRANCH   1   2
ATOM      2  C   UNL     1     112.165 123.030 130.764  1.00  0.00     0.061 C 
BRANCH   2   3
ATOM      3  C   UNL     1     111.529 122.415 129.509  1.00  0.00     0.258 C 
BRANCH   3   4
ATOM      4  N   UNL     1     112.183 122.907 128.297  1.00  0.00    -0.358 N 
ATOM      5  H   UNL     1     112.211 122.154 127.572  1.00  0.00     0.344 HD
ATOM      6  H   UNL     1     113.157 123.222 128.517  1.00  0.00     0.344 HD
ATOM      7  H   UNL     1     111.642 123.719 127.922  1.00  0.00     0.344 HD
ENDBRANCH   3   4
ENDBRANCH   2   3
ENDBRANCH   1   2
BRANCH   1   8
ATOM      8  C   UNL     1     114.000 122.416 132.393  1.00  0.00     0.072 C 
BRANCH   8   9
ATOM      9  C   UNL     1     115.521 122.334 132.662  1.00  0.00     0.227 C 
BRANCH   9  10
ATOM     10  N   UNL     1     116.309 122.881 131.549  1.00  0.00    -0.350 N 
ATOM     11  H   UNL     1     116.284 122.221 130.737  1.00  0.00     0.345 HD
ATOM     12  H   UNL     1     117.303 123.044 131.828  1.00  0.00     0.345 HD
ATOM     13  H   UNL     1     115.894 123.790 131.242  1.00  0.00     0.345 HD
ENDBRANCH   9  10
BRANCH   9  14
ATOM     14  C   UNL     1     115.949 120.928 132.999  1.00  0.00     0.099 C 
ATOM     15  O   UNL     1     115.084 120.022 133.124  1.00  0.00    -0.544 OA
ATOM     16  O   UNL     1     117.296 120.605 133.124  1.00  0.00    -0.544 OA
ENDBRANCH   9  14
ENDBRANCH   8   9
ENDBRANCH   1   8
TORSDOF 7
ENDMDL
