MODEL 1
REMARK VINA RESULT:    -4.109      0.000      0.000
REMARK INTER + INTRA:         -12.225
REMARK INTER:                  -8.913
REMARK INTRA:                  -3.312
REMARK UNBOUND:                -3.312
REMARK SMILES CCCCCCCCCCCCCCCCCCCCCC(=O)[O-]
REMARK SMILES IDX 12 1 11 2 10 3 9 4 8 5 7 6 6 7 5 8 4 9 3 10 2 11 1 12 13 13
REMARK SMILES IDX 14 14 15 15 16 16 17 17 18 18 19 19 20 20 21 21 22 22 23 23
REMARK SMILES IDX 24 24
REMARK H PARENT
REMARK Flexibility Score: inf
ROOT
ATOM      1  C   UNL     1      21.835 -14.267   2.394  1.00  0.00     0.000 C 
ENDROOT
BRANCH   1   2
ATOM      2  C   UNL     1      21.691 -15.795   2.298  1.00  0.00     0.000 C 
BRANCH   2   3
ATOM      3  C   UNL     1      22.996 -16.487   1.876  1.00  0.00     0.000 C 
BRANCH   3   4
ATOM      4  C   UNL     1      23.745 -17.038   3.100  1.00  0.00    -0.000 C 
BRANCH   4   5
ATOM      5  C   UNL     1      24.765 -16.039   3.668  1.00  0.00    -0.000 C 
BRANCH   5   6
ATOM      6  C   UNL     1      24.728 -15.965   5.206  1.00  0.00    -0.000 C 
BRANCH   6   7
ATOM      7  C   UNL     1      23.818 -17.052   5.818  1.00  0.00    -0.000 C 
BRANCH   7   8
ATOM      8  C   UNL     1      22.740 -16.491   6.761  1.00  0.00    -0.000 C 
BRANCH   8   9
ATOM      9  C   UNL     1      21.608 -15.769   6.013  1.00  0.00    -0.000 C 
BRANCH   9  10
ATOM     10  C   UNL     1      21.469 -14.293   6.445  1.00  0.00    -0.000 C 
BRANCH  10  11
ATOM     11  C   UNL     1      22.014 -14.009   7.855  1.00  0.00    -0.003 C 
ATOM     12  C   UNL     1      21.287 -12.864   8.558  1.00  0.00     0.004 C 
ENDBRANCH  10  11
ENDBRANCH   9  10
ENDBRANCH   8   9
ENDBRANCH   7   8
ENDBRANCH   6   7
ENDBRANCH   5   6
ENDBRANCH   4   5
ENDBRANCH   3   4
ENDBRANCH   2   3
ENDBRANCH   1   2
BRANCH   1  13
ATOM     13  C   UNL     1      22.178 -13.623   1.038  1.00  0.00     0.000 C 
BRANCH  13  14
ATOM     14  C   UNL     1      23.163 -12.451   1.170  1.00  0.00     0.000 C 
BRANCH  14  15
ATOM     15  C   UNL     1      24.497 -12.868   1.813  1.00  0.00     0.000 C 
BRANCH  15  16
ATOM     16  C   UNL     1      24.797 -12.097   3.108  1.00  0.00     0.000 C 
BRANCH  16  17
ATOM     17  C   UNL     1      26.023 -12.643   3.855  1.00  0.00     0.000 C 
BRANCH  17  18
ATOM     18  C   UNL     1      26.187 -11.961   5.219  1.00  0.00     0.000 C 
BRANCH  18  19
ATOM     19  C   UNL     1      25.050 -12.357   6.172  1.00  0.00     0.000 C 
BRANCH  19  20
ATOM     20  C   UNL     1      25.270 -11.849   7.609  1.00  0.00     0.006 C 
BRANCH  20  21
ATOM     21  C   UNL     1      24.188 -10.879   8.110  1.00  0.00     0.053 C 
BRANCH  21  22
ATOM     22  C   UNL     1      24.579  -9.447   7.907  1.00  0.00     0.041 C 
ATOM     23  O   UNL     1      25.737  -9.156   7.508  1.00  0.00    -0.550 OA
ATOM     24  O   UNL     1      23.649  -8.436   8.118  1.00  0.00    -0.550 OA
ENDBRANCH  21  22
ENDBRANCH  20  21
ENDBRANCH  19  20
ENDBRANCH  18  19
ENDBRANCH  17  18
ENDBRANCH  16  17
ENDBRANCH  15  16
ENDBRANCH  14  15
ENDBRANCH  13  14
ENDBRANCH   1  13
TORSDOF 20
ENDMDL
MODEL 2
REMARK VINA RESULT:    -4.094      1.957      4.782
REMARK INTER + INTRA:         -12.192
REMARK INTER:                  -8.980
REMARK INTRA:                  -3.212
REMARK UNBOUND:                -3.312
REMARK SMILES CCCCCCCCCCCCCCCCCCCCCC(=O)[O-]
REMARK SMILES IDX 12 1 11 2 10 3 9 4 8 5 7 6 6 7 5 8 4 9 3 10 2 11 1 12 13 13
REMARK SMILES IDX 14 14 15 15 16 16 17 17 18 18 19 19 20 20 21 21 22 22 23 23
REMARK SMILES IDX 24 24
REMARK H PARENT
REMARK Flexibility Score: inf
ROOT
ATOM      1  C   UNL     1      21.855 -14.360   2.561  1.00  0.00     0.000 C 
ENDROOT
BRANCH   1   2
ATOM      2  C   UNL     1      22.287 -13.600   1.296  1.00  0.00     0.000 C 
BRANCH   2   3
ATOM      3  C   UNL     1      23.672 -12.950   1.441  1.00  0.00     0.000 C 
BRANCH   3   4
ATOM      4  C   UNL     1      24.105 -12.907   2.914  1.00  0.00    -0.000 C 
BRANCH   4   5
ATOM      5  C   UNL     1      25.584 -13.277   3.107  1.00  0.00    -0.000 C 
BRANCH   5   6
ATOM      6  C   UNL     1      26.069 -13.049   4.550  1.00  0.00    -0.000 C 
BRANCH   6   7
ATOM      7  C   UNL     1      24.896 -12.961   5.550  1.00  0.00    -0.000 C 
BRANCH   7   8
ATOM      8  C   UNL     1      25.214 -12.118   6.797  1.00  0.00    -0.000 C 
BRANCH   8   9
ATOM      9  C   UNL     1      26.156 -10.942   6.498  1.00  0.00    -0.000 C 
BRANCH   9  10
ATOM     10  C   UNL     1      25.938  -9.756   7.464  1.00  0.00    -0.000 C 
BRANCH  10  11
ATOM     11  C   UNL     1      24.608  -9.827   8.234  1.00  0.00    -0.003 C 
ATOM     12  C   UNL     1      23.770  -8.556   8.099  1.00  0.00     0.004 C 
ENDBRANCH  10  11
ENDBRANCH   9  10
ENDBRANCH   8   9
ENDBRANCH   7   8
ENDBRANCH   6   7
ENDBRANCH   5   6
ENDBRANCH   4   5
ENDBRANCH   3   4
ENDBRANCH   2   3
ENDBRANCH   1   2
BRANCH   1  13
ATOM     13  C   UNL     1      21.404 -15.800   2.255  1.00  0.00     0.000 C 
BRANCH  13  14
ATOM     14  C   UNL     1      22.455 -16.596   1.466  1.00  0.00     0.000 C 
BRANCH  14  15
ATOM     15  C   UNL     1      23.300 -17.516   2.365  1.00  0.00     0.000 C 
BRANCH  15  16
ATOM     16  C   UNL     1      24.426 -16.761   3.091  1.00  0.00     0.000 C 
BRANCH  16  17
ATOM     17  C   UNL     1      24.231 -16.722   4.614  1.00  0.00     0.000 C 
BRANCH  17  18
ATOM     18  C   UNL     1      23.040 -17.590   5.039  1.00  0.00     0.000 C 
BRANCH  18  19
ATOM     19  C   UNL     1      22.109 -16.819   5.986  1.00  0.00     0.000 C 
BRANCH  19  20
ATOM     20  C   UNL     1      22.625 -15.406   6.312  1.00  0.00     0.006 C 
BRANCH  20  21
ATOM     21  C   UNL     1      21.526 -14.407   6.711  1.00  0.00     0.053 C 
BRANCH  21  22
ATOM     22  C   UNL     1      21.587 -14.054   8.165  1.00  0.00     0.041 C 
ATOM     23  O   UNL     1      21.575 -12.848   8.526  1.00  0.00    -0.550 OA
ATOM     24  O   UNL     1      21.614 -15.058   9.125  1.00  0.00    -0.550 OA
ENDBRANCH  21  22
ENDBRANCH  20  21
ENDBRANCH  19  20
ENDBRANCH  18  19
ENDBRANCH  17  18
ENDBRANCH  16  17
ENDBRANCH  15  16
ENDBRANCH  14  15
ENDBRANCH  13  14
ENDBRANCH   1  13
TORSDOF 20
ENDMDL
MODEL 3
REMARK VINA RESULT:    -4.036      1.805      3.662
REMARK INTER + INTRA:         -12.067
REMARK INTER:                  -9.768
REMARK INTRA:                  -2.298
REMARK UNBOUND:                -3.312
REMARK SMILES CCCCCCCCCCCCCCCCCCCCCC(=O)[O-]
REMARK SMILES IDX 12 1 11 2 10 3 9 4 8 5 7 6 6 7 5 8 4 9 3 10 2 11 1 12 13 13
REMARK SMILES IDX 14 14 15 15 16 16 17 17 18 18 19 19 20 20 21 21 22 22 23 23
REMARK SMILES IDX 24 24
REMARK H PARENT
REMARK Flexibility Score: inf
ROOT
ATOM      1  C   UNL     1      24.636 -11.242   1.985  1.00  0.00     0.000 C 
ENDROOT
BRANCH   1   2
ATOM      2  C   UNL     1      23.525 -11.765   1.060  1.00  0.00     0.000 C 
BRANCH   2   3
ATOM      3  C   UNL     1      23.323 -13.284   1.178  1.00  0.00     0.000 C 
BRANCH   3   4
ATOM      4  C   UNL     1      21.828 -13.635   1.233  1.00  0.00    -0.000 C 
BRANCH   4   5
ATOM      5  C   UNL     1      21.578 -15.099   1.625  1.00  0.00    -0.000 C 
BRANCH   5   6
ATOM      6  C   UNL     1      22.847 -15.797   2.148  1.00  0.00    -0.000 C 
BRANCH   6   7
ATOM      7  C   UNL     1      22.626 -16.440   3.535  1.00  0.00    -0.000 C 
BRANCH   7   8
ATOM      8  C   UNL     1      23.347 -15.702   4.676  1.00  0.00    -0.000 C 
BRANCH   8   9
ATOM      9  C   UNL     1      22.630 -14.409   5.097  1.00  0.00    -0.000 C 
BRANCH   9  10
ATOM     10  C   UNL     1      21.547 -14.663   6.169  1.00  0.00    -0.000 C 
BRANCH  10  11
ATOM     11  C   UNL     1      22.051 -14.477   7.610  1.00  0.00    -0.003 C 
ATOM     12  C   UNL     1      22.057 -13.016   8.058  1.00  0.00     0.004 C 
ENDBRANCH  10  11
ENDBRANCH   9  10
ENDBRANCH   8   9
ENDBRANCH   7   8
ENDBRANCH   6   7
ENDBRANCH   5   6
ENDBRANCH   4   5
ENDBRANCH   3   4
ENDBRANCH   2   3
ENDBRANCH   1   2
BRANCH   1  13
ATOM     13  C   UNL     1      24.796 -12.099   3.253  1.00  0.00     0.000 C 
BRANCH  13  14
ATOM     14  C   UNL     1      25.474 -11.337   4.403  1.00  0.00     0.000 C 
BRANCH  14  15
ATOM     15  C   UNL     1      26.011 -12.275   5.499  1.00  0.00     0.000 C 
BRANCH  15  16
ATOM     16  C   UNL     1      25.455 -11.937   6.892  1.00  0.00     0.000 C 
BRANCH  16  17
ATOM     17  C   UNL     1      25.291 -10.426   7.116  1.00  0.00     0.000 C 
BRANCH  17  18
ATOM     18  C   UNL     1      24.474 -10.141   8.381  1.00  0.00     0.000 C 
BRANCH  18  19
ATOM     19  C   UNL     1      23.729  -8.804   8.265  1.00  0.00     0.000 C 
BRANCH  19  20
ATOM     20  C   UNL     1      24.411  -7.822   7.295  1.00  0.00     0.006 C 
BRANCH  20  21
ATOM     21  C   UNL     1      23.508  -6.674   6.816  1.00  0.00     0.053 C 
BRANCH  21  22
ATOM     22  C   UNL     1      23.694  -5.433   7.634  1.00  0.00     0.041 C 
ATOM     23  O   UNL     1      22.990  -5.238   8.660  1.00  0.00    -0.550 OA
ATOM     24  O   UNL     1      24.675  -4.512   7.288  1.00  0.00    -0.550 OA
ENDBRANCH  21  22
ENDBRANCH  20  21
ENDBRANCH  19  20
ENDBRANCH  18  19
ENDBRANCH  17  18
ENDBRANCH  16  17
ENDBRANCH  15  16
ENDBRANCH  14  15
ENDBRANCH  13  14
ENDBRANCH   1  13
TORSDOF 20
ENDMDL
MODEL 4
REMARK VINA RESULT:    -3.925      1.256      2.534
REMARK INTER + INTRA:         -11.825
REMARK INTER:                  -8.211
REMARK INTRA:                  -3.614
REMARK UNBOUND:                -3.312
REMARK SMILES CCCCCCCCCCCCCCCCCCCCCC(=O)[O-]
REMARK SMILES IDX 12 1 11 2 10 3 9 4 8 5 7 6 6 7 5 8 4 9 3 10 2 11 1 12 13 13
REMARK SMILES IDX 14 14 15 15 16 16 17 17 18 18 19 19 20 20 21 21 22 22 23 23
REMARK SMILES IDX 24 24
REMARK H PARENT
REMARK Flexibility Score: inf
ROOT
ATOM      1  C   UNL     1      23.962 -12.702   2.131  1.00  0.00     0.000 C 
ENDROOT
BRANCH   1   2
ATOM      2  C   UNL     1      22.707 -13.167   1.375  1.00  0.00     0.000 C 
BRANCH   2   3
ATOM      3  C   UNL     1      21.816 -14.092   2.220  1.00  0.00     0.000 C 
BRANCH   3   4
ATOM      4  C   UNL     1      21.516 -15.399   1.470  1.00  0.00    -0.000 C 
BRANCH   4   5
ATOM      5  C   UNL     1      22.023 -16.641   2.220  1.00  0.00    -0.000 C 
BRANCH   5   6
ATOM      6  C   UNL     1      23.551 -16.805   2.128  1.00  0.00    -0.000 C 
BRANCH   6   7
ATOM      7  C   UNL     1      24.195 -17.026   3.514  1.00  0.00    -0.000 C 
BRANCH   7   8
ATOM      8  C   UNL     1      24.623 -15.722   4.208  1.00  0.00    -0.000 C 
BRANCH   8   9
ATOM      9  C   UNL     1      23.988 -15.547   5.597  1.00  0.00    -0.000 C 
BRANCH   9  10
ATOM     10  C   UNL     1      23.048 -14.324   5.661  1.00  0.00    -0.000 C 
BRANCH  10  11
ATOM     11  C   UNL     1      21.593 -14.683   6.006  1.00  0.00    -0.003 C 
ATOM     12  C   UNL     1      21.269 -16.157   5.772  1.00  0.00     0.004 C 
ENDBRANCH  10  11
ENDBRANCH   9  10
ENDBRANCH   8   9
ENDBRANCH   7   8
ENDBRANCH   6   7
ENDBRANCH   5   6
ENDBRANCH   4   5
ENDBRANCH   3   4
ENDBRANCH   2   3
ENDBRANCH   1   2
BRANCH   1  13
ATOM     13  C   UNL     1      25.260 -13.241   1.502  1.00  0.00     0.000 C 
BRANCH  13  14
ATOM     14  C   UNL     1      26.412 -12.225   1.556  1.00  0.00     0.000 C 
BRANCH  14  15
ATOM     15  C   UNL     1      25.997 -10.894   2.206  1.00  0.00     0.000 C 
BRANCH  15  16
ATOM     16  C   UNL     1      26.760 -10.608   3.510  1.00  0.00     0.000 C 
BRANCH  16  17
ATOM     17  C   UNL     1      27.418 -11.865   4.100  1.00  0.00     0.000 C 
BRANCH  17  18
ATOM     18  C   UNL     1      26.467 -12.583   5.066  1.00  0.00     0.000 C 
BRANCH  18  19
ATOM     19  C   UNL     1      25.453 -11.600   5.671  1.00  0.00     0.000 C 
BRANCH  19  20
ATOM     20  C   UNL     1      25.717 -11.310   7.160  1.00  0.00     0.006 C 
BRANCH  20  21
ATOM     21  C   UNL     1      25.548  -9.835   7.557  1.00  0.00     0.053 C 
BRANCH  21  22
ATOM     22  C   UNL     1      24.204  -9.564   8.159  1.00  0.00     0.041 C 
ATOM     23  O   UNL     1      23.727  -8.399   8.147  1.00  0.00    -0.550 OA
ATOM     24  O   UNL     1      23.459 -10.607   8.694  1.00  0.00    -0.550 OA
ENDBRANCH  21  22
ENDBRANCH  20  21
ENDBRANCH  19  20
ENDBRANCH  18  19
ENDBRANCH  17  18
ENDBRANCH  16  17
ENDBRANCH  15  16
ENDBRANCH  14  15
ENDBRANCH  13  14
ENDBRANCH   1  13
TORSDOF 20
ENDMDL
MODEL 5
REMARK VINA RESULT:    -3.908      1.071      2.426
REMARK INTER + INTRA:         -11.789
REMARK INTER:                  -8.969
REMARK INTRA:                  -2.819
REMARK UNBOUND:                -3.312
REMARK SMILES CCCCCCCCCCCCCCCCCCCCCC(=O)[O-]
REMARK SMILES IDX 12 1 11 2 10 3 9 4 8 5 7 6 6 7 5 8 4 9 3 10 2 11 1 12 13 13
REMARK SMILES IDX 14 14 15 15 16 16 17 17 18 18 19 19 20 20 21 21 22 22 23 23
REMARK SMILES IDX 24 24
REMARK H PARENT
REMARK Flexibility Score: inf
ROOT
ATOM      1  C   UNL     1      24.108 -12.228   1.623  1.00  0.00     0.000 C 
ENDROOT
BRANCH   1   2
ATOM      2  C   UNL     1      22.926 -13.006   1.022  1.00  0.00     0.000 C 
BRANCH   2   3
ATOM      3  C   UNL     1      22.141 -13.798   2.079  1.00  0.00     0.000 C 
BRANCH   3   4
ATOM      4  C   UNL     1      21.578 -15.098   1.484  1.00  0.00    -0.000 C 
BRANCH   4   5
ATOM      5  C   UNL     1      22.534 -16.289   1.656  1.00  0.00    -0.000 C 
BRANCH   5   6
ATOM      6  C   UNL     1      23.480 -16.121   2.859  1.00  0.00    -0.000 C 
BRANCH   6   7
ATOM      7  C   UNL     1      22.755 -16.348   4.203  1.00  0.00    -0.000 C 
BRANCH   7   8
ATOM      8  C   UNL     1      23.496 -15.750   5.410  1.00  0.00    -0.000 C 
BRANCH   8   9
ATOM      9  C   UNL     1      22.929 -14.389   5.846  1.00  0.00    -0.000 C 
BRANCH   9  10
ATOM     10  C   UNL     1      21.687 -14.536   6.753  1.00  0.00    -0.000 C 
BRANCH  10  11
ATOM     11  C   UNL     1      21.929 -14.090   8.204  1.00  0.00    -0.003 C 
ATOM     12  C   UNL     1      21.262 -12.757   8.540  1.00  0.00     0.004 C 
ENDBRANCH  10  11
ENDBRANCH   9  10
ENDBRANCH   8   9
ENDBRANCH   7   8
ENDBRANCH   6   7
ENDBRANCH   5   6
ENDBRANCH   4   5
ENDBRANCH   3   4
ENDBRANCH   2   3
ENDBRANCH   1   2
BRANCH   1  13
ATOM     13  C   UNL     1      24.359 -12.588   3.099  1.00  0.00     0.000 C 
BRANCH  13  14
ATOM     14  C   UNL     1      25.643 -13.408   3.299  1.00  0.00     0.000 C 
BRANCH  14  15
ATOM     15  C   UNL     1      26.238 -13.242   4.709  1.00  0.00     0.000 C 
BRANCH  15  16
ATOM     16  C   UNL     1      26.842 -11.846   4.935  1.00  0.00     0.000 C 
BRANCH  16  17
ATOM     17  C   UNL     1      26.173 -11.089   6.092  1.00  0.00     0.000 C 
BRANCH  17  18
ATOM     18  C   UNL     1      25.601 -12.062   7.130  1.00  0.00     0.000 C 
BRANCH  18  19
ATOM     19  C   UNL     1      24.444 -11.419   7.907  1.00  0.00     0.000 C 
BRANCH  19  20
ATOM     20  C   UNL     1      24.797 -10.028   8.464  1.00  0.00     0.006 C 
BRANCH  20  21
ATOM     21  C   UNL     1      23.666  -8.993   8.348  1.00  0.00     0.053 C 
BRANCH  21  22
ATOM     22  C   UNL     1      24.060  -7.822   7.502  1.00  0.00     0.041 C 
ATOM     23  O   UNL     1      25.225  -7.742   7.032  1.00  0.00    -0.550 OA
ATOM     24  O   UNL     1      23.125  -6.840   7.195  1.00  0.00    -0.550 OA
ENDBRANCH  21  22
ENDBRANCH  20  21
ENDBRANCH  19  20
ENDBRANCH  18  19
ENDBRANCH  17  18
ENDBRANCH  16  17
ENDBRANCH  15  16
ENDBRANCH  14  15
ENDBRANCH  13  14
ENDBRANCH   1  13
TORSDOF 20
ENDMDL
MODEL 6
REMARK VINA RESULT:    -3.895      1.334      2.498
REMARK INTER + INTRA:         -11.761
REMARK INTER:                  -8.868
REMARK INTRA:                  -2.893
REMARK UNBOUND:                -3.312
REMARK SMILES CCCCCCCCCCCCCCCCCCCCCC(=O)[O-]
REMARK SMILES IDX 12 1 11 2 10 3 9 4 8 5 7 6 6 7 5 8 4 9 3 10 2 11 1 12 13 13
REMARK SMILES IDX 14 14 15 15 16 16 17 17 18 18 19 19 20 20 21 21 22 22 23 23
REMARK SMILES IDX 24 24
REMARK H PARENT
REMARK Flexibility Score: inf
ROOT
ATOM      1  C   UNL     1      24.094 -12.343   2.179  1.00  0.00     0.000 C 
ENDROOT
BRANCH   1   2
ATOM      2  C   UNL     1      23.035 -12.868   1.196  1.00  0.00     0.000 C 
BRANCH   2   3
ATOM      3  C   UNL     1      21.939 -13.691   1.890  1.00  0.00     0.000 C 
BRANCH   3   4
ATOM      4  C   UNL     1      21.792 -15.072   1.234  1.00  0.00    -0.000 C 
BRANCH   4   5
ATOM      5  C   UNL     1      21.540 -16.190   2.258  1.00  0.00    -0.000 C 
BRANCH   5   6
ATOM      6  C   UNL     1      22.829 -16.651   2.961  1.00  0.00    -0.000 C 
BRANCH   6   7
ATOM      7  C   UNL     1      22.776 -16.413   4.486  1.00  0.00    -0.000 C 
BRANCH   7   8
ATOM      8  C   UNL     1      21.489 -15.713   4.954  1.00  0.00    -0.000 C 
BRANCH   8   9
ATOM      9  C   UNL     1      21.729 -14.733   6.113  1.00  0.00    -0.000 C 
BRANCH   9  10
ATOM     10  C   UNL     1      21.193 -15.273   7.457  1.00  0.00    -0.000 C 
BRANCH  10  11
ATOM     11  C   UNL     1      21.550 -14.388   8.663  1.00  0.00    -0.003 C 
ATOM     12  C   UNL     1      21.538 -12.895   8.334  1.00  0.00     0.004 C 
ENDBRANCH  10  11
ENDBRANCH   9  10
ENDBRANCH   8   9
ENDBRANCH   7   8
ENDBRANCH   6   7
ENDBRANCH   5   6
ENDBRANCH   4   5
ENDBRANCH   3   4
ENDBRANCH   2   3
ENDBRANCH   1   2
BRANCH   1  13
ATOM     13  C   UNL     1      24.120 -13.142   3.495  1.00  0.00     0.000 C 
BRANCH  13  14
ATOM     14  C   UNL     1      25.466 -13.843   3.738  1.00  0.00     0.000 C 
BRANCH  14  15
ATOM     15  C   UNL     1      26.579 -13.325   2.809  1.00  0.00     0.000 C 
BRANCH  15  16
ATOM     16  C   UNL     1      27.927 -13.167   3.532  1.00  0.00     0.000 C 
BRANCH  16  17
ATOM     17  C   UNL     1      27.810 -12.371   4.841  1.00  0.00     0.000 C 
BRANCH  17  18
ATOM     18  C   UNL     1      27.894 -10.863   4.578  1.00  0.00     0.000 C 
BRANCH  18  19
ATOM     19  C   UNL     1      27.055 -10.080   5.598  1.00  0.00     0.000 C 
BRANCH  19  20
ATOM     20  C   UNL     1      25.670 -10.706   5.840  1.00  0.00     0.006 C 
BRANCH  20  21
ATOM     21  C   UNL     1      25.398 -11.101   7.301  1.00  0.00     0.053 C 
BRANCH  21  22
ATOM     22  C   UNL     1      24.546 -10.092   8.007  1.00  0.00     0.041 C 
ATOM     23  O   UNL     1      23.836 -10.437   8.988  1.00  0.00    -0.550 OA
ATOM     24  O   UNL     1      24.568  -8.761   7.609  1.00  0.00    -0.550 OA
ENDBRANCH  21  22
ENDBRANCH  20  21
ENDBRANCH  19  20
ENDBRANCH  18  19
ENDBRANCH  17  18
ENDBRANCH  16  17
ENDBRANCH  15  16
ENDBRANCH  14  15
ENDBRANCH  13  14
ENDBRANCH   1  13
TORSDOF 20
ENDMDL
MODEL 7
REMARK VINA RESULT:    -3.865      2.394      5.542
REMARK INTER + INTRA:         -11.696
REMARK INTER:                  -9.039
REMARK INTRA:                  -2.657
REMARK UNBOUND:                -3.312
REMARK SMILES CCCCCCCCCCCCCCCCCCCCCC(=O)[O-]
REMARK SMILES IDX 12 1 11 2 10 3 9 4 8 5 7 6 6 7 5 8 4 9 3 10 2 11 1 12 13 13
REMARK SMILES IDX 14 14 15 15 16 16 17 17 18 18 19 19 20 20 21 21 22 22 23 23
REMARK SMILES IDX 24 24
REMARK H PARENT
REMARK Flexibility Score: inf
ROOT
ATOM      1  C   UNL     1      24.804 -11.507   2.709  1.00  0.00     0.000 C 
ENDROOT
BRANCH   1   2
ATOM      2  C   UNL     1      24.848 -12.526   3.860  1.00  0.00     0.000 C 
BRANCH   2   3
ATOM      3  C   UNL     1      26.155 -13.332   3.887  1.00  0.00     0.000 C 
BRANCH   3   4
ATOM      4  C   UNL     1      27.130 -12.760   4.928  1.00  0.00    -0.000 C 
BRANCH   4   5
ATOM      5  C   UNL     1      28.159 -11.801   4.310  1.00  0.00    -0.000 C 
BRANCH   5   6
ATOM      6  C   UNL     1      28.229 -10.452   5.049  1.00  0.00    -0.000 C 
BRANCH   6   7
ATOM      7  C   UNL     1      27.283  -9.400   4.429  1.00  0.00    -0.000 C 
BRANCH   7   8
ATOM      8  C   UNL     1      26.238  -8.857   5.418  1.00  0.00    -0.000 C 
BRANCH   8   9
ATOM      9  C   UNL     1      26.382  -9.453   6.827  1.00  0.00    -0.000 C 
BRANCH   9  10
ATOM     10  C   UNL     1      25.251 -10.451   7.159  1.00  0.00    -0.000 C 
BRANCH  10  11
ATOM     11  C   UNL     1      24.373 -10.014   8.344  1.00  0.00    -0.003 C 
ATOM     12  C   UNL     1      23.738  -8.639   8.144  1.00  0.00     0.004 C 
ENDBRANCH  10  11
ENDBRANCH   9  10
ENDBRANCH   8   9
ENDBRANCH   7   8
ENDBRANCH   6   7
ENDBRANCH   5   6
ENDBRANCH   4   5
ENDBRANCH   3   4
ENDBRANCH   2   3
ENDBRANCH   1   2
BRANCH   1  13
ATOM     13  C   UNL     1      23.787 -11.895   1.620  1.00  0.00     0.000 C 
BRANCH  13  14
ATOM     14  C   UNL     1      23.392 -13.379   1.678  1.00  0.00     0.000 C 
BRANCH  14  15
ATOM     15  C   UNL     1      21.920 -13.615   1.298  1.00  0.00     0.000 C 
BRANCH  15  16
ATOM     16  C   UNL     1      21.458 -15.054   1.584  1.00  0.00     0.000 C 
BRANCH  16  17
ATOM     17  C   UNL     1      22.401 -15.802   2.539  1.00  0.00     0.000 C 
BRANCH  17  18
ATOM     18  C   UNL     1      21.816 -15.864   3.955  1.00  0.00     0.000 C 
BRANCH  18  19
ATOM     19  C   UNL     1      22.898 -15.594   5.010  1.00  0.00     0.000 C 
BRANCH  19  20
ATOM     20  C   UNL     1      22.530 -14.443   5.964  1.00  0.00     0.006 C 
BRANCH  20  21
ATOM     21  C   UNL     1      21.260 -14.692   6.795  1.00  0.00     0.053 C 
BRANCH  21  22
ATOM     22  C   UNL     1      21.501 -14.497   8.261  1.00  0.00     0.041 C 
ATOM     23  O   UNL     1      21.394 -13.352   8.775  1.00  0.00    -0.550 OA
ATOM     24  O   UNL     1      21.799 -15.588   9.068  1.00  0.00    -0.550 OA
ENDBRANCH  21  22
ENDBRANCH  20  21
ENDBRANCH  19  20
ENDBRANCH  18  19
ENDBRANCH  17  18
ENDBRANCH  16  17
ENDBRANCH  15  16
ENDBRANCH  14  15
ENDBRANCH  13  14
ENDBRANCH   1  13
TORSDOF 20
ENDMDL
MODEL 8
REMARK VINA RESULT:    -3.780      7.946     13.029
REMARK INTER + INTRA:         -11.511
REMARK INTER:                  -8.393
REMARK INTRA:                  -3.118
REMARK UNBOUND:                -3.312
REMARK SMILES CCCCCCCCCCCCCCCCCCCCCC(=O)[O-]
REMARK SMILES IDX 12 1 11 2 10 3 9 4 8 5 7 6 6 7 5 8 4 9 3 10 2 11 1 12 13 13
REMARK SMILES IDX 14 14 15 15 16 16 17 17 18 18 19 19 20 20 21 21 22 22 23 23
REMARK SMILES IDX 24 24
REMARK H PARENT
REMARK Flexibility Score: inf
ROOT
ATOM      1  C   UNL     1      28.611  -1.930  11.747  1.00  0.00     0.000 C 
ENDROOT
BRANCH   1   2
ATOM      2  C   UNL     1      29.775  -2.915  11.938  1.00  0.00     0.000 C 
BRANCH   2   3
ATOM      3  C   UNL     1      29.938  -3.876  10.749  1.00  0.00     0.000 C 
BRANCH   3   4
ATOM      4  C   UNL     1      28.968  -3.513   9.615  1.00  0.00    -0.000 C 
BRANCH   4   5
ATOM      5  C   UNL     1      28.667  -4.704   8.691  1.00  0.00    -0.000 C 
BRANCH   5   6
ATOM      6  C   UNL     1      28.703  -4.321   7.200  1.00  0.00    -0.000 C 
BRANCH   6   7
ATOM      7  C   UNL     1      27.287  -4.136   6.614  1.00  0.00    -0.000 C 
BRANCH   7   8
ATOM      8  C   UNL     1      26.242  -5.090   7.219  1.00  0.00    -0.000 C 
BRANCH   8   9
ATOM      9  C   UNL     1      24.798  -4.619   6.986  1.00  0.00    -0.000 C 
BRANCH   9  10
ATOM     10  C   UNL     1      23.763  -5.714   7.325  1.00  0.00    -0.000 C 
BRANCH  10  11
ATOM     11  C   UNL     1      24.261  -7.141   7.041  1.00  0.00    -0.003 C 
ATOM     12  C   UNL     1      23.730  -8.169   8.039  1.00  0.00     0.004 C 
ENDBRANCH  10  11
ENDBRANCH   9  10
ENDBRANCH   8   9
ENDBRANCH   7   8
ENDBRANCH   6   7
ENDBRANCH   5   6
ENDBRANCH   4   5
ENDBRANCH   3   4
ENDBRANCH   2   3
ENDBRANCH   1   2
BRANCH   1  13
ATOM     13  C   UNL     1      28.846  -0.594  12.476  1.00  0.00     0.000 C 
BRANCH  13  14
ATOM     14  C   UNL     1      29.723   0.376  11.668  1.00  0.00     0.000 C 
BRANCH  14  15
ATOM     15  C   UNL     1      29.401   0.352  10.163  1.00  0.00     0.000 C 
BRANCH  15  16
ATOM     16  C   UNL     1      28.297   1.350   9.779  1.00  0.00     0.000 C 
BRANCH  16  17
ATOM     17  C   UNL     1      26.930   0.677   9.576  1.00  0.00     0.000 C 
BRANCH  17  18
ATOM     18  C   UNL     1      26.946  -0.246   8.352  1.00  0.00     0.000 C 
BRANCH  18  19
ATOM     19  C   UNL     1      26.080  -1.491   8.590  1.00  0.00     0.000 C 
BRANCH  19  20
ATOM     20  C   UNL     1      25.223  -1.388   9.865  1.00  0.00     0.006 C 
BRANCH  20  21
ATOM     21  C   UNL     1      24.578  -2.712  10.303  1.00  0.00     0.053 C 
BRANCH  21  22
ATOM     22  C   UNL     1      23.131  -2.787   9.923  1.00  0.00     0.041 C 
ATOM     23  O   UNL     1      22.477  -3.844  10.120  1.00  0.00    -0.550 OA
ATOM     24  O   UNL     1      22.494  -1.673   9.390  1.00  0.00    -0.550 OA
ENDBRANCH  21  22
ENDBRANCH  20  21
ENDBRANCH  19  20
ENDBRANCH  18  19
ENDBRANCH  17  18
ENDBRANCH  16  17
ENDBRANCH  15  16
ENDBRANCH  14  15
ENDBRANCH  13  14
ENDBRANCH   1  13
TORSDOF 20
ENDMDL
MODEL 9
REMARK VINA RESULT:    -3.775      2.220      5.114
REMARK INTER + INTRA:         -11.501
REMARK INTER:                  -7.959
REMARK INTRA:                  -3.542
REMARK UNBOUND:                -3.312
REMARK SMILES CCCCCCCCCCCCCCCCCCCCCC(=O)[O-]
REMARK SMILES IDX 12 1 11 2 10 3 9 4 8 5 7 6 6 7 5 8 4 9 3 10 2 11 1 12 13 13
REMARK SMILES IDX 14 14 15 15 16 16 17 17 18 18 19 19 20 20 21 21 22 22 23 23
REMARK SMILES IDX 24 24
REMARK H PARENT
REMARK Flexibility Score: inf
ROOT
ATOM      1  C   UNL     1      24.035 -13.032   3.137  1.00  0.00     0.000 C 
ENDROOT
BRANCH   1   2
ATOM      2  C   UNL     1      25.236 -13.852   3.634  1.00  0.00     0.000 C 
BRANCH   2   3
ATOM      3  C   UNL     1      25.937 -14.621   2.504  1.00  0.00     0.000 C 
BRANCH   3   4
ATOM      4  C   UNL     1      27.442 -14.312   2.482  1.00  0.00    -0.000 C 
BRANCH   4   5
ATOM      5  C   UNL     1      27.755 -12.939   1.867  1.00  0.00    -0.000 C 
BRANCH   5   6
ATOM      6  C   UNL     1      28.589 -12.046   2.804  1.00  0.00    -0.000 C 
BRANCH   6   7
ATOM      7  C   UNL     1      28.723 -12.653   4.217  1.00  0.00    -0.000 C 
BRANCH   7   8
ATOM      8  C   UNL     1      27.979 -11.856   5.302  1.00  0.00    -0.000 C 
BRANCH   8   9
ATOM      9  C   UNL     1      27.097 -10.739   4.722  1.00  0.00    -0.000 C 
BRANCH   9  10
ATOM     10  C   UNL     1      25.752 -10.608   5.469  1.00  0.00    -0.000 C 
BRANCH  10  11
ATOM     11  C   UNL     1      25.659 -11.485   6.729  1.00  0.00    -0.003 C 
ATOM     12  C   UNL     1      24.902 -10.812   7.873  1.00  0.00     0.004 C 
ENDBRANCH  10  11
ENDBRANCH   9  10
ENDBRANCH   8   9
ENDBRANCH   7   8
ENDBRANCH   6   7
ENDBRANCH   5   6
ENDBRANCH   4   5
ENDBRANCH   3   4
ENDBRANCH   2   3
ENDBRANCH   1   2
BRANCH   1  13
ATOM     13  C   UNL     1      24.139 -12.688   1.640  1.00  0.00     0.000 C 
BRANCH  13  14
ATOM     14  C   UNL     1      22.804 -12.857   0.898  1.00  0.00     0.000 C 
BRANCH  14  15
ATOM     15  C   UNL     1      21.799 -13.723   1.677  1.00  0.00     0.000 C 
BRANCH  15  16
ATOM     16  C   UNL     1      21.846 -15.203   1.261  1.00  0.00     0.000 C 
BRANCH  16  17
ATOM     17  C   UNL     1      21.479 -16.155   2.409  1.00  0.00     0.000 C 
BRANCH  17  18
ATOM     18  C   UNL     1      22.724 -16.568   3.203  1.00  0.00     0.000 C 
BRANCH  18  19
ATOM     19  C   UNL     1      22.469 -16.478   4.714  1.00  0.00     0.000 C 
BRANCH  19  20
ATOM     20  C   UNL     1      21.690 -15.211   5.113  1.00  0.00     0.006 C 
BRANCH  20  21
ATOM     21  C   UNL     1      21.227 -15.188   6.579  1.00  0.00     0.053 C 
BRANCH  21  22
ATOM     22  C   UNL     1      22.025 -14.228   7.407  1.00  0.00     0.041 C 
ATOM     23  O   UNL     1      23.100 -13.748   6.961  1.00  0.00    -0.550 OA
ATOM     24  O   UNL     1      21.559 -13.830   8.654  1.00  0.00    -0.550 OA
ENDBRANCH  21  22
ENDBRANCH  20  21
ENDBRANCH  19  20
ENDBRANCH  18  19
ENDBRANCH  17  18
ENDBRANCH  16  17
ENDBRANCH  15  16
ENDBRANCH  14  15
ENDBRANCH  13  14
ENDBRANCH   1  13
TORSDOF 20
ENDMDL
