MODEL 1
REMARK VINA RESULT:    -3.750      0.000      0.000
REMARK INTER + INTRA:          -5.496
REMARK INTER:                  -4.955
REMARK INTRA:                  -0.541
REMARK UNBOUND:                -0.541
REMARK SMILES C=C[C@H](O)CCCCC
REMARK SMILES IDX 6 1 7 2 8 3 9 4 5 5 3 6 2 7 1 8 4 9
REMARK H PARENT 4 10
REMARK Flexibility Score: inf
ROOT
ATOM      1  C   UNL     1     -39.341  23.901   7.786  1.00  0.00     0.003 C 
ENDROOT
BRANCH   1   2
ATOM      2  C   UNL     1     -39.799  22.844   8.807  1.00  0.00    -0.000 C 
BRANCH   2   3
ATOM      3  C   UNL     1     -41.325  22.713   8.961  1.00  0.00    -0.003 C 
ATOM      4  C   UNL     1     -41.798  21.260   9.017  1.00  0.00     0.004 C 
ENDBRANCH   2   3
ENDBRANCH   1   2
BRANCH   1   5
ATOM      5  C   UNL     1     -40.502  24.751   7.243  1.00  0.00     0.036 C 
BRANCH   5   6
ATOM      6  C   UNL     1     -40.792  24.458   5.756  1.00  0.00     0.136 C 
BRANCH   6   7
ATOM      7  C   UNL     1     -42.086  23.703   5.572  1.00  0.00    -0.004 C 
ATOM      8  C   UNL     1     -42.120  22.381   5.371  1.00  0.00     0.007 C 
ENDBRANCH   6   7
BRANCH   6   9
ATOM      9  O   UNL     1     -39.739  23.712   5.201  1.00  0.00    -0.389 OA
ATOM     10  H   UNL     1     -39.941  22.756   5.374  1.00  0.00     0.211 HD
ENDBRANCH   6   9
ENDBRANCH   5   6
ENDBRANCH   1   5
TORSDOF 6
ENDMDL
MODEL 2
REMARK VINA RESULT:    -3.622      1.153      2.418
REMARK INTER + INTRA:          -5.327
REMARK INTER:                  -4.947
REMARK INTRA:                  -0.380
REMARK UNBOUND:                -0.541
REMARK SMILES C=C[C@H](O)CCCCC
REMARK SMILES IDX 6 1 7 2 8 3 9 4 5 5 3 6 2 7 1 8 4 9
REMARK H PARENT 4 10
REMARK Flexibility Score: inf
ROOT
ATOM      1  C   UNL     1     -41.779  21.973   7.115  1.00  0.00     0.003 C 
ENDROOT
BRANCH   1   2
ATOM      2  C   UNL     1     -41.341  22.899   8.264  1.00  0.00    -0.000 C 
BRANCH   2   3
ATOM      3  C   UNL     1     -40.054  22.467   8.989  1.00  0.00    -0.003 C 
ATOM      4  C   UNL     1     -38.824  23.259   8.547  1.00  0.00     0.004 C 
ENDBRANCH   2   3
ENDBRANCH   1   2
BRANCH   1   5
ATOM      5  C   UNL     1     -41.767  22.671   5.745  1.00  0.00     0.036 C 
BRANCH   5   6
ATOM      6  C   UNL     1     -40.886  23.938   5.745  1.00  0.00     0.136 C 
BRANCH   6   7
ATOM      7  C   UNL     1     -41.650  25.156   5.284  1.00  0.00    -0.004 C 
ATOM      8  C   UNL     1     -42.124  26.069   6.138  1.00  0.00     0.007 C 
ENDBRANCH   6   7
BRANCH   6   9
ATOM      9  O   UNL     1     -39.773  23.748   4.910  1.00  0.00    -0.389 OA
ATOM     10  H   UNL     1     -39.031  24.284   5.292  1.00  0.00     0.211 HD
ENDBRANCH   6   9
ENDBRANCH   5   6
ENDBRANCH   1   5
TORSDOF 6
ENDMDL
MODEL 3
REMARK VINA RESULT:    -3.375      1.670      2.530
REMARK INTER + INTRA:          -5.001
REMARK INTER:                  -4.496
REMARK INTRA:                  -0.505
REMARK UNBOUND:                -0.541
REMARK SMILES C=C[C@H](O)CCCCC
REMARK SMILES IDX 6 1 7 2 8 3 9 4 5 5 3 6 2 7 1 8 4 9
REMARK H PARENT 4 10
REMARK Flexibility Score: inf
ROOT
ATOM      1  C   UNL     1     -41.643  22.975   8.573  1.00  0.00     0.003 C 
ENDROOT
BRANCH   1   2
ATOM      2  C   UNL     1     -40.343  22.162   8.704  1.00  0.00    -0.000 C 
BRANCH   2   3
ATOM      3  C   UNL     1     -39.107  22.981   9.118  1.00  0.00    -0.003 C 
ATOM      4  C   UNL     1     -38.461  23.721   7.947  1.00  0.00     0.004 C 
ENDBRANCH   2   3
ENDBRANCH   1   2
BRANCH   1   5
ATOM      5  C   UNL     1     -42.104  23.136   7.114  1.00  0.00     0.036 C 
BRANCH   5   6
ATOM      6  C   UNL     1     -41.984  24.594   6.623  1.00  0.00     0.136 C 
BRANCH   6   7
ATOM      7  C   UNL     1     -41.078  24.711   5.421  1.00  0.00    -0.004 C 
ATOM      8  C   UNL     1     -40.270  23.718   5.035  1.00  0.00     0.007 C 
ENDBRANCH   6   7
BRANCH   6   9
ATOM      9  O   UNL     1     -41.488  25.407   7.655  1.00  0.00    -0.389 OA
ATOM     10  H   UNL     1     -41.699  24.949   8.510  1.00  0.00     0.211 HD
ENDBRANCH   6   9
ENDBRANCH   5   6
ENDBRANCH   1   5
TORSDOF 6
ENDMDL
MODEL 4
REMARK VINA RESULT:    -3.217      1.700      3.978
REMARK INTER + INTRA:          -4.793
REMARK INTER:                  -4.508
REMARK INTRA:                  -0.285
REMARK UNBOUND:                -0.541
REMARK SMILES C=C[C@H](O)CCCCC
REMARK SMILES IDX 6 1 7 2 8 3 9 4 5 5 3 6 2 7 1 8 4 9
REMARK H PARENT 4 10
REMARK Flexibility Score: inf
ROOT
ATOM      1  C   UNL     1     -41.537  22.219   6.665  1.00  0.00     0.003 C 
ENDROOT
BRANCH   1   2
ATOM      2  C   UNL     1     -41.828  23.105   5.440  1.00  0.00    -0.000 C 
BRANCH   2   3
ATOM      3  C   UNL     1     -41.145  24.484   5.463  1.00  0.00    -0.003 C 
ATOM      4  C   UNL     1     -42.125  25.640   5.263  1.00  0.00     0.004 C 
ENDBRANCH   2   3
ENDBRANCH   1   2
BRANCH   1   5
ATOM      5  C   UNL     1     -41.692  22.971   7.998  1.00  0.00     0.036 C 
BRANCH   5   6
ATOM      6  C   UNL     1     -40.375  23.007   8.801  1.00  0.00     0.136 C 
BRANCH   6   7
ATOM      7  C   UNL     1     -39.426  24.060   8.282  1.00  0.00    -0.004 C 
ATOM      8  C   UNL     1     -38.304  23.750   7.624  1.00  0.00     0.007 C 
ENDBRANCH   6   7
BRANCH   6   9
ATOM      9  O   UNL     1     -39.746  21.753   8.747  1.00  0.00    -0.389 OA
ATOM     10  H   UNL     1     -39.550  21.569   7.791  1.00  0.00     0.211 HD
ENDBRANCH   6   9
ENDBRANCH   5   6
ENDBRANCH   1   5
TORSDOF 6
ENDMDL
MODEL 5
REMARK VINA RESULT:    -2.693      1.158      2.391
REMARK INTER + INTRA:          -4.100
REMARK INTER:                  -4.349
REMARK INTRA:                   0.249
REMARK UNBOUND:                -0.541
REMARK SMILES C=C[C@H](O)CCCCC
REMARK SMILES IDX 6 1 7 2 8 3 9 4 5 5 3 6 2 7 1 8 4 9
REMARK H PARENT 4 10
REMARK Flexibility Score: inf
ROOT
ATOM      1  C   UNL     1     -40.610  24.873   6.981  1.00  0.00     0.003 C 
ENDROOT
BRANCH   1   2
ATOM      2  C   UNL     1     -40.324  24.006   8.221  1.00  0.00    -0.000 C 
BRANCH   2   3
ATOM      3  C   UNL     1     -38.863  23.545   8.363  1.00  0.00    -0.003 C 
ATOM      4  C   UNL     1     -37.958  24.074   7.251  1.00  0.00     0.004 C 
ENDBRANCH   2   3
ENDBRANCH   1   2
BRANCH   1   5
ATOM      5  C   UNL     1     -41.893  24.455   6.242  1.00  0.00     0.036 C 
BRANCH   5   6
ATOM      6  C   UNL     1     -41.662  23.241   5.317  1.00  0.00     0.136 C 
BRANCH   6   7
ATOM      7  C   UNL     1     -42.125  21.952   5.952  1.00  0.00    -0.004 C 
ATOM      8  C   UNL     1     -42.106  21.759   7.275  1.00  0.00     0.007 C 
ENDBRANCH   6   7
BRANCH   6   9
ATOM      9  O   UNL     1     -40.298  23.134   4.999  1.00  0.00    -0.389 OA
ATOM     10  H   UNL     1     -39.793  23.267   5.844  1.00  0.00     0.211 HD
ENDBRANCH   6   9
ENDBRANCH   5   6
ENDBRANCH   1   5
TORSDOF 6
ENDMDL
MODEL 6
REMARK VINA RESULT:    -1.874     18.129     19.567
REMARK INTER + INTRA:          -3.018
REMARK INTER:                  -2.754
REMARK INTRA:                  -0.264
REMARK UNBOUND:                -0.541
REMARK SMILES C=C[C@H](O)CCCCC
REMARK SMILES IDX 6 1 7 2 8 3 9 4 5 5 3 6 2 7 1 8 4 9
REMARK H PARENT 4 10
REMARK Flexibility Score: inf
ROOT
ATOM      1  C   UNL     1     -24.682  31.821   9.047  1.00  0.00     0.003 C 
ENDROOT
BRANCH   1   2
ATOM      2  C   UNL     1     -24.063  33.228   9.125  1.00  0.00    -0.000 C 
BRANCH   2   3
ATOM      3  C   UNL     1     -22.587  33.309   8.695  1.00  0.00    -0.003 C 
ATOM      4  C   UNL     1     -21.928  34.637   9.066  1.00  0.00     0.004 C 
ENDBRANCH   2   3
ENDBRANCH   1   2
BRANCH   1   5
ATOM      5  C   UNL     1     -24.242  31.041   7.797  1.00  0.00     0.036 C 
BRANCH   5   6
ATOM      6  C   UNL     1     -23.937  29.562   8.112  1.00  0.00     0.136 C 
BRANCH   6   7
ATOM      7  C   UNL     1     -22.608  29.396   8.809  1.00  0.00    -0.004 C 
ATOM      8  C   UNL     1     -21.954  28.229   8.834  1.00  0.00     0.007 C 
ENDBRANCH   6   7
BRANCH   6   9
ATOM      9  O   UNL     1     -23.932  28.810   6.926  1.00  0.00    -0.389 OA
ATOM     10  H   UNL     1     -24.673  28.154   6.996  1.00  0.00     0.211 HD
ENDBRANCH   6   9
ENDBRANCH   5   6
ENDBRANCH   1   5
TORSDOF 6
ENDMDL
