MODEL 1
REMARK VINA RESULT:    -0.117      0.000      0.000
REMARK INTER + INTRA:          -2.260
REMARK INTER:                  -0.174
REMARK INTRA:                  -2.085
REMARK UNBOUND:                -2.085
REMARK SMILES COC(=O)C1=CO[C@@H](O[C@@H]2O[C@H](CO)[C@H](O)[C@H](O)[C@H]2O)[C@@H]2C(CO)=CC[C@H]12
REMARK SMILES IDX 9 1 8 2 5 3 6 4 27 5 7 6 21 7 26 8 22 9 25 10 3 11 4 12 2 13
REMARK SMILES IDX 1 14 23 15 24 16 10 18 19 19 11 20 17 21 12 22 15 23 20 24
REMARK SMILES IDX 18 26 13 28 14 29 16 31
REMARK H PARENT 24 17 20 25 18 27 14 30 16 32
REMARK Flexibility Score: inf
ROOT
ATOM      1  O   UNL     1      26.190  25.907  50.525  1.00  0.00    -0.310 OA
ENDROOT
BRANCH   1   2
ATOM      2  C   UNL     1      26.884  27.057  50.980  1.00  0.00     0.316 C 
ATOM      3  C   UNL     1      28.580  28.523  52.770  1.00  0.00     0.076 C 
ATOM      4  C   UNL     1      29.076  27.551  51.991  1.00  0.00     0.202 C 
ATOM      5  C   UNL     1      27.077  28.668  52.955  1.00  0.00     0.047 C 
ATOM      6  O   UNL     1      28.233  26.706  51.269  1.00  0.00    -0.471 OA
ATOM      7  C   UNL     1      26.212  27.590  52.260  1.00  0.00     0.094 C 
ATOM      8  C   UNL     1      26.532  30.005  52.432  1.00  0.00     0.037 C 
ATOM      9  C   UNL     1      24.966  28.351  51.922  1.00  0.00    -0.039 C 
ATOM     10  C   UNL     1      25.151  29.665  51.994  1.00  0.00    -0.024 C 
BRANCH   3  11
ATOM     11  C   UNL     1      29.496  29.414  53.520  1.00  0.00     0.337 C 
ATOM     12  O   UNL     1      29.425  29.471  54.779  1.00  0.00    -0.246 OA
BRANCH  11  13
ATOM     13  O   UNL     1      30.439  30.191  52.838  1.00  0.00    -0.466 OA
ATOM     14  C   UNL     1      30.072  31.211  51.917  1.00  0.00     0.282 C 
ENDBRANCH  11  13
ENDBRANCH   3  11
BRANCH   9  15
ATOM     15  C   UNL     1      23.662  27.720  51.522  1.00  0.00     0.187 C 
BRANCH  15  16
ATOM     16  O   UNL     1      23.312  28.109  50.222  1.00  0.00    -0.392 OA
ATOM     17  H   UNL     1      24.101  28.579  49.845  1.00  0.00     0.211 HD
ENDBRANCH  15  16
ENDBRANCH   9  15
ENDBRANCH   1   2
BRANCH   1  18
ATOM     18  C   UNL     1      25.882  25.954  49.136  1.00  0.00     0.286 C 
ATOM     19  C   UNL     1      24.727  24.974  48.805  1.00  0.00     0.202 C 
ATOM     20  O   UNL     1      25.584  27.278  48.705  1.00  0.00    -0.341 OA
ATOM     21  C   UNL     1      24.375  25.046  47.304  1.00  0.00     0.179 C 
ATOM     22  C   UNL     1      25.420  27.330  47.299  1.00  0.00     0.178 C 
ATOM     23  C   UNL     1      24.179  26.511  46.875  1.00  0.00     0.177 C 
BRANCH  19  24
ATOM     24  O   UNL     1      25.068  23.660  49.171  1.00  0.00    -0.385 OA
ATOM     25  H   UNL     1      25.385  23.679  50.112  1.00  0.00     0.211 HD
ENDBRANCH  19  24
BRANCH  21  26
ATOM     26  O   UNL     1      23.204  24.316  47.042  1.00  0.00    -0.387 OA
ATOM     27  H   UNL     1      23.417  23.360  47.209  1.00  0.00     0.211 HD
ENDBRANCH  21  26
BRANCH  22  28
ATOM     28  C   UNL     1      25.297  28.801  46.875  1.00  0.00     0.191 C 
BRANCH  28  29
ATOM     29  O   UNL     1      24.592  29.545  47.833  1.00  0.00    -0.394 OA
ATOM     30  H   UNL     1      24.728  30.501  47.606  1.00  0.00     0.210 HD
ENDBRANCH  28  29
ENDBRANCH  22  28
BRANCH  23  31
ATOM     31  O   UNL     1      23.027  27.046  47.479  1.00  0.00    -0.387 OA
ATOM     32  H   UNL     1      23.285  27.332  48.394  1.00  0.00     0.211 HD
ENDBRANCH  23  31
ENDBRANCH   1  18
TORSDOF 11
ENDMDL
MODEL 2
REMARK VINA RESULT:    -0.105      3.255      4.846
REMARK INTER + INTRA:          -2.242
REMARK INTER:                  -0.156
REMARK INTRA:                  -2.087
REMARK UNBOUND:                -2.085
REMARK SMILES COC(=O)C1=CO[C@@H](O[C@@H]2O[C@H](CO)[C@H](O)[C@H](O)[C@H]2O)[C@@H]2C(CO)=CC[C@H]12
REMARK SMILES IDX 9 1 8 2 5 3 6 4 27 5 7 6 21 7 26 8 22 9 25 10 3 11 4 12 2 13
REMARK SMILES IDX 1 14 23 15 24 16 10 18 19 19 11 20 17 21 12 22 15 23 20 24
REMARK SMILES IDX 18 26 13 28 14 29 16 31
REMARK H PARENT 24 17 20 25 18 27 14 30 16 32
REMARK Flexibility Score: inf
ROOT
ATOM      1  O   UNL     1      24.135  25.402  51.106  1.00  0.00    -0.310 OA
ENDROOT
BRANCH   1   2
ATOM      2  C   UNL     1      25.182  24.605  51.634  1.00  0.00     0.316 C 
ATOM      3  C   UNL     1      26.652  23.312  53.732  1.00  0.00     0.076 C 
ATOM      4  C   UNL     1      25.426  22.891  53.388  1.00  0.00     0.202 C 
ATOM      5  C   UNL     1      27.167  24.658  53.243  1.00  0.00     0.047 C 
ATOM      6  O   UNL     1      24.629  23.629  52.512  1.00  0.00    -0.471 OA
ATOM      7  C   UNL     1      26.164  25.497  52.417  1.00  0.00     0.094 C 
ATOM      8  C   UNL     1      28.408  24.538  52.348  1.00  0.00     0.037 C 
ATOM      9  C   UNL     1      27.066  26.238  51.478  1.00  0.00    -0.039 C 
ATOM     10  C   UNL     1      28.279  25.698  51.425  1.00  0.00    -0.024 C 
BRANCH   3  11
ATOM     11  C   UNL     1      27.482  22.506  54.656  1.00  0.00     0.337 C 
ATOM     12  O   UNL     1      27.870  23.004  55.749  1.00  0.00    -0.246 OA
BRANCH  11  13
ATOM     13  O   UNL     1      27.837  21.194  54.322  1.00  0.00    -0.466 OA
ATOM     14  C   UNL     1      28.643  20.879  53.193  1.00  0.00     0.282 C 
ENDBRANCH  11  13
ENDBRANCH   3  11
BRANCH   9  15
ATOM     15  C   UNL     1      26.655  27.433  50.665  1.00  0.00     0.187 C 
BRANCH  15  16
ATOM     16  O   UNL     1      26.748  27.146  49.296  1.00  0.00    -0.392 OA
ATOM     17  H   UNL     1      27.356  26.366  49.211  1.00  0.00     0.211 HD
ENDBRANCH  15  16
ENDBRANCH   9  15
ENDBRANCH   1   2
BRANCH   1  18
ATOM     18  C   UNL     1      23.884  25.152  49.727  1.00  0.00     0.286 C 
ATOM     19  C   UNL     1      23.137  26.351  49.087  1.00  0.00     0.202 C 
ATOM     20  O   UNL     1      25.081  24.844  49.020  1.00  0.00    -0.341 OA
ATOM     21  C   UNL     1      22.891  26.092  47.586  1.00  0.00     0.179 C 
ATOM     22  C   UNL     1      24.798  24.461  47.685  1.00  0.00     0.178 C 
ATOM     23  C   UNL     1      24.196  25.651  46.903  1.00  0.00     0.177 C 
BRANCH  19  24
ATOM     24  O   UNL     1      21.923  26.595  49.754  1.00  0.00    -0.385 OA
ATOM     25  H   UNL     1      21.386  27.212  49.192  1.00  0.00     0.211 HD
ENDBRANCH  19  24
BRANCH  21  26
ATOM     26  O   UNL     1      22.400  27.252  46.965  1.00  0.00    -0.387 OA
ATOM     27  H   UNL     1      22.278  27.932  47.678  1.00  0.00     0.211 HD
ENDBRANCH  21  26
BRANCH  22  28
ATOM     28  C   UNL     1      26.095  23.956  47.036  1.00  0.00     0.191 C 
BRANCH  28  29
ATOM     29  O   UNL     1      27.200  24.702  47.470  1.00  0.00    -0.394 OA
ATOM     30  H   UNL     1      27.830  24.060  47.888  1.00  0.00     0.210 HD
ENDBRANCH  28  29
ENDBRANCH  22  28
BRANCH  23  31
ATOM     31  O   UNL     1      25.116  26.715  46.875  1.00  0.00    -0.387 OA
ATOM     32  H   UNL     1      25.142  27.051  45.941  1.00  0.00     0.211 HD
ENDBRANCH  23  31
ENDBRANCH   1  18
TORSDOF 11
ENDMDL
MODEL 3
REMARK VINA RESULT:    -0.099      4.259      6.132
REMARK INTER + INTRA:          -2.233
REMARK INTER:                  -0.148
REMARK INTRA:                  -2.085
REMARK UNBOUND:                -2.085
REMARK SMILES COC(=O)C1=CO[C@@H](O[C@@H]2O[C@H](CO)[C@H](O)[C@H](O)[C@H]2O)[C@@H]2C(CO)=CC[C@H]12
REMARK SMILES IDX 9 1 8 2 5 3 6 4 27 5 7 6 21 7 26 8 22 9 25 10 3 11 4 12 2 13
REMARK SMILES IDX 1 14 23 15 24 16 10 18 19 19 11 20 17 21 12 22 15 23 20 24
REMARK SMILES IDX 18 26 13 28 14 29 16 31
REMARK H PARENT 24 17 20 25 18 27 14 30 16 32
REMARK Flexibility Score: inf
ROOT
ATOM      1  O   UNL     1      22.028  26.316  50.555  1.00  0.00    -0.310 OA
ENDROOT
BRANCH   1   2
ATOM      2  C   UNL     1      21.958  27.641  50.053  1.00  0.00     0.316 C 
ATOM      3  C   UNL     1      20.850  30.278  49.840  1.00  0.00     0.076 C 
ATOM      4  C   UNL     1      21.479  29.882  50.956  1.00  0.00     0.202 C 
ATOM      5  C   UNL     1      20.438  29.260  48.788  1.00  0.00     0.047 C 
ATOM      6  O   UNL     1      21.845  28.549  51.144  1.00  0.00    -0.471 OA
ATOM      7  C   UNL     1      20.723  27.781  49.142  1.00  0.00     0.094 C 
ATOM      8  C   UNL     1      21.129  29.479  47.434  1.00  0.00     0.037 C 
ATOM      9  C   UNL     1      20.990  27.177  47.797  1.00  0.00    -0.039 C 
ATOM     10  C   UNL     1      21.233  28.103  46.876  1.00  0.00    -0.024 C 
BRANCH   3  11
ATOM     11  C   UNL     1      20.481  31.702  49.661  1.00  0.00     0.337 C 
ATOM     12  O   UNL     1      19.271  32.022  49.502  1.00  0.00    -0.246 OA
BRANCH  11  13
ATOM     13  O   UNL     1      21.470  32.692  49.667  1.00  0.00    -0.466 OA
ATOM     14  C   UNL     1      22.501  32.754  48.690  1.00  0.00     0.282 C 
ENDBRANCH  11  13
ENDBRANCH   3  11
BRANCH   9  15
ATOM     15  C   UNL     1      21.009  25.702  47.513  1.00  0.00     0.187 C 
BRANCH  15  16
ATOM     16  O   UNL     1      22.276  25.311  47.057  1.00  0.00    -0.392 OA
ATOM     17  H   UNL     1      22.174  25.089  46.095  1.00  0.00     0.211 HD
ENDBRANCH  15  16
ENDBRANCH   9  15
ENDBRANCH   1   2
BRANCH   1  18
ATOM     18  C   UNL     1      23.316  25.729  50.404  1.00  0.00     0.286 C 
ATOM     19  C   UNL     1      23.215  24.182  50.460  1.00  0.00     0.202 C 
ATOM     20  O   UNL     1      23.960  26.168  49.212  1.00  0.00    -0.341 OA
ATOM     21  C   UNL     1      24.607  23.546  50.268  1.00  0.00     0.179 C 
ATOM     22  C   UNL     1      25.291  25.687  49.148  1.00  0.00     0.178 C 
ATOM     23  C   UNL     1      25.299  24.146  49.032  1.00  0.00     0.177 C 
BRANCH  19  24
ATOM     24  O   UNL     1      22.643  23.765  51.675  1.00  0.00    -0.385 OA
ATOM     25  H   UNL     1      22.889  24.429  52.371  1.00  0.00     0.211 HD
ENDBRANCH  19  24
BRANCH  21  26
ATOM     26  O   UNL     1      24.491  22.155  50.117  1.00  0.00    -0.387 OA
ATOM     27  H   UNL     1      24.901  21.742  50.922  1.00  0.00     0.211 HD
ENDBRANCH  21  26
BRANCH  22  28
ATOM     28  C   UNL     1      25.992  26.347  47.951  1.00  0.00     0.191 C 
BRANCH  28  29
ATOM     29  O   UNL     1      25.101  26.531  46.883  1.00  0.00    -0.394 OA
ATOM     30  H   UNL     1      24.358  27.092  47.227  1.00  0.00     0.210 HD
ENDBRANCH  28  29
ENDBRANCH  22  28
BRANCH  23  31
ATOM     31  O   UNL     1      24.627  23.754  47.859  1.00  0.00    -0.387 OA
ATOM     32  H   UNL     1      24.842  22.797  47.708  1.00  0.00     0.211 HD
ENDBRANCH  23  31
ENDBRANCH   1  18
TORSDOF 11
ENDMDL
MODEL 4
REMARK VINA RESULT:    -0.097      3.070      4.397
REMARK INTER + INTRA:          -2.230
REMARK INTER:                  -0.145
REMARK INTRA:                  -2.085
REMARK UNBOUND:                -2.085
REMARK SMILES COC(=O)C1=CO[C@@H](O[C@@H]2O[C@H](CO)[C@H](O)[C@H](O)[C@H]2O)[C@@H]2C(CO)=CC[C@H]12
REMARK SMILES IDX 9 1 8 2 5 3 6 4 27 5 7 6 21 7 26 8 22 9 25 10 3 11 4 12 2 13
REMARK SMILES IDX 1 14 23 15 24 16 10 18 19 19 11 20 17 21 12 22 15 23 20 24
REMARK SMILES IDX 18 26 13 28 14 29 16 31
REMARK H PARENT 24 17 20 25 18 27 14 30 16 32
REMARK Flexibility Score: inf
ROOT
ATOM      1  O   UNL     1      25.018  26.643  50.717  1.00  0.00    -0.310 OA
ENDROOT
BRANCH   1   2
ATOM      2  C   UNL     1      24.127  27.645  51.182  1.00  0.00     0.316 C 
ATOM      3  C   UNL     1      23.177  29.605  53.049  1.00  0.00     0.076 C 
ATOM      4  C   UNL     1      24.307  29.804  52.356  1.00  0.00     0.202 C 
ATOM      5  C   UNL     1      22.539  28.225  53.098  1.00  0.00     0.047 C 
ATOM      6  O   UNL     1      24.879  28.781  51.599  1.00  0.00    -0.471 OA
ATOM      7  C   UNL     1      23.320  27.102  52.377  1.00  0.00     0.094 C 
ATOM      8  C   UNL     1      21.135  28.188  52.477  1.00  0.00     0.037 C 
ATOM      9  C   UNL     1      22.220  26.202  51.903  1.00  0.00    -0.039 C 
ATOM     10  C   UNL     1      21.037  26.804  51.937  1.00  0.00    -0.024 C 
BRANCH   3  11
ATOM     11  C   UNL     1      22.585  30.711  53.836  1.00  0.00     0.337 C 
ATOM     12  O   UNL     1      22.422  30.579  55.081  1.00  0.00    -0.246 OA
BRANCH  11  13
ATOM     13  O   UNL     1      22.204  31.901  53.206  1.00  0.00    -0.466 OA
ATOM     14  C   UNL     1      21.174  31.957  52.227  1.00  0.00     0.282 C 
ENDBRANCH  11  13
ENDBRANCH   3  11
BRANCH   9  15
ATOM     15  C   UNL     1      22.419  24.793  51.420  1.00  0.00     0.187 C 
BRANCH  15  16
ATOM     16  O   UNL     1      22.024  24.678  50.080  1.00  0.00    -0.392 OA
ATOM     17  H   UNL     1      21.861  23.713  49.914  1.00  0.00     0.211 HD
ENDBRANCH  15  16
ENDBRANCH   9  15
ENDBRANCH   1   2
BRANCH   1  18
ATOM     18  C   UNL     1      24.969  26.465  49.306  1.00  0.00     0.286 C 
ATOM     19  C   UNL     1      25.532  25.073  48.917  1.00  0.00     0.202 C 
ATOM     20  O   UNL     1      23.655  26.660  48.794  1.00  0.00    -0.341 OA
ATOM     21  C   UNL     1      25.453  24.869  47.390  1.00  0.00     0.179 C 
ATOM     22  C   UNL     1      23.651  26.619  47.377  1.00  0.00     0.178 C 
ATOM     23  C   UNL     1      24.041  25.207  46.882  1.00  0.00     0.177 C 
BRANCH  19  24
ATOM     24  O   UNL     1      26.855  24.927  49.369  1.00  0.00    -0.385 OA
ATOM     25  H   UNL     1      27.207  25.832  49.575  1.00  0.00     0.211 HD
ENDBRANCH  19  24
BRANCH  21  26
ATOM     26  O   UNL     1      25.771  23.542  47.057  1.00  0.00    -0.387 OA
ATOM     27  H   UNL     1      25.991  23.077  47.906  1.00  0.00     0.211 HD
ENDBRANCH  21  26
BRANCH  22  28
ATOM     28  C   UNL     1      22.256  27.026  46.881  1.00  0.00     0.191 C 
BRANCH  28  29
ATOM     29  O   UNL     1      21.255  26.548  47.739  1.00  0.00    -0.394 OA
ATOM     30  H   UNL     1      21.602  25.710  48.140  1.00  0.00     0.210 HD
ENDBRANCH  28  29
ENDBRANCH  22  28
BRANCH  23  31
ATOM     31  O   UNL     1      23.112  24.263  47.357  1.00  0.00    -0.387 OA
ATOM     32  H   UNL     1      22.985  23.593  46.636  1.00  0.00     0.211 HD
ENDBRANCH  23  31
ENDBRANCH   1  18
TORSDOF 11
ENDMDL
MODEL 5
REMARK VINA RESULT:    -0.092      2.754      3.929
REMARK INTER + INTRA:          -2.223
REMARK INTER:                  -0.139
REMARK INTRA:                  -2.084
REMARK UNBOUND:                -2.085
REMARK SMILES COC(=O)C1=CO[C@@H](O[C@@H]2O[C@H](CO)[C@H](O)[C@H](O)[C@H]2O)[C@@H]2C(CO)=CC[C@H]12
REMARK SMILES IDX 9 1 8 2 5 3 6 4 27 5 7 6 21 7 26 8 22 9 25 10 3 11 4 12 2 13
REMARK SMILES IDX 1 14 23 15 24 16 10 18 19 19 11 20 17 21 12 22 15 23 20 24
REMARK SMILES IDX 18 26 13 28 14 29 16 31
REMARK H PARENT 24 17 20 25 18 27 14 30 16 32
REMARK Flexibility Score: inf
ROOT
ATOM      1  O   UNL     1      22.474  26.029  51.316  1.00  0.00    -0.310 OA
ENDROOT
BRANCH   1   2
ATOM      2  C   UNL     1      23.762  25.815  51.869  1.00  0.00     0.316 C 
ATOM      3  C   UNL     1      25.661  25.584  54.007  1.00  0.00     0.076 C 
ATOM      4  C   UNL     1      24.707  24.660  53.830  1.00  0.00     0.202 C 
ATOM      5  C   UNL     1      25.579  26.921  53.286  1.00  0.00     0.047 C 
ATOM      6  O   UNL     1      23.666  24.862  52.923  1.00  0.00    -0.471 OA
ATOM      7  C   UNL     1      24.310  27.141  52.430  1.00  0.00     0.094 C 
ATOM      8  C   UNL     1      26.749  27.156  52.319  1.00  0.00     0.037 C 
ATOM      9  C   UNL     1      24.819  28.011  51.321  1.00  0.00    -0.039 C 
ATOM     10  C   UNL     1      26.146  27.997  51.250  1.00  0.00    -0.024 C 
BRANCH   3  11
ATOM     11  C   UNL     1      26.761  25.341  54.969  1.00  0.00     0.337 C 
ATOM     12  O   UNL     1      26.935  26.132  55.937  1.00  0.00    -0.246 OA
BRANCH  11  13
ATOM     13  O   UNL     1      27.608  24.239  54.808  1.00  0.00    -0.466 OA
ATOM     14  C   UNL     1      28.455  24.079  53.677  1.00  0.00     0.282 C 
ENDBRANCH  11  13
ENDBRANCH   3  11
BRANCH   9  15
ATOM     15  C   UNL     1      23.947  28.790  50.378  1.00  0.00     0.187 C 
BRANCH  15  16
ATOM     16  O   UNL     1      24.140  28.350  49.061  1.00  0.00    -0.392 OA
ATOM     17  H   UNL     1      23.241  28.125  48.703  1.00  0.00     0.211 HD
ENDBRANCH  15  16
ENDBRANCH   9  15
ENDBRANCH   1   2
BRANCH   1  18
ATOM     18  C   UNL     1      22.327  25.478  50.012  1.00  0.00     0.286 C 
ATOM     19  C   UNL     1      21.145  26.154  49.270  1.00  0.00     0.202 C 
ATOM     20  O   UNL     1      23.535  25.567  49.262  1.00  0.00    -0.341 OA
ATOM     21  C   UNL     1      21.004  25.577  47.846  1.00  0.00     0.179 C 
ATOM     22  C   UNL     1      23.413  24.889  48.024  1.00  0.00     0.178 C 
ATOM     23  C   UNL     1      22.366  25.592  47.130  1.00  0.00     0.177 C 
BRANCH  19  24
ATOM     24  O   UNL     1      19.948  25.994  49.990  1.00  0.00    -0.385 OA
ATOM     25  H   UNL     1      19.301  26.670  49.657  1.00  0.00     0.211 HD
ENDBRANCH  19  24
BRANCH  21  26
ATOM     26  O   UNL     1      20.072  26.322  47.106  1.00  0.00    -0.387 OA
ATOM     27  H   UNL     1      20.526  26.603  46.269  1.00  0.00     0.211 HD
ENDBRANCH  21  26
BRANCH  22  28
ATOM     28  C   UNL     1      24.794  24.850  47.351  1.00  0.00     0.191 C 
BRANCH  28  29
ATOM     29  O   UNL     1      25.512  26.028  47.604  1.00  0.00    -0.394 OA
ATOM     30  H   UNL     1      26.472  25.779  47.610  1.00  0.00     0.210 HD
ENDBRANCH  28  29
ENDBRANCH  22  28
BRANCH  23  31
ATOM     31  O   UNL     1      22.768  26.916  46.877  1.00  0.00    -0.387 OA
ATOM     32  H   UNL     1      22.400  27.476  47.609  1.00  0.00     0.211 HD
ENDBRANCH  23  31
ENDBRANCH   1  18
TORSDOF 11
ENDMDL
MODEL 6
REMARK VINA RESULT:    -0.088      2.496      3.272
REMARK INTER + INTRA:          -2.217
REMARK INTER:                  -0.136
REMARK INTRA:                  -2.082
REMARK UNBOUND:                -2.085
REMARK SMILES COC(=O)C1=CO[C@@H](O[C@@H]2O[C@H](CO)[C@H](O)[C@H](O)[C@H]2O)[C@@H]2C(CO)=CC[C@H]12
REMARK SMILES IDX 9 1 8 2 5 3 6 4 27 5 7 6 21 7 26 8 22 9 25 10 3 11 4 12 2 13
REMARK SMILES IDX 1 14 23 15 24 16 10 18 19 19 11 20 17 21 12 22 15 23 20 24
REMARK SMILES IDX 18 26 13 28 14 29 16 31
REMARK H PARENT 24 17 20 25 18 27 14 30 16 32
REMARK Flexibility Score: inf
ROOT
ATOM      1  O   UNL     1      23.728  25.747  50.147  1.00  0.00    -0.310 OA
ENDROOT
BRANCH   1   2
ATOM      2  C   UNL     1      24.052  26.985  50.757  1.00  0.00     0.316 C 
ATOM      3  C   UNL     1      25.485  28.686  52.569  1.00  0.00     0.076 C 
ATOM      4  C   UNL     1      26.097  28.136  51.511  1.00  0.00     0.202 C 
ATOM      5  C   UNL     1      24.118  28.188  53.012  1.00  0.00     0.047 C 
ATOM      6  O   UNL     1      25.466  27.158  50.741  1.00  0.00    -0.471 OA
ATOM      7  C   UNL     1      23.556  26.986  52.216  1.00  0.00     0.094 C 
ATOM      8  C   UNL     1      23.027  29.264  52.921  1.00  0.00     0.037 C 
ATOM      9  C   UNL     1      22.079  27.232  52.269  1.00  0.00    -0.039 C 
ATOM     10  C   UNL     1      21.796  28.479  52.630  1.00  0.00    -0.024 C 
BRANCH   3  11
ATOM     11  C   UNL     1      26.173  29.730  53.365  1.00  0.00     0.337 C 
ATOM     12  O   UNL     1      26.421  29.528  54.586  1.00  0.00    -0.246 OA
BRANCH  11  13
ATOM     13  O   UNL     1      26.550  30.938  52.767  1.00  0.00    -0.466 OA
ATOM     14  C   UNL     1      25.616  31.962  52.449  1.00  0.00     0.282 C 
ENDBRANCH  11  13
ENDBRANCH   3  11
BRANCH   9  15
ATOM     15  C   UNL     1      21.031  26.210  51.931  1.00  0.00     0.187 C 
BRANCH  15  16
ATOM     16  O   UNL     1      20.265  26.640  50.839  1.00  0.00    -0.392 OA
ATOM     17  H   UNL     1      19.347  26.798  51.181  1.00  0.00     0.211 HD
ENDBRANCH  15  16
ENDBRANCH   9  15
ENDBRANCH   1   2
BRANCH   1  18
ATOM     18  C   UNL     1      23.107  25.898  48.875  1.00  0.00     0.286 C 
ATOM     19  C   UNL     1      22.336  24.607  48.493  1.00  0.00     0.202 C 
ATOM     20  O   UNL     1      22.262  27.043  48.832  1.00  0.00    -0.341 OA
ATOM     21  C   UNL     1      21.640  24.781  47.127  1.00  0.00     0.179 C 
ATOM     22  C   UNL     1      21.765  27.258  47.523  1.00  0.00     0.178 C 
ATOM     23  C   UNL     1      20.838  26.093  47.104  1.00  0.00     0.177 C 
BRANCH  19  24
ATOM     24  O   UNL     1      23.202  23.499  48.471  1.00  0.00    -0.385 OA
ATOM     25  H   UNL     1      22.676  22.698  48.731  1.00  0.00     0.211 HD
ENDBRANCH  19  24
BRANCH  21  26
ATOM     26  O   UNL     1      20.783  23.698  46.875  1.00  0.00    -0.387 OA
ATOM     27  H   UNL     1      20.059  23.738  47.553  1.00  0.00     0.211 HD
ENDBRANCH  21  26
BRANCH  22  28
ATOM     28  C   UNL     1      21.027  28.604  47.495  1.00  0.00     0.191 C 
BRANCH  28  29
ATOM     29  O   UNL     1      20.345  28.831  48.700  1.00  0.00    -0.394 OA
ATOM     30  H   UNL     1      20.562  29.759  48.978  1.00  0.00     0.210 HD
ENDBRANCH  28  29
ENDBRANCH  22  28
BRANCH  23  31
ATOM     31  O   UNL     1      19.746  26.013  47.988  1.00  0.00    -0.387 OA
ATOM     32  H   UNL     1      19.580  26.932  48.327  1.00  0.00     0.211 HD
ENDBRANCH  23  31
ENDBRANCH   1  18
TORSDOF 11
ENDMDL
MODEL 7
REMARK VINA RESULT:    -0.080      3.461      6.025
REMARK INTER + INTRA:          -2.206
REMARK INTER:                  -0.165
REMARK INTRA:                  -2.040
REMARK UNBOUND:                -2.085
REMARK SMILES COC(=O)C1=CO[C@@H](O[C@@H]2O[C@H](CO)[C@H](O)[C@H](O)[C@H]2O)[C@@H]2C(CO)=CC[C@H]12
REMARK SMILES IDX 9 1 8 2 5 3 6 4 27 5 7 6 21 7 26 8 22 9 25 10 3 11 4 12 2 13
REMARK SMILES IDX 1 14 23 15 24 16 10 18 19 19 11 20 17 21 12 22 15 23 20 24
REMARK SMILES IDX 18 26 13 28 14 29 16 31
REMARK H PARENT 24 17 20 25 18 27 14 30 16 32
REMARK Flexibility Score: inf
ROOT
ATOM      1  O   UNL     1      22.885  26.005  51.303  1.00  0.00    -0.310 OA
ENDROOT
BRANCH   1   2
ATOM      2  C   UNL     1      23.699  26.264  50.171  1.00  0.00     0.316 C 
ATOM      3  C   UNL     1      25.202  27.932  48.385  1.00  0.00     0.076 C 
ATOM      4  C   UNL     1      25.627  27.702  49.636  1.00  0.00     0.202 C 
ATOM      5  C   UNL     1      23.779  27.578  47.980  1.00  0.00     0.047 C 
ATOM      6  O   UNL     1      24.812  27.059  50.567  1.00  0.00    -0.471 OA
ATOM      7  C   UNL     1      22.880  27.028  49.112  1.00  0.00     0.094 C 
ATOM      8  C   UNL     1      23.715  26.514  46.875  1.00  0.00     0.037 C 
ATOM      9  C   UNL     1      21.974  26.091  48.372  1.00  0.00    -0.039 C 
ATOM     10  C   UNL     1      22.444  25.796  47.165  1.00  0.00    -0.024 C 
BRANCH   3  11
ATOM     11  C   UNL     1      26.091  28.608  47.411  1.00  0.00     0.337 C 
ATOM     12  O   UNL     1      27.154  28.043  47.034  1.00  0.00    -0.246 OA
BRANCH  11  13
ATOM     13  O   UNL     1      25.755  29.871  46.909  1.00  0.00    -0.466 OA
ATOM     14  C   UNL     1      25.518  30.994  47.748  1.00  0.00     0.282 C 
ENDBRANCH  11  13
ENDBRANCH   3  11
BRANCH   9  15
ATOM     15  C   UNL     1      20.697  25.523  48.925  1.00  0.00     0.187 C 
BRANCH  15  16
ATOM     16  O   UNL     1      20.785  24.128  49.016  1.00  0.00    -0.392 OA
ATOM     17  H   UNL     1      20.143  23.849  49.721  1.00  0.00     0.211 HD
ENDBRANCH  15  16
ENDBRANCH   9  15
ENDBRANCH   1   2
BRANCH   1  18
ATOM     18  C   UNL     1      22.945  24.650  51.735  1.00  0.00     0.286 C 
ATOM     19  C   UNL     1      21.702  24.300  52.594  1.00  0.00     0.202 C 
ATOM     20  O   UNL     1      23.093  23.752  50.639  1.00  0.00    -0.341 OA
ATOM     21  C   UNL     1      21.754  22.824  53.038  1.00  0.00     0.179 C 
ATOM     22  C   UNL     1      23.293  22.425  51.094  1.00  0.00     0.178 C 
ATOM     23  C   UNL     1      22.032  21.915  51.829  1.00  0.00     0.177 C 
BRANCH  19  24
ATOM     24  O   UNL     1      21.614  25.151  53.710  1.00  0.00    -0.385 OA
ATOM     25  H   UNL     1      21.707  26.086  53.388  1.00  0.00     0.211 HD
ENDBRANCH  19  24
BRANCH  21  26
ATOM     26  O   UNL     1      20.541  22.452  53.641  1.00  0.00    -0.387 OA
ATOM     27  H   UNL     1      20.042  23.291  53.824  1.00  0.00     0.211 HD
ENDBRANCH  21  26
BRANCH  22  28
ATOM     28  C   UNL     1      23.638  21.542  49.886  1.00  0.00     0.191 C 
BRANCH  28  29
ATOM     29  O   UNL     1      22.927  21.945  48.746  1.00  0.00    -0.394 OA
ATOM     30  H   UNL     1      22.016  22.190  49.052  1.00  0.00     0.210 HD
ENDBRANCH  28  29
ENDBRANCH  22  28
BRANCH  23  31
ATOM     31  O   UNL     1      20.933  21.924  50.950  1.00  0.00    -0.387 OA
ATOM     32  H   UNL     1      20.410  22.744  51.149  1.00  0.00     0.211 HD
ENDBRANCH  23  31
ENDBRANCH   1  18
TORSDOF 11
ENDMDL
MODEL 8
REMARK VINA RESULT:    -0.077      2.426      3.120
REMARK INTER + INTRA:          -2.200
REMARK INTER:                  -0.186
REMARK INTRA:                  -2.014
REMARK UNBOUND:                -2.085
REMARK SMILES COC(=O)C1=CO[C@@H](O[C@@H]2O[C@H](CO)[C@H](O)[C@H](O)[C@H]2O)[C@@H]2C(CO)=CC[C@H]12
REMARK SMILES IDX 9 1 8 2 5 3 6 4 27 5 7 6 21 7 26 8 22 9 25 10 3 11 4 12 2 13
REMARK SMILES IDX 1 14 23 15 24 16 10 18 19 19 11 20 17 21 12 22 15 23 20 24
REMARK SMILES IDX 18 26 13 28 14 29 16 31
REMARK H PARENT 24 17 20 25 18 27 14 30 16 32
REMARK Flexibility Score: inf
ROOT
ATOM      1  O   UNL     1      27.381  27.461  48.554  1.00  0.00    -0.310 OA
ENDROOT
BRANCH   1   2
ATOM      2  C   UNL     1      27.108  28.829  48.809  1.00  0.00     0.316 C 
ATOM      3  C   UNL     1      27.781  31.505  49.596  1.00  0.00     0.076 C 
ATOM      4  C   UNL     1      28.245  30.986  48.450  1.00  0.00     0.202 C 
ATOM      5  C   UNL     1      27.151  30.605  50.647  1.00  0.00     0.047 C 
ATOM      6  O   UNL     1      28.088  29.631  48.156  1.00  0.00    -0.471 OA
ATOM      7  C   UNL     1      27.165  29.091  50.327  1.00  0.00     0.094 C 
ATOM      8  C   UNL     1      25.675  30.935  50.916  1.00  0.00     0.037 C 
ATOM      9  C   UNL     1      25.910  28.613  50.990  1.00  0.00    -0.039 C 
ATOM     10  C   UNL     1      25.092  29.617  51.288  1.00  0.00    -0.024 C 
BRANCH   3  11
ATOM     11  C   UNL     1      27.953  32.949  49.880  1.00  0.00     0.337 C 
ATOM     12  O   UNL     1      27.370  33.804  49.158  1.00  0.00    -0.246 OA
BRANCH  11  13
ATOM     13  O   UNL     1      28.758  33.367  50.945  1.00  0.00    -0.466 OA
ATOM     14  C   UNL     1      30.153  33.606  50.805  1.00  0.00     0.282 C 
ENDBRANCH  11  13
ENDBRANCH   3  11
BRANCH   9  15
ATOM     15  C   UNL     1      25.587  27.172  51.269  1.00  0.00     0.187 C 
BRANCH  15  16
ATOM     16  O   UNL     1      24.450  26.780  50.551  1.00  0.00    -0.392 OA
ATOM     17  H   UNL     1      24.557  27.140  49.632  1.00  0.00     0.211 HD
ENDBRANCH  15  16
ENDBRANCH   9  15
ENDBRANCH   1   2
BRANCH   1  18
ATOM     18  C   UNL     1      26.443  26.861  47.668  1.00  0.00     0.286 C 
ATOM     19  C   UNL     1      26.472  25.317  47.816  1.00  0.00     0.202 C 
ATOM     20  O   UNL     1      25.131  27.380  47.856  1.00  0.00    -0.341 OA
ATOM     21  C   UNL     1      25.435  24.668  46.875  1.00  0.00     0.179 C 
ATOM     22  C   UNL     1      24.241  26.878  46.875  1.00  0.00     0.178 C 
ATOM     23  C   UNL     1      24.066  25.351  47.042  1.00  0.00     0.177 C 
BRANCH  19  24
ATOM     24  O   UNL     1      27.759  24.815  47.555  1.00  0.00    -0.385 OA
ATOM     25  H   UNL     1      27.659  23.900  47.184  1.00  0.00     0.211 HD
ENDBRANCH  19  24
BRANCH  21  26
ATOM     26  O   UNL     1      25.316  23.296  47.151  1.00  0.00    -0.387 OA
ATOM     27  H   UNL     1      24.378  23.041  46.948  1.00  0.00     0.211 HD
ENDBRANCH  21  26
BRANCH  22  28
ATOM     28  C   UNL     1      22.901  27.617  47.007  1.00  0.00     0.191 C 
BRANCH  28  29
ATOM     29  O   UNL     1      22.607  27.894  48.351  1.00  0.00    -0.394 OA
ATOM     30  H   UNL     1      22.379  28.858  48.398  1.00  0.00     0.210 HD
ENDBRANCH  28  29
ENDBRANCH  22  28
BRANCH  23  31
ATOM     31  O   UNL     1      23.533  25.070  48.314  1.00  0.00    -0.387 OA
ATOM     32  H   UNL     1      23.514  25.926  48.816  1.00  0.00     0.211 HD
ENDBRANCH  23  31
ENDBRANCH   1  18
TORSDOF 11
ENDMDL
MODEL 9
REMARK VINA RESULT:    -0.072      4.599      6.626
REMARK INTER + INTRA:          -2.194
REMARK INTER:                  -0.155
REMARK INTRA:                  -2.038
REMARK UNBOUND:                -2.085
REMARK SMILES COC(=O)C1=CO[C@@H](O[C@@H]2O[C@H](CO)[C@H](O)[C@H](O)[C@H]2O)[C@@H]2C(CO)=CC[C@H]12
REMARK SMILES IDX 9 1 8 2 5 3 6 4 27 5 7 6 21 7 26 8 22 9 25 10 3 11 4 12 2 13
REMARK SMILES IDX 1 14 23 15 24 16 10 18 19 19 11 20 17 21 12 22 15 23 20 24
REMARK SMILES IDX 18 26 13 28 14 29 16 31
REMARK H PARENT 24 17 20 25 18 27 14 30 16 32
REMARK Flexibility Score: inf
ROOT
ATOM      1  O   UNL     1      23.117  25.290  51.321  1.00  0.00    -0.310 OA
ENDROOT
BRANCH   1   2
ATOM      2  C   UNL     1      23.739  24.724  50.179  1.00  0.00     0.316 C 
ATOM      3  C   UNL     1      25.924  24.261  48.378  1.00  0.00     0.076 C 
ATOM      4  C   UNL     1      25.938  23.762  49.623  1.00  0.00     0.202 C 
ATOM      5  C   UNL     1      24.913  25.330  47.991  1.00  0.00     0.047 C 
ATOM      6  O   UNL     1      24.981  24.142  50.564  1.00  0.00    -0.471 OA
ATOM      7  C   UNL     1      23.996  25.826  49.133  1.00  0.00     0.094 C 
ATOM      8  C   UNL     1      23.951  24.875  46.884  1.00  0.00     0.037 C 
ATOM      9  C   UNL     1      22.731  26.162  48.403  1.00  0.00    -0.039 C 
ATOM     10  C   UNL     1      22.701  25.623  47.189  1.00  0.00    -0.024 C 
BRANCH   3  11
ATOM     11  C   UNL     1      26.946  23.833  47.395  1.00  0.00     0.337 C 
ATOM     12  O   UNL     1      26.996  22.627  47.025  1.00  0.00    -0.246 OA
BRANCH  11  13
ATOM     13  O   UNL     1      27.856  24.761  46.875  1.00  0.00    -0.466 OA
ATOM     14  C   UNL     1      28.756  25.497  47.694  1.00  0.00     0.282 C 
ENDBRANCH  11  13
ENDBRANCH   3  11
BRANCH   9  15
ATOM     15  C   UNL     1      21.610  26.986  48.971  1.00  0.00     0.187 C 
BRANCH  15  16
ATOM     16  O   UNL     1      20.436  26.225  49.046  1.00  0.00    -0.392 OA
ATOM     17  H   UNL     1      20.118  26.103  48.113  1.00  0.00     0.211 HD
ENDBRANCH  15  16
ENDBRANCH   9  15
ENDBRANCH   1   2
BRANCH   1  18
ATOM     18  C   UNL     1      21.975  24.559  51.754  1.00  0.00     0.286 C 
ATOM     19  C   UNL     1      21.078  25.445  52.658  1.00  0.00     0.202 C 
ATOM     20  O   UNL     1      21.244  24.022  50.657  1.00  0.00    -0.341 OA
ATOM     21  C   UNL     1      19.826  24.661  53.104  1.00  0.00     0.179 C 
ATOM     22  C   UNL     1      20.196  23.182  51.108  1.00  0.00     0.178 C 
ATOM     23  C   UNL     1      19.147  24.008  51.888  1.00  0.00     0.177 C 
BRANCH  19  24
ATOM     24  O   UNL     1      21.797  25.907  53.774  1.00  0.00    -0.385 OA
ATOM     25  H   UNL     1      22.428  25.190  54.047  1.00  0.00     0.211 HD
ENDBRANCH  19  24
BRANCH  21  26
ATOM     26  O   UNL     1      18.919  25.517  53.750  1.00  0.00    -0.387 OA
ATOM     27  H   UNL     1      19.085  26.431  53.399  1.00  0.00     0.211 HD
ENDBRANCH  21  26
BRANCH  22  28
ATOM     28  C   UNL     1      19.572  22.483  49.891  1.00  0.00     0.191 C 
BRANCH  28  29
ATOM     29  O   UNL     1      19.536  23.339  48.780  1.00  0.00    -0.394 OA
ATOM     30  H   UNL     1      18.800  23.018  48.198  1.00  0.00     0.210 HD
ENDBRANCH  28  29
ENDBRANCH  22  28
BRANCH  23  31
ATOM     31  O   UNL     1      18.598  24.994  51.048  1.00  0.00    -0.387 OA
ATOM     32  H   UNL     1      18.733  25.868  51.500  1.00  0.00     0.211 HD
ENDBRANCH  23  31
ENDBRANCH   1  18
TORSDOF 11
ENDMDL
