MODEL 1
REMARK VINA RESULT:    -2.714      0.000      0.000
REMARK INTER + INTRA:          -2.599
REMARK INTER:                  -3.349
REMARK INTRA:                   0.750
REMARK UNBOUND:                 0.750
REMARK SMILES CC1=CC=CC(C)(C)CC1=O
REMARK SMILES IDX 1 1 2 2 3 3 10 4 11 5 9 6 4 8 5 9 6 10 7 11 8 12
REMARK H PARENT
REMARK Flexibility Score: 80.00
ROOT
ATOM      1  C   UNL     1     186.759 180.791 223.279  1.00  0.00     0.048 C 
ATOM      2  C   UNL     1     187.864 181.822 223.272  1.00  0.00    -0.008 C 
ATOM      3  C   UNL     1     189.133 181.379 223.404  1.00  0.00     0.007 C 
ENDROOT
BRANCH   2   4
ATOM      4  C   UNL     1     187.457 183.247 223.195  1.00  0.00     0.159 C 
ATOM      5  O   UNL     1     186.242 183.542 223.359  1.00  0.00    -0.295 OA
BRANCH   4   6
ATOM      6  C   UNL     1     188.414 184.365 222.916  1.00  0.00     0.091 CG0
ATOM      7  G   UNL     1     189.537 184.481 223.971  1.00  0.00     0.000 G0
ENDBRANCH   4   6
ENDBRANCH   2   4
BRANCH   3   8
ATOM      8  C   UNL     1     190.404 182.139 223.457  1.00  0.00    -0.003 C 
ATOM      9  C   UNL     1     190.600 183.440 223.708  1.00  0.00    -0.020 C 
BRANCH   9  10
ATOM     10  C   UNL     1     189.531 184.473 223.973  1.00  0.00    -0.010 CG0
ATOM     11  C   UNL     1     189.010 184.334 225.421  1.00  0.00     0.016 C 
ATOM     12  C   UNL     1     190.166 185.876 223.828  1.00  0.00     0.016 C 
ATOM     13  G   UNL     1     188.408 184.344 222.920  1.00  0.00     0.000 G0
ENDBRANCH   9  10
ENDBRANCH   3   8
TORSDOF 0
ENDMDL
MODEL 2
REMARK VINA RESULT:    -2.619     15.393     17.184
REMARK INTER + INTRA:          -2.482
REMARK INTER:                  -3.224
REMARK INTRA:                   0.742
REMARK UNBOUND:                 0.750
REMARK SMILES CC1=CC=CC(C)(C)CC1=O
REMARK SMILES IDX 1 1 2 2 3 3 10 4 11 5 9 6 4 8 5 9 6 10 7 11 8 12
REMARK H PARENT
REMARK Flexibility Score: 80.00
ROOT
ATOM      1  C   UNL     1     195.120 195.137 236.406  1.00  0.00     0.048 C 
ATOM      2  C   UNL     1     194.681 193.760 236.843  1.00  0.00    -0.008 C 
ATOM      3  C   UNL     1     195.601 192.771 236.813  1.00  0.00     0.007 C 
ENDROOT
BRANCH   2   4
ATOM      4  C   UNL     1     193.250 193.589 237.200  1.00  0.00     0.159 C 
ATOM      5  O   UNL     1     192.442 194.520 236.937  1.00  0.00    -0.295 OA
BRANCH   4   6
ATOM      6  C   UNL     1     192.708 192.366 237.875  1.00  0.00     0.091 CG0
ATOM      7  G   UNL     1     192.917 191.074 237.054  1.00  0.00     0.000 G0
ENDBRANCH   4   6
ENDBRANCH   2   4
BRANCH   3   8
ATOM      8  C   UNL     1     195.464 191.335 237.152  1.00  0.00    -0.003 C 
ATOM      9  C   UNL     1     194.354 190.593 237.253  1.00  0.00    -0.020 C 
BRANCH   9  10
ATOM     10  C   UNL     1     192.934 191.073 237.066  1.00  0.00    -0.010 CG0
ATOM     11  C   UNL     1     192.622 191.228 235.560  1.00  0.00     0.016 C 
ATOM     12  C   UNL     1     191.980 190.001 237.643  1.00  0.00     0.016 C 
ATOM     13  G   UNL     1     192.718 192.382 237.857  1.00  0.00     0.000 G0
ENDBRANCH   9  10
ENDBRANCH   3   8
TORSDOF 0
ENDMDL
MODEL 3
REMARK VINA RESULT:    -2.591      1.818      2.605
REMARK INTER + INTRA:          -2.447
REMARK INTER:                  -3.188
REMARK INTRA:                   0.740
REMARK UNBOUND:                 0.750
REMARK SMILES CC1=CC=CC(C)(C)CC1=O
REMARK SMILES IDX 1 1 2 2 3 3 10 4 11 5 9 6 4 8 5 9 6 10 7 11 8 12
REMARK H PARENT
REMARK Flexibility Score: 80.00
ROOT
ATOM      1  C   UNL     1     184.506 183.715 224.466  1.00  0.00     0.048 C 
ATOM      2  C   UNL     1     185.906 183.250 224.138  1.00  0.00    -0.008 C 
ATOM      3  C   UNL     1     186.040 182.051 223.530  1.00  0.00     0.007 C 
ENDROOT
BRANCH   2   4
ATOM      4  C   UNL     1     187.026 184.118 224.578  1.00  0.00     0.159 C 
ATOM      5  O   UNL     1     186.782 185.079 225.358  1.00  0.00    -0.295 OA
BRANCH   4   6
ATOM      6  C   UNL     1     188.444 183.925 224.135  1.00  0.00     0.091 CG0
ATOM      7  G   UNL     1     189.016 182.540 224.511  1.00  0.00     0.000 G0
ENDBRANCH   4   6
ENDBRANCH   2   4
BRANCH   3   8
ATOM      8  C   UNL     1     187.265 181.329 223.115  1.00  0.00    -0.003 C 
ATOM      9  C   UNL     1     188.529 181.506 223.519  1.00  0.00    -0.020 C 
BRANCH   9  10
ATOM     10  C   UNL     1     189.018 182.540 224.505  1.00  0.00    -0.010 CG0
ATOM     11  C   UNL     1     188.681 182.097 225.947  1.00  0.00     0.016 C 
ATOM     12  C   UNL     1     190.557 182.637 224.384  1.00  0.00     0.016 C 
ATOM     13  G   UNL     1     188.422 183.921 224.152  1.00  0.00     0.000 G0
ENDBRANCH   9  10
ENDBRANCH   3   8
TORSDOF 0
ENDMDL
MODEL 4
REMARK VINA RESULT:    -2.573      6.868      8.453
REMARK INTER + INTRA:          -2.426
REMARK INTER:                  -3.175
REMARK INTRA:                   0.749
REMARK UNBOUND:                 0.750
REMARK SMILES CC1=CC=CC(C)(C)CC1=O
REMARK SMILES IDX 1 1 2 2 3 3 10 4 11 5 9 6 4 8 5 9 6 10 7 11 8 12
REMARK H PARENT
REMARK Flexibility Score: 80.00
ROOT
ATOM      1  C   UNL     1     186.000 191.962 223.443  1.00  0.00     0.048 C 
ATOM      2  C   UNL     1     184.937 190.889 223.426  1.00  0.00    -0.008 C 
ATOM      3  C   UNL     1     183.647 191.287 223.387  1.00  0.00     0.007 C 
ENDROOT
BRANCH   2   4
ATOM      4  C   UNL     1     185.397 189.481 223.528  1.00  0.00     0.159 C 
ATOM      5  O   UNL     1     186.599 189.255 223.833  1.00  0.00    -0.295 OA
BRANCH   4   6
ATOM      6  C   UNL     1     184.509 188.301 223.274  1.00  0.00     0.091 CG0
ATOM      7  G   UNL     1     183.287 188.245 224.218  1.00  0.00     0.000 G0
ENDBRANCH   4   6
ENDBRANCH   2   4
BRANCH   3   8
ATOM      8  C   UNL     1     182.403 190.481 223.387  1.00  0.00    -0.003 C 
ATOM      9  C   UNL     1     182.226 189.202 223.743  1.00  0.00    -0.020 C 
BRANCH   9  10
ATOM     10  C   UNL     1     183.295 188.245 224.213  1.00  0.00    -0.010 CG0
ATOM     11  C   UNL     1     183.659 188.542 225.686  1.00  0.00     0.016 C 
ATOM     12  C   UNL     1     182.725 186.809 224.143  1.00  0.00     0.016 C 
ATOM     13  G   UNL     1     184.516 188.323 223.270  1.00  0.00     0.000 G0
ENDBRANCH   9  10
ENDBRANCH   3   8
TORSDOF 0
ENDMDL
MODEL 5
REMARK VINA RESULT:    -2.557      2.781      4.066
REMARK INTER + INTRA:          -2.406
REMARK INTER:                  -3.156
REMARK INTRA:                   0.750
REMARK UNBOUND:                 0.750
REMARK SMILES CC1=CC=CC(C)(C)CC1=O
REMARK SMILES IDX 1 1 2 2 3 3 10 4 11 5 9 6 4 8 5 9 6 10 7 11 8 12
REMARK H PARENT
REMARK Flexibility Score: 80.00
ROOT
ATOM      1  C   UNL     1     184.481 182.599 227.208  1.00  0.00     0.048 C 
ATOM      2  C   UNL     1     185.429 182.737 226.040  1.00  0.00    -0.008 C 
ATOM      3  C   UNL     1     184.984 183.395 224.948  1.00  0.00     0.007 C 
ENDROOT
BRANCH   2   4
ATOM      4  C   UNL     1     186.750 182.071 226.160  1.00  0.00     0.159 C 
ATOM      5  O   UNL     1     186.946 181.278 227.120  1.00  0.00    -0.295 OA
BRANCH   4   6
ATOM      6  C   UNL     1     187.881 182.300 225.203  1.00  0.00     0.091 CG0
ATOM      7  G   UNL     1     187.532 181.918 223.747  1.00  0.00     0.000 G0
ENDBRANCH   4   6
ENDBRANCH   2   4
BRANCH   3   8
ATOM      8  C   UNL     1     185.663 183.665 223.658  1.00  0.00    -0.003 C 
ATOM      9  C   UNL     1     186.727 183.055 223.120  1.00  0.00    -0.020 C 
BRANCH   9  10
ATOM     10  C   UNL     1     187.525 181.932 223.739  1.00  0.00    -0.010 CG0
ATOM     11  C   UNL     1     186.754 180.600 223.607  1.00  0.00     0.016 C 
ATOM     12  C   UNL     1     188.853 181.794 222.958  1.00  0.00     0.016 C 
ATOM     13  G   UNL     1     187.865 182.282 225.205  1.00  0.00     0.000 G0
ENDBRANCH   9  10
ENDBRANCH   3   8
TORSDOF 0
ENDMDL
MODEL 6
REMARK VINA RESULT:    -2.439     15.953     17.208
REMARK INTER + INTRA:          -2.260
REMARK INTER:                  -3.011
REMARK INTRA:                   0.751
REMARK UNBOUND:                 0.750
REMARK SMILES CC1=CC=CC(C)(C)CC1=O
REMARK SMILES IDX 1 1 2 2 3 3 10 4 11 5 9 6 4 8 5 9 6 10 7 11 8 12
REMARK H PARENT
REMARK Flexibility Score: 80.00
ROOT
ATOM      1  C   UNL     1     180.464 181.281 238.464  1.00  0.00     0.048 C 
ATOM      2  C   UNL     1     179.414 180.914 237.441  1.00  0.00    -0.008 C 
ATOM      3  C   UNL     1     178.244 181.588 237.478  1.00  0.00     0.007 C 
ENDROOT
BRANCH   2   4
ATOM      4  C   UNL     1     179.727 179.789 236.525  1.00  0.00     0.159 C 
ATOM      5  O   UNL     1     180.730 179.066 236.770  1.00  0.00    -0.295 OA
BRANCH   4   6
ATOM      6  C   UNL     1     178.918 179.469 235.305  1.00  0.00     0.091 CG0
ATOM      7  G   UNL     1     177.444 179.134 235.623  1.00  0.00     0.000 G0
ENDBRANCH   4   6
ENDBRANCH   2   4
BRANCH   3   8
ATOM      8  C   UNL     1     177.034 181.438 236.636  1.00  0.00    -0.003 C 
ATOM      9  C   UNL     1     176.668 180.412 235.858  1.00  0.00    -0.020 C 
BRANCH   9  10
ATOM     10  C   UNL     1     177.447 179.138 235.629  1.00  0.00    -0.010 CG0
ATOM     11  C   UNL     1     177.292 178.198 236.845  1.00  0.00     0.016 C 
ATOM     12  C   UNL     1     176.853 178.422 234.394  1.00  0.00     0.016 C 
ATOM     13  G   UNL     1     178.923 179.478 235.322  1.00  0.00     0.000 G0
ENDBRANCH   9  10
ENDBRANCH   3   8
TORSDOF 0
ENDMDL
MODEL 7
REMARK VINA RESULT:    -2.433     16.968     17.582
REMARK INTER + INTRA:          -2.252
REMARK INTER:                  -3.006
REMARK INTRA:                   0.754
REMARK UNBOUND:                 0.750
REMARK SMILES CC1=CC=CC(C)(C)CC1=O
REMARK SMILES IDX 1 1 2 2 3 3 10 4 11 5 9 6 4 8 5 9 6 10 7 11 8 12
REMARK H PARENT
REMARK Flexibility Score: 80.00
ROOT
ATOM      1  C   UNL     1     178.650 182.280 237.574  1.00  0.00     0.048 C 
ATOM      2  C   UNL     1     179.865 182.796 238.310  1.00  0.00    -0.008 C 
ATOM      3  C   UNL     1     180.586 181.907 239.026  1.00  0.00     0.007 C 
ENDROOT
BRANCH   2   4
ATOM      4  C   UNL     1     180.124 184.256 238.245  1.00  0.00     0.159 C 
ATOM      5  O   UNL     1     179.239 185.010 237.757  1.00  0.00    -0.295 OA
BRANCH   4   6
ATOM      6  C   UNL     1     181.395 184.891 238.720  1.00  0.00     0.091 CG0
ATOM      7  G   UNL     1     181.688 184.623 240.213  1.00  0.00     0.000 G0
ENDBRANCH   4   6
ENDBRANCH   2   4
BRANCH   3   8
ATOM      8  C   UNL     1     181.793 182.115 239.861  1.00  0.00    -0.003 C 
ATOM      9  C   UNL     1     182.273 183.250 240.383  1.00  0.00    -0.020 C 
BRANCH   9  10
ATOM     10  C   UNL     1     181.692 184.634 240.210  1.00  0.00    -0.010 CG0
ATOM     11  C   UNL     1     180.447 184.799 241.111  1.00  0.00     0.016 C 
ATOM     12  C   UNL     1     182.750 185.665 240.665  1.00  0.00     0.016 C 
ATOM     13  G   UNL     1     181.385 184.888 238.717  1.00  0.00     0.000 G0
ENDBRANCH   9  10
ENDBRANCH   3   8
TORSDOF 0
ENDMDL
MODEL 8
REMARK VINA RESULT:    -2.420      6.530      7.966
REMARK INTER + INTRA:          -2.236
REMARK INTER:                  -2.985
REMARK INTRA:                   0.749
REMARK UNBOUND:                 0.750
REMARK SMILES CC1=CC=CC(C)(C)CC1=O
REMARK SMILES IDX 1 1 2 2 3 3 10 4 11 5 9 6 4 8 5 9 6 10 7 11 8 12
REMARK H PARENT
REMARK Flexibility Score: 80.00
ROOT
ATOM      1  C   UNL     1     185.666 192.109 223.265  1.00  0.00     0.048 C 
ATOM      2  C   UNL     1     185.395 190.696 223.728  1.00  0.00    -0.008 C 
ATOM      3  C   UNL     1     186.289 189.744 223.386  1.00  0.00     0.007 C 
ENDROOT
BRANCH   2   4
ATOM      4  C   UNL     1     184.126 190.458 224.460  1.00  0.00     0.159 C 
ATOM      5  O   UNL     1     183.265 191.378 224.500  1.00  0.00    -0.295 OA
BRANCH   4   6
ATOM      6  C   UNL     1     183.811 189.177 225.172  1.00  0.00     0.091 CG0
ATOM      7  G   UNL     1     183.827 187.944 224.241  1.00  0.00     0.000 G0
ENDBRANCH   4   6
ENDBRANCH   2   4
BRANCH   3   8
ATOM      8  C   UNL     1     186.282 188.289 223.667  1.00  0.00    -0.003 C 
ATOM      9  C   UNL     1     185.257 187.502 224.020  1.00  0.00    -0.020 C 
BRANCH   9  10
ATOM     10  C   UNL     1     183.830 187.937 224.251  1.00  0.00    -0.010 CG0
ATOM     11  C   UNL     1     183.123 188.168 222.897  1.00  0.00     0.016 C 
ATOM     12  C   UNL     1     183.088 186.798 224.988  1.00  0.00     0.016 C 
ATOM     13  G   UNL     1     183.807 189.189 225.157  1.00  0.00     0.000 G0
ENDBRANCH   9  10
ENDBRANCH   3   8
TORSDOF 0
ENDMDL
MODEL 9
REMARK VINA RESULT:    -2.347     15.582     16.954
REMARK INTER + INTRA:          -2.146
REMARK INTER:                  -2.907
REMARK INTRA:                   0.761
REMARK UNBOUND:                 0.750
REMARK SMILES CC1=CC=CC(C)(C)CC1=O
REMARK SMILES IDX 1 1 2 2 3 3 10 4 11 5 9 6 4 8 5 9 6 10 7 11 8 12
REMARK H PARENT
REMARK Flexibility Score: 80.00
ROOT
ATOM      1  C   UNL     1     178.142 181.767 237.422  1.00  0.00     0.048 C 
ATOM      2  C   UNL     1     177.631 180.641 236.553  1.00  0.00    -0.008 C 
ATOM      3  C   UNL     1     177.806 179.379 236.999  1.00  0.00     0.007 C 
ENDROOT
BRANCH   2   4
ATOM      4  C   UNL     1     177.044 181.013 235.242  1.00  0.00     0.159 C 
ATOM      5  O   UNL     1     177.178 182.197 234.829  1.00  0.00    -0.295 OA
BRANCH   4   6
ATOM      6  C   UNL     1     176.280 180.056 234.378  1.00  0.00     0.091 CG0
ATOM      7  G   UNL     1     177.113 178.828 233.948  1.00  0.00     0.000 G0
ENDBRANCH   4   6
ENDBRANCH   2   4
BRANCH   3   8
ATOM      8  C   UNL     1     177.442 178.089 236.368  1.00  0.00    -0.003 C 
ATOM      9  C   UNL     1     177.159 177.826 235.086  1.00  0.00    -0.020 C 
BRANCH   9  10
ATOM     10  C   UNL     1     177.117 178.825 233.954  1.00  0.00    -0.010 CG0
ATOM     11  C   UNL     1     178.554 179.191 233.518  1.00  0.00     0.016 C 
ATOM     12  C   UNL     1     176.408 178.163 232.749  1.00  0.00     0.016 C 
ATOM     13  G   UNL     1     176.290 180.059 234.378  1.00  0.00     0.000 G0
ENDBRANCH   9  10
ENDBRANCH   3   8
TORSDOF 0
ENDMDL
