MODEL 1
REMARK VINA RESULT:    -6.771      0.000      0.000
REMARK INTER + INTRA:          -6.771
REMARK INTER:                  -6.771
REMARK INTRA:                   0.000
REMARK UNBOUND:                 0.000
REMARK SMILES C=C1CCC[C@]2(C)Cc3occ(C)c3C[C@H]12
REMARK SMILES IDX 13 1 12 2 11 3 10 4 9 5 14 6 15 7 16 8 2 9 1 10 3 11 4 12
REMARK SMILES IDX 5 13 6 14 8 15 7 16
REMARK H PARENT
REMARK Flexibility Score: inf
ROOT
ATOM      1  C   UNL     1       4.367 -57.398 -25.089  1.00  0.00     0.048 C 
ATOM      2  C   UNL     1       4.091 -56.367 -26.133  1.00  0.00    -0.009 A 
ATOM      3  C   UNL     1       3.281 -55.251 -26.003  1.00  0.00     0.198 A 
ATOM      4  O   UNL     1       3.196 -54.629 -27.161  1.00  0.00    -0.469 OA
ATOM      5  C   UNL     1       3.901 -55.298 -28.044  1.00  0.00     0.107 A 
ATOM      6  C   UNL     1       4.494 -56.388 -27.451  1.00  0.00    -0.003 A 
ATOM      7  C   UNL     1       5.264 -57.441 -28.190  1.00  0.00     0.048 C 
ATOM      8  C   UNL     1       5.703 -56.929 -29.592  1.00  0.00     0.025 C 
ATOM      9  C   UNL     1       6.978 -56.089 -29.601  1.00  0.00    -0.073 C 
ATOM     10  C   UNL     1       7.554 -55.568 -28.500  1.00  0.00     0.008 C 
ATOM     11  C   UNL     1       7.488 -55.703 -30.965  1.00  0.00     0.031 C 
ATOM     12  C   UNL     1       6.406 -54.910 -31.701  1.00  0.00     0.005 C 
ATOM     13  C   UNL     1       5.064 -55.668 -31.735  1.00  0.00     0.008 C 
ATOM     14  C   UNL     1       4.558 -56.144 -30.336  1.00  0.00    -0.019 C 
ATOM     15  C   UNL     1       4.085 -54.922 -29.483  1.00  0.00     0.083 C 
ATOM     16  C   UNL     1       3.346 -57.080 -30.581  1.00  0.00     0.012 C 
ENDROOT
TORSDOF 0
ENDMDL
MODEL 2
REMARK VINA RESULT:    -6.663      2.535      6.272
REMARK INTER + INTRA:          -6.663
REMARK INTER:                  -6.663
REMARK INTRA:                   0.000
REMARK UNBOUND:                 0.000
REMARK SMILES C=C1CCC[C@]2(C)Cc3occ(C)c3C[C@H]12
REMARK SMILES IDX 13 1 12 2 11 3 10 4 9 5 14 6 15 7 16 8 2 9 1 10 3 11 4 12
REMARK SMILES IDX 5 13 6 14 8 15 7 16
REMARK H PARENT
REMARK Flexibility Score: inf
ROOT
ATOM      1  C   UNL     1       3.606 -55.884 -29.207  1.00  0.00     0.048 C 
ATOM      2  C   UNL     1       3.917 -56.058 -27.756  1.00  0.00    -0.009 A 
ATOM      3  C   UNL     1       4.984 -56.757 -27.215  1.00  0.00     0.198 A 
ATOM      4  O   UNL     1       4.876 -56.781 -25.903  1.00  0.00    -0.469 OA
ATOM      5  C   UNL     1       3.779 -56.142 -25.565  1.00  0.00     0.107 A 
ATOM      6  C   UNL     1       3.147 -55.658 -26.686  1.00  0.00    -0.003 A 
ATOM      7  C   UNL     1       1.804 -54.992 -26.680  1.00  0.00     0.048 C 
ATOM      8  C   UNL     1       1.429 -54.505 -25.251  1.00  0.00     0.025 C 
ATOM      9  C   UNL     1       2.023 -53.154 -24.855  1.00  0.00    -0.073 C 
ATOM     10  C   UNL     1       3.013 -52.532 -25.525  1.00  0.00     0.008 C 
ATOM     11  C   UNL     1       1.559 -52.608 -23.530  1.00  0.00     0.031 C 
ATOM     12  C   UNL     1       1.904 -53.608 -22.425  1.00  0.00     0.005 C 
ATOM     13  C   UNL     1       1.361 -55.017 -22.737  1.00  0.00     0.008 C 
ATOM     14  C   UNL     1       1.769 -55.567 -24.140  1.00  0.00    -0.019 C 
ATOM     15  C   UNL     1       3.292 -55.922 -24.165  1.00  0.00     0.083 C 
ATOM     16  C   UNL     1       0.952 -56.863 -24.379  1.00  0.00     0.012 C 
ENDROOT
TORSDOF 0
ENDMDL
MODEL 3
REMARK VINA RESULT:    -6.154      3.298      5.921
REMARK INTER + INTRA:          -6.154
REMARK INTER:                  -6.154
REMARK INTRA:                   0.000
REMARK UNBOUND:                 0.000
REMARK SMILES C=C1CCC[C@]2(C)Cc3occ(C)c3C[C@H]12
REMARK SMILES IDX 13 1 12 2 11 3 10 4 9 5 14 6 15 7 16 8 2 9 1 10 3 11 4 12
REMARK SMILES IDX 5 13 6 14 8 15 7 16
REMARK H PARENT
REMARK Flexibility Score: inf
ROOT
ATOM      1  C   UNL     1       5.654 -57.982 -24.440  1.00  0.00     0.048 C 
ATOM      2  C   UNL     1       4.815 -57.375 -25.517  1.00  0.00    -0.009 A 
ATOM      3  C   UNL     1       4.996 -57.509 -26.884  1.00  0.00     0.198 A 
ATOM      4  O   UNL     1       4.128 -56.750 -27.521  1.00  0.00    -0.469 OA
ATOM      5  C   UNL     1       3.400 -56.116 -26.631  1.00  0.00     0.107 A 
ATOM      6  C   UNL     1       3.778 -56.480 -25.360  1.00  0.00    -0.003 A 
ATOM      7  C   UNL     1       3.247 -55.855 -24.105  1.00  0.00     0.048 C 
ATOM      8  C   UNL     1       1.916 -55.099 -24.380  1.00  0.00     0.025 C 
ATOM      9  C   UNL     1       0.666 -55.977 -24.389  1.00  0.00    -0.073 C 
ATOM     10  C   UNL     1       0.682 -57.323 -24.444  1.00  0.00     0.008 C 
ATOM     11  C   UNL     1      -0.641 -55.240 -24.518  1.00  0.00     0.031 C 
ATOM     12  C   UNL     1      -0.636 -54.429 -25.815  1.00  0.00     0.005 C 
ATOM     13  C   UNL     1       0.601 -53.514 -25.914  1.00  0.00     0.008 C 
ATOM     14  C   UNL     1       1.963 -54.251 -25.706  1.00  0.00    -0.019 C 
ATOM     15  C   UNL     1       2.282 -55.164 -26.933  1.00  0.00     0.083 C 
ATOM     16  C   UNL     1       3.061 -53.160 -25.598  1.00  0.00     0.012 C 
ENDROOT
TORSDOF 0
ENDMDL
MODEL 4
REMARK VINA RESULT:    -5.919     10.701     12.308
REMARK INTER + INTRA:          -5.919
REMARK INTER:                  -5.919
REMARK INTRA:                   0.000
REMARK UNBOUND:                 0.000
REMARK SMILES C=C1CCC[C@]2(C)Cc3occ(C)c3C[C@H]12
REMARK SMILES IDX 13 1 12 2 11 3 10 4 9 5 14 6 15 7 16 8 2 9 1 10 3 11 4 12
REMARK SMILES IDX 5 13 6 14 8 15 7 16
REMARK H PARENT
REMARK Flexibility Score: inf
ROOT
ATOM      1  C   UNL     1      -2.176 -47.505 -23.597  1.00  0.00     0.048 C 
ATOM      2  C   UNL     1      -0.966 -47.909 -22.820  1.00  0.00    -0.009 A 
ATOM      3  C   UNL     1      -0.789 -49.088 -22.115  1.00  0.00     0.198 A 
ATOM      4  O   UNL     1       0.360 -49.051 -21.472  1.00  0.00    -0.469 OA
ATOM      5  C   UNL     1       0.932 -47.893 -21.713  1.00  0.00     0.107 A 
ATOM      6  C   UNL     1       0.152 -47.145 -22.562  1.00  0.00    -0.003 A 
ATOM      7  C   UNL     1       0.437 -45.724 -22.945  1.00  0.00     0.048 C 
ATOM      8  C   UNL     1       1.921 -45.356 -22.655  1.00  0.00     0.025 C 
ATOM      9  C   UNL     1       2.911 -45.774 -23.741  1.00  0.00    -0.073 C 
ATOM     10  C   UNL     1       2.628 -46.633 -24.740  1.00  0.00     0.008 C 
ATOM     11  C   UNL     1       4.328 -45.305 -23.538  1.00  0.00     0.031 C 
ATOM     12  C   UNL     1       4.849 -45.841 -22.203  1.00  0.00     0.005 C 
ATOM     13  C   UNL     1       3.908 -45.485 -21.036  1.00  0.00     0.008 C 
ATOM     14  C   UNL     1       2.418 -45.896 -21.263  1.00  0.00    -0.019 C 
ATOM     15  C   UNL     1       2.264 -47.450 -21.188  1.00  0.00     0.083 C 
ATOM     16  C   UNL     1       1.588 -45.257 -20.119  1.00  0.00     0.012 C 
ENDROOT
TORSDOF 0
ENDMDL
MODEL 5
REMARK VINA RESULT:    -5.901     10.113     12.475
REMARK INTER + INTRA:          -5.901
REMARK INTER:                  -5.901
REMARK INTRA:                   0.000
REMARK UNBOUND:                 0.000
REMARK SMILES C=C1CCC[C@]2(C)Cc3occ(C)c3C[C@H]12
REMARK SMILES IDX 13 1 12 2 11 3 10 4 9 5 14 6 15 7 16 8 2 9 1 10 3 11 4 12
REMARK SMILES IDX 5 13 6 14 8 15 7 16
REMARK H PARENT
REMARK Flexibility Score: inf
ROOT
ATOM      1  C   UNL     1      -2.503 -47.041 -23.622  1.00  0.00     0.048 C 
ATOM      2  C   UNL     1      -1.312 -46.257 -24.067  1.00  0.00    -0.009 A 
ATOM      3  C   UNL     1      -1.263 -45.343 -25.107  1.00  0.00     0.198 A 
ATOM      4  O   UNL     1      -0.024 -44.927 -25.271  1.00  0.00    -0.469 OA
ATOM      5  C   UNL     1       0.738 -45.540 -24.395  1.00  0.00     0.107 A 
ATOM      6  C   UNL     1      -0.018 -46.374 -23.607  1.00  0.00    -0.003 A 
ATOM      7  C   UNL     1       0.544 -47.322 -22.591  1.00  0.00     0.048 C 
ATOM      8  C   UNL     1       2.000 -46.930 -22.209  1.00  0.00     0.025 C 
ATOM      9  C   UNL     1       2.116 -45.836 -21.150  1.00  0.00    -0.073 C 
ATOM     10  C   UNL     1       1.096 -45.048 -20.755  1.00  0.00     0.008 C 
ATOM     11  C   UNL     1       3.514 -45.543 -20.673  1.00  0.00     0.031 C 
ATOM     12  C   UNL     1       4.375 -45.125 -21.866  1.00  0.00     0.005 C 
ATOM     13  C   UNL     1       4.316 -46.161 -23.006  1.00  0.00     0.008 C 
ATOM     14  C   UNL     1       2.869 -46.534 -23.461  1.00  0.00    -0.019 C 
ATOM     15  C   UNL     1       2.215 -45.340 -24.230  1.00  0.00     0.083 C 
ATOM     16  C   UNL     1       2.990 -47.742 -24.426  1.00  0.00     0.012 C 
ENDROOT
TORSDOF 0
ENDMDL
MODEL 6
REMARK VINA RESULT:    -5.831      2.781      6.577
REMARK INTER + INTRA:          -5.831
REMARK INTER:                  -5.831
REMARK INTRA:                   0.000
REMARK UNBOUND:                 0.000
REMARK SMILES C=C1CCC[C@]2(C)Cc3occ(C)c3C[C@H]12
REMARK SMILES IDX 13 1 12 2 11 3 10 4 9 5 14 6 15 7 16 8 2 9 1 10 3 11 4 12
REMARK SMILES IDX 5 13 6 14 8 15 7 16
REMARK H PARENT
REMARK Flexibility Score: inf
ROOT
ATOM      1  C   UNL     1       5.072 -57.327 -26.536  1.00  0.00     0.048 C 
ATOM      2  C   UNL     1       4.081 -56.239 -26.790  1.00  0.00    -0.009 A 
ATOM      3  C   UNL     1       3.823 -55.618 -28.001  1.00  0.00     0.198 A 
ATOM      4  O   UNL     1       2.962 -54.638 -27.821  1.00  0.00    -0.469 OA
ATOM      5  C   UNL     1       2.659 -54.581 -26.545  1.00  0.00     0.107 A 
ATOM      6  C   UNL     1       3.321 -55.569 -25.855  1.00  0.00    -0.003 A 
ATOM      7  C   UNL     1       3.308 -55.717 -24.363  1.00  0.00     0.048 C 
ATOM      8  C   UNL     1       2.119 -54.933 -23.736  1.00  0.00     0.025 C 
ATOM      9  C   UNL     1       0.782 -55.672 -23.751  1.00  0.00    -0.073 C 
ATOM     10  C   UNL     1       0.532 -56.778 -24.478  1.00  0.00     0.008 C 
ATOM     11  C   UNL     1      -0.345 -54.983 -23.027  1.00  0.00     0.031 C 
ATOM     12  C   UNL     1      -0.572 -53.602 -23.646  1.00  0.00     0.005 C 
ATOM     13  C   UNL     1       0.728 -52.775 -23.694  1.00  0.00     0.008 C 
ATOM     14  C   UNL     1       1.930 -53.506 -24.374  1.00  0.00    -0.019 C 
ATOM     15  C   UNL     1       1.698 -53.618 -25.916  1.00  0.00     0.083 C 
ATOM     16  C   UNL     1       3.193 -52.642 -24.121  1.00  0.00     0.012 C 
ENDROOT
TORSDOF 0
ENDMDL
MODEL 7
REMARK VINA RESULT:    -5.700      1.572      4.904
REMARK INTER + INTRA:          -5.700
REMARK INTER:                  -5.700
REMARK INTRA:                   0.000
REMARK UNBOUND:                 0.000
REMARK SMILES C=C1CCC[C@]2(C)Cc3occ(C)c3C[C@H]12
REMARK SMILES IDX 13 1 12 2 11 3 10 4 9 5 14 6 15 7 16 8 2 9 1 10 3 11 4 12
REMARK SMILES IDX 5 13 6 14 8 15 7 16
REMARK H PARENT
REMARK Flexibility Score: inf
ROOT
ATOM      1  C   UNL     1       5.246 -55.307 -32.262  1.00  0.00     0.048 C 
ATOM      2  C   UNL     1       5.812 -55.382 -30.882  1.00  0.00    -0.009 A 
ATOM      3  C   UNL     1       7.115 -55.103 -30.504  1.00  0.00     0.198 A 
ATOM      4  O   UNL     1       7.272 -55.378 -29.225  1.00  0.00    -0.469 OA
ATOM      5  C   UNL     1       6.135 -55.839 -28.757  1.00  0.00     0.107 A 
ATOM      6  C   UNL     1       5.183 -55.850 -29.749  1.00  0.00    -0.003 A 
ATOM      7  C   UNL     1       3.809 -56.433 -29.599  1.00  0.00     0.048 C 
ATOM      8  C   UNL     1       3.434 -56.597 -28.099  1.00  0.00     0.025 C 
ATOM      9  C   UNL     1       2.895 -55.335 -27.428  1.00  0.00    -0.073 C 
ATOM     10  C   UNL     1       2.982 -54.097 -27.955  1.00  0.00     0.008 C 
ATOM     11  C   UNL     1       2.401 -55.513 -26.017  1.00  0.00     0.031 C 
ATOM     12  C   UNL     1       3.541 -56.048 -25.148  1.00  0.00     0.005 C 
ATOM     13  C   UNL     1       4.170 -57.321 -25.748  1.00  0.00     0.008 C 
ATOM     14  C   UNL     1       4.618 -57.176 -27.237  1.00  0.00    -0.019 C 
ATOM     15  C   UNL     1       5.877 -56.255 -27.340  1.00  0.00     0.083 C 
ATOM     16  C   UNL     1       4.995 -58.594 -27.741  1.00  0.00     0.012 C 
ENDROOT
TORSDOF 0
ENDMDL
MODEL 8
REMARK VINA RESULT:    -5.527      4.423      6.650
REMARK INTER + INTRA:          -5.527
REMARK INTER:                  -5.527
REMARK INTRA:                   0.000
REMARK UNBOUND:                 0.000
REMARK SMILES C=C1CCC[C@]2(C)Cc3occ(C)c3C[C@H]12
REMARK SMILES IDX 13 1 12 2 11 3 10 4 9 5 14 6 15 7 16 8 2 9 1 10 3 11 4 12
REMARK SMILES IDX 5 13 6 14 8 15 7 16
REMARK H PARENT
REMARK Flexibility Score: inf
ROOT
ATOM      1  C   UNL     1      -2.110 -57.717 -24.721  1.00  0.00     0.048 C 
ATOM      2  C   UNL     1      -1.722 -56.340 -25.151  1.00  0.00    -0.009 A 
ATOM      3  C   UNL     1      -2.529 -55.415 -25.795  1.00  0.00     0.198 A 
ATOM      4  O   UNL     1      -1.817 -54.352 -26.108  1.00  0.00    -0.469 OA
ATOM      5  C   UNL     1      -0.581 -54.549 -25.713  1.00  0.00     0.107 A 
ATOM      6  C   UNL     1      -0.468 -55.772 -25.095  1.00  0.00    -0.003 A 
ATOM      7  C   UNL     1       0.826 -56.375 -24.636  1.00  0.00     0.048 C 
ATOM      8  C   UNL     1       1.934 -55.290 -24.517  1.00  0.00     0.025 C 
ATOM      9  C   UNL     1       1.922 -54.497 -23.212  1.00  0.00    -0.073 C 
ATOM     10  C   UNL     1       0.901 -54.495 -22.332  1.00  0.00     0.008 C 
ATOM     11  C   UNL     1       3.069 -53.540 -23.026  1.00  0.00     0.031 C 
ATOM     12  C   UNL     1       3.078 -52.534 -24.178  1.00  0.00     0.005 C 
ATOM     13  C   UNL     1       3.075 -53.236 -25.551  1.00  0.00     0.008 C 
ATOM     14  C   UNL     1       1.936 -54.289 -25.732  1.00  0.00    -0.019 C 
ATOM     15  C   UNL     1       0.551 -53.576 -25.861  1.00  0.00     0.083 C 
ATOM     16  C   UNL     1       2.226 -55.054 -27.049  1.00  0.00     0.012 C 
ENDROOT
TORSDOF 0
ENDMDL
