MODEL 1
REMARK VINA RESULT:    -3.995      0.000      0.000
REMARK INTER + INTRA:          -4.756
REMARK INTER:                  -4.695
REMARK INTRA:                  -0.061
REMARK UNBOUND:                -0.061
REMARK SMILES O=C([O-])CCC(=O)[O-]
REMARK SMILES IDX 4 1 2 2 1 3 3 4 5 5 6 6 7 7 8 8
REMARK H PARENT
REMARK Flexibility Score: inf
ROOT
ATOM      1  C   UNL     1       5.251   0.623  17.229  1.00  0.00     0.059 C 
ENDROOT
BRANCH   1   2
ATOM      2  C   UNL     1       5.382  -0.213  18.466  1.00  0.00     0.042 C 
ATOM      3  O   UNL     1       6.185  -1.183  18.493  1.00  0.00    -0.550 OA
ATOM      4  O   UNL     1       4.648   0.104  19.601  1.00  0.00    -0.550 OA
ENDBRANCH   1   2
BRANCH   1   5
ATOM      5  C   UNL     1       4.245   1.762  17.423  1.00  0.00     0.059 C 
BRANCH   5   6
ATOM      6  C   UNL     1       3.134   1.694  16.421  1.00  0.00     0.042 C 
ATOM      7  O   UNL     1       1.953   1.474  16.796  1.00  0.00    -0.550 OA
ATOM      8  O   UNL     1       3.399   1.913  15.075  1.00  0.00    -0.550 OA
ENDBRANCH   5   6
ENDBRANCH   1   5
TORSDOF 3
ENDMDL
MODEL 2
REMARK VINA RESULT:    -3.994      0.247      1.628
REMARK INTER + INTRA:          -4.755
REMARK INTER:                  -4.694
REMARK INTRA:                  -0.061
REMARK UNBOUND:                -0.061
REMARK SMILES O=C([O-])CCC(=O)[O-]
REMARK SMILES IDX 4 1 2 2 1 3 3 4 5 5 6 6 7 7 8 8
REMARK H PARENT
REMARK Flexibility Score: inf
ROOT
ATOM      1  C   UNL     1       5.326   0.486  17.312  1.00  0.00     0.059 C 
ENDROOT
BRANCH   1   2
ATOM      2  C   UNL     1       5.390  -0.287  18.594  1.00  0.00     0.042 C 
ATOM      3  O   UNL     1       4.664   0.043  19.569  1.00  0.00    -0.550 OA
ATOM      4  O   UNL     1       6.221  -1.394  18.699  1.00  0.00    -0.550 OA
ENDBRANCH   1   2
BRANCH   1   5
ATOM      5  C   UNL     1       4.309   1.629  17.393  1.00  0.00     0.059 C 
BRANCH   5   6
ATOM      6  C   UNL     1       3.247   1.497  16.344  1.00  0.00     0.042 C 
ATOM      7  O   UNL     1       3.561   1.449  15.126  1.00  0.00    -0.550 OA
ATOM      8  O   UNL     1       1.913   1.386  16.717  1.00  0.00    -0.550 OA
ENDBRANCH   5   6
ENDBRANCH   1   5
TORSDOF 3
ENDMDL
MODEL 3
REMARK VINA RESULT:    -3.977      0.078      4.019
REMARK INTER + INTRA:          -4.736
REMARK INTER:                  -4.678
REMARK INTRA:                  -0.059
REMARK UNBOUND:                -0.061
REMARK SMILES O=C([O-])CCC(=O)[O-]
REMARK SMILES IDX 4 1 2 2 1 3 3 4 5 5 6 6 7 7 8 8
REMARK H PARENT
REMARK Flexibility Score: inf
ROOT
ATOM      1  C   UNL     1       4.238   1.751  17.382  1.00  0.00     0.059 C 
ENDROOT
BRANCH   1   2
ATOM      2  C   UNL     1       3.155   1.681  16.350  1.00  0.00     0.042 C 
ATOM      3  O   UNL     1       3.428   1.848  15.133  1.00  0.00    -0.550 OA
ATOM      4  O   UNL     1       1.850   1.391  16.730  1.00  0.00    -0.550 OA
ENDBRANCH   1   2
BRANCH   1   5
ATOM      5  C   UNL     1       5.267   0.631  17.197  1.00  0.00     0.059 C 
BRANCH   5   6
ATOM      6  C   UNL     1       5.397  -0.208  18.431  1.00  0.00     0.042 C 
ATOM      7  O   UNL     1       6.234  -1.147  18.475  1.00  0.00    -0.550 OA
ATOM      8  O   UNL     1       4.619   0.074  19.547  1.00  0.00    -0.550 OA
ENDBRANCH   5   6
ENDBRANCH   1   5
TORSDOF 3
ENDMDL
MODEL 4
REMARK VINA RESULT:    -3.927      0.716      3.955
REMARK INTER + INTRA:          -4.677
REMARK INTER:                  -4.562
REMARK INTRA:                  -0.115
REMARK UNBOUND:                -0.061
REMARK SMILES O=C([O-])CCC(=O)[O-]
REMARK SMILES IDX 4 1 2 2 1 3 3 4 5 5 6 6 7 7 8 8
REMARK H PARENT
REMARK Flexibility Score: inf
ROOT
ATOM      1  C   UNL     1       4.193   2.017  16.913  1.00  0.00     0.059 C 
ENDROOT
BRANCH   1   2
ATOM      2  C   UNL     1       2.952   1.745  16.119  1.00  0.00     0.042 C 
ATOM      3  O   UNL     1       2.307   0.678  16.297  1.00  0.00    -0.550 OA
ATOM      4  O   UNL     1       2.486   2.688  15.212  1.00  0.00    -0.550 OA
ENDBRANCH   1   2
BRANCH   1   5
ATOM      5  C   UNL     1       5.091   0.778  16.996  1.00  0.00     0.059 C 
BRANCH   5   6
ATOM      6  C   UNL     1       5.218   0.282  18.404  1.00  0.00     0.042 C 
ATOM      7  O   UNL     1       4.428   0.690  19.294  1.00  0.00    -0.550 OA
ATOM      8  O   UNL     1       6.183  -0.665  18.722  1.00  0.00    -0.550 OA
ENDBRANCH   5   6
ENDBRANCH   1   5
TORSDOF 3
ENDMDL
MODEL 5
REMARK VINA RESULT:    -3.801      2.793      4.169
REMARK INTER + INTRA:          -4.529
REMARK INTER:                  -4.411
REMARK INTRA:                  -0.117
REMARK UNBOUND:                -0.061
REMARK SMILES O=C([O-])CCC(=O)[O-]
REMARK SMILES IDX 4 1 2 2 1 3 3 4 5 5 6 6 7 7 8 8
REMARK H PARENT
REMARK Flexibility Score: inf
ROOT
ATOM      1  C   UNL     1       3.252   0.649  14.896  1.00  0.00     0.059 C 
ENDROOT
BRANCH   1   2
ATOM      2  C   UNL     1       1.803   0.372  15.159  1.00  0.00     0.042 C 
ATOM      3  O   UNL     1       1.246   0.840  16.186  1.00  0.00    -0.550 OA
ATOM      4  O   UNL     1       1.060  -0.369  14.250  1.00  0.00    -0.550 OA
ENDBRANCH   1   2
BRANCH   1   5
ATOM      5  C   UNL     1       3.513   2.146  14.700  1.00  0.00     0.059 C 
BRANCH   5   6
ATOM      6  C   UNL     1       4.220   2.741  15.879  1.00  0.00     0.042 C 
ATOM      7  O   UNL     1       4.725   3.891  15.802  1.00  0.00    -0.550 OA
ATOM      8  O   UNL     1       4.284   2.040  17.077  1.00  0.00    -0.550 OA
ENDBRANCH   5   6
ENDBRANCH   1   5
TORSDOF 3
ENDMDL
MODEL 6
REMARK VINA RESULT:    -3.799      1.343      1.866
REMARK INTER + INTRA:          -4.527
REMARK INTER:                  -4.340
REMARK INTRA:                  -0.187
REMARK UNBOUND:                -0.061
REMARK SMILES O=C([O-])CCC(=O)[O-]
REMARK SMILES IDX 4 1 2 2 1 3 3 4 5 5 6 6 7 7 8 8
REMARK H PARENT
REMARK Flexibility Score: inf
ROOT
ATOM      1  C   UNL     1       5.426   0.840  16.934  1.00  0.00     0.059 C 
ENDROOT
BRANCH   1   2
ATOM      2  C   UNL     1       5.026  -0.593  16.758  1.00  0.00     0.042 C 
ATOM      3  O   UNL     1       5.217  -1.172  15.656  1.00  0.00    -0.550 OA
ATOM      4  O   UNL     1       4.480  -1.299  17.822  1.00  0.00    -0.550 OA
ENDBRANCH   1   2
BRANCH   1   5
ATOM      5  C   UNL     1       4.239   1.706  17.369  1.00  0.00     0.059 C 
BRANCH   5   6
ATOM      6  C   UNL     1       3.162   1.729  16.328  1.00  0.00     0.042 C 
ATOM      7  O   UNL     1       3.409   2.151  15.168  1.00  0.00    -0.550 OA
ATOM      8  O   UNL     1       1.895   1.246  16.629  1.00  0.00    -0.550 OA
ENDBRANCH   5   6
ENDBRANCH   1   5
TORSDOF 3
ENDMDL
MODEL 7
REMARK VINA RESULT:    -3.782      2.111      2.889
REMARK INTER + INTRA:          -4.507
REMARK INTER:                  -4.419
REMARK INTRA:                  -0.088
REMARK UNBOUND:                -0.061
REMARK SMILES O=C([O-])CCC(=O)[O-]
REMARK SMILES IDX 4 1 2 2 1 3 3 4 5 5 6 6 7 7 8 8
REMARK H PARENT
REMARK Flexibility Score: inf
ROOT
ATOM      1  C   UNL     1       3.206   2.065  16.001  1.00  0.00     0.059 C 
ENDROOT
BRANCH   1   2
ATOM      2  C   UNL     1       4.177   1.596  17.041  1.00  0.00     0.042 C 
ATOM      3  O   UNL     1       3.905   1.721  18.264  1.00  0.00    -0.550 OA
ATOM      4  O   UNL     1       5.364   0.985  16.659  1.00  0.00    -0.550 OA
ENDBRANCH   1   2
BRANCH   1   5
ATOM      5  C   UNL     1       3.009   1.017  14.901  1.00  0.00     0.059 C 
BRANCH   5   6
ATOM      6  C   UNL     1       1.697   0.308  15.043  1.00  0.00     0.042 C 
ATOM      7  O   UNL     1       0.915   0.602  15.985  1.00  0.00    -0.550 OA
ATOM      8  O   UNL     1       1.321  -0.651  14.110  1.00  0.00    -0.550 OA
ENDBRANCH   5   6
ENDBRANCH   1   5
TORSDOF 3
ENDMDL
MODEL 8
REMARK VINA RESULT:    -3.709      2.195      4.323
REMARK INTER + INTRA:          -4.421
REMARK INTER:                  -4.318
REMARK INTRA:                  -0.104
REMARK UNBOUND:                -0.061
REMARK SMILES O=C([O-])CCC(=O)[O-]
REMARK SMILES IDX 4 1 2 2 1 3 3 4 5 5 6 6 7 7 8 8
REMARK H PARENT
REMARK Flexibility Score: inf
ROOT
ATOM      1  C   UNL     1       3.191   0.186  14.801  1.00  0.00     0.059 C 
ENDROOT
BRANCH   1   2
ATOM      2  C   UNL     1       1.738   0.229  15.163  1.00  0.00     0.042 C 
ATOM      3  O   UNL     1       1.363   0.833  16.202  1.00  0.00    -0.550 OA
ATOM      4  O   UNL     1       0.795  -0.363  14.333  1.00  0.00    -0.550 OA
ENDBRANCH   1   2
BRANCH   1   5
ATOM      5  C   UNL     1       4.012  -0.567  15.853  1.00  0.00     0.059 C 
BRANCH   5   6
ATOM      6  C   UNL     1       4.807   0.372  16.708  1.00  0.00     0.042 C 
ATOM      7  O   UNL     1       5.795   0.985  16.228  1.00  0.00    -0.550 OA
ATOM      8  O   UNL     1       4.428   0.600  18.025  1.00  0.00    -0.550 OA
ENDBRANCH   5   6
ENDBRANCH   1   5
TORSDOF 3
ENDMDL
MODEL 9
REMARK VINA RESULT:    -3.623      3.280      4.172
REMARK INTER + INTRA:          -4.320
REMARK INTER:                  -4.218
REMARK INTRA:                  -0.103
REMARK UNBOUND:                -0.061
REMARK SMILES O=C([O-])CCC(=O)[O-]
REMARK SMILES IDX 4 1 2 2 1 3 3 4 5 5 6 6 7 7 8 8
REMARK H PARENT
REMARK Flexibility Score: inf
ROOT
ATOM      1  C   UNL     1       3.972   1.664  15.375  1.00  0.00     0.059 C 
ENDROOT
BRANCH   1   2
ATOM      2  C   UNL     1       3.911   3.159  15.308  1.00  0.00     0.042 C 
ATOM      3  O   UNL     1       4.805   3.855  15.857  1.00  0.00    -0.550 OA
ATOM      4  O   UNL     1       2.887   3.783  14.606  1.00  0.00    -0.550 OA
ENDBRANCH   1   2
BRANCH   1   5
ATOM      5  C   UNL     1       3.068   1.015  14.323  1.00  0.00     0.059 C 
BRANCH   5   6
ATOM      6  C   UNL     1       1.835   0.429  14.940  1.00  0.00     0.042 C 
ATOM      7  O   UNL     1       1.167  -0.440  14.322  1.00  0.00    -0.550 OA
ATOM      8  O   UNL     1       1.448   0.814  16.218  1.00  0.00    -0.550 OA
ENDBRANCH   5   6
ENDBRANCH   1   5
TORSDOF 3
ENDMDL
