MODEL 1
REMARK VINA RESULT:    -6.511      0.000      0.000
REMARK INTER + INTRA:          -7.790
REMARK INTER:                  -8.795
REMARK INTRA:                   1.005
REMARK UNBOUND:                 1.005
REMARK SMILES O=c1c(-c2ccc(O)cc2)coc2c([C@H]3O[C@H](CO)[C@@H](O)[C@H](O)[C@H]3O)c(O)ccc12
REMARK SMILES IDX 3 1 11 2 12 3 13 4 30 5 2 6 1 7 29 8 28 9 26 10 14 11 4 12
REMARK SMILES IDX 5 13 6 14 7 15 10 16 9 17 8 18 15 20 24 21 16 22 22 23 17 24
REMARK SMILES IDX 20 25 25 26 23 28 18 30 19 31 21 33 27 35
REMARK H PARENT 8 19 25 27 23 29 19 32 21 34 27 36
REMARK Flexibility Score: inf
ROOT
ATOM      1  C   UNL     1      22.076  49.953  39.430  1.00  0.00     0.065 A 
ATOM      2  C   UNL     1      21.808  50.486  38.163  1.00  0.00     0.208 A 
ATOM      3  O   UNL     1      22.096  49.803  37.061  1.00  0.00    -0.463 OA
ATOM      4  C   UNL     1      22.645  48.591  37.076  1.00  0.00     0.147 A 
ATOM      5  C   UNL     1      22.948  47.977  38.315  1.00  0.00     0.066 A 
ATOM      6  C   UNL     1      22.648  48.670  39.502  1.00  0.00     0.200 A 
ATOM      7  O   UNL     1      22.874  48.136  40.624  1.00  0.00    -0.288 OA
ATOM      8  C   UNL     1      23.536  46.704  38.333  1.00  0.00     0.020 A 
ATOM      9  C   UNL     1      23.836  46.052  37.139  1.00  0.00     0.047 A 
ATOM     10  C   UNL     1      23.546  46.651  35.908  1.00  0.00     0.125 A 
ATOM     11  C   UNL     1      22.927  47.920  35.858  1.00  0.00     0.069 A 
ENDROOT
BRANCH   1  12
ATOM     12  C   UNL     1      21.751  50.737  40.648  1.00  0.00    -0.011 A 
ATOM     13  C   UNL     1      21.169  50.117  41.768  1.00  0.00     0.013 A 
ATOM     14  C   UNL     1      20.875  50.859  42.915  1.00  0.00     0.047 A 
ATOM     15  C   UNL     1      21.163  52.229  42.960  1.00  0.00     0.115 A 
ATOM     16  C   UNL     1      22.045  52.112  40.705  1.00  0.00     0.013 A 
ATOM     17  C   UNL     1      21.749  52.851  41.854  1.00  0.00     0.047 A 
BRANCH  15  18
ATOM     18  O   UNL     1      20.875  52.980  44.098  1.00  0.00    -0.508 OA
ATOM     19  H   UNL     1      21.224  52.711  45.011  1.00  0.00     0.293 HD
ENDBRANCH  15  18
ENDBRANCH   1  12
BRANCH  11  20
ATOM     20  C   UNL     1      22.645  48.563  34.504  1.00  0.00     0.188 C 
ATOM     21  C   UNL     1      23.576  49.775  34.276  1.00  0.00     0.179 C 
ATOM     22  O   UNL     1      21.277  48.929  34.399  1.00  0.00    -0.362 OA
ATOM     23  C   UNL     1      23.293  50.430  32.908  1.00  0.00     0.177 C 
ATOM     24  C   UNL     1      20.933  49.421  33.110  1.00  0.00     0.176 C 
ATOM     25  C   UNL     1      21.780  50.647  32.683  1.00  0.00     0.177 C 
BRANCH  21  26
ATOM     26  O   UNL     1      23.490  50.719  35.318  1.00  0.00    -0.387 OA
ATOM     27  H   UNL     1      24.178  51.415  35.165  1.00  0.00     0.211 HD
ENDBRANCH  21  26
BRANCH  23  28
ATOM     28  O   UNL     1      23.804  49.626  31.876  1.00  0.00    -0.387 OA
ATOM     29  H   UNL     1      24.090  48.769  32.289  1.00  0.00     0.211 HD
ENDBRANCH  23  28
BRANCH  24  30
ATOM     30  C   UNL     1      20.875  48.308  32.039  1.00  0.00     0.191 C 
BRANCH  30  31
ATOM     31  O   UNL     1      21.090  47.052  32.623  1.00  0.00    -0.394 OA
ATOM     32  H   UNL     1      21.102  47.193  33.606  1.00  0.00     0.210 HD
ENDBRANCH  30  31
ENDBRANCH  24  30
BRANCH  25  33
ATOM     33  O   UNL     1      21.343  51.774  33.403  1.00  0.00    -0.388 OA
ATOM     34  H   UNL     1      22.130  52.368  33.518  1.00  0.00     0.211 HD
ENDBRANCH  25  33
ENDBRANCH  11  20
BRANCH  10  35
ATOM     35  O   UNL     1      23.879  45.984  34.727  1.00  0.00    -0.507 OA
ATOM     36  H   UNL     1      23.186  45.481  34.186  1.00  0.00     0.293 HD
ENDBRANCH  10  35
TORSDOF 9
ENDMDL
MODEL 2
REMARK VINA RESULT:    -6.321      1.848      4.061
REMARK INTER + INTRA:          -7.533
REMARK INTER:                  -7.633
REMARK INTRA:                   0.100
REMARK UNBOUND:                 1.005
REMARK SMILES O=c1c(-c2ccc(O)cc2)coc2c([C@H]3O[C@H](CO)[C@@H](O)[C@H](O)[C@H]3O)c(O)ccc12
REMARK SMILES IDX 3 1 11 2 12 3 13 4 30 5 2 6 1 7 29 8 28 9 26 10 14 11 4 12
REMARK SMILES IDX 5 13 6 14 7 15 10 16 9 17 8 18 15 20 24 21 16 22 22 23 17 24
REMARK SMILES IDX 20 25 25 26 23 28 18 30 19 31 21 33 27 35
REMARK H PARENT 8 19 25 27 23 29 19 32 21 34 27 36
REMARK Flexibility Score: inf
ROOT
ATOM      1  C   UNL     1      21.674  50.998  38.460  1.00  0.00     0.065 A 
ATOM      2  C   UNL     1      22.213  49.821  37.923  1.00  0.00     0.208 A 
ATOM      3  O   UNL     1      22.385  49.685  36.614  1.00  0.00    -0.463 OA
ATOM      4  C   UNL     1      22.069  50.632  35.734  1.00  0.00     0.147 A 
ATOM      5  C   UNL     1      21.520  51.854  36.191  1.00  0.00     0.066 A 
ATOM      6  C   UNL     1      21.332  52.034  37.574  1.00  0.00     0.200 A 
ATOM      7  O   UNL     1      20.875  53.125  38.017  1.00  0.00    -0.288 OA
ATOM      8  C   UNL     1      21.177  52.851  35.265  1.00  0.00     0.020 A 
ATOM      9  C   UNL     1      21.360  52.634  33.901  1.00  0.00     0.047 A 
ATOM     10  C   UNL     1      21.897  51.429  33.436  1.00  0.00     0.125 A 
ATOM     11  C   UNL     1      22.280  50.418  34.347  1.00  0.00     0.069 A 
ENDROOT
BRANCH   1  12
ATOM     12  C   UNL     1      21.485  51.124  39.928  1.00  0.00    -0.011 A 
ATOM     13  C   UNL     1      21.699  52.353  40.576  1.00  0.00     0.013 A 
ATOM     14  C   UNL     1      21.510  52.467  41.956  1.00  0.00     0.047 A 
ATOM     15  C   UNL     1      21.099  51.357  42.705  1.00  0.00     0.115 A 
ATOM     16  C   UNL     1      21.064  50.016  40.685  1.00  0.00     0.013 A 
ATOM     17  C   UNL     1      20.876  50.133  42.065  1.00  0.00     0.047 A 
BRANCH  15  18
ATOM     18  O   UNL     1      20.906  51.459  44.081  1.00  0.00    -0.508 OA
ATOM     19  H   UNL     1      20.462  50.715  44.609  1.00  0.00     0.293 HD
ENDBRANCH  15  18
ENDBRANCH   1  12
BRANCH  11  20
ATOM     20  C   UNL     1      22.839  49.103  33.815  1.00  0.00     0.188 C 
ATOM     21  C   UNL     1      21.742  48.014  33.803  1.00  0.00     0.179 C 
ATOM     22  O   UNL     1      23.969  48.697  34.573  1.00  0.00    -0.362 OA
ATOM     23  C   UNL     1      22.304  46.681  33.267  1.00  0.00     0.177 C 
ATOM     24  C   UNL     1      24.603  47.540  34.042  1.00  0.00     0.176 C 
ATOM     25  C   UNL     1      23.651  46.322  33.932  1.00  0.00     0.177 C 
BRANCH  21  26
ATOM     26  O   UNL     1      21.146  47.842  35.067  1.00  0.00    -0.387 OA
ATOM     27  H   UNL     1      20.441  47.151  34.987  1.00  0.00     0.211 HD
ENDBRANCH  21  26
BRANCH  23  28
ATOM     28  O   UNL     1      22.481  46.759  31.875  1.00  0.00    -0.387 OA
ATOM     29  H   UNL     1      23.208  46.125  31.639  1.00  0.00     0.211 HD
ENDBRANCH  23  28
BRANCH  24  30
ATOM     30  C   UNL     1      25.388  47.829  32.742  1.00  0.00     0.191 C 
BRANCH  30  31
ATOM     31  O   UNL     1      26.513  48.619  33.011  1.00  0.00    -0.394 OA
ATOM     32  H   UNL     1      27.212  48.352  32.357  1.00  0.00     0.210 HD
ENDBRANCH  30  31
ENDBRANCH  24  30
BRANCH  25  33
ATOM     33  O   UNL     1      23.428  45.802  35.220  1.00  0.00    -0.388 OA
ATOM     34  H   UNL     1      22.629  46.265  35.586  1.00  0.00     0.211 HD
ENDBRANCH  25  33
ENDBRANCH  11  20
BRANCH  10  35
ATOM     35  O   UNL     1      22.047  51.231  32.063  1.00  0.00    -0.507 OA
ATOM     36  H   UNL     1      21.284  50.900  31.486  1.00  0.00     0.293 HD
ENDBRANCH  10  35
TORSDOF 9
ENDMDL
MODEL 3
REMARK VINA RESULT:    -5.544      1.790      3.620
REMARK INTER + INTRA:          -6.484
REMARK INTER:                  -8.422
REMARK INTRA:                   1.938
REMARK UNBOUND:                 1.005
REMARK SMILES O=c1c(-c2ccc(O)cc2)coc2c([C@H]3O[C@H](CO)[C@@H](O)[C@H](O)[C@H]3O)c(O)ccc12
REMARK SMILES IDX 3 1 11 2 12 3 13 4 30 5 2 6 1 7 29 8 28 9 26 10 14 11 4 12
REMARK SMILES IDX 5 13 6 14 7 15 10 16 9 17 8 18 15 20 24 21 16 22 22 23 17 24
REMARK SMILES IDX 20 25 25 26 23 28 18 30 19 31 21 33 27 35
REMARK H PARENT 8 19 25 27 23 29 19 32 21 34 27 36
REMARK Flexibility Score: inf
ROOT
ATOM      1  C   UNL     1      22.209  50.837  38.728  1.00  0.00     0.065 A 
ATOM      2  C   UNL     1      22.450  49.576  38.165  1.00  0.00     0.208 A 
ATOM      3  O   UNL     1      22.763  49.452  36.882  1.00  0.00    -0.463 OA
ATOM      4  C   UNL     1      22.870  50.487  36.052  1.00  0.00     0.147 A 
ATOM      5  C   UNL     1      22.643  51.797  36.538  1.00  0.00     0.066 A 
ATOM      6  C   UNL     1      22.318  51.965  37.896  1.00  0.00     0.200 A 
ATOM      7  O   UNL     1      22.142  53.123  38.370  1.00  0.00    -0.288 OA
ATOM      8  C   UNL     1      22.746  52.889  35.664  1.00  0.00     0.020 A 
ATOM      9  C   UNL     1      23.053  52.686  34.321  1.00  0.00     0.047 A 
ATOM     10  C   UNL     1      23.274  51.396  33.827  1.00  0.00     0.125 A 
ATOM     11  C   UNL     1      23.208  50.279  34.690  1.00  0.00     0.069 A 
ENDROOT
BRANCH   1  12
ATOM     12  C   UNL     1      21.854  50.951  40.166  1.00  0.00    -0.011 A 
ATOM     13  C   UNL     1      21.440  49.822  40.895  1.00  0.00     0.013 A 
ATOM     14  C   UNL     1      21.117  49.935  42.249  1.00  0.00     0.047 A 
ATOM     15  C   UNL     1      21.209  51.175  42.895  1.00  0.00     0.115 A 
ATOM     16  C   UNL     1      21.951  52.191  40.823  1.00  0.00     0.013 A 
ATOM     17  C   UNL     1      21.628  52.300  42.178  1.00  0.00     0.047 A 
BRANCH  15  18
ATOM     18  O   UNL     1      20.890  51.299  44.245  1.00  0.00    -0.508 OA
ATOM     19  H   UNL     1      21.184  52.105  44.786  1.00  0.00     0.293 HD
ENDBRANCH  15  18
ENDBRANCH   1  12
BRANCH  11  20
ATOM     20  C   UNL     1      23.427  48.880  34.122  1.00  0.00     0.188 C 
ATOM     21  C   UNL     1      23.106  48.853  32.611  1.00  0.00     0.179 C 
ATOM     22  O   UNL     1      22.657  47.925  34.837  1.00  0.00    -0.362 OA
ATOM     23  C   UNL     1      23.324  47.439  32.033  1.00  0.00     0.177 C 
ATOM     24  C   UNL     1      22.918  46.588  34.429  1.00  0.00     0.176 C 
ATOM     25  C   UNL     1      22.667  46.354  32.916  1.00  0.00     0.177 C 
BRANCH  21  26
ATOM     26  O   UNL     1      21.807  49.319  32.332  1.00  0.00    -0.387 OA
ATOM     27  H   UNL     1      21.697  50.206  32.759  1.00  0.00     0.211 HD
ENDBRANCH  21  26
BRANCH  23  28
ATOM     28  O   UNL     1      24.700  47.173  31.920  1.00  0.00    -0.387 OA
ATOM     29  H   UNL     1      24.993  46.786  32.787  1.00  0.00     0.211 HD
ENDBRANCH  23  28
BRANCH  24  30
ATOM     30  C   UNL     1      24.291  46.070  34.914  1.00  0.00     0.191 C 
BRANCH  30  31
ATOM     31  O   UNL     1      24.280  45.870  36.300  1.00  0.00    -0.394 OA
ATOM     32  H   UNL     1      24.085  46.752  36.714  1.00  0.00     0.210 HD
ENDBRANCH  30  31
ENDBRANCH  24  30
BRANCH  25  33
ATOM     33  O   UNL     1      21.280  46.322  32.686  1.00  0.00    -0.388 OA
ATOM     34  H   UNL     1      20.837  46.511  33.554  1.00  0.00     0.211 HD
ENDBRANCH  25  33
ENDBRANCH  11  20
BRANCH  10  35
ATOM     35  O   UNL     1      23.558  51.221  32.471  1.00  0.00    -0.507 OA
ATOM     36  H   UNL     1      24.122  51.886  31.955  1.00  0.00     0.293 HD
ENDBRANCH  10  35
TORSDOF 9
ENDMDL
MODEL 4
REMARK VINA RESULT:    -4.661      1.236      2.125
REMARK INTER + INTRA:          -5.291
REMARK INTER:                  -7.396
REMARK INTRA:                   2.105
REMARK UNBOUND:                 1.005
REMARK SMILES O=c1c(-c2ccc(O)cc2)coc2c([C@H]3O[C@H](CO)[C@@H](O)[C@H](O)[C@H]3O)c(O)ccc12
REMARK SMILES IDX 3 1 11 2 12 3 13 4 30 5 2 6 1 7 29 8 28 9 26 10 14 11 4 12
REMARK SMILES IDX 5 13 6 14 7 15 10 16 9 17 8 18 15 20 24 21 16 22 22 23 17 24
REMARK SMILES IDX 20 25 25 26 23 28 18 30 19 31 21 33 27 35
REMARK H PARENT 8 19 25 27 23 29 19 32 21 34 27 36
REMARK Flexibility Score: inf
ROOT
ATOM      1  C   UNL     1      22.327  49.510  39.517  1.00  0.00     0.065 A 
ATOM      2  C   UNL     1      22.270  49.924  38.180  1.00  0.00     0.208 A 
ATOM      3  O   UNL     1      22.620  49.103  37.197  1.00  0.00    -0.463 OA
ATOM      4  C   UNL     1      23.040  47.857  37.400  1.00  0.00     0.147 A 
ATOM      5  C   UNL     1      23.128  47.358  38.722  1.00  0.00     0.066 A 
ATOM      6  C   UNL     1      22.756  48.198  39.786  1.00  0.00     0.200 A 
ATOM      7  O   UNL     1      22.791  47.772  40.975  1.00  0.00    -0.288 OA
ATOM      8  C   UNL     1      23.580  46.047  38.939  1.00  0.00     0.020 A 
ATOM      9  C   UNL     1      23.956  45.247  37.864  1.00  0.00     0.047 A 
ATOM     10  C   UNL     1      23.879  45.731  36.553  1.00  0.00     0.125 A 
ATOM     11  C   UNL     1      23.399  47.036  36.300  1.00  0.00     0.069 A 
ENDROOT
BRANCH   1  12
ATOM     12  C   UNL     1      21.937  50.447  40.600  1.00  0.00    -0.011 A 
ATOM     13  C   UNL     1      21.238  49.987  41.731  1.00  0.00     0.013 A 
ATOM     14  C   UNL     1      20.882  50.873  42.751  1.00  0.00     0.047 A 
ATOM     15  C   UNL     1      21.224  52.228  42.659  1.00  0.00     0.115 A 
ATOM     16  C   UNL     1      22.283  51.808  40.519  1.00  0.00     0.013 A 
ATOM     17  C   UNL     1      21.926  52.691  41.541  1.00  0.00     0.047 A 
BRANCH  15  18
ATOM     18  O   UNL     1      20.875  53.121  43.670  1.00  0.00    -0.508 OA
ATOM     19  H   UNL     1      20.546  54.056  43.459  1.00  0.00     0.293 HD
ENDBRANCH  15  18
ENDBRANCH   1  12
BRANCH  11  20
ATOM     20  C   UNL     1      23.349  47.550  34.865  1.00  0.00     0.188 C 
ATOM     21  C   UNL     1      24.263  46.700  33.954  1.00  0.00     0.179 C 
ATOM     22  O   UNL     1      23.696  48.926  34.815  1.00  0.00    -0.362 OA
ATOM     23  C   UNL     1      24.217  47.218  32.501  1.00  0.00     0.177 C 
ATOM     24  C   UNL     1      23.545  49.487  33.517  1.00  0.00     0.176 C 
ATOM     25  C   UNL     1      24.383  48.753  32.438  1.00  0.00     0.177 C 
BRANCH  21  26
ATOM     26  O   UNL     1      25.587  46.642  34.429  1.00  0.00    -0.387 OA
ATOM     27  H   UNL     1      25.559  46.533  35.414  1.00  0.00     0.211 HD
ENDBRANCH  21  26
BRANCH  23  28
ATOM     28  O   UNL     1      22.998  46.859  31.902  1.00  0.00    -0.387 OA
ATOM     29  H   UNL     1      23.099  45.927  31.574  1.00  0.00     0.211 HD
ENDBRANCH  23  28
BRANCH  24  30
ATOM     30  C   UNL     1      22.066  49.687  33.118  1.00  0.00     0.191 C 
BRANCH  30  31
ATOM     31  O   UNL     1      21.813  51.034  32.826  1.00  0.00    -0.394 OA
ATOM     32  H   UNL     1      22.558  51.557  33.225  1.00  0.00     0.210 HD
ENDBRANCH  30  31
ENDBRANCH  24  30
BRANCH  25  33
ATOM     33  O   UNL     1      25.737  49.098  32.603  1.00  0.00    -0.388 OA
ATOM     34  H   UNL     1      26.217  48.270  32.870  1.00  0.00     0.211 HD
ENDBRANCH  25  33
ENDBRANCH  11  20
BRANCH  10  35
ATOM     35  O   UNL     1      24.285  44.913  35.497  1.00  0.00    -0.507 OA
ATOM     36  H   UNL     1      23.838  44.956  34.589  1.00  0.00     0.293 HD
ENDBRANCH  10  35
TORSDOF 9
ENDMDL
