MODEL 1
REMARK VINA RESULT:    -2.956      0.000      0.000
REMARK INTER + INTRA:          -3.367
REMARK INTER:                  -3.301
REMARK INTRA:                  -0.066
REMARK UNBOUND:                -0.066
REMARK SMILES CCCC(=O)[O-]
REMARK SMILES IDX 3 1 4 2 5 3 6 4 2 5 1 6
REMARK H PARENT
REMARK Flexibility Score: inf
ROOT
ATOM      1  C   UNL     1      -8.813 -10.905  14.342  1.00  0.00     0.052 C 
ENDROOT
BRANCH   1   2
ATOM      2  C   UNL     1      -7.461 -11.430  14.721  1.00  0.00     0.041 C 
ATOM      3  O   UNL     1      -6.860 -10.969  15.727  1.00  0.00    -0.550 OA
ATOM      4  O   UNL     1      -6.852 -12.406  13.942  1.00  0.00    -0.550 OA
ENDBRANCH   1   2
BRANCH   1   5
ATOM      5  C   UNL     1      -9.894 -11.987  14.461  1.00  0.00     0.003 C 
ATOM      6  C   UNL     1     -10.044 -12.506  15.892  1.00  0.00     0.004 C 
ENDBRANCH   1   5
TORSDOF 2
ENDMDL
MODEL 2
REMARK VINA RESULT:    -2.887      1.206      1.813
REMARK INTER + INTRA:          -3.291
REMARK INTER:                  -3.220
REMARK INTRA:                  -0.071
REMARK UNBOUND:                -0.066
REMARK SMILES CCCC(=O)[O-]
REMARK SMILES IDX 3 1 4 2 5 3 6 4 2 5 1 6
REMARK H PARENT
REMARK Flexibility Score: inf
ROOT
ATOM      1  C   UNL     1      -8.583 -11.162  13.980  1.00  0.00     0.052 C 
ENDROOT
BRANCH   1   2
ATOM      2  C   UNL     1      -7.620 -12.102  13.320  1.00  0.00     0.041 C 
ATOM      3  O   UNL     1      -8.001 -12.840  12.374  1.00  0.00    -0.550 OA
ATOM      4  O   UNL     1      -6.309 -12.184  13.772  1.00  0.00    -0.550 OA
ENDBRANCH   1   2
BRANCH   1   5
ATOM      5  C   UNL     1      -9.782 -11.909  14.580  1.00  0.00     0.003 C 
ATOM      6  C   UNL     1      -9.374 -12.842  15.721  1.00  0.00     0.004 C 
ENDBRANCH   1   5
TORSDOF 2
ENDMDL
MODEL 3
REMARK VINA RESULT:    -2.856      9.403      9.980
REMARK INTER + INTRA:          -3.256
REMARK INTER:                  -3.209
REMARK INTRA:                  -0.047
REMARK UNBOUND:                -0.066
REMARK SMILES CCCC(=O)[O-]
REMARK SMILES IDX 3 1 4 2 5 3 6 4 2 5 1 6
REMARK H PARENT
REMARK Flexibility Score: inf
ROOT
ATOM      1  C   UNL     1      -8.290  -2.217  10.140  1.00  0.00     0.052 C 
ENDROOT
BRANCH   1   2
ATOM      2  C   UNL     1      -8.026  -3.601   9.630  1.00  0.00     0.041 C 
ATOM      3  O   UNL     1      -7.538  -4.476  10.392  1.00  0.00    -0.550 OA
ATOM      4  O   UNL     1      -8.290  -3.915   8.303  1.00  0.00    -0.550 OA
ENDBRANCH   1   2
BRANCH   1   5
ATOM      5  C   UNL     1      -9.323  -2.219  11.275  1.00  0.00     0.003 C 
ATOM      6  C   UNL     1     -10.759  -2.169  10.755  1.00  0.00     0.004 C 
ENDBRANCH   1   5
TORSDOF 2
ENDMDL
MODEL 4
REMARK VINA RESULT:    -2.832      1.785      2.353
REMARK INTER + INTRA:          -3.229
REMARK INTER:                  -3.167
REMARK INTRA:                  -0.062
REMARK UNBOUND:                -0.066
REMARK SMILES CCCC(=O)[O-]
REMARK SMILES IDX 3 1 4 2 5 3 6 4 2 5 1 6
REMARK H PARENT
REMARK Flexibility Score: inf
ROOT
ATOM      1  C   UNL     1      -9.950 -12.465  16.069  1.00  0.00     0.052 C 
ENDROOT
BRANCH   1   2
ATOM      2  C   UNL     1      -9.051 -12.058  14.941  1.00  0.00     0.041 C 
ATOM      3  O   UNL     1      -7.960 -12.657  14.750  1.00  0.00    -0.550 OA
ATOM      4  O   UNL     1      -9.405 -10.994  14.121  1.00  0.00    -0.550 OA
ENDBRANCH   1   2
BRANCH   1   5
ATOM      5  C   UNL     1     -11.264 -13.069  15.556  1.00  0.00     0.003 C 
ATOM      6  C   UNL     1     -11.055 -14.421  14.872  1.00  0.00     0.004 C 
ENDBRANCH   1   5
TORSDOF 2
ENDMDL
MODEL 5
REMARK VINA RESULT:    -2.826      1.537      2.005
REMARK INTER + INTRA:          -3.222
REMARK INTER:                  -3.165
REMARK INTRA:                  -0.058
REMARK UNBOUND:                -0.066
REMARK SMILES CCCC(=O)[O-]
REMARK SMILES IDX 3 1 4 2 5 3 6 4 2 5 1 6
REMARK H PARENT
REMARK Flexibility Score: inf
ROOT
ATOM      1  C   UNL     1      -8.543 -10.809  14.204  1.00  0.00     0.052 C 
ENDROOT
BRANCH   1   2
ATOM      2  C   UNL     1      -7.142 -10.581  14.685  1.00  0.00     0.041 C 
ATOM      3  O   UNL     1      -6.800 -10.948  15.840  1.00  0.00    -0.550 OA
ATOM      4  O   UNL     1      -6.224  -9.933  13.869  1.00  0.00    -0.550 OA
ENDBRANCH   1   2
BRANCH   1   5
ATOM      5  C   UNL     1      -8.786 -12.282  13.846  1.00  0.00     0.003 C 
ATOM      6  C   UNL     1      -7.964 -12.729  12.637  1.00  0.00     0.004 C 
ENDBRANCH   1   5
TORSDOF 2
ENDMDL
MODEL 6
REMARK VINA RESULT:    -2.822      2.135      3.297
REMARK INTER + INTRA:          -3.218
REMARK INTER:                  -3.180
REMARK INTRA:                  -0.039
REMARK UNBOUND:                -0.066
REMARK SMILES CCCC(=O)[O-]
REMARK SMILES IDX 3 1 4 2 5 3 6 4 2 5 1 6
REMARK H PARENT
REMARK Flexibility Score: inf
ROOT
ATOM      1  C   UNL     1      -7.799 -11.780  14.891  1.00  0.00     0.052 C 
ENDROOT
BRANCH   1   2
ATOM      2  C   UNL     1      -9.023 -11.096  14.362  1.00  0.00     0.041 C 
ATOM      3  O   UNL     1     -10.104 -11.730  14.243  1.00  0.00    -0.550 OA
ATOM      4  O   UNL     1      -8.960  -9.764  13.972  1.00  0.00    -0.550 OA
ENDBRANCH   1   2
BRANCH   1   5
ATOM      5  C   UNL     1      -6.857 -12.211  13.758  1.00  0.00     0.003 C 
ATOM      6  C   UNL     1      -5.657 -11.275  13.613  1.00  0.00     0.004 C 
ENDBRANCH   1   5
TORSDOF 2
ENDMDL
MODEL 7
REMARK VINA RESULT:    -2.806      1.403      1.810
REMARK INTER + INTRA:          -3.200
REMARK INTER:                  -3.149
REMARK INTRA:                  -0.052
REMARK UNBOUND:                -0.066
REMARK SMILES CCCC(=O)[O-]
REMARK SMILES IDX 3 1 4 2 5 3 6 4 2 5 1 6
REMARK H PARENT
REMARK Flexibility Score: inf
ROOT
ATOM      1  C   UNL     1      -8.980 -12.325  14.192  1.00  0.00     0.052 C 
ENDROOT
BRANCH   1   2
ATOM      2  C   UNL     1      -8.459 -10.954  14.499  1.00  0.00     0.041 C 
ATOM      3  O   UNL     1      -9.032  -9.936  14.028  1.00  0.00    -0.550 OA
ATOM      4  O   UNL     1      -7.321 -10.802  15.281  1.00  0.00    -0.550 OA
ENDBRANCH   1   2
BRANCH   1   5
ATOM      5  C   UNL     1      -9.349 -13.090  15.469  1.00  0.00     0.003 C 
ATOM      6  C   UNL     1     -10.736 -12.716  15.991  1.00  0.00     0.004 C 
ENDBRANCH   1   5
TORSDOF 2
ENDMDL
MODEL 8
REMARK VINA RESULT:    -2.792      9.582     10.379
REMARK INTER + INTRA:          -3.184
REMARK INTER:                  -3.145
REMARK INTRA:                  -0.039
REMARK UNBOUND:                -0.066
REMARK SMILES CCCC(=O)[O-]
REMARK SMILES IDX 3 1 4 2 5 3 6 4 2 5 1 6
REMARK H PARENT
REMARK Flexibility Score: inf
ROOT
ATOM      1  C   UNL     1      -8.859  -2.463   9.569  1.00  0.00     0.052 C 
ENDROOT
BRANCH   1   2
ATOM      2  C   UNL     1      -9.847  -2.223  10.669  1.00  0.00     0.041 C 
ATOM      3  O   UNL     1      -9.504  -2.361  11.872  1.00  0.00    -0.550 OA
ATOM      4  O   UNL     1     -11.157  -1.877  10.362  1.00  0.00    -0.550 OA
ENDBRANCH   1   2
BRANCH   1   5
ATOM      5  C   UNL     1      -7.576  -3.122  10.093  1.00  0.00     0.003 C 
ATOM      6  C   UNL     1      -7.568  -4.635   9.876  1.00  0.00     0.004 C 
ENDBRANCH   1   5
TORSDOF 2
ENDMDL
MODEL 9
REMARK VINA RESULT:    -2.783      5.207      6.124
REMARK INTER + INTRA:          -3.175
REMARK INTER:                  -3.145
REMARK INTRA:                  -0.029
REMARK UNBOUND:                -0.066
REMARK SMILES CCCC(=O)[O-]
REMARK SMILES IDX 3 1 4 2 5 3 6 4 2 5 1 6
REMARK H PARENT
REMARK Flexibility Score: inf
ROOT
ATOM      1  C   UNL     1     -12.958 -14.219  14.707  1.00  0.00     0.052 C 
ENDROOT
BRANCH   1   2
ATOM      2  C   UNL     1     -13.995 -13.747  13.733  1.00  0.00     0.041 C 
ATOM      3  O   UNL     1     -14.561 -14.565  12.962  1.00  0.00    -0.550 OA
ATOM      4  O   UNL     1     -14.311 -12.396  13.655  1.00  0.00    -0.550 OA
ENDBRANCH   1   2
BRANCH   1   5
ATOM      5  C   UNL     1     -12.656 -13.156  15.772  1.00  0.00     0.003 C 
ATOM      6  C   UNL     1     -11.163 -12.849  15.880  1.00  0.00     0.004 C 
ENDBRANCH   1   5
TORSDOF 2
ENDMDL
