MODEL 1
REMARK VINA RESULT:     1.920      0.000      0.000
REMARK INTER + INTRA:           3.317
REMARK INTER:                   5.062
REMARK INTRA:                  -1.744
REMARK UNBOUND:                -1.744
REMARK SMILES CCCCCCCCCCCCCCCCCCCCCCCCCCCCCC(=O)[O-]
REMARK SMILES IDX 16 1 17 2 18 3 19 4 20 5 21 6 22 7 23 8 24 9 25 10 26 11
REMARK SMILES IDX 27 12 28 13 29 14 30 15 31 16 32 17 15 18 14 19 13 20 12 21
REMARK SMILES IDX 11 22 10 23 9 24 8 25 7 26 6 27 5 28 4 29 3 30 2 31 1 32
REMARK H PARENT
REMARK Flexibility Score: inf
ROOT
ATOM      1  C   UNL     1       2.810  -5.886  -9.666  1.00  0.00     0.000 C 
ENDROOT
BRANCH   1   2
ATOM      2  C   UNL     1       2.537  -4.433 -10.087  1.00  0.00     0.000 C 
BRANCH   2   3
ATOM      3  C   UNL     1       3.833  -3.615 -10.125  1.00  0.00     0.000 C 
BRANCH   3   4
ATOM      4  C   UNL     1       5.027  -4.456  -9.651  1.00  0.00     0.000 C 
BRANCH   4   5
ATOM      5  C   UNL     1       6.369  -3.718  -9.778  1.00  0.00     0.000 C 
BRANCH   5   6
ATOM      6  C   UNL     1       7.547  -4.522  -9.198  1.00  0.00     0.000 C 
BRANCH   6   7
ATOM      7  C   UNL     1       7.507  -4.594  -7.655  1.00  0.00     0.000 C 
BRANCH   7   8
ATOM      8  C   UNL     1       8.109  -5.887  -7.079  1.00  0.00     0.000 C 
BRANCH   8   9
ATOM      9  C   UNL     1       8.843  -6.723  -8.140  1.00  0.00     0.000 C 
BRANCH   9  10
ATOM     10  C   UNL     1       9.979  -7.574  -7.549  1.00  0.00     0.000 C 
BRANCH  10  11
ATOM     11  C   UNL     1      11.281  -6.775  -7.347  1.00  0.00     0.000 C 
BRANCH  11  12
ATOM     12  C   UNL     1      12.087  -7.271  -6.135  1.00  0.00     0.000 C 
BRANCH  12  13
ATOM     13  C   UNL     1      11.607  -6.640  -4.816  1.00  0.00     0.006 C 
BRANCH  13  14
ATOM     14  C   UNL     1      11.047  -5.227  -5.019  1.00  0.00     0.053 C 
BRANCH  14  15
ATOM     15  C   UNL     1      11.556  -4.270  -3.985  1.00  0.00     0.041 C 
ATOM     16  O   UNL     1      11.829  -4.677  -2.824  1.00  0.00    -0.550 OA
ATOM     17  O   UNL     1      11.750  -2.932  -4.308  1.00  0.00    -0.550 OA
ENDBRANCH  14  15
ENDBRANCH  13  14
ENDBRANCH  12  13
ENDBRANCH  11  12
ENDBRANCH  10  11
ENDBRANCH   9  10
ENDBRANCH   8   9
ENDBRANCH   7   8
ENDBRANCH   6   7
ENDBRANCH   5   6
ENDBRANCH   4   5
ENDBRANCH   3   4
ENDBRANCH   2   3
ENDBRANCH   1   2
BRANCH   1  18
ATOM     18  C   UNL     1       1.704  -6.861 -10.110  1.00  0.00     0.000 C 
BRANCH  18  19
ATOM     19  C   UNL     1       0.811  -7.397  -8.975  1.00  0.00     0.000 C 
BRANCH  19  20
ATOM     20  C   UNL     1       0.611  -6.386  -7.838  1.00  0.00     0.000 C 
BRANCH  20  21
ATOM     21  C   UNL     1      -0.582  -6.781  -6.955  1.00  0.00     0.000 C 
BRANCH  21  22
ATOM     22  C   UNL     1      -1.554  -5.606  -6.725  1.00  0.00     0.000 C 
BRANCH  22  23
ATOM     23  C   UNL     1      -2.690  -5.920  -5.733  1.00  0.00     0.000 C 
BRANCH  23  24
ATOM     24  C   UNL     1      -3.981  -6.449  -6.395  1.00  0.00    -0.000 C 
BRANCH  24  25
ATOM     25  C   UNL     1      -5.102  -6.819  -5.403  1.00  0.00    -0.000 C 
BRANCH  25  26
ATOM     26  C   UNL     1      -6.443  -6.080  -5.609  1.00  0.00    -0.000 C 
BRANCH  26  27
ATOM     27  C   UNL     1      -6.441  -4.594  -5.205  1.00  0.00    -0.000 C 
BRANCH  27  28
ATOM     28  C   UNL     1      -7.741  -3.871  -5.598  1.00  0.00    -0.000 C 
BRANCH  28  29
ATOM     29  C   UNL     1      -7.506  -2.403  -6.000  1.00  0.00    -0.000 C 
BRANCH  29  30
ATOM     30  C   UNL     1      -7.587  -2.125  -7.516  1.00  0.00    -0.000 C 
BRANCH  30  31
ATOM     31  C   UNL     1      -7.582  -3.379  -8.408  1.00  0.00    -0.003 C 
ATOM     32  C   UNL     1      -6.178  -3.932  -8.650  1.00  0.00     0.004 C 
ENDBRANCH  30  31
ENDBRANCH  29  30
ENDBRANCH  28  29
ENDBRANCH  27  28
ENDBRANCH  26  27
ENDBRANCH  25  26
ENDBRANCH  24  25
ENDBRANCH  23  24
ENDBRANCH  22  23
ENDBRANCH  21  22
ENDBRANCH  20  21
ENDBRANCH  19  20
ENDBRANCH  18  19
ENDBRANCH   1  18
TORSDOF 28
ENDMDL
MODEL 2
REMARK VINA RESULT:     2.173      1.052      2.756
REMARK INTER + INTRA:           3.985
REMARK INTER:                   5.422
REMARK INTRA:                  -1.437
REMARK UNBOUND:                -1.744
REMARK SMILES CCCCCCCCCCCCCCCCCCCCCCCCCCCCCC(=O)[O-]
REMARK SMILES IDX 16 1 17 2 18 3 19 4 20 5 21 6 22 7 23 8 24 9 25 10 26 11
REMARK SMILES IDX 27 12 28 13 29 14 30 15 31 16 32 17 15 18 14 19 13 20 12 21
REMARK SMILES IDX 11 22 10 23 9 24 8 25 7 26 6 27 5 28 4 29 3 30 2 31 1 32
REMARK H PARENT
REMARK Flexibility Score: inf
ROOT
ATOM      1  C   UNL     1       1.000  -7.288  -8.451  1.00  0.00     0.000 C 
ENDROOT
BRANCH   1   2
ATOM      2  C   UNL     1       1.810  -6.676  -9.604  1.00  0.00     0.000 C 
BRANCH   2   3
ATOM      3  C   UNL     1       2.190  -5.221  -9.303  1.00  0.00     0.000 C 
BRANCH   3   4
ATOM      4  C   UNL     1       3.414  -4.792 -10.125  1.00  0.00     0.000 C 
BRANCH   4   5
ATOM      5  C   UNL     1       3.876  -3.360  -9.812  1.00  0.00     0.000 C 
BRANCH   5   6
ATOM      6  C   UNL     1       5.360  -3.288  -9.412  1.00  0.00     0.000 C 
BRANCH   6   7
ATOM      7  C   UNL     1       6.057  -4.666  -9.486  1.00  0.00     0.000 C 
BRANCH   7   8
ATOM      8  C   UNL     1       7.593  -4.586  -9.444  1.00  0.00     0.000 C 
BRANCH   8   9
ATOM      9  C   UNL     1       8.137  -4.373  -8.023  1.00  0.00     0.000 C 
BRANCH   9  10
ATOM     10  C   UNL     1       8.025  -5.630  -7.145  1.00  0.00     0.000 C 
BRANCH  10  11
ATOM     11  C   UNL     1       8.727  -6.854  -7.764  1.00  0.00     0.000 C 
BRANCH  11  12
ATOM     12  C   UNL     1      10.204  -6.952  -7.346  1.00  0.00     0.000 C 
BRANCH  12  13
ATOM     13  C   UNL     1      10.368  -7.218  -5.839  1.00  0.00     0.006 C 
BRANCH  13  14
ATOM     14  C   UNL     1      11.493  -6.378  -5.221  1.00  0.00     0.053 C 
BRANCH  14  15
ATOM     15  C   UNL     1      10.958  -5.234  -4.415  1.00  0.00     0.041 C 
ATOM     16  O   UNL     1      10.561  -5.420  -3.234  1.00  0.00    -0.550 OA
ATOM     17  O   UNL     1      10.915  -3.956  -4.962  1.00  0.00    -0.550 OA
ENDBRANCH  14  15
ENDBRANCH  13  14
ENDBRANCH  12  13
ENDBRANCH  11  12
ENDBRANCH  10  11
ENDBRANCH   9  10
ENDBRANCH   8   9
ENDBRANCH   7   8
ENDBRANCH   6   7
ENDBRANCH   5   6
ENDBRANCH   4   5
ENDBRANCH   3   4
ENDBRANCH   2   3
ENDBRANCH   1   2
BRANCH   1  18
ATOM     18  C   UNL     1       0.346  -6.228  -7.544  1.00  0.00     0.000 C 
BRANCH  18  19
ATOM     19  C   UNL     1      -0.978  -6.658  -6.886  1.00  0.00     0.000 C 
BRANCH  19  20
ATOM     20  C   UNL     1      -1.763  -5.482  -6.288  1.00  0.00     0.000 C 
BRANCH  20  21
ATOM     21  C   UNL     1      -3.192  -5.905  -5.920  1.00  0.00     0.000 C 
BRANCH  21  22
ATOM     22  C   UNL     1      -3.887  -6.675  -7.060  1.00  0.00     0.000 C 
BRANCH  22  23
ATOM     23  C   UNL     1      -5.414  -6.798  -6.892  1.00  0.00     0.000 C 
BRANCH  23  24
ATOM     24  C   UNL     1      -6.208  -6.665  -8.210  1.00  0.00    -0.000 C 
BRANCH  24  25
ATOM     25  C   UNL     1      -6.721  -5.241  -8.505  1.00  0.00    -0.000 C 
BRANCH  25  26
ATOM     26  C   UNL     1      -5.680  -4.272  -9.108  1.00  0.00    -0.000 C 
BRANCH  26  27
ATOM     27  C   UNL     1      -5.800  -2.808  -8.645  1.00  0.00    -0.000 C 
BRANCH  27  28
ATOM     28  C   UNL     1      -7.251  -2.298  -8.659  1.00  0.00    -0.000 C 
BRANCH  28  29
ATOM     29  C   UNL     1      -8.108  -2.909  -7.535  1.00  0.00    -0.000 C 
BRANCH  29  30
ATOM     30  C   UNL     1      -7.532  -2.735  -6.114  1.00  0.00    -0.000 C 
BRANCH  30  31
ATOM     31  C   UNL     1      -7.634  -3.979  -5.214  1.00  0.00    -0.003 C 
ATOM     32  C   UNL     1      -7.679  -3.636  -3.726  1.00  0.00     0.004 C 
ENDBRANCH  30  31
ENDBRANCH  29  30
ENDBRANCH  28  29
ENDBRANCH  27  28
ENDBRANCH  26  27
ENDBRANCH  25  26
ENDBRANCH  24  25
ENDBRANCH  23  24
ENDBRANCH  22  23
ENDBRANCH  21  22
ENDBRANCH  20  21
ENDBRANCH  19  20
ENDBRANCH  18  19
ENDBRANCH   1  18
TORSDOF 28
ENDMDL
MODEL 3
REMARK VINA RESULT:     2.352      1.098      1.992
REMARK INTER + INTRA:           4.458
REMARK INTER:                   6.140
REMARK INTRA:                  -1.682
REMARK UNBOUND:                -1.744
REMARK SMILES CCCCCCCCCCCCCCCCCCCCCCCCCCCCCC(=O)[O-]
REMARK SMILES IDX 16 1 17 2 18 3 19 4 20 5 21 6 22 7 23 8 24 9 25 10 26 11
REMARK SMILES IDX 27 12 28 13 29 14 30 15 31 16 32 17 15 18 14 19 13 20 12 21
REMARK SMILES IDX 11 22 10 23 9 24 8 25 7 26 6 27 5 28 4 29 3 30 2 31 1 32
REMARK H PARENT
REMARK Flexibility Score: inf
ROOT
ATOM      1  C   UNL     1       1.062  -6.547  -9.394  1.00  0.00     0.000 C 
ENDROOT
BRANCH   1   2
ATOM      2  C   UNL     1       2.503  -6.317  -9.876  1.00  0.00     0.000 C 
BRANCH   2   3
ATOM      3  C   UNL     1       2.781  -4.825 -10.097  1.00  0.00     0.000 C 
BRANCH   3   4
ATOM      4  C   UNL     1       4.291  -4.548 -10.125  1.00  0.00     0.000 C 
BRANCH   4   5
ATOM      5  C   UNL     1       4.740  -3.560  -9.037  1.00  0.00     0.000 C 
BRANCH   5   6
ATOM      6  C   UNL     1       6.270  -3.510  -8.874  1.00  0.00     0.000 C 
BRANCH   6   7
ATOM      7  C   UNL     1       7.007  -4.275  -9.997  1.00  0.00     0.000 C 
BRANCH   7   8
ATOM      8  C   UNL     1       8.297  -4.970  -9.529  1.00  0.00     0.000 C 
BRANCH   8   9
ATOM      9  C   UNL     1       8.034  -6.068  -8.486  1.00  0.00     0.000 C 
BRANCH   9  10
ATOM     10  C   UNL     1       8.980  -7.271  -8.633  1.00  0.00     0.000 C 
BRANCH  10  11
ATOM     11  C   UNL     1      10.439  -6.854  -8.894  1.00  0.00     0.000 C 
BRANCH  11  12
ATOM     12  C   UNL     1      11.368  -7.216  -7.722  1.00  0.00     0.000 C 
BRANCH  12  13
ATOM     13  C   UNL     1      10.605  -7.347  -6.392  1.00  0.00     0.006 C 
BRANCH  13  14
ATOM     14  C   UNL     1      11.231  -6.500  -5.278  1.00  0.00     0.053 C 
BRANCH  14  15
ATOM     15  C   UNL     1      11.008  -5.035  -5.496  1.00  0.00     0.041 C 
ATOM     16  O   UNL     1      10.149  -4.641  -6.330  1.00  0.00    -0.550 OA
ATOM     17  O   UNL     1      11.735  -4.102  -4.766  1.00  0.00    -0.550 OA
ENDBRANCH  14  15
ENDBRANCH  13  14
ENDBRANCH  12  13
ENDBRANCH  11  12
ENDBRANCH  10  11
ENDBRANCH   9  10
ENDBRANCH   8   9
ENDBRANCH   7   8
ENDBRANCH   6   7
ENDBRANCH   5   6
ENDBRANCH   4   5
ENDBRANCH   3   4
ENDBRANCH   2   3
ENDBRANCH   1   2
BRANCH   1  18
ATOM     18  C   UNL     1       0.901  -6.379  -7.872  1.00  0.00     0.000 C 
BRANCH  18  19
ATOM     19  C   UNL     1      -0.466  -6.810  -7.307  1.00  0.00     0.000 C 
BRANCH  19  20
ATOM     20  C   UNL     1      -1.286  -5.636  -6.755  1.00  0.00     0.000 C 
BRANCH  20  21
ATOM     21  C   UNL     1      -2.425  -6.137  -5.855  1.00  0.00     0.000 C 
BRANCH  21  22
ATOM     22  C   UNL     1      -3.816  -5.832  -6.447  1.00  0.00     0.000 C 
BRANCH  22  23
ATOM     23  C   UNL     1      -4.828  -6.983  -6.290  1.00  0.00     0.000 C 
BRANCH  23  24
ATOM     24  C   UNL     1      -6.183  -6.734  -6.990  1.00  0.00    -0.000 C 
BRANCH  24  25
ATOM     25  C   UNL     1      -7.328  -6.331  -6.037  1.00  0.00    -0.000 C 
BRANCH  25  26
ATOM     26  C   UNL     1      -7.071  -5.067  -5.188  1.00  0.00    -0.000 C 
BRANCH  26  27
ATOM     27  C   UNL     1      -8.113  -3.945  -5.350  1.00  0.00    -0.000 C 
BRANCH  27  28
ATOM     28  C   UNL     1      -7.563  -2.728  -6.113  1.00  0.00    -0.000 C 
BRANCH  28  29
ATOM     29  C   UNL     1      -7.953  -2.734  -7.602  1.00  0.00    -0.000 C 
BRANCH  29  30
ATOM     30  C   UNL     1      -6.869  -2.193  -8.558  1.00  0.00    -0.000 C 
BRANCH  30  31
ATOM     31  C   UNL     1      -5.997  -3.271  -9.228  1.00  0.00    -0.003 C 
ATOM     32  C   UNL     1      -4.907  -2.683 -10.123  1.00  0.00     0.004 C 
ENDBRANCH  30  31
ENDBRANCH  29  30
ENDBRANCH  28  29
ENDBRANCH  27  28
ENDBRANCH  26  27
ENDBRANCH  25  26
ENDBRANCH  24  25
ENDBRANCH  23  24
ENDBRANCH  22  23
ENDBRANCH  21  22
ENDBRANCH  20  21
ENDBRANCH  19  20
ENDBRANCH  18  19
ENDBRANCH   1  18
TORSDOF 28
ENDMDL
MODEL 4
REMARK VINA RESULT:     3.358      1.908      4.881
REMARK INTER + INTRA:           7.111
REMARK INTER:                   8.113
REMARK INTRA:                  -1.003
REMARK UNBOUND:                -1.744
REMARK SMILES CCCCCCCCCCCCCCCCCCCCCCCCCCCCCC(=O)[O-]
REMARK SMILES IDX 16 1 17 2 18 3 19 4 20 5 21 6 22 7 23 8 24 9 25 10 26 11
REMARK SMILES IDX 27 12 28 13 29 14 30 15 31 16 32 17 15 18 14 19 13 20 12 21
REMARK SMILES IDX 11 22 10 23 9 24 8 25 7 26 6 27 5 28 4 29 3 30 2 31 1 32
REMARK H PARENT
REMARK Flexibility Score: inf
ROOT
ATOM      1  C   UNL     1      -1.736  -5.923  -6.461  1.00  0.00     0.000 C 
ENDROOT
BRANCH   1   2
ATOM      2  C   UNL     1      -0.665  -6.925  -6.916  1.00  0.00     0.000 C 
BRANCH   2   3
ATOM      3  C   UNL     1       0.216  -6.330  -8.021  1.00  0.00     0.000 C 
BRANCH   3   4
ATOM      4  C   UNL     1       0.727  -7.428  -8.967  1.00  0.00     0.000 C 
BRANCH   4   5
ATOM      5  C   UNL     1       1.632  -6.885 -10.083  1.00  0.00     0.000 C 
BRANCH   5   6
ATOM      6  C   UNL     1       2.834  -6.090  -9.540  1.00  0.00     0.000 C 
BRANCH   6   7
ATOM      7  C   UNL     1       2.766  -4.592  -9.914  1.00  0.00     0.000 C 
BRANCH   7   8
ATOM      8  C   UNL     1       4.145  -3.943 -10.124  1.00  0.00     0.000 C 
BRANCH   8   9
ATOM      9  C   UNL     1       5.120  -4.236  -8.973  1.00  0.00     0.000 C 
BRANCH   9  10
ATOM     10  C   UNL     1       6.536  -3.697  -9.236  1.00  0.00     0.000 C 
BRANCH  10  11
ATOM     11  C   UNL     1       7.438  -4.714  -9.960  1.00  0.00     0.000 C 
BRANCH  11  12
ATOM     12  C   UNL     1       8.933  -4.422  -9.748  1.00  0.00     0.000 C 
BRANCH  12  13
ATOM     13  C   UNL     1       9.747  -5.702  -9.488  1.00  0.00     0.006 C 
BRANCH  13  14
ATOM     14  C   UNL     1       9.085  -6.609  -8.444  1.00  0.00     0.053 C 
BRANCH  14  15
ATOM     15  C   UNL     1       9.025  -5.958  -7.095  1.00  0.00     0.041 C 
ATOM     16  O   UNL     1       9.791  -4.996  -6.821  1.00  0.00    -0.550 OA
ATOM     17  O   UNL     1       8.111  -6.401  -6.147  1.00  0.00    -0.550 OA
ENDBRANCH  14  15
ENDBRANCH  13  14
ENDBRANCH  12  13
ENDBRANCH  11  12
ENDBRANCH  10  11
ENDBRANCH   9  10
ENDBRANCH   8   9
ENDBRANCH   7   8
ENDBRANCH   6   7
ENDBRANCH   5   6
ENDBRANCH   4   5
ENDBRANCH   3   4
ENDBRANCH   2   3
ENDBRANCH   1   2
BRANCH   1  18
ATOM     18  C   UNL     1      -3.120  -6.569  -6.259  1.00  0.00     0.000 C 
BRANCH  18  19
ATOM     19  C   UNL     1      -3.733  -6.379  -4.859  1.00  0.00     0.000 C 
BRANCH  19  20
ATOM     20  C   UNL     1      -5.012  -7.200  -4.646  1.00  0.00     0.000 C 
BRANCH  20  21
ATOM     21  C   UNL     1      -6.253  -6.406  -5.080  1.00  0.00     0.000 C 
BRANCH  21  22
ATOM     22  C   UNL     1      -6.093  -5.790  -6.484  1.00  0.00     0.000 C 
BRANCH  22  23
ATOM     23  C   UNL     1      -6.715  -6.633  -7.613  1.00  0.00     0.000 C 
BRANCH  23  24
ATOM     24  C   UNL     1      -6.216  -6.265  -9.027  1.00  0.00    -0.000 C 
BRANCH  24  25
ATOM     25  C   UNL     1      -5.377  -4.972  -9.091  1.00  0.00    -0.000 C 
BRANCH  25  26
ATOM     26  C   UNL     1      -5.946  -3.857  -9.996  1.00  0.00    -0.000 C 
BRANCH  26  27
ATOM     27  C   UNL     1      -6.061  -2.471  -9.336  1.00  0.00    -0.000 C 
BRANCH  27  28
ATOM     28  C   UNL     1      -7.469  -1.867  -9.464  1.00  0.00    -0.000 C 
BRANCH  28  29
ATOM     29  C   UNL     1      -8.124  -1.589  -8.099  1.00  0.00    -0.000 C 
BRANCH  29  30
ATOM     30  C   UNL     1      -7.197  -1.790  -6.882  1.00  0.00    -0.000 C 
BRANCH  30  31
ATOM     31  C   UNL     1      -7.286  -3.177  -6.220  1.00  0.00    -0.003 C 
ATOM     32  C   UNL     1      -7.834  -3.123  -4.795  1.00  0.00     0.004 C 
ENDBRANCH  30  31
ENDBRANCH  29  30
ENDBRANCH  28  29
ENDBRANCH  27  28
ENDBRANCH  26  27
ENDBRANCH  25  26
ENDBRANCH  24  25
ENDBRANCH  23  24
ENDBRANCH  22  23
ENDBRANCH  21  22
ENDBRANCH  20  21
ENDBRANCH  19  20
ENDBRANCH  18  19
ENDBRANCH   1  18
TORSDOF 28
ENDMDL
MODEL 5
REMARK VINA RESULT:     3.520      4.979     14.436
REMARK INTER + INTRA:           7.538
REMARK INTER:                   9.169
REMARK INTRA:                  -1.631
REMARK UNBOUND:                -1.744
REMARK SMILES CCCCCCCCCCCCCCCCCCCCCCCCCCCCCC(=O)[O-]
REMARK SMILES IDX 16 1 17 2 18 3 19 4 20 5 21 6 22 7 23 8 24 9 25 10 26 11
REMARK SMILES IDX 27 12 28 13 29 14 30 15 31 16 32 17 15 18 14 19 13 20 12 21
REMARK SMILES IDX 11 22 10 23 9 24 8 25 7 26 6 27 5 28 4 29 3 30 2 31 1 32
REMARK H PARENT
REMARK Flexibility Score: inf
ROOT
ATOM      1  C   UNL     1       4.952  -4.695  -9.070  1.00  0.00     0.000 C 
ENDROOT
BRANCH   1   2
ATOM      2  C   UNL     1       3.547  -4.292  -9.542  1.00  0.00     0.000 C 
BRANCH   2   3
ATOM      3  C   UNL     1       2.792  -5.493 -10.124  1.00  0.00     0.000 C 
BRANCH   3   4
ATOM      4  C   UNL     1       1.397  -5.623  -9.494  1.00  0.00     0.000 C 
BRANCH   4   5
ATOM      5  C   UNL     1       1.295  -6.787  -8.496  1.00  0.00     0.000 C 
BRANCH   5   6
ATOM      6  C   UNL     1       0.536  -6.404  -7.213  1.00  0.00     0.000 C 
BRANCH   6   7
ATOM      7  C   UNL     1      -0.924  -6.912  -7.219  1.00  0.00     0.000 C 
BRANCH   7   8
ATOM      8  C   UNL     1      -1.912  -5.969  -6.511  1.00  0.00     0.000 C 
BRANCH   8   9
ATOM      9  C   UNL     1      -3.300  -6.600  -6.320  1.00  0.00     0.000 C 
BRANCH   9  10
ATOM     10  C   UNL     1      -4.350  -5.594  -5.823  1.00  0.00     0.000 C 
BRANCH  10  11
ATOM     11  C   UNL     1      -5.773  -5.924  -6.312  1.00  0.00     0.000 C 
BRANCH  11  12
ATOM     12  C   UNL     1      -6.035  -5.406  -7.736  1.00  0.00     0.000 C 
BRANCH  12  13
ATOM     13  C   UNL     1      -7.439  -4.795  -7.886  1.00  0.00     0.006 C 
BRANCH  13  14
ATOM     14  C   UNL     1      -7.412  -3.262  -7.854  1.00  0.00     0.053 C 
BRANCH  14  15
ATOM     15  C   UNL     1      -7.509  -2.731  -6.456  1.00  0.00     0.041 C 
ATOM     16  O   UNL     1      -7.731  -1.507  -6.257  1.00  0.00    -0.550 OA
ATOM     17  O   UNL     1      -7.375  -3.591  -5.372  1.00  0.00    -0.550 OA
ENDBRANCH  14  15
ENDBRANCH  13  14
ENDBRANCH  12  13
ENDBRANCH  11  12
ENDBRANCH  10  11
ENDBRANCH   9  10
ENDBRANCH   8   9
ENDBRANCH   7   8
ENDBRANCH   6   7
ENDBRANCH   5   6
ENDBRANCH   4   5
ENDBRANCH   3   4
ENDBRANCH   2   3
ENDBRANCH   1   2
BRANCH   1  18
ATOM     18  C   UNL     1       5.720  -3.539  -8.402  1.00  0.00     0.000 C 
BRANCH  18  19
ATOM     19  C   UNL     1       7.242  -3.541  -8.637  1.00  0.00     0.000 C 
BRANCH  19  20
ATOM     20  C   UNL     1       7.641  -4.148  -9.989  1.00  0.00     0.000 C 
BRANCH  20  21
ATOM     21  C   UNL     1       8.577  -5.350  -9.798  1.00  0.00     0.000 C 
BRANCH  21  22
ATOM     22  C   UNL     1       8.449  -5.975  -8.394  1.00  0.00     0.000 C 
BRANCH  22  23
ATOM     23  C   UNL     1       8.940  -7.433  -8.311  1.00  0.00     0.000 C 
BRANCH  23  24
ATOM     24  C   UNL     1       9.922  -7.835  -9.433  1.00  0.00    -0.000 C 
BRANCH  24  25
ATOM     25  C   UNL     1      11.404  -7.542  -9.120  1.00  0.00    -0.000 C 
BRANCH  25  26
ATOM     26  C   UNL     1      11.792  -6.047  -9.088  1.00  0.00    -0.000 C 
BRANCH  26  27
ATOM     27  C   UNL     1      12.056  -5.467  -7.686  1.00  0.00    -0.000 C 
BRANCH  27  28
ATOM     28  C   UNL     1      12.042  -6.542  -6.587  1.00  0.00    -0.000 C 
BRANCH  28  29
ATOM     29  C   UNL     1      10.943  -6.304  -5.535  1.00  0.00    -0.000 C 
BRANCH  29  30
ATOM     30  C   UNL     1      10.819  -4.846  -5.045  1.00  0.00    -0.000 C 
BRANCH  30  31
ATOM     31  C   UNL     1      11.686  -4.496  -3.823  1.00  0.00    -0.003 C 
ATOM     32  C   UNL     1      11.060  -4.941  -2.501  1.00  0.00     0.004 C 
ENDBRANCH  30  31
ENDBRANCH  29  30
ENDBRANCH  28  29
ENDBRANCH  27  28
ENDBRANCH  26  27
ENDBRANCH  25  26
ENDBRANCH  24  25
ENDBRANCH  23  24
ENDBRANCH  22  23
ENDBRANCH  21  22
ENDBRANCH  20  21
ENDBRANCH  19  20
ENDBRANCH  18  19
ENDBRANCH   1  18
TORSDOF 28
ENDMDL
MODEL 6
REMARK VINA RESULT:     3.609      4.874     14.017
REMARK INTER + INTRA:           7.771
REMARK INTER:                   7.734
REMARK INTRA:                   0.037
REMARK UNBOUND:                -1.744
REMARK SMILES CCCCCCCCCCCCCCCCCCCCCCCCCCCCCC(=O)[O-]
REMARK SMILES IDX 16 1 17 2 18 3 19 4 20 5 21 6 22 7 23 8 24 9 25 10 26 11
REMARK SMILES IDX 27 12 28 13 29 14 30 15 31 16 32 17 15 18 14 19 13 20 12 21
REMARK SMILES IDX 11 22 10 23 9 24 8 25 7 26 6 27 5 28 4 29 3 30 2 31 1 32
REMARK H PARENT
REMARK Flexibility Score: inf
ROOT
ATOM      1  C   UNL     1       5.283  -2.677 -10.097  1.00  0.00     0.000 C 
ENDROOT
BRANCH   1   2
ATOM      2  C   UNL     1       4.038  -2.280  -9.289  1.00  0.00     0.000 C 
BRANCH   2   3
ATOM      3  C   UNL     1       3.206  -3.512  -8.913  1.00  0.00     0.000 C 
BRANCH   3   4
ATOM      4  C   UNL     1       3.270  -4.576 -10.019  1.00  0.00     0.000 C 
BRANCH   4   5
ATOM      5  C   UNL     1       2.011  -5.455 -10.079  1.00  0.00     0.000 C 
BRANCH   5   6
ATOM      6  C   UNL     1       2.155  -6.754  -9.265  1.00  0.00     0.000 C 
BRANCH   6   7
ATOM      7  C   UNL     1       0.799  -7.265  -8.727  1.00  0.00     0.000 C 
BRANCH   7   8
ATOM      8  C   UNL     1       0.197  -6.379  -7.623  1.00  0.00     0.000 C 
BRANCH   8   9
ATOM      9  C   UNL     1      -1.107  -6.954  -7.047  1.00  0.00     0.000 C 
BRANCH   9  10
ATOM     10  C   UNL     1      -1.942  -5.904  -6.296  1.00  0.00     0.000 C 
BRANCH  10  11
ATOM     11  C   UNL     1      -3.264  -6.473  -5.748  1.00  0.00     0.000 C 
BRANCH  11  12
ATOM     12  C   UNL     1      -4.493  -5.882  -6.460  1.00  0.00     0.000 C 
BRANCH  12  13
ATOM     13  C   UNL     1      -5.812  -6.481  -5.943  1.00  0.00     0.006 C 
BRANCH  13  14
ATOM     14  C   UNL     1      -7.041  -5.768  -6.522  1.00  0.00     0.053 C 
BRANCH  14  15
ATOM     15  C   UNL     1      -6.932  -4.279  -6.399  1.00  0.00     0.041 C 
ATOM     16  O   UNL     1      -6.750  -3.569  -7.423  1.00  0.00    -0.550 OA
ATOM     17  O   UNL     1      -7.052  -3.672  -5.154  1.00  0.00    -0.550 OA
ENDBRANCH  14  15
ENDBRANCH  13  14
ENDBRANCH  12  13
ENDBRANCH  11  12
ENDBRANCH  10  11
ENDBRANCH   9  10
ENDBRANCH   8   9
ENDBRANCH   7   8
ENDBRANCH   6   7
ENDBRANCH   5   6
ENDBRANCH   4   5
ENDBRANCH   3   4
ENDBRANCH   2   3
ENDBRANCH   1   2
BRANCH   1  18
ATOM     18  C   UNL     1       5.933  -3.983  -9.602  1.00  0.00     0.000 C 
BRANCH  18  19
ATOM     19  C   UNL     1       7.457  -3.916  -9.393  1.00  0.00     0.000 C 
BRANCH  19  20
ATOM     20  C   UNL     1       7.887  -4.303  -7.971  1.00  0.00     0.000 C 
BRANCH  20  21
ATOM     21  C   UNL     1       8.349  -5.767  -7.916  1.00  0.00     0.000 C 
BRANCH  21  22
ATOM     22  C   UNL     1       9.586  -6.025  -8.799  1.00  0.00     0.000 C 
BRANCH  22  23
ATOM     23  C   UNL     1       9.644  -7.445  -9.395  1.00  0.00     0.000 C 
BRANCH  23  24
ATOM     24  C   UNL     1      11.057  -8.066  -9.412  1.00  0.00    -0.000 C 
BRANCH  24  25
ATOM     25  C   UNL     1      11.893  -7.785  -8.146  1.00  0.00    -0.000 C 
BRANCH  25  26
ATOM     26  C   UNL     1      11.164  -8.018  -6.804  1.00  0.00    -0.000 C 
BRANCH  26  27
ATOM     27  C   UNL     1      12.051  -7.920  -5.550  1.00  0.00    -0.000 C 
BRANCH  27  28
ATOM     28  C   UNL     1      11.261  -8.123  -4.246  1.00  0.00    -0.000 C 
BRANCH  28  29
ATOM     29  C   UNL     1      11.958  -7.497  -3.024  1.00  0.00    -0.000 C 
BRANCH  29  30
ATOM     30  C   UNL     1      12.037  -5.956  -3.042  1.00  0.00    -0.000 C 
BRANCH  30  31
ATOM     31  C   UNL     1      12.063  -5.322  -4.444  1.00  0.00    -0.003 C 
ATOM     32  C   UNL     1      10.741  -4.653  -4.820  1.00  0.00     0.004 C 
ENDBRANCH  30  31
ENDBRANCH  29  30
ENDBRANCH  28  29
ENDBRANCH  27  28
ENDBRANCH  26  27
ENDBRANCH  25  26
ENDBRANCH  24  25
ENDBRANCH  23  24
ENDBRANCH  22  23
ENDBRANCH  21  22
ENDBRANCH  20  21
ENDBRANCH  19  20
ENDBRANCH  18  19
ENDBRANCH   1  18
TORSDOF 28
ENDMDL
MODEL 7
REMARK VINA RESULT:     3.681      1.252      4.036
REMARK INTER + INTRA:           7.963
REMARK INTER:                   9.745
REMARK INTRA:                  -1.782
REMARK UNBOUND:                -1.744
REMARK SMILES CCCCCCCCCCCCCCCCCCCCCCCCCCCCCC(=O)[O-]
REMARK SMILES IDX 16 1 17 2 18 3 19 4 20 5 21 6 22 7 23 8 24 9 25 10 26 11
REMARK SMILES IDX 27 12 28 13 29 14 30 15 31 16 32 17 15 18 14 19 13 20 12 21
REMARK SMILES IDX 11 22 10 23 9 24 8 25 7 26 6 27 5 28 4 29 3 30 2 31 1 32
REMARK H PARENT
REMARK Flexibility Score: inf
ROOT
ATOM      1  C   UNL     1      -1.137  -6.825  -7.246  1.00  0.00     0.000 C 
ENDROOT
BRANCH   1   2
ATOM      2  C   UNL     1       0.120  -6.114  -7.769  1.00  0.00     0.000 C 
BRANCH   2   3
ATOM      3  C   UNL     1       0.995  -7.068  -8.590  1.00  0.00     0.000 C 
BRANCH   3   4
ATOM      4  C   UNL     1       1.808  -6.299  -9.642  1.00  0.00     0.000 C 
BRANCH   4   5
ATOM      5  C   UNL     1       2.289  -4.927  -9.143  1.00  0.00     0.000 C 
BRANCH   5   6
ATOM      6  C   UNL     1       3.321  -4.281 -10.085  1.00  0.00     0.000 C 
BRANCH   6   7
ATOM      7  C   UNL     1       4.737  -4.871  -9.900  1.00  0.00     0.000 C 
BRANCH   7   8
ATOM      8  C   UNL     1       5.605  -4.096  -8.894  1.00  0.00     0.000 C 
BRANCH   8   9
ATOM      9  C   UNL     1       6.961  -3.673  -9.483  1.00  0.00     0.000 C 
BRANCH   9  10
ATOM     10  C   UNL     1       7.740  -4.850 -10.091  1.00  0.00     0.000 C 
BRANCH  10  11
ATOM     11  C   UNL     1       8.899  -5.325  -9.195  1.00  0.00     0.000 C 
BRANCH  11  12
ATOM     12  C   UNL     1       8.403  -6.104  -7.965  1.00  0.00     0.000 C 
BRANCH  12  13
ATOM     13  C   UNL     1       8.861  -5.462  -6.644  1.00  0.00     0.006 C 
BRANCH  13  14
ATOM     14  C   UNL     1      10.297  -5.855  -6.274  1.00  0.00     0.053 C 
BRANCH  14  15
ATOM     15  C   UNL     1      10.808  -5.071  -5.104  1.00  0.00     0.041 C 
ATOM     16  O   UNL     1      11.498  -4.033  -5.289  1.00  0.00    -0.550 OA
ATOM     17  O   UNL     1      10.505  -5.473  -3.809  1.00  0.00    -0.550 OA
ENDBRANCH  14  15
ENDBRANCH  13  14
ENDBRANCH  12  13
ENDBRANCH  11  12
ENDBRANCH  10  11
ENDBRANCH   9  10
ENDBRANCH   8   9
ENDBRANCH   7   8
ENDBRANCH   6   7
ENDBRANCH   5   6
ENDBRANCH   4   5
ENDBRANCH   3   4
ENDBRANCH   2   3
ENDBRANCH   1   2
BRANCH   1  18
ATOM     18  C   UNL     1      -2.061  -5.898  -6.434  1.00  0.00     0.000 C 
BRANCH  18  19
ATOM     19  C   UNL     1      -3.211  -6.606  -5.693  1.00  0.00     0.000 C 
BRANCH  19  20
ATOM     20  C   UNL     1      -4.277  -7.175  -6.640  1.00  0.00     0.000 C 
BRANCH  20  21
ATOM     21  C   UNL     1      -4.866  -6.072  -7.531  1.00  0.00     0.000 C 
BRANCH  21  22
ATOM     22  C   UNL     1      -5.638  -6.642  -8.737  1.00  0.00     0.000 C 
BRANCH  22  23
ATOM     23  C   UNL     1      -7.109  -6.192  -8.809  1.00  0.00     0.000 C 
BRANCH  23  24
ATOM     24  C   UNL     1      -7.411  -5.194  -9.948  1.00  0.00    -0.000 C 
BRANCH  24  25
ATOM     25  C   UNL     1      -7.103  -3.722  -9.605  1.00  0.00    -0.000 C 
BRANCH  25  26
ATOM     26  C   UNL     1      -7.872  -3.148  -8.394  1.00  0.00    -0.000 C 
BRANCH  26  27
ATOM     27  C   UNL     1      -7.515  -1.699  -8.016  1.00  0.00    -0.000 C 
BRANCH  27  28
ATOM     28  C   UNL     1      -7.538  -1.458  -6.497  1.00  0.00    -0.000 C 
BRANCH  28  29
ATOM     29  C   UNL     1      -8.125  -2.646  -5.715  1.00  0.00    -0.000 C 
BRANCH  29  30
ATOM     30  C   UNL     1      -7.086  -3.505  -4.964  1.00  0.00    -0.000 C 
BRANCH  30  31
ATOM     31  C   UNL     1      -7.511  -4.961  -4.705  1.00  0.00    -0.003 C 
ATOM     32  C   UNL     1      -8.009  -5.670  -5.965  1.00  0.00     0.004 C 
ENDBRANCH  30  31
ENDBRANCH  29  30
ENDBRANCH  28  29
ENDBRANCH  27  28
ENDBRANCH  26  27
ENDBRANCH  25  26
ENDBRANCH  24  25
ENDBRANCH  23  24
ENDBRANCH  22  23
ENDBRANCH  21  22
ENDBRANCH  20  21
ENDBRANCH  19  20
ENDBRANCH  18  19
ENDBRANCH   1  18
TORSDOF 28
ENDMDL
MODEL 8
REMARK VINA RESULT:     3.842      4.837     14.182
REMARK INTER + INTRA:           8.386
REMARK INTER:                   8.836
REMARK INTRA:                  -0.450
REMARK UNBOUND:                -1.744
REMARK SMILES CCCCCCCCCCCCCCCCCCCCCCCCCCCCCC(=O)[O-]
REMARK SMILES IDX 16 1 17 2 18 3 19 4 20 5 21 6 22 7 23 8 24 9 25 10 26 11
REMARK SMILES IDX 27 12 28 13 29 14 30 15 31 16 32 17 15 18 14 19 13 20 12 21
REMARK SMILES IDX 11 22 10 23 9 24 8 25 7 26 6 27 5 28 4 29 3 30 2 31 1 32
REMARK H PARENT
REMARK Flexibility Score: inf
ROOT
ATOM      1  C   UNL     1      -1.046  -5.942  -7.073  1.00  0.00     0.000 C 
ENDROOT
BRANCH   1   2
ATOM      2  C   UNL     1      -1.595  -6.210  -5.664  1.00  0.00     0.000 C 
BRANCH   2   3
ATOM      3  C   UNL     1      -3.010  -6.800  -5.724  1.00  0.00     0.000 C 
BRANCH   3   4
ATOM      4  C   UNL     1      -3.741  -6.342  -6.994  1.00  0.00     0.000 C 
BRANCH   4   5
ATOM      5  C   UNL     1      -5.179  -6.877  -7.084  1.00  0.00     0.000 C 
BRANCH   5   6
ATOM      6  C   UNL     1      -5.610  -7.182  -8.531  1.00  0.00     0.000 C 
BRANCH   6   7
ATOM      7  C   UNL     1      -7.081  -6.792  -8.801  1.00  0.00     0.000 C 
BRANCH   7   8
ATOM      8  C   UNL     1      -7.271  -5.314  -9.182  1.00  0.00     0.000 C 
BRANCH   8   9
ATOM      9  C   UNL     1      -5.937  -4.575  -9.373  1.00  0.00     0.000 C 
BRANCH   9  10
ATOM     10  C   UNL     1      -5.896  -3.220  -8.649  1.00  0.00     0.000 C 
BRANCH  10  11
ATOM     11  C   UNL     1      -7.058  -2.292  -9.050  1.00  0.00     0.000 C 
BRANCH  11  12
ATOM     12  C   UNL     1      -8.053  -2.072  -7.898  1.00  0.00     0.000 C 
BRANCH  12  13
ATOM     13  C   UNL     1      -7.490  -2.539  -6.544  1.00  0.00     0.006 C 
BRANCH  13  14
ATOM     14  C   UNL     1      -7.628  -4.054  -6.349  1.00  0.00     0.053 C 
BRANCH  14  15
ATOM     15  C   UNL     1      -7.113  -4.495  -5.013  1.00  0.00     0.041 C 
ATOM     16  O   UNL     1      -5.934  -4.922  -4.897  1.00  0.00    -0.550 OA
ATOM     17  O   UNL     1      -7.929  -4.415  -3.890  1.00  0.00    -0.550 OA
ENDBRANCH  14  15
ENDBRANCH  13  14
ENDBRANCH  12  13
ENDBRANCH  11  12
ENDBRANCH  10  11
ENDBRANCH   9  10
ENDBRANCH   8   9
ENDBRANCH   7   8
ENDBRANCH   6   7
ENDBRANCH   5   6
ENDBRANCH   4   5
ENDBRANCH   3   4
ENDBRANCH   2   3
ENDBRANCH   1   2
BRANCH   1  18
ATOM     18  C   UNL     1       0.306  -6.631  -7.335  1.00  0.00     0.000 C 
BRANCH  18  19
ATOM     19  C   UNL     1       0.444  -7.298  -8.717  1.00  0.00     0.000 C 
BRANCH  19  20
ATOM     20  C   UNL     1       1.728  -6.896  -9.454  1.00  0.00     0.000 C 
BRANCH  20  21
ATOM     21  C   UNL     1       2.259  -5.550  -8.940  1.00  0.00     0.000 C 
BRANCH  21  22
ATOM     22  C   UNL     1       2.778  -4.651 -10.080  1.00  0.00     0.000 C 
BRANCH  22  23
ATOM     23  C   UNL     1       4.312  -4.520 -10.125  1.00  0.00     0.000 C 
BRANCH  23  24
ATOM     24  C   UNL     1       4.845  -3.159  -9.625  1.00  0.00    -0.000 C 
BRANCH  24  25
ATOM     25  C   UNL     1       6.286  -2.836 -10.071  1.00  0.00    -0.000 C 
BRANCH  25  26
ATOM     26  C   UNL     1       7.308  -3.982  -9.898  1.00  0.00    -0.000 C 
BRANCH  26  27
ATOM     27  C   UNL     1       7.087  -4.876  -8.664  1.00  0.00    -0.000 C 
BRANCH  27  28
ATOM     28  C   UNL     1       8.253  -4.805  -7.663  1.00  0.00    -0.000 C 
BRANCH  28  29
ATOM     29  C   UNL     1       8.698  -6.194  -7.169  1.00  0.00    -0.000 C 
BRANCH  29  30
ATOM     30  C   UNL     1      10.096  -6.233  -6.518  1.00  0.00    -0.000 C 
BRANCH  30  31
ATOM     31  C   UNL     1      10.324  -5.196  -5.404  1.00  0.00    -0.003 C 
ATOM     32  C   UNL     1      11.294  -5.681  -4.327  1.00  0.00     0.004 C 
ENDBRANCH  30  31
ENDBRANCH  29  30
ENDBRANCH  28  29
ENDBRANCH  27  28
ENDBRANCH  26  27
ENDBRANCH  25  26
ENDBRANCH  24  25
ENDBRANCH  23  24
ENDBRANCH  22  23
ENDBRANCH  21  22
ENDBRANCH  20  21
ENDBRANCH  19  20
ENDBRANCH  18  19
ENDBRANCH   1  18
TORSDOF 28
ENDMDL
MODEL 9
REMARK VINA RESULT:     4.344      1.959      3.374
REMARK INTER + INTRA:           9.711
REMARK INTER:                  10.452
REMARK INTRA:                  -0.741
REMARK UNBOUND:                -1.744
REMARK SMILES CCCCCCCCCCCCCCCCCCCCCCCCCCCCCC(=O)[O-]
REMARK SMILES IDX 16 1 17 2 18 3 19 4 20 5 21 6 22 7 23 8 24 9 25 10 26 11
REMARK SMILES IDX 27 12 28 13 29 14 30 15 31 16 32 17 15 18 14 19 13 20 12 21
REMARK SMILES IDX 11 22 10 23 9 24 8 25 7 26 6 27 5 28 4 29 3 30 2 31 1 32
REMARK H PARENT
REMARK Flexibility Score: inf
ROOT
ATOM      1  C   UNL     1       1.299  -6.749  -8.413  1.00  0.00     0.000 C 
ENDROOT
BRANCH   1   2
ATOM      2  C   UNL     1       1.388  -5.815  -9.630  1.00  0.00     0.000 C 
BRANCH   2   3
ATOM      3  C   UNL     1       2.848  -5.524  -9.999  1.00  0.00     0.000 C 
BRANCH   3   4
ATOM      4  C   UNL     1       3.291  -4.159  -9.452  1.00  0.00     0.000 C 
BRANCH   4   5
ATOM      5  C   UNL     1       4.622  -3.676 -10.048  1.00  0.00     0.000 C 
BRANCH   5   6
ATOM      6  C   UNL     1       5.683  -4.790 -10.111  1.00  0.00     0.000 C 
BRANCH   6   7
ATOM      7  C   UNL     1       7.005  -4.384  -9.423  1.00  0.00     0.000 C 
BRANCH   7   8
ATOM      8  C   UNL     1       6.962  -4.487  -7.888  1.00  0.00     0.000 C 
BRANCH   8   9
ATOM      9  C   UNL     1       7.790  -5.665  -7.350  1.00  0.00     0.000 C 
BRANCH   9  10
ATOM     10  C   UNL     1       8.803  -5.240  -6.273  1.00  0.00     0.000 C 
BRANCH  10  11
ATOM     11  C   UNL     1       9.999  -6.205  -6.166  1.00  0.00     0.000 C 
BRANCH  11  12
ATOM     12  C   UNL     1      11.199  -5.742  -7.010  1.00  0.00     0.000 C 
BRANCH  12  13
ATOM     13  C   UNL     1      11.254  -6.443  -8.379  1.00  0.00     0.006 C 
BRANCH  13  14
ATOM     14  C   UNL     1      10.533  -5.642  -9.471  1.00  0.00     0.053 C 
BRANCH  14  15
ATOM     15  C   UNL     1      10.990  -4.216  -9.511  1.00  0.00     0.041 C 
ATOM     16  O   UNL     1      12.104  -3.892  -9.020  1.00  0.00    -0.550 OA
ATOM     17  O   UNL     1      10.193  -3.245 -10.108  1.00  0.00    -0.550 OA
ENDBRANCH  14  15
ENDBRANCH  13  14
ENDBRANCH  12  13
ENDBRANCH  11  12
ENDBRANCH  10  11
ENDBRANCH   9  10
ENDBRANCH   8   9
ENDBRANCH   7   8
ENDBRANCH   6   7
ENDBRANCH   5   6
ENDBRANCH   4   5
ENDBRANCH   3   4
ENDBRANCH   2   3
ENDBRANCH   1   2
BRANCH   1  18
ATOM     18  C   UNL     1      -0.122  -6.845  -7.829  1.00  0.00     0.000 C 
BRANCH  18  19
ATOM     19  C   UNL     1      -0.605  -5.594  -7.072  1.00  0.00     0.000 C 
BRANCH  19  20
ATOM     20  C   UNL     1      -1.632  -5.911  -5.977  1.00  0.00     0.000 C 
BRANCH  20  21
ATOM     21  C   UNL     1      -2.710  -6.875  -6.496  1.00  0.00     0.000 C 
BRANCH  21  22
ATOM     22  C   UNL     1      -4.085  -6.193  -6.640  1.00  0.00     0.000 C 
BRANCH  22  23
ATOM     23  C   UNL     1      -5.072  -6.960  -7.541  1.00  0.00     0.000 C 
BRANCH  23  24
ATOM     24  C   UNL     1      -6.287  -6.126  -8.002  1.00  0.00    -0.000 C 
BRANCH  24  25
ATOM     25  C   UNL     1      -6.397  -5.951  -9.531  1.00  0.00    -0.000 C 
BRANCH  25  26
ATOM     26  C   UNL     1      -6.723  -4.520 -10.014  1.00  0.00    -0.000 C 
BRANCH  26  27
ATOM     27  C   UNL     1      -5.520  -3.561 -10.084  1.00  0.00    -0.000 C 
BRANCH  27  28
ATOM     28  C   UNL     1      -5.941  -2.082 -10.118  1.00  0.00    -0.000 C 
BRANCH  28  29
ATOM     29  C   UNL     1      -7.333  -1.845  -9.507  1.00  0.00    -0.000 C 
BRANCH  29  30
ATOM     30  C   UNL     1      -7.679  -2.755  -8.309  1.00  0.00    -0.000 C 
BRANCH  30  31
ATOM     31  C   UNL     1      -7.160  -2.261  -6.947  1.00  0.00    -0.003 C 
ATOM     32  C   UNL     1      -7.155  -3.355  -5.879  1.00  0.00     0.004 C 
ENDBRANCH  30  31
ENDBRANCH  29  30
ENDBRANCH  28  29
ENDBRANCH  27  28
ENDBRANCH  26  27
ENDBRANCH  25  26
ENDBRANCH  24  25
ENDBRANCH  23  24
ENDBRANCH  22  23
ENDBRANCH  21  22
ENDBRANCH  20  21
ENDBRANCH  19  20
ENDBRANCH  18  19
ENDBRANCH   1  18
TORSDOF 28
ENDMDL
