MODEL 1
REMARK VINA RESULT:    -3.732      0.000      0.000
REMARK INTER + INTRA:          -4.462
REMARK INTER:                  -4.386
REMARK INTRA:                  -0.076
REMARK UNBOUND:                -0.076
REMARK SMILES CCCCC(=O)[O-]
REMARK SMILES IDX 4 1 5 2 6 3 7 4 3 5 2 6 1 7
REMARK H PARENT
REMARK Flexibility Score: inf
ROOT
ATOM      1  C   UNL     1      19.234   6.718 -10.036  1.00  0.00     0.053 C 
ENDROOT
BRANCH   1   2
ATOM      2  C   UNL     1      20.616   6.140 -10.027  1.00  0.00     0.041 C 
ATOM      3  O   UNL     1      21.120   5.717  -8.953  1.00  0.00    -0.550 OA
ATOM      4  O   UNL     1      21.362   6.099 -11.199  1.00  0.00    -0.550 OA
ENDBRANCH   1   2
BRANCH   1   5
ATOM      5  C   UNL     1      18.321   5.997 -11.036  1.00  0.00     0.006 C 
BRANCH   5   6
ATOM      6  C   UNL     1      18.293   4.479 -10.807  1.00  0.00    -0.003 C 
ATOM      7  C   UNL     1      16.862   3.952 -10.784  1.00  0.00     0.004 C 
ENDBRANCH   5   6
ENDBRANCH   1   5
TORSDOF 3
ENDMDL
MODEL 2
REMARK VINA RESULT:    -3.694      1.766      2.318
REMARK INTER + INTRA:          -4.418
REMARK INTER:                  -4.370
REMARK INTRA:                  -0.048
REMARK UNBOUND:                -0.076
REMARK SMILES CCCCC(=O)[O-]
REMARK SMILES IDX 4 1 5 2 6 3 7 4 3 5 2 6 1 7
REMARK H PARENT
REMARK Flexibility Score: inf
ROOT
ATOM      1  C   UNL     1      19.432   6.215 -11.947  1.00  0.00     0.053 C 
ENDROOT
BRANCH   1   2
ATOM      2  C   UNL     1      20.538   5.472 -12.632  1.00  0.00     0.041 C 
ATOM      3  O   UNL     1      20.273   4.604 -13.505  1.00  0.00    -0.550 OA
ATOM      4  O   UNL     1      21.861   5.715 -12.282  1.00  0.00    -0.550 OA
ENDBRANCH   1   2
BRANCH   1   5
ATOM      5  C   UNL     1      18.905   5.452 -10.725  1.00  0.00     0.006 C 
BRANCH   5   6
ATOM      6  C   UNL     1      17.394   5.193 -10.809  1.00  0.00    -0.003 C 
ATOM      7  C   UNL     1      17.090   3.698 -10.797  1.00  0.00     0.004 C 
ENDBRANCH   5   6
ENDBRANCH   1   5
TORSDOF 3
ENDMDL
MODEL 3
REMARK VINA RESULT:    -3.661      3.107      3.913
REMARK INTER + INTRA:          -4.379
REMARK INTER:                  -4.327
REMARK INTRA:                  -0.052
REMARK UNBOUND:                -0.076
REMARK SMILES CCCCC(=O)[O-]
REMARK SMILES IDX 4 1 5 2 6 3 7 4 3 5 2 6 1 7
REMARK H PARENT
REMARK Flexibility Score: inf
ROOT
ATOM      1  C   UNL     1      18.447   4.873 -10.810  1.00  0.00     0.053 C 
ENDROOT
BRANCH   1   2
ATOM      2  C   UNL     1      17.104   4.212 -10.740  1.00  0.00     0.041 C 
ATOM      3  O   UNL     1      16.955   3.035 -11.164  1.00  0.00    -0.550 OA
ATOM      4  O   UNL     1      16.010   4.906 -10.239  1.00  0.00    -0.550 OA
ENDBRANCH   1   2
BRANCH   1   5
ATOM      5  C   UNL     1      18.337   6.342 -11.239  1.00  0.00     0.006 C 
BRANCH   5   6
ATOM      6  C   UNL     1      19.365   6.710 -12.318  1.00  0.00    -0.003 C 
ATOM      7  C   UNL     1      20.121   5.477 -12.801  1.00  0.00     0.004 C 
ENDBRANCH   5   6
ENDBRANCH   1   5
TORSDOF 3
ENDMDL
MODEL 4
REMARK VINA RESULT:    -3.619      1.088      1.711
REMARK INTER + INTRA:          -4.329
REMARK INTER:                  -4.295
REMARK INTRA:                  -0.034
REMARK UNBOUND:                -0.076
REMARK SMILES CCCCC(=O)[O-]
REMARK SMILES IDX 4 1 5 2 6 3 7 4 3 5 2 6 1 7
REMARK H PARENT
REMARK Flexibility Score: inf
ROOT
ATOM      1  C   UNL     1      19.729   5.636 -11.870  1.00  0.00     0.053 C 
ENDROOT
BRANCH   1   2
ATOM      2  C   UNL     1      21.063   6.037 -11.319  1.00  0.00     0.041 C 
ATOM      3  O   UNL     1      22.010   6.326 -12.099  1.00  0.00    -0.550 OA
ATOM      4  O   UNL     1      21.272   6.058  -9.946  1.00  0.00    -0.550 OA
ENDBRANCH   1   2
BRANCH   1   5
ATOM      5  C   UNL     1      18.665   5.535 -10.769  1.00  0.00     0.006 C 
BRANCH   5   6
ATOM      6  C   UNL     1      17.865   4.227 -10.853  1.00  0.00    -0.003 C 
ATOM      7  C   UNL     1      16.370   4.485 -10.690  1.00  0.00     0.004 C 
ENDBRANCH   5   6
ENDBRANCH   1   5
TORSDOF 3
ENDMDL
MODEL 5
REMARK VINA RESULT:    -3.585      1.756      2.308
REMARK INTER + INTRA:          -4.290
REMARK INTER:                  -4.204
REMARK INTRA:                  -0.086
REMARK UNBOUND:                -0.076
REMARK SMILES CCCCC(=O)[O-]
REMARK SMILES IDX 4 1 5 2 6 3 7 4 3 5 2 6 1 7
REMARK H PARENT
REMARK Flexibility Score: inf
ROOT
ATOM      1  C   UNL     1      20.314   5.634 -12.568  1.00  0.00     0.053 C 
ENDROOT
BRANCH   1   2
ATOM      2  C   UNL     1      21.717   5.983 -12.175  1.00  0.00     0.041 C 
ATOM      3  O   UNL     1      21.935   6.949 -11.396  1.00  0.00    -0.550 OA
ATOM      4  O   UNL     1      22.785   5.263 -12.694  1.00  0.00    -0.550 OA
ENDBRANCH   1   2
BRANCH   1   5
ATOM      5  C   UNL     1      19.327   6.754 -12.213  1.00  0.00     0.006 C 
BRANCH   5   6
ATOM      6  C   UNL     1      18.354   6.339 -11.100  1.00  0.00    -0.003 C 
ATOM      7  C   UNL     1      18.372   4.829 -10.888  1.00  0.00     0.004 C 
ENDBRANCH   5   6
ENDBRANCH   1   5
TORSDOF 3
ENDMDL
MODEL 6
REMARK VINA RESULT:    -3.539      2.294      3.636
REMARK INTER + INTRA:          -4.235
REMARK INTER:                  -4.122
REMARK INTRA:                  -0.113
REMARK UNBOUND:                -0.076
REMARK SMILES CCCCC(=O)[O-]
REMARK SMILES IDX 4 1 5 2 6 3 7 4 3 5 2 6 1 7
REMARK H PARENT
REMARK Flexibility Score: inf
ROOT
ATOM      1  C   UNL     1      19.952   6.502 -10.031  1.00  0.00     0.053 C 
ENDROOT
BRANCH   1   2
ATOM      2  C   UNL     1      18.906   5.968 -10.961  1.00  0.00     0.041 C 
ATOM      3  O   UNL     1      18.248   6.753 -11.694  1.00  0.00    -0.550 OA
ATOM      4  O   UNL     1      18.633   4.606 -10.995  1.00  0.00    -0.550 OA
ENDBRANCH   1   2
BRANCH   1   5
ATOM      5  C   UNL     1      21.357   6.023 -10.418  1.00  0.00     0.006 C 
BRANCH   5   6
ATOM      6  C   UNL     1      21.732   6.423 -11.852  1.00  0.00    -0.003 C 
ATOM      7  C   UNL     1      22.366   5.255 -12.601  1.00  0.00     0.004 C 
ENDBRANCH   5   6
ENDBRANCH   1   5
TORSDOF 3
ENDMDL
MODEL 7
REMARK VINA RESULT:    -3.432      2.820      3.911
REMARK INTER + INTRA:          -4.109
REMARK INTER:                  -4.069
REMARK INTRA:                  -0.040
REMARK UNBOUND:                -0.076
REMARK SMILES CCCCC(=O)[O-]
REMARK SMILES IDX 4 1 5 2 6 3 7 4 3 5 2 6 1 7
REMARK H PARENT
REMARK Flexibility Score: inf
ROOT
ATOM      1  C   UNL     1      17.859   5.894 -11.036  1.00  0.00     0.053 C 
ENDROOT
BRANCH   1   2
ATOM      2  C   UNL     1      16.975   4.727 -10.717  1.00  0.00     0.041 C 
ATOM      3  O   UNL     1      15.905   4.899 -10.076  1.00  0.00    -0.550 OA
ATOM      4  O   UNL     1      17.351   3.445 -11.098  1.00  0.00    -0.550 OA
ENDBRANCH   1   2
BRANCH   1   5
ATOM      5  C   UNL     1      19.343   5.503 -11.034  1.00  0.00     0.006 C 
BRANCH   5   6
ATOM      6  C   UNL     1      20.061   5.955  -9.755  1.00  0.00    -0.003 C 
ATOM      7  C   UNL     1      21.516   6.317 -10.039  1.00  0.00     0.004 C 
ENDBRANCH   5   6
ENDBRANCH   1   5
TORSDOF 3
ENDMDL
MODEL 8
REMARK VINA RESULT:    -3.341     14.200     14.849
REMARK INTER + INTRA:          -4.003
REMARK INTER:                  -3.927
REMARK INTRA:                  -0.075
REMARK UNBOUND:                -0.076
REMARK SMILES CCCCC(=O)[O-]
REMARK SMILES IDX 4 1 5 2 6 3 7 4 3 5 2 6 1 7
REMARK H PARENT
REMARK Flexibility Score: inf
ROOT
ATOM      1  C   UNL     1      25.963  -3.220 -20.353  1.00  0.00     0.053 C 
ENDROOT
BRANCH   1   2
ATOM      2  C   UNL     1      25.942  -4.673 -20.719  1.00  0.00     0.041 C 
ATOM      3  O   UNL     1      25.354  -5.505 -19.979  1.00  0.00    -0.550 OA
ATOM      4  O   UNL     1      26.600  -5.113 -21.861  1.00  0.00    -0.550 OA
ENDBRANCH   1   2
BRANCH   1   5
ATOM      5  C   UNL     1      24.550  -2.669 -20.125  1.00  0.00     0.006 C 
BRANCH   5   6
ATOM      6  C   UNL     1      24.388  -2.042 -18.733  1.00  0.00    -0.003 C 
ATOM      7  C   UNL     1      25.122  -2.858 -17.674  1.00  0.00     0.004 C 
ENDBRANCH   5   6
ENDBRANCH   1   5
TORSDOF 3
ENDMDL
MODEL 9
REMARK VINA RESULT:    -3.313     25.670     26.344
REMARK INTER + INTRA:          -3.969
REMARK INTER:                  -3.911
REMARK INTRA:                  -0.058
REMARK UNBOUND:                -0.076
REMARK SMILES CCCCC(=O)[O-]
REMARK SMILES IDX 4 1 5 2 6 3 7 4 3 5 2 6 1 7
REMARK H PARENT
REMARK Flexibility Score: inf
ROOT
ATOM      1  C   UNL     1      30.189 -12.543 -26.387  1.00  0.00     0.053 C 
ENDROOT
BRANCH   1   2
ATOM      2  C   UNL     1      29.502 -11.645 -25.403  1.00  0.00     0.041 C 
ATOM      3  O   UNL     1      28.247 -11.546 -25.404  1.00  0.00    -0.550 OA
ATOM      4  O   UNL     1      30.251 -10.891 -24.508  1.00  0.00    -0.550 OA
ENDBRANCH   1   2
BRANCH   1   5
ATOM      5  C   UNL     1      29.211 -13.096 -27.432  1.00  0.00     0.006 C 
BRANCH   5   6
ATOM      6  C   UNL     1      29.822 -13.125 -28.840  1.00  0.00    -0.003 C 
ATOM      7  C   UNL     1      30.874 -12.033 -29.006  1.00  0.00     0.004 C 
ENDBRANCH   5   6
ENDBRANCH   1   5
TORSDOF 3
ENDMDL
