MODEL 1
REMARK VINA RESULT:    -5.160      0.000      0.000
REMARK INTER + INTRA:         -11.456
REMARK INTER:                  -9.384
REMARK INTRA:                  -2.073
REMARK UNBOUND:                -2.073
REMARK SMILES CCCCCCCCCCCCCC[C@@H](C)C(=O)[O-]
REMARK SMILES IDX 9 1 10 2 11 3 12 4 13 5 14 6 15 7 16 8 17 9 18 10 19 11 8 12
REMARK SMILES IDX 7 13 6 14 5 15 4 16 3 17 2 18 1 19
REMARK H PARENT
REMARK Flexibility Score: inf
ROOT
ATOM      1  C   UNL     1      13.007  21.156  28.356  1.00  0.00     0.000 C 
ENDROOT
BRANCH   1   2
ATOM      2  C   UNL     1      13.356  19.720  28.783  1.00  0.00     0.000 C 
BRANCH   2   3
ATOM      3  C   UNL     1      14.777  19.604  29.363  1.00  0.00     0.000 C 
BRANCH   3   4
ATOM      4  C   UNL     1      15.465  20.971  29.511  1.00  0.00     0.000 C 
BRANCH   4   5
ATOM      5  C   UNL     1      16.781  21.058  28.718  1.00  0.00     0.001 C 
BRANCH   5   6
ATOM      6  C   UNL     1      16.586  21.603  27.289  1.00  0.00     0.009 C 
BRANCH   6   7
ATOM      7  C   UNL     1      16.143  23.082  27.205  1.00  0.00     0.032 C 
ATOM      8  C   UNL     1      17.075  24.021  27.983  1.00  0.00     0.014 C 
BRANCH   7   9
ATOM      9  C   UNL     1      16.076  23.508  25.763  1.00  0.00     0.044 C 
ATOM     10  O   UNL     1      16.101  24.729  25.454  1.00  0.00    -0.550 OA
ATOM     11  O   UNL     1      15.994  22.549  24.760  1.00  0.00    -0.550 OA
ENDBRANCH   7   9
ENDBRANCH   6   7
ENDBRANCH   5   6
ENDBRANCH   4   5
ENDBRANCH   3   4
ENDBRANCH   2   3
ENDBRANCH   1   2
BRANCH   1  12
ATOM     12  C   UNL     1      11.495  21.435  28.402  1.00  0.00     0.000 C 
BRANCH  12  13
ATOM     13  C   UNL     1      10.712  20.360  29.178  1.00  0.00    -0.000 C 
BRANCH  13  14
ATOM     14  C   UNL     1      10.055  20.841  30.489  1.00  0.00    -0.000 C 
BRANCH  14  15
ATOM     15  C   UNL     1      10.827  21.940  31.242  1.00  0.00    -0.000 C 
BRANCH  15  16
ATOM     16  C   UNL     1      10.195  23.343  31.169  1.00  0.00    -0.000 C 
BRANCH  16  17
ATOM     17  C   UNL     1      11.165  24.435  30.669  1.00  0.00    -0.000 C 
BRANCH  17  18
ATOM     18  C   UNL     1      12.634  24.099  30.969  1.00  0.00    -0.003 C 
ATOM     19  C   UNL     1      13.529  24.446  29.783  1.00  0.00     0.004 C 
ENDBRANCH  17  18
ENDBRANCH  16  17
ENDBRANCH  15  16
ENDBRANCH  14  15
ENDBRANCH  13  14
ENDBRANCH  12  13
ENDBRANCH   1  12
TORSDOF 14
ENDMDL
MODEL 2
REMARK VINA RESULT:    -5.063      1.320      3.196
REMARK INTER + INTRA:         -11.279
REMARK INTER:                  -9.151
REMARK INTRA:                  -2.128
REMARK UNBOUND:                -2.073
REMARK SMILES CCCCCCCCCCCCCC[C@@H](C)C(=O)[O-]
REMARK SMILES IDX 9 1 10 2 11 3 12 4 13 5 14 6 15 7 16 8 17 9 18 10 19 11 8 12
REMARK SMILES IDX 7 13 6 14 5 15 4 16 3 17 2 18 1 19
REMARK H PARENT
REMARK Flexibility Score: inf
ROOT
ATOM      1  C   UNL     1      11.941  24.141  30.326  1.00  0.00     0.000 C 
ENDROOT
BRANCH   1   2
ATOM      2  C   UNL     1      13.418  23.814  30.604  1.00  0.00     0.000 C 
BRANCH   2   3
ATOM      3  C   UNL     1      14.138  23.236  29.372  1.00  0.00     0.000 C 
BRANCH   3   4
ATOM      4  C   UNL     1      15.264  22.261  29.754  1.00  0.00     0.000 C 
BRANCH   4   5
ATOM      5  C   UNL     1      15.615  21.290  28.612  1.00  0.00     0.001 C 
BRANCH   5   6
ATOM      6  C   UNL     1      15.141  21.788  27.233  1.00  0.00     0.009 C 
BRANCH   6   7
ATOM      7  C   UNL     1      16.263  22.296  26.297  1.00  0.00     0.032 C 
ATOM      8  C   UNL     1      15.944  22.064  24.814  1.00  0.00     0.014 C 
BRANCH   7   9
ATOM      9  C   UNL     1      16.502  23.761  26.546  1.00  0.00     0.044 C 
ATOM     10  O   UNL     1      15.988  24.630  25.793  1.00  0.00    -0.550 OA
ATOM     11  O   UNL     1      17.286  24.164  27.620  1.00  0.00    -0.550 OA
ENDBRANCH   7   9
ENDBRANCH   6   7
ENDBRANCH   5   6
ENDBRANCH   4   5
ENDBRANCH   3   4
ENDBRANCH   2   3
ENDBRANCH   1   2
BRANCH   1  12
ATOM     12  C   UNL     1      11.114  24.276  31.615  1.00  0.00     0.000 C 
BRANCH  12  13
ATOM     13  C   UNL     1      10.101  23.130  31.799  1.00  0.00    -0.000 C 
BRANCH  13  14
ATOM     14  C   UNL     1       9.123  22.922  30.623  1.00  0.00    -0.000 C 
BRANCH  14  15
ATOM     15  C   UNL     1       8.654  21.471  30.411  1.00  0.00    -0.000 C 
BRANCH  15  16
ATOM     16  C   UNL     1       9.785  20.426  30.351  1.00  0.00    -0.000 C 
BRANCH  16  17
ATOM     17  C   UNL     1      10.622  20.492  29.055  1.00  0.00    -0.000 C 
BRANCH  17  18
ATOM     18  C   UNL     1      12.109  20.198  29.300  1.00  0.00    -0.003 C 
ATOM     19  C   UNL     1      12.421  20.150  30.793  1.00  0.00     0.004 C 
ENDBRANCH  17  18
ENDBRANCH  16  17
ENDBRANCH  15  16
ENDBRANCH  14  15
ENDBRANCH  13  14
ENDBRANCH  12  13
ENDBRANCH   1  12
TORSDOF 14
ENDMDL
MODEL 3
REMARK VINA RESULT:    -5.061      1.260      2.982
REMARK INTER + INTRA:         -11.276
REMARK INTER:                  -8.999
REMARK INTRA:                  -2.277
REMARK UNBOUND:                -2.073
REMARK SMILES CCCCCCCCCCCCCC[C@@H](C)C(=O)[O-]
REMARK SMILES IDX 9 1 10 2 11 3 12 4 13 5 14 6 15 7 16 8 17 9 18 10 19 11 8 12
REMARK SMILES IDX 7 13 6 14 5 15 4 16 3 17 2 18 1 19
REMARK H PARENT
REMARK Flexibility Score: inf
ROOT
ATOM      1  C   UNL     1      14.050  23.902  29.595  1.00  0.00     0.000 C 
ENDROOT
BRANCH   1   2
ATOM      2  C   UNL     1      14.509  22.665  30.386  1.00  0.00     0.000 C 
BRANCH   2   3
ATOM      3  C   UNL     1      16.037  22.608  30.560  1.00  0.00     0.000 C 
BRANCH   3   4
ATOM      4  C   UNL     1      16.624  21.246  30.154  1.00  0.00     0.000 C 
BRANCH   4   5
ATOM      5  C   UNL     1      16.156  20.795  28.759  1.00  0.00     0.001 C 
BRANCH   5   6
ATOM      6  C   UNL     1      16.990  21.409  27.618  1.00  0.00     0.009 C 
BRANCH   6   7
ATOM      7  C   UNL     1      16.168  22.065  26.483  1.00  0.00     0.032 C 
ATOM      8  C   UNL     1      14.672  21.733  26.573  1.00  0.00     0.014 C 
BRANCH   7   9
ATOM      9  C   UNL     1      16.365  23.556  26.516  1.00  0.00     0.044 C 
ATOM     10  O   UNL     1      15.980  24.274  25.554  1.00  0.00    -0.550 OA
ATOM     11  O   UNL     1      16.967  24.153  27.617  1.00  0.00    -0.550 OA
ENDBRANCH   7   9
ENDBRANCH   6   7
ENDBRANCH   5   6
ENDBRANCH   4   5
ENDBRANCH   3   4
ENDBRANCH   2   3
ENDBRANCH   1   2
BRANCH   1  12
ATOM     12  C   UNL     1      13.235  24.883  30.454  1.00  0.00     0.000 C 
BRANCH  12  13
ATOM     13  C   UNL     1      12.144  24.185  31.288  1.00  0.00    -0.000 C 
BRANCH  13  14
ATOM     14  C   UNL     1      10.700  24.380  30.777  1.00  0.00    -0.000 C 
BRANCH  14  15
ATOM     15  C   UNL     1       9.707  23.277  31.187  1.00  0.00    -0.000 C 
BRANCH  15  16
ATOM     16  C   UNL     1       9.966  21.901  30.546  1.00  0.00    -0.000 C 
BRANCH  16  17
ATOM     17  C   UNL     1      10.219  21.962  29.025  1.00  0.00    -0.000 C 
BRANCH  17  18
ATOM     18  C   UNL     1      11.582  21.374  28.631  1.00  0.00    -0.003 C 
ATOM     19  C   UNL     1      11.869  20.089  29.401  1.00  0.00     0.004 C 
ENDBRANCH  17  18
ENDBRANCH  16  17
ENDBRANCH  15  16
ENDBRANCH  14  15
ENDBRANCH  13  14
ENDBRANCH  12  13
ENDBRANCH   1  12
TORSDOF 14
ENDMDL
MODEL 4
REMARK VINA RESULT:    -5.048      2.984      6.130
REMARK INTER + INTRA:         -11.252
REMARK INTER:                  -9.297
REMARK INTRA:                  -1.955
REMARK UNBOUND:                -2.073
REMARK SMILES CCCCCCCCCCCCCC[C@@H](C)C(=O)[O-]
REMARK SMILES IDX 9 1 10 2 11 3 12 4 13 5 14 6 15 7 16 8 17 9 18 10 19 11 8 12
REMARK SMILES IDX 7 13 6 14 5 15 4 16 3 17 2 18 1 19
REMARK H PARENT
REMARK Flexibility Score: inf
ROOT
ATOM      1  C   UNL     1      13.630  20.711  28.485  1.00  0.00     0.000 C 
ENDROOT
BRANCH   1   2
ATOM      2  C   UNL     1      12.643  19.611  28.907  1.00  0.00     0.000 C 
BRANCH   2   3
ATOM      3  C   UNL     1      12.553  19.451  30.436  1.00  0.00     0.000 C 
BRANCH   3   4
ATOM      4  C   UNL     1      11.117  19.180  30.915  1.00  0.00     0.000 C 
BRANCH   4   5
ATOM      5  C   UNL     1      10.682  20.134  32.041  1.00  0.00     0.001 C 
BRANCH   5   6
ATOM      6  C   UNL     1      11.287  21.545  31.902  1.00  0.00     0.009 C 
BRANCH   6   7
ATOM      7  C   UNL     1      10.273  22.663  31.561  1.00  0.00     0.032 C 
ATOM      8  C   UNL     1      10.921  24.054  31.527  1.00  0.00     0.014 C 
BRANCH   7   9
ATOM      9  C   UNL     1       9.624  22.368  30.236  1.00  0.00     0.044 C 
ATOM     10  O   UNL     1       8.383  22.166  30.162  1.00  0.00    -0.550 OA
ATOM     11  O   UNL     1      10.395  22.326  29.080  1.00  0.00    -0.550 OA
ENDBRANCH   7   9
ENDBRANCH   6   7
ENDBRANCH   5   6
ENDBRANCH   4   5
ENDBRANCH   3   4
ENDBRANCH   2   3
ENDBRANCH   1   2
BRANCH   1  12
ATOM     12  C   UNL     1      14.350  21.351  29.684  1.00  0.00     0.000 C 
BRANCH  12  13
ATOM     13  C   UNL     1      13.986  22.835  29.879  1.00  0.00    -0.000 C 
BRANCH  13  14
ATOM     14  C   UNL     1      14.889  23.837  29.129  1.00  0.00    -0.000 C 
BRANCH  14  15
ATOM     15  C   UNL     1      16.350  23.390  28.943  1.00  0.00    -0.000 C 
BRANCH  15  16
ATOM     16  C   UNL     1      16.920  23.609  27.528  1.00  0.00    -0.000 C 
BRANCH  16  17
ATOM     17  C   UNL     1      15.849  23.582  26.417  1.00  0.00    -0.000 C 
BRANCH  17  18
ATOM     18  C   UNL     1      15.656  22.180  25.820  1.00  0.00    -0.003 C 
ATOM     19  C   UNL     1      16.019  22.160  24.338  1.00  0.00     0.004 C 
ENDBRANCH  17  18
ENDBRANCH  16  17
ENDBRANCH  15  16
ENDBRANCH  14  15
ENDBRANCH  13  14
ENDBRANCH  12  13
ENDBRANCH   1  12
TORSDOF 14
ENDMDL
MODEL 5
REMARK VINA RESULT:    -4.998      2.356      6.540
REMARK INTER + INTRA:         -11.161
REMARK INTER:                  -9.844
REMARK INTRA:                  -1.318
REMARK UNBOUND:                -2.073
REMARK SMILES CCCCCCCCCCCCCC[C@@H](C)C(=O)[O-]
REMARK SMILES IDX 9 1 10 2 11 3 12 4 13 5 14 6 15 7 16 8 17 9 18 10 19 11 8 12
REMARK SMILES IDX 7 13 6 14 5 15 4 16 3 17 2 18 1 19
REMARK H PARENT
REMARK Flexibility Score: inf
ROOT
ATOM      1  C   UNL     1      12.564  24.498  30.990  1.00  0.00     0.000 C 
ENDROOT
BRANCH   1   2
ATOM      2  C   UNL     1      11.137  24.230  30.482  1.00  0.00     0.000 C 
BRANCH   2   3
ATOM      3  C   UNL     1      10.101  24.194  31.620  1.00  0.00     0.000 C 
BRANCH   3   4
ATOM      4  C   UNL     1       9.326  22.867  31.667  1.00  0.00     0.000 C 
BRANCH   4   5
ATOM      5  C   UNL     1       9.042  22.301  30.264  1.00  0.00     0.001 C 
BRANCH   5   6
ATOM      6  C   UNL     1       9.429  20.816  30.125  1.00  0.00     0.009 C 
BRANCH   6   7
ATOM      7  C   UNL     1      10.880  20.474  30.539  1.00  0.00     0.032 C 
ATOM      8  C   UNL     1      10.975  19.160  31.326  1.00  0.00     0.014 C 
BRANCH   7   9
ATOM      9  C   UNL     1      11.750  20.400  29.313  1.00  0.00     0.044 C 
ATOM     10  O   UNL     1      11.940  21.422  28.600  1.00  0.00    -0.550 OA
ATOM     11  O   UNL     1      12.358  19.200  28.965  1.00  0.00    -0.550 OA
ENDBRANCH   7   9
ENDBRANCH   6   7
ENDBRANCH   5   6
ENDBRANCH   4   5
ENDBRANCH   3   4
ENDBRANCH   2   3
ENDBRANCH   1   2
BRANCH   1  12
ATOM     12  C   UNL     1      13.630  24.259  29.908  1.00  0.00     0.000 C 
BRANCH  12  13
ATOM     13  C   UNL     1      14.629  23.149  30.287  1.00  0.00    -0.000 C 
BRANCH  13  14
ATOM     14  C   UNL     1      15.456  22.580  29.115  1.00  0.00    -0.000 C 
BRANCH  14  15
ATOM     15  C   UNL     1      16.798  23.288  28.857  1.00  0.00    -0.000 C 
BRANCH  15  16
ATOM     16  C   UNL     1      17.046  23.696  27.392  1.00  0.00    -0.000 C 
BRANCH  16  17
ATOM     17  C   UNL     1      15.933  23.238  26.425  1.00  0.00    -0.000 C 
BRANCH  17  18
ATOM     18  C   UNL     1      16.334  21.997  25.614  1.00  0.00    -0.003 C 
ATOM     19  C   UNL     1      15.957  22.156  24.144  1.00  0.00     0.004 C 
ENDBRANCH  17  18
ENDBRANCH  16  17
ENDBRANCH  15  16
ENDBRANCH  14  15
ENDBRANCH  13  14
ENDBRANCH  12  13
ENDBRANCH   1  12
TORSDOF 14
ENDMDL
MODEL 6
REMARK VINA RESULT:    -4.917      0.992      2.688
REMARK INTER + INTRA:         -11.014
REMARK INTER:                  -9.132
REMARK INTRA:                  -1.882
REMARK UNBOUND:                -2.073
REMARK SMILES CCCCCCCCCCCCCC[C@@H](C)C(=O)[O-]
REMARK SMILES IDX 9 1 10 2 11 3 12 4 13 5 14 6 15 7 16 8 17 9 18 10 19 11 8 12
REMARK SMILES IDX 7 13 6 14 5 15 4 16 3 17 2 18 1 19
REMARK H PARENT
REMARK Flexibility Score: inf
ROOT
ATOM      1  C   UNL     1      13.036  22.097  29.556  1.00  0.00     0.000 C 
ENDROOT
BRANCH   1   2
ATOM      2  C   UNL     1      13.789  20.765  29.398  1.00  0.00     0.000 C 
BRANCH   2   3
ATOM      3  C   UNL     1      15.035  20.679  30.298  1.00  0.00     0.000 C 
BRANCH   3   4
ATOM      4  C   UNL     1      16.247  20.078  29.568  1.00  0.00     0.000 C 
BRANCH   4   5
ATOM      5  C   UNL     1      17.112  21.150  28.882  1.00  0.00     0.001 C 
BRANCH   5   6
ATOM      6  C   UNL     1      16.635  21.486  27.455  1.00  0.00     0.009 C 
BRANCH   6   7
ATOM      7  C   UNL     1      16.063  22.912  27.273  1.00  0.00     0.032 C 
ATOM      8  C   UNL     1      16.829  23.962  28.089  1.00  0.00     0.014 C 
BRANCH   7   9
ATOM      9  C   UNL     1      16.085  23.281  25.814  1.00  0.00     0.044 C 
ATOM     10  O   UNL     1      16.072  22.386  24.927  1.00  0.00    -0.550 OA
ATOM     11  O   UNL     1      16.111  24.618  25.438  1.00  0.00    -0.550 OA
ENDBRANCH   7   9
ENDBRANCH   6   7
ENDBRANCH   5   6
ENDBRANCH   4   5
ENDBRANCH   3   4
ENDBRANCH   2   3
ENDBRANCH   1   2
BRANCH   1  12
ATOM     12  C   UNL     1      13.849  23.146  30.333  1.00  0.00     0.000 C 
BRANCH  12  13
ATOM     13  C   UNL     1      12.994  24.337  30.805  1.00  0.00    -0.000 C 
BRANCH  13  14
ATOM     14  C   UNL     1      11.599  24.445  30.152  1.00  0.00    -0.000 C 
BRANCH  14  15
ATOM     15  C   UNL     1      10.413  24.412  31.133  1.00  0.00    -0.000 C 
BRANCH  15  16
ATOM     16  C   UNL     1      10.325  23.143  32.001  1.00  0.00    -0.000 C 
BRANCH  16  17
ATOM     17  C   UNL     1       9.025  22.336  31.790  1.00  0.00    -0.000 C 
BRANCH  17  18
ATOM     18  C   UNL     1       8.845  21.880  30.335  1.00  0.00    -0.003 C 
ATOM     19  C   UNL     1       9.588  20.573  30.073  1.00  0.00     0.004 C 
ENDBRANCH  17  18
ENDBRANCH  16  17
ENDBRANCH  15  16
ENDBRANCH  14  15
ENDBRANCH  13  14
ENDBRANCH  12  13
ENDBRANCH   1  12
TORSDOF 14
ENDMDL
MODEL 7
REMARK VINA RESULT:    -4.672      1.128      2.016
REMARK INTER + INTRA:         -10.568
REMARK INTER:                  -8.790
REMARK INTRA:                  -1.778
REMARK UNBOUND:                -2.073
REMARK SMILES CCCCCCCCCCCCCC[C@@H](C)C(=O)[O-]
REMARK SMILES IDX 9 1 10 2 11 3 12 4 13 5 14 6 15 7 16 8 17 9 18 10 19 11 8 12
REMARK SMILES IDX 7 13 6 14 5 15 4 16 3 17 2 18 1 19
REMARK H PARENT
REMARK Flexibility Score: inf
ROOT
ATOM      1  C   UNL     1      13.545  20.601  30.512  1.00  0.00     0.000 C 
ENDROOT
BRANCH   1   2
ATOM      2  C   UNL     1      15.061  20.340  30.512  1.00  0.00     0.000 C 
BRANCH   2   3
ATOM      3  C   UNL     1      15.882  21.626  30.304  1.00  0.00     0.000 C 
BRANCH   3   4
ATOM      4  C   UNL     1      15.008  22.891  30.327  1.00  0.00     0.000 C 
BRANCH   4   5
ATOM      5  C   UNL     1      14.802  23.490  28.925  1.00  0.00     0.001 C 
BRANCH   5   6
ATOM      6  C   UNL     1      16.082  23.469  28.067  1.00  0.00     0.009 C 
BRANCH   6   7
ATOM      7  C   UNL     1      16.023  22.552  26.823  1.00  0.00     0.032 C 
ATOM      8  C   UNL     1      14.771  21.664  26.805  1.00  0.00     0.014 C 
BRANCH   7   9
ATOM      9  C   UNL     1      16.071  23.393  25.575  1.00  0.00     0.044 C 
ATOM     10  O   UNL     1      16.157  24.647  25.651  1.00  0.00    -0.550 OA
ATOM     11  O   UNL     1      16.032  22.784  24.327  1.00  0.00    -0.550 OA
ENDBRANCH   7   9
ENDBRANCH   6   7
ENDBRANCH   5   6
ENDBRANCH   4   5
ENDBRANCH   3   4
ENDBRANCH   2   3
ENDBRANCH   1   2
BRANCH   1  12
ATOM     12  C   UNL     1      12.879  20.206  29.184  1.00  0.00     0.000 C 
BRANCH  12  13
ATOM     13  C   UNL     1      11.547  20.941  28.940  1.00  0.00    -0.000 C 
BRANCH  13  14
ATOM     14  C   UNL     1      10.285  20.190  29.415  1.00  0.00    -0.000 C 
BRANCH  14  15
ATOM     15  C   UNL     1       9.443  20.928  30.472  1.00  0.00    -0.000 C 
BRANCH  15  16
ATOM     16  C   UNL     1      10.221  21.952  31.321  1.00  0.00    -0.000 C 
BRANCH  16  17
ATOM     17  C   UNL     1       9.450  23.266  31.569  1.00  0.00    -0.000 C 
BRANCH  17  18
ATOM     18  C   UNL     1      10.302  24.511  31.283  1.00  0.00    -0.003 C 
ATOM     19  C   UNL     1      11.732  24.125  30.918  1.00  0.00     0.004 C 
ENDBRANCH  17  18
ENDBRANCH  16  17
ENDBRANCH  15  16
ENDBRANCH  14  15
ENDBRANCH  13  14
ENDBRANCH  12  13
ENDBRANCH   1  12
TORSDOF 14
ENDMDL
MODEL 8
REMARK VINA RESULT:    -4.594     22.503     24.413
REMARK INTER + INTRA:         -10.426
REMARK INTER:                  -8.637
REMARK INTRA:                  -1.790
REMARK UNBOUND:                -2.073
REMARK SMILES CCCCCCCCCCCCCC[C@@H](C)C(=O)[O-]
REMARK SMILES IDX 9 1 10 2 11 3 12 4 13 5 14 6 15 7 16 8 17 9 18 10 19 11 8 12
REMARK SMILES IDX 7 13 6 14 5 15 4 16 3 17 2 18 1 19
REMARK H PARENT
REMARK Flexibility Score: inf
ROOT
ATOM      1  C   UNL     1       2.137  37.469  13.971  1.00  0.00     0.000 C 
ENDROOT
BRANCH   1   2
ATOM      2  C   UNL     1       2.030  36.777  12.602  1.00  0.00     0.000 C 
BRANCH   2   3
ATOM      3  C   UNL     1       0.581  36.705  12.087  1.00  0.00     0.000 C 
BRANCH   3   4
ATOM      4  C   UNL     1      -0.024  35.299  12.231  1.00  0.00     0.000 C 
BRANCH   4   5
ATOM      5  C   UNL     1      -1.348  35.305  13.015  1.00  0.00     0.001 C 
BRANCH   5   6
ATOM      6  C   UNL     1      -1.622  36.647  13.721  1.00  0.00     0.009 C 
BRANCH   6   7
ATOM      7  C   UNL     1      -1.808  36.555  15.254  1.00  0.00     0.032 C 
ATOM      8  C   UNL     1      -0.979  35.427  15.882  1.00  0.00     0.014 C 
BRANCH   7   9
ATOM      9  C   UNL     1      -1.442  37.871  15.886  1.00  0.00     0.044 C 
ATOM     10  O   UNL     1      -1.714  38.098  17.095  1.00  0.00    -0.550 OA
ATOM     11  O   UNL     1      -0.791  38.843  15.137  1.00  0.00    -0.550 OA
ENDBRANCH   7   9
ENDBRANCH   6   7
ENDBRANCH   5   6
ENDBRANCH   4   5
ENDBRANCH   3   4
ENDBRANCH   2   3
ENDBRANCH   1   2
BRANCH   1  12
ATOM     12  C   UNL     1       2.391  36.476  15.117  1.00  0.00     0.000 C 
BRANCH  12  13
ATOM     13  C   UNL     1       3.642  35.607  14.889  1.00  0.00    -0.000 C 
BRANCH  13  14
ATOM     14  C   UNL     1       4.718  35.701  15.993  1.00  0.00    -0.000 C 
BRANCH  14  15
ATOM     15  C   UNL     1       5.885  36.657  15.688  1.00  0.00    -0.000 C 
BRANCH  15  16
ATOM     16  C   UNL     1       5.504  38.149  15.634  1.00  0.00    -0.000 C 
BRANCH  16  17
ATOM     17  C   UNL     1       5.975  38.863  14.349  1.00  0.00    -0.000 C 
BRANCH  17  18
ATOM     18  C   UNL     1       7.505  38.916  14.233  1.00  0.00    -0.003 C 
ATOM     19  C   UNL     1       7.981  38.256  12.942  1.00  0.00     0.004 C 
ENDBRANCH  17  18
ENDBRANCH  16  17
ENDBRANCH  15  16
ENDBRANCH  14  15
ENDBRANCH  13  14
ENDBRANCH  12  13
ENDBRANCH   1  12
TORSDOF 14
ENDMDL
MODEL 9
REMARK VINA RESULT:    -4.570     22.379     24.299
REMARK INTER + INTRA:         -10.382
REMARK INTER:                  -8.389
REMARK INTRA:                  -1.994
REMARK UNBOUND:                -2.073
REMARK SMILES CCCCCCCCCCCCCC[C@@H](C)C(=O)[O-]
REMARK SMILES IDX 9 1 10 2 11 3 12 4 13 5 14 6 15 7 16 8 17 9 18 10 19 11 8 12
REMARK SMILES IDX 7 13 6 14 5 15 4 16 3 17 2 18 1 19
REMARK H PARENT
REMARK Flexibility Score: inf
ROOT
ATOM      1  C   UNL     1       3.049  38.561  14.292  1.00  0.00     0.000 C 
ENDROOT
BRANCH   1   2
ATOM      2  C   UNL     1       2.090  38.210  13.143  1.00  0.00     0.000 C 
BRANCH   2   3
ATOM      3  C   UNL     1       0.652  38.697  13.401  1.00  0.00     0.000 C 
BRANCH   3   4
ATOM      4  C   UNL     1      -0.282  38.431  12.209  1.00  0.00     0.000 C 
BRANCH   4   5
ATOM      5  C   UNL     1      -1.035  37.095  12.337  1.00  0.00     0.001 C 
BRANCH   5   6
ATOM      6  C   UNL     1      -1.313  36.699  13.800  1.00  0.00     0.009 C 
BRANCH   6   7
ATOM      7  C   UNL     1      -0.761  35.317  14.223  1.00  0.00     0.032 C 
ATOM      8  C   UNL     1       0.495  34.919  13.436  1.00  0.00     0.014 C 
BRANCH   7   9
ATOM      9  C   UNL     1      -0.461  35.324  15.698  1.00  0.00     0.044 C 
ATOM     10  O   UNL     1      -0.072  34.274  16.276  1.00  0.00    -0.550 OA
ATOM     11  O   UNL     1      -0.603  36.496  16.429  1.00  0.00    -0.550 OA
ENDBRANCH   7   9
ENDBRANCH   6   7
ENDBRANCH   5   6
ENDBRANCH   4   5
ENDBRANCH   3   4
ENDBRANCH   2   3
ENDBRANCH   1   2
BRANCH   1  12
ATOM     12  C   UNL     1       2.661  37.878  15.614  1.00  0.00     0.000 C 
BRANCH  12  13
ATOM     13  C   UNL     1       3.017  36.380  15.641  1.00  0.00    -0.000 C 
BRANCH  13  14
ATOM     14  C   UNL     1       4.475  36.043  15.260  1.00  0.00    -0.000 C 
BRANCH  14  15
ATOM     15  C   UNL     1       5.548  36.649  16.181  1.00  0.00    -0.000 C 
BRANCH  15  16
ATOM     16  C   UNL     1       6.759  37.261  15.450  1.00  0.00    -0.000 C 
BRANCH  16  17
ATOM     17  C   UNL     1       6.600  38.765  15.139  1.00  0.00    -0.000 C 
BRANCH  17  18
ATOM     18  C   UNL     1       6.723  39.071  13.639  1.00  0.00    -0.003 C 
ATOM     19  C   UNL     1       7.926  38.358  13.030  1.00  0.00     0.004 C 
ENDBRANCH  17  18
ENDBRANCH  16  17
ENDBRANCH  15  16
ENDBRANCH  14  15
ENDBRANCH  13  14
ENDBRANCH  12  13
ENDBRANCH   1  12
TORSDOF 14
ENDMDL
