MODEL 1
REMARK VINA RESULT:    -4.493      0.000      0.000
REMARK INTER + INTRA:          -4.625
REMARK INTER:                  -4.625
REMARK INTRA:                   0.000
REMARK UNBOUND:                 0.000
REMARK SMILES Cc1cccc(O)c1C
REMARK SMILES IDX 1 1 2 2 8 3 6 4 5 5 4 6 3 7 9 8 7 9
REMARK H PARENT 7 10
REMARK Flexibility Score: inf
ROOT
ATOM      1  C   UNL     1      -8.052   3.160  -4.244  1.00  0.00     0.045 C 
ATOM      2  C   UNL     1      -7.237   2.560  -5.361  1.00  0.00    -0.045 A 
ATOM      3  C   UNL     1      -5.918   3.002  -5.657  1.00  0.00    -0.006 A 
ATOM      4  C   UNL     1      -5.210   2.391  -6.723  1.00  0.00     0.118 A 
ATOM      5  C   UNL     1      -5.808   1.369  -7.466  1.00  0.00     0.046 A 
ATOM      6  C   UNL     1      -7.098   0.940  -7.171  1.00  0.00     0.004 A 
ATOM      7  C   UNL     1      -7.808   1.529  -6.128  1.00  0.00     0.004 A 
ATOM      8  C   UNL     1      -5.252   4.107  -4.867  1.00  0.00     0.048 C 
ENDROOT
BRANCH   4   9
ATOM      9  O   UNL     1      -3.911   2.774  -7.071  1.00  0.00    -0.508 OA
ATOM     10  H   UNL     1      -3.646   3.063  -8.003  1.00  0.00     0.293 HD
ENDBRANCH   4   9
TORSDOF 1
ENDMDL
MODEL 2
REMARK VINA RESULT:    -4.432      0.796      2.597
REMARK INTER + INTRA:          -4.562
REMARK INTER:                  -4.562
REMARK INTRA:                   0.000
REMARK UNBOUND:                 0.000
REMARK SMILES Cc1cccc(O)c1C
REMARK SMILES IDX 1 1 2 2 8 3 6 4 5 5 4 6 3 7 9 8 7 9
REMARK H PARENT 7 10
REMARK Flexibility Score: inf
ROOT
ATOM      1  C   UNL     1      -8.403   1.416  -5.778  1.00  0.00     0.045 C 
ATOM      2  C   UNL     1      -7.168   2.273  -5.668  1.00  0.00    -0.045 A 
ATOM      3  C   UNL     1      -6.056   2.110  -6.540  1.00  0.00    -0.006 A 
ATOM      4  C   UNL     1      -4.926   2.954  -6.378  1.00  0.00     0.118 A 
ATOM      5  C   UNL     1      -4.916   3.927  -5.376  1.00  0.00     0.046 A 
ATOM      6  C   UNL     1      -6.008   4.081  -4.527  1.00  0.00     0.004 A 
ATOM      7  C   UNL     1      -7.125   3.263  -4.671  1.00  0.00     0.004 A 
ATOM      8  C   UNL     1      -6.045   1.064  -7.631  1.00  0.00     0.048 C 
ENDROOT
BRANCH   4   9
ATOM      9  O   UNL     1      -3.798   2.851  -7.197  1.00  0.00    -0.508 OA
ATOM     10  H   UNL     1      -3.767   2.288  -8.037  1.00  0.00     0.293 HD
ENDBRANCH   4   9
TORSDOF 1
ENDMDL
MODEL 3
REMARK VINA RESULT:    -4.395      8.200      8.876
REMARK INTER + INTRA:          -4.524
REMARK INTER:                  -4.524
REMARK INTRA:                   0.000
REMARK UNBOUND:                 0.000
REMARK SMILES Cc1cccc(O)c1C
REMARK SMILES IDX 1 1 2 2 8 3 6 4 5 5 4 6 3 7 9 8 7 9
REMARK H PARENT 7 10
REMARK Flexibility Score: inf
ROOT
ATOM      1  C   UNL     1      -0.657  -1.460   1.401  1.00  0.00     0.045 C 
ATOM      2  C   UNL     1      -0.463  -1.250  -0.079  1.00  0.00    -0.045 A 
ATOM      3  C   UNL     1      -0.937  -2.182  -1.043  1.00  0.00    -0.006 A 
ATOM      4  C   UNL     1      -0.719  -1.919  -2.420  1.00  0.00     0.118 A 
ATOM      5  C   UNL     1      -0.046  -0.759  -2.814  1.00  0.00     0.046 A 
ATOM      6  C   UNL     1       0.414   0.149  -1.865  1.00  0.00     0.004 A 
ATOM      7  C   UNL     1       0.209  -0.092  -0.509  1.00  0.00     0.004 A 
ATOM      8  C   UNL     1      -1.666  -3.444  -0.640  1.00  0.00     0.048 C 
ENDROOT
BRANCH   4   9
ATOM      9  O   UNL     1      -1.156  -2.790  -3.422  1.00  0.00    -0.508 OA
ATOM     10  H   UNL     1      -1.090  -3.797  -3.354  1.00  0.00     0.293 HD
ENDBRANCH   4   9
TORSDOF 1
ENDMDL
MODEL 4
REMARK VINA RESULT:    -4.341      8.254      8.670
REMARK INTER + INTRA:          -4.467
REMARK INTER:                  -4.467
REMARK INTRA:                   0.000
REMARK UNBOUND:                 0.000
REMARK SMILES Cc1cccc(O)c1C
REMARK SMILES IDX 1 1 2 2 8 3 6 4 5 5 4 6 3 7 9 8 7 9
REMARK H PARENT 7 10
REMARK Flexibility Score: inf
ROOT
ATOM      1  C   UNL     1      -1.792  -3.591  -0.758  1.00  0.00     0.045 C 
ATOM      2  C   UNL     1      -1.014  -2.443  -1.349  1.00  0.00    -0.045 A 
ATOM      3  C   UNL     1      -0.659  -1.298  -0.583  1.00  0.00    -0.006 A 
ATOM      4  C   UNL     1       0.075  -0.255  -1.206  1.00  0.00     0.118 A 
ATOM      5  C   UNL     1       0.440  -0.360  -2.550  1.00  0.00     0.046 A 
ATOM      6  C   UNL     1       0.090  -1.484  -3.293  1.00  0.00     0.004 A 
ATOM      7  C   UNL     1      -0.630  -2.518  -2.699  1.00  0.00     0.004 A 
ATOM      8  C   UNL     1      -1.044  -1.162   0.873  1.00  0.00     0.048 C 
ENDROOT
BRANCH   4   9
ATOM      9  O   UNL     1       0.457   0.900  -0.516  1.00  0.00    -0.508 OA
ATOM     10  H   UNL     1       1.021   1.633  -0.925  1.00  0.00     0.293 HD
ENDBRANCH   4   9
TORSDOF 1
ENDMDL
MODEL 5
REMARK VINA RESULT:    -4.335      8.373      8.880
REMARK INTER + INTRA:          -4.462
REMARK INTER:                  -4.462
REMARK INTRA:                   0.000
REMARK UNBOUND:                 0.000
REMARK SMILES Cc1cccc(O)c1C
REMARK SMILES IDX 1 1 2 2 8 3 6 4 5 5 4 6 3 7 9 8 7 9
REMARK H PARENT 7 10
REMARK Flexibility Score: inf
ROOT
ATOM      1  C   UNL     1       0.292   0.250   0.336  1.00  0.00     0.045 C 
ATOM      2  C   UNL     1      -0.362  -0.997  -0.200  1.00  0.00    -0.045 A 
ATOM      3  C   UNL     1      -0.417  -1.284  -1.592  1.00  0.00    -0.006 A 
ATOM      4  C   UNL     1      -1.049  -2.478  -2.025  1.00  0.00     0.118 A 
ATOM      5  C   UNL     1      -1.607  -3.354  -1.090  1.00  0.00     0.046 A 
ATOM      6  C   UNL     1      -1.550  -3.067   0.271  1.00  0.00     0.004 A 
ATOM      7  C   UNL     1      -0.933  -1.901   0.714  1.00  0.00     0.004 A 
ATOM      8  C   UNL     1       0.180  -0.350  -2.622  1.00  0.00     0.048 C 
ENDROOT
BRANCH   4   9
ATOM      9  O   UNL     1      -1.141  -2.824  -3.376  1.00  0.00    -0.508 OA
ATOM     10  H   UNL     1      -1.532  -3.697  -3.703  1.00  0.00     0.293 HD
ENDBRANCH   4   9
TORSDOF 1
ENDMDL
MODEL 6
REMARK VINA RESULT:    -4.276      9.039      9.454
REMARK INTER + INTRA:          -4.401
REMARK INTER:                  -4.401
REMARK INTRA:                   0.000
REMARK UNBOUND:                 0.000
REMARK SMILES Cc1cccc(O)c1C
REMARK SMILES IDX 1 1 2 2 8 3 6 4 5 5 4 6 3 7 9 8 7 9
REMARK H PARENT 7 10
REMARK Flexibility Score: inf
ROOT
ATOM      1  C   UNL     1      -2.441  -2.229   1.772  1.00  0.00     0.045 C 
ATOM      2  C   UNL     1      -1.465  -1.366   1.015  1.00  0.00    -0.045 A 
ATOM      3  C   UNL     1      -1.002  -0.122   1.526  1.00  0.00    -0.006 A 
ATOM      4  C   UNL     1      -0.082   0.638   0.758  1.00  0.00     0.118 A 
ATOM      5  C   UNL     1       0.357   0.163  -0.481  1.00  0.00     0.046 A 
ATOM      6  C   UNL     1      -0.100  -1.055  -0.974  1.00  0.00     0.004 A 
ATOM      7  C   UNL     1      -1.002  -1.814  -0.234  1.00  0.00     0.004 A 
ATOM      8  C   UNL     1      -1.464   0.412   2.864  1.00  0.00     0.048 C 
ENDROOT
BRANCH   4   9
ATOM      9  O   UNL     1       0.414   1.870   1.196  1.00  0.00    -0.508 OA
ATOM     10  H   UNL     1       1.018   2.458   0.638  1.00  0.00     0.293 HD
ENDBRANCH   4   9
TORSDOF 1
ENDMDL
MODEL 7
REMARK VINA RESULT:    -4.239      9.258      9.666
REMARK INTER + INTRA:          -4.363
REMARK INTER:                  -4.363
REMARK INTRA:                   0.000
REMARK UNBOUND:                 0.000
REMARK SMILES Cc1cccc(O)c1C
REMARK SMILES IDX 1 1 2 2 8 3 6 4 5 5 4 6 3 7 9 8 7 9
REMARK H PARENT 7 10
REMARK Flexibility Score: inf
ROOT
ATOM      1  C   UNL     1      -3.008  -1.369   2.633  1.00  0.00     0.045 C 
ATOM      2  C   UNL     1      -1.862  -0.825   1.819  1.00  0.00    -0.045 A 
ATOM      3  C   UNL     1      -1.318  -1.533   0.711  1.00  0.00    -0.006 A 
ATOM      4  C   UNL     1      -0.240  -0.959  -0.010  1.00  0.00     0.118 A 
ATOM      5  C   UNL     1       0.274   0.284   0.369  1.00  0.00     0.046 A 
ATOM      6  C   UNL     1      -0.263   0.972   1.453  1.00  0.00     0.004 A 
ATOM      7  C   UNL     1      -1.322   0.424   2.172  1.00  0.00     0.004 A 
ATOM      8  C   UNL     1      -1.858  -2.880   0.284  1.00  0.00     0.048 C 
ENDROOT
BRANCH   4   9
ATOM      9  O   UNL     1       0.345  -1.598  -1.107  1.00  0.00    -0.508 OA
ATOM     10  H   UNL     1       0.783  -2.508  -1.055  1.00  0.00     0.293 HD
ENDBRANCH   4   9
TORSDOF 1
ENDMDL
MODEL 8
REMARK VINA RESULT:    -4.184      8.996      9.766
REMARK INTER + INTRA:          -4.306
REMARK INTER:                  -4.306
REMARK INTRA:                   0.000
REMARK UNBOUND:                 0.000
REMARK SMILES Cc1cccc(O)c1C
REMARK SMILES IDX 1 1 2 2 8 3 6 4 5 5 4 6 3 7 9 8 7 9
REMARK H PARENT 7 10
REMARK Flexibility Score: inf
ROOT
ATOM      1  C   UNL     1      -1.847  -2.933   0.043  1.00  0.00     0.045 C 
ATOM      2  C   UNL     1      -1.664  -1.715   0.911  1.00  0.00    -0.045 A 
ATOM      3  C   UNL     1      -0.836  -0.626   0.521  1.00  0.00    -0.006 A 
ATOM      4  C   UNL     1      -0.711   0.489   1.390  1.00  0.00     0.118 A 
ATOM      5  C   UNL     1      -1.395   0.508   2.608  1.00  0.00     0.046 A 
ATOM      6  C   UNL     1      -2.204  -0.560   2.983  1.00  0.00     0.004 A 
ATOM      7  C   UNL     1      -2.339  -1.663   2.143  1.00  0.00     0.004 A 
ATOM      8  C   UNL     1      -0.086  -0.625  -0.792  1.00  0.00     0.048 C 
ENDROOT
BRANCH   4   9
ATOM      9  O   UNL     1       0.085   1.594   1.073  1.00  0.00    -0.508 OA
ATOM     10  H   UNL     1       1.044   1.519   0.760  1.00  0.00     0.293 HD
ENDBRANCH   4   9
TORSDOF 1
ENDMDL
MODEL 9
REMARK VINA RESULT:    -4.163      8.441      9.170
REMARK INTER + INTRA:          -4.285
REMARK INTER:                  -4.285
REMARK INTRA:                   0.000
REMARK UNBOUND:                 0.000
REMARK SMILES Cc1cccc(O)c1C
REMARK SMILES IDX 1 1 2 2 8 3 6 4 5 5 4 6 3 7 9 8 7 9
REMARK H PARENT 7 10
REMARK Flexibility Score: inf
ROOT
ATOM      1  C   UNL     1      -0.706  -2.324  -2.892  1.00  0.00     0.045 C 
ATOM      2  C   UNL     1      -0.577  -1.801  -1.484  1.00  0.00    -0.045 A 
ATOM      3  C   UNL     1      -0.204  -0.457  -1.208  1.00  0.00    -0.006 A 
ATOM      4  C   UNL     1      -0.102  -0.034   0.142  1.00  0.00     0.118 A 
ATOM      5  C   UNL     1      -0.366  -0.933   1.179  1.00  0.00     0.046 A 
ATOM      6  C   UNL     1      -0.731  -2.247   0.902  1.00  0.00     0.004 A 
ATOM      7  C   UNL     1      -0.836  -2.679  -0.417  1.00  0.00     0.004 A 
ATOM      8  C   UNL     1       0.088   0.533  -2.315  1.00  0.00     0.048 C 
ENDROOT
BRANCH   4   9
ATOM      9  O   UNL     1       0.260   1.271   0.488  1.00  0.00    -0.508 OA
ATOM     10  H   UNL     1       1.194   1.534   0.773  1.00  0.00     0.293 HD
ENDBRANCH   4   9
TORSDOF 1
ENDMDL
