MODEL 1
REMARK VINA RESULT:    -4.169      0.000      0.000
REMARK INTER + INTRA:          -6.501
REMARK INTER:                  -5.875
REMARK INTRA:                  -0.626
REMARK UNBOUND:                -0.626
REMARK SMILES CCCCCCCCC(=O)[O-]
REMARK SMILES IDX 6 1 7 2 8 3 9 4 10 5 11 6 5 7 4 8 3 9 2 10 1 11
REMARK H PARENT
REMARK Flexibility Score: inf
ROOT
ATOM      1  C   UNL     1      41.913 -10.833 -40.669  1.00  0.00     0.000 C 
ENDROOT
BRANCH   1   2
ATOM      2  C   UNL     1      43.314 -10.668 -41.276  1.00  0.00     0.006 C 
BRANCH   2   3
ATOM      3  C   UNL     1      44.080 -11.996 -41.336  1.00  0.00     0.053 C 
BRANCH   3   4
ATOM      4  C   UNL     1      44.998 -12.163 -40.165  1.00  0.00     0.041 C 
ATOM      5  O   UNL     1      45.372 -11.159 -39.504  1.00  0.00    -0.550 OA
ATOM      6  O   UNL     1      45.468 -13.425 -39.822  1.00  0.00    -0.550 OA
ENDBRANCH   3   4
ENDBRANCH   2   3
ENDBRANCH   1   2
BRANCH   1   7
ATOM      7  C   UNL     1      40.860 -10.100 -41.510  1.00  0.00     0.000 C 
BRANCH   7   8
ATOM      8  C   UNL     1      41.259 -10.070 -42.990  1.00  0.00    -0.000 C 
BRANCH   8   9
ATOM      9  C   UNL     1      40.154 -10.667 -43.869  1.00  0.00    -0.000 C 
BRANCH   9  10
ATOM     10  C   UNL     1      40.667 -11.889 -44.641  1.00  0.00    -0.003 C 
ATOM     11  C   UNL     1      42.190 -11.879 -44.741  1.00  0.00     0.004 C 
ENDBRANCH   9  10
ENDBRANCH   8   9
ENDBRANCH   7   8
ENDBRANCH   1   7
TORSDOF 7
ENDMDL
MODEL 2
REMARK VINA RESULT:    -4.159      1.645      2.397
REMARK INTER + INTRA:          -6.487
REMARK INTER:                  -6.180
REMARK INTRA:                  -0.308
REMARK UNBOUND:                -0.626
REMARK SMILES CCCCCCCCC(=O)[O-]
REMARK SMILES IDX 6 1 7 2 8 3 9 4 10 5 11 6 5 7 4 8 3 9 2 10 1 11
REMARK H PARENT
REMARK Flexibility Score: inf
ROOT
ATOM      1  C   UNL     1      43.789 -12.087 -41.120  1.00  0.00     0.000 C 
ENDROOT
BRANCH   1   2
ATOM      2  C   UNL     1      44.438 -11.066 -40.173  1.00  0.00     0.006 C 
BRANCH   2   3
ATOM      3  C   UNL     1      44.999 -11.724 -38.906  1.00  0.00     0.053 C 
BRANCH   3   4
ATOM      4  C   UNL     1      46.013 -12.779 -39.228  1.00  0.00     0.041 C 
ATOM      5  O   UNL     1      45.799 -13.980 -38.914  1.00  0.00    -0.550 OA
ATOM      6  O   UNL     1      47.209 -12.432 -39.844  1.00  0.00    -0.550 OA
ENDBRANCH   3   4
ENDBRANCH   2   3
ENDBRANCH   1   2
BRANCH   1   7
ATOM      7  C   UNL     1      43.360 -11.424 -42.433  1.00  0.00     0.000 C 
BRANCH   7   8
ATOM      8  C   UNL     1      43.489 -12.397 -43.611  1.00  0.00    -0.000 C 
BRANCH   8   9
ATOM      9  C   UNL     1      42.649 -11.931 -44.805  1.00  0.00    -0.000 C 
BRANCH   9  10
ATOM     10  C   UNL     1      41.377 -11.214 -44.336  1.00  0.00    -0.003 C 
ATOM     11  C   UNL     1      40.127 -12.005 -44.712  1.00  0.00     0.004 C 
ENDBRANCH   9  10
ENDBRANCH   8   9
ENDBRANCH   7   8
ENDBRANCH   1   7
TORSDOF 7
ENDMDL
MODEL 3
REMARK VINA RESULT:    -4.158      1.971      2.538
REMARK INTER + INTRA:          -6.486
REMARK INTER:                  -5.810
REMARK INTRA:                  -0.676
REMARK UNBOUND:                -0.626
REMARK SMILES CCCCCCCCC(=O)[O-]
REMARK SMILES IDX 6 1 7 2 8 3 9 4 10 5 11 6 5 7 4 8 3 9 2 10 1 11
REMARK H PARENT
REMARK Flexibility Score: inf
ROOT
ATOM      1  C   UNL     1      40.868  -9.285 -42.173  1.00  0.00     0.000 C 
ENDROOT
BRANCH   1   2
ATOM      2  C   UNL     1      42.369  -9.392 -41.865  1.00  0.00     0.006 C 
BRANCH   2   3
ATOM      3  C   UNL     1      42.687 -10.565 -40.928  1.00  0.00     0.053 C 
BRANCH   3   4
ATOM      4  C   UNL     1      42.530 -10.185 -39.488  1.00  0.00     0.041 C 
ATOM      5  O   UNL     1      43.483  -9.641 -38.869  1.00  0.00    -0.550 OA
ATOM      6  O   UNL     1      41.345 -10.463 -38.818  1.00  0.00    -0.550 OA
ENDBRANCH   3   4
ENDBRANCH   2   3
ENDBRANCH   1   2
BRANCH   1   7
ATOM      7  C   UNL     1      40.354 -10.558 -42.856  1.00  0.00     0.000 C 
BRANCH   7   8
ATOM      8  C   UNL     1      40.656 -10.538 -44.359  1.00  0.00    -0.000 C 
BRANCH   8   9
ATOM      9  C   UNL     1      41.116 -11.917 -44.846  1.00  0.00    -0.000 C 
BRANCH   9  10
ATOM     10  C   UNL     1      42.586 -11.884 -45.282  1.00  0.00    -0.003 C 
ATOM     11  C   UNL     1      43.513 -12.241 -44.123  1.00  0.00     0.004 C 
ENDBRANCH   9  10
ENDBRANCH   8   9
ENDBRANCH   7   8
ENDBRANCH   1   7
TORSDOF 7
ENDMDL
MODEL 4
REMARK VINA RESULT:    -4.146      2.256      3.147
REMARK INTER + INTRA:          -6.469
REMARK INTER:                  -6.089
REMARK INTRA:                  -0.380
REMARK UNBOUND:                -0.626
REMARK SMILES CCCCCCCCC(=O)[O-]
REMARK SMILES IDX 6 1 7 2 8 3 9 4 10 5 11 6 5 7 4 8 3 9 2 10 1 11
REMARK H PARENT
REMARK Flexibility Score: inf
ROOT
ATOM      1  C   UNL     1      44.081 -11.762 -41.454  1.00  0.00     0.000 C 
ENDROOT
BRANCH   1   2
ATOM      2  C   UNL     1      43.373 -11.627 -40.097  1.00  0.00     0.006 C 
BRANCH   2   3
ATOM      3  C   UNL     1      42.044 -10.869 -40.209  1.00  0.00     0.053 C 
BRANCH   3   4
ATOM      4  C   UNL     1      41.867  -9.888 -39.091  1.00  0.00     0.041 C 
ATOM      5  O   UNL     1      41.662  -8.671 -39.342  1.00  0.00    -0.550 OA
ATOM      6  O   UNL     1      41.960 -10.312 -37.771  1.00  0.00    -0.550 OA
ENDBRANCH   3   4
ENDBRANCH   2   3
ENDBRANCH   1   2
BRANCH   1   7
ATOM      7  C   UNL     1      43.151 -11.354 -42.602  1.00  0.00     0.000 C 
BRANCH   7   8
ATOM      8  C   UNL     1      43.348 -12.262 -43.821  1.00  0.00    -0.000 C 
BRANCH   8   9
ATOM      9  C   UNL     1      42.333 -11.935 -44.922  1.00  0.00    -0.000 C 
BRANCH   9  10
ATOM     10  C   UNL     1      40.986 -11.518 -44.322  1.00  0.00    -0.003 C 
ATOM     11  C   UNL     1      39.830 -12.250 -44.997  1.00  0.00     0.004 C 
ENDBRANCH   9  10
ENDBRANCH   8   9
ENDBRANCH   7   8
ENDBRANCH   1   7
TORSDOF 7
ENDMDL
MODEL 5
REMARK VINA RESULT:    -4.105      2.459      3.768
REMARK INTER + INTRA:          -6.410
REMARK INTER:                  -5.752
REMARK INTRA:                  -0.659
REMARK UNBOUND:                -0.626
REMARK SMILES CCCCCCCCC(=O)[O-]
REMARK SMILES IDX 6 1 7 2 8 3 9 4 10 5 11 6 5 7 4 8 3 9 2 10 1 11
REMARK H PARENT
REMARK Flexibility Score: inf
ROOT
ATOM      1  C   UNL     1      44.595 -11.197 -39.672  1.00  0.00     0.000 C 
ENDROOT
BRANCH   1   2
ATOM      2  C   UNL     1      44.329 -11.838 -38.301  1.00  0.00     0.006 C 
BRANCH   2   3
ATOM      3  C   UNL     1      43.816 -10.820 -37.274  1.00  0.00     0.053 C 
BRANCH   3   4
ATOM      4  C   UNL     1      42.477 -10.269 -37.657  1.00  0.00     0.041 C 
ATOM      5  O   UNL     1      42.336  -9.036 -37.869  1.00  0.00    -0.550 OA
ATOM      6  O   UNL     1      41.376 -11.112 -37.746  1.00  0.00    -0.550 OA
ENDBRANCH   3   4
ENDBRANCH   2   3
ENDBRANCH   1   2
BRANCH   1   7
ATOM      7  C   UNL     1      43.975 -12.031 -40.799  1.00  0.00     0.000 C 
BRANCH   7   8
ATOM      8  C   UNL     1      43.515 -11.139 -41.957  1.00  0.00    -0.000 C 
BRANCH   8   9
ATOM      9  C   UNL     1      42.757  -9.912 -41.440  1.00  0.00    -0.000 C 
BRANCH   9  10
ATOM     10  C   UNL     1      41.276 -10.235 -41.215  1.00  0.00    -0.003 C 
ATOM     11  C   UNL     1      40.511 -10.264 -42.536  1.00  0.00     0.004 C 
ENDBRANCH   9  10
ENDBRANCH   8   9
ENDBRANCH   7   8
ENDBRANCH   1   7
TORSDOF 7
ENDMDL
MODEL 6
REMARK VINA RESULT:    -4.090      2.567      4.189
REMARK INTER + INTRA:          -6.390
REMARK INTER:                  -5.703
REMARK INTRA:                  -0.687
REMARK UNBOUND:                -0.626
REMARK SMILES CCCCCCCCC(=O)[O-]
REMARK SMILES IDX 6 1 7 2 8 3 9 4 10 5 11 6 5 7 4 8 3 9 2 10 1 11
REMARK H PARENT
REMARK Flexibility Score: inf
ROOT
ATOM      1  C   UNL     1      43.306 -10.760 -41.156  1.00  0.00     0.000 C 
ENDROOT
BRANCH   1   2
ATOM      2  C   UNL     1      44.216 -11.945 -40.800  1.00  0.00     0.006 C 
BRANCH   2   3
ATOM      3  C   UNL     1      45.143 -11.631 -39.619  1.00  0.00     0.053 C 
BRANCH   3   4
ATOM      4  C   UNL     1      46.217 -12.663 -39.463  1.00  0.00     0.041 C 
ATOM      5  O   UNL     1      47.369 -12.454 -39.927  1.00  0.00    -0.550 OA
ATOM      6  O   UNL     1      45.937 -13.871 -38.836  1.00  0.00    -0.550 OA
ENDBRANCH   3   4
ENDBRANCH   2   3
ENDBRANCH   1   2
BRANCH   1   7
ATOM      7  C   UNL     1      42.076 -10.717 -40.242  1.00  0.00     0.000 C 
BRANCH   7   8
ATOM      8  C   UNL     1      42.102  -9.479 -39.338  1.00  0.00    -0.000 C 
BRANCH   8   9
ATOM      9  C   UNL     1      42.255  -9.875 -37.866  1.00  0.00    -0.000 C 
BRANCH   9  10
ATOM     10  C   UNL     1      41.799 -11.320 -37.635  1.00  0.00    -0.003 C 
ATOM     11  C   UNL     1      42.760 -12.060 -36.708  1.00  0.00     0.004 C 
ENDBRANCH   9  10
ENDBRANCH   8   9
ENDBRANCH   7   8
ENDBRANCH   1   7
TORSDOF 7
ENDMDL
MODEL 7
REMARK VINA RESULT:    -4.046      3.320      4.857
REMARK INTER + INTRA:          -6.327
REMARK INTER:                  -5.554
REMARK INTRA:                  -0.773
REMARK UNBOUND:                -0.626
REMARK SMILES CCCCCCCCC(=O)[O-]
REMARK SMILES IDX 6 1 7 2 8 3 9 4 10 5 11 6 5 7 4 8 3 9 2 10 1 11
REMARK H PARENT
REMARK Flexibility Score: inf
ROOT
ATOM      1  C   UNL     1      40.880  -8.709 -42.260  1.00  0.00     0.000 C 
ENDROOT
BRANCH   1   2
ATOM      2  C   UNL     1      40.773  -9.469 -43.591  1.00  0.00     0.006 C 
BRANCH   2   3
ATOM      3  C   UNL     1      40.204 -10.882 -43.408  1.00  0.00     0.053 C 
BRANCH   3   4
ATOM      4  C   UNL     1      40.364 -11.711 -44.644  1.00  0.00     0.041 C 
ATOM      5  O   UNL     1      39.350 -12.150 -45.248  1.00  0.00    -0.550 OA
ATOM      6  O   UNL     1      41.634 -12.029 -45.111  1.00  0.00    -0.550 OA
ENDBRANCH   3   4
ENDBRANCH   2   3
ENDBRANCH   1   2
BRANCH   1   7
ATOM      7  C   UNL     1      40.457  -9.597 -41.084  1.00  0.00     0.000 C 
BRANCH   7   8
ATOM      8  C   UNL     1      41.560  -9.668 -40.022  1.00  0.00    -0.000 C 
BRANCH   8   9
ATOM      9  C   UNL     1      42.329 -10.990 -40.114  1.00  0.00    -0.000 C 
BRANCH   9  10
ATOM     10  C   UNL     1      43.625 -10.818 -40.914  1.00  0.00    -0.003 C 
ATOM     11  C   UNL     1      43.609 -11.669 -42.181  1.00  0.00     0.004 C 
ENDBRANCH   9  10
ENDBRANCH   8   9
ENDBRANCH   7   8
ENDBRANCH   1   7
TORSDOF 7
ENDMDL
MODEL 8
REMARK VINA RESULT:    -4.022      3.159      5.511
REMARK INTER + INTRA:          -6.294
REMARK INTER:                  -5.592
REMARK INTRA:                  -0.703
REMARK UNBOUND:                -0.626
REMARK SMILES CCCCCCCCC(=O)[O-]
REMARK SMILES IDX 6 1 7 2 8 3 9 4 10 5 11 6 5 7 4 8 3 9 2 10 1 11
REMARK H PARENT
REMARK Flexibility Score: inf
ROOT
ATOM      1  C   UNL     1      43.500 -11.327 -41.997  1.00  0.00     0.000 C 
ENDROOT
BRANCH   1   2
ATOM      2  C   UNL     1      42.890 -10.019 -41.472  1.00  0.00     0.006 C 
BRANCH   2   3
ATOM      3  C   UNL     1      41.356 -10.041 -41.501  1.00  0.00     0.053 C 
BRANCH   3   4
ATOM      4  C   UNL     1      40.824  -9.981 -42.900  1.00  0.00     0.041 C 
ATOM      5  O   UNL     1      40.069 -10.892 -43.330  1.00  0.00    -0.550 OA
ATOM      6  O   UNL     1      41.190  -8.937 -43.741  1.00  0.00    -0.550 OA
ENDBRANCH   3   4
ENDBRANCH   2   3
ENDBRANCH   1   2
BRANCH   1   7
ATOM      7  C   UNL     1      44.253 -12.068 -40.886  1.00  0.00     0.000 C 
BRANCH   7   8
ATOM      8  C   UNL     1      44.622 -11.117 -39.742  1.00  0.00    -0.000 C 
BRANCH   8   9
ATOM      9  C   UNL     1      44.236 -11.713 -38.383  1.00  0.00    -0.000 C 
BRANCH   9  10
ATOM     10  C   UNL     1      43.295 -10.775 -37.619  1.00  0.00    -0.003 C 
ATOM     11  C   UNL     1      41.833 -11.098 -37.916  1.00  0.00     0.004 C 
ENDBRANCH   9  10
ENDBRANCH   8   9
ENDBRANCH   7   8
ENDBRANCH   1   7
TORSDOF 7
ENDMDL
MODEL 9
REMARK VINA RESULT:    -4.006      3.411      5.194
REMARK INTER + INTRA:          -6.272
REMARK INTER:                  -5.526
REMARK INTRA:                  -0.746
REMARK UNBOUND:                -0.626
REMARK SMILES CCCCCCCCC(=O)[O-]
REMARK SMILES IDX 6 1 7 2 8 3 9 4 10 5 11 6 5 7 4 8 3 9 2 10 1 11
REMARK H PARENT
REMARK Flexibility Score: inf
ROOT
ATOM      1  C   UNL     1      42.861 -10.144 -39.370  1.00  0.00     0.000 C 
ENDROOT
BRANCH   1   2
ATOM      2  C   UNL     1      43.696 -11.367 -39.779  1.00  0.00     0.006 C 
BRANCH   2   3
ATOM      3  C   UNL     1      45.186 -11.184 -39.464  1.00  0.00     0.053 C 
BRANCH   3   4
ATOM      4  C   UNL     1      45.972 -12.427 -39.746  1.00  0.00     0.041 C 
ATOM      5  O   UNL     1      45.388 -13.539 -39.837  1.00  0.00    -0.550 OA
ATOM      6  O   UNL     1      47.354 -12.364 -39.874  1.00  0.00    -0.550 OA
ENDBRANCH   3   4
ENDBRANCH   2   3
ENDBRANCH   1   2
BRANCH   1   7
ATOM      7  C   UNL     1      42.538 -10.175 -37.872  1.00  0.00     0.000 C 
BRANCH   7   8
ATOM      8  C   UNL     1      41.643 -11.372 -37.525  1.00  0.00    -0.000 C 
BRANCH   8   9
ATOM      9  C   UNL     1      42.259 -12.212 -36.402  1.00  0.00    -0.000 C 
BRANCH   9  10
ATOM     10  C   UNL     1      43.665 -11.713 -36.049  1.00  0.00    -0.003 C 
ATOM     11  C   UNL     1      44.696 -12.831 -36.176  1.00  0.00     0.004 C 
ENDBRANCH   9  10
ENDBRANCH   8   9
ENDBRANCH   7   8
ENDBRANCH   1   7
TORSDOF 7
ENDMDL
