MODEL 1
REMARK VINA RESULT:    -6.974      0.000      0.000
REMARK INTER + INTRA:          -8.508
REMARK INTER:                  -8.198
REMARK INTRA:                  -0.311
REMARK UNBOUND:                -0.311
REMARK SMILES O=c1cc(-c2ccc(O)c(O)c2)oc2cc(O)cc(O)c12
REMARK SMILES IDX 4 1 3 2 2 3 1 4 21 5 19 6 18 7 16 8 15 9 14 10 13 11 5 12
REMARK SMILES IDX 6 13 7 14 8 15 12 16 10 17 9 18 11 20 20 22 17 24
REMARK H PARENT 9 19 11 21 20 23 17 25
REMARK Flexibility Score: inf
ROOT
ATOM      1  C   UNL     1     -17.123  21.924  13.888  1.00  0.00     0.138 A 
ATOM      2  C   UNL     1     -16.048  21.841  12.986  1.00  0.00     0.100 A 
ATOM      3  C   UNL     1     -16.280  22.024  11.623  1.00  0.00     0.197 A 
ATOM      4  O   UNL     1     -15.309  21.947  10.821  1.00  0.00    -0.289 OA
ATOM      5  C   UNL     1     -17.588  22.287  11.168  1.00  0.00     0.107 A 
ATOM      6  C   UNL     1     -17.909  22.486   9.804  1.00  0.00     0.134 A 
ATOM      7  C   UNL     1     -19.237  22.737   9.433  1.00  0.00     0.093 A 
ATOM      8  C   UNL     1     -20.248  22.792  10.396  1.00  0.00     0.123 A 
ATOM      9  C   UNL     1     -19.937  22.596  11.746  1.00  0.00     0.094 A 
ATOM     10  C   UNL     1     -18.618  22.345  12.136  1.00  0.00     0.146 A 
ATOM     11  O   UNL     1     -18.348  22.164  13.425  1.00  0.00    -0.456 OA
ENDROOT
BRANCH   1  12
ATOM     12  C   UNL     1     -16.936  21.737  15.349  1.00  0.00     0.021 A 
ATOM     13  C   UNL     1     -15.836  21.027  15.869  1.00  0.00     0.016 A 
ATOM     14  C   UNL     1     -15.680  20.875  17.249  1.00  0.00     0.051 A 
ATOM     15  C   UNL     1     -16.614  21.434  18.132  1.00  0.00     0.157 A 
ATOM     16  C   UNL     1     -17.860  22.306  16.243  1.00  0.00     0.062 A 
ATOM     17  C   UNL     1     -17.704  22.151  17.628  1.00  0.00     0.158 A 
BRANCH  15  18
ATOM     18  O   UNL     1     -16.461  21.283  19.509  1.00  0.00    -0.504 OA
ATOM     19  H   UNL     1     -17.152  20.799  20.069  1.00  0.00     0.293 HD
ENDBRANCH  15  18
BRANCH  17  20
ATOM     20  O   UNL     1     -18.628  22.711  18.509  1.00  0.00    -0.504 OA
ATOM     21  H   UNL     1     -18.500  23.640  18.893  1.00  0.00     0.293 HD
ENDBRANCH  17  20
ENDBRANCH   1  12
BRANCH   6  22
ATOM     22  O   UNL     1     -16.922  22.436   8.820  1.00  0.00    -0.507 OA
ATOM     23  H   UNL     1     -15.943  22.584   9.039  1.00  0.00     0.293 HD
ENDBRANCH   6  22
BRANCH   8  24
ATOM     24  O   UNL     1     -21.561  23.043  10.000  1.00  0.00    -0.508 OA
ATOM     25  H   UNL     1     -21.920  22.708   9.114  1.00  0.00     0.293 HD
ENDBRANCH   8  24
TORSDOF 5
ENDMDL
MODEL 2
REMARK VINA RESULT:    -6.934      1.572      3.513
REMARK INTER + INTRA:          -8.461
REMARK INTER:                  -8.147
REMARK INTRA:                  -0.313
REMARK UNBOUND:                -0.311
REMARK SMILES O=c1cc(-c2ccc(O)c(O)c2)oc2cc(O)cc(O)c12
REMARK SMILES IDX 4 1 3 2 2 3 1 4 21 5 19 6 18 7 16 8 15 9 14 10 13 11 5 12
REMARK SMILES IDX 6 13 7 14 8 15 12 16 10 17 9 18 11 20 20 22 17 24
REMARK H PARENT 9 19 11 21 20 23 17 25
REMARK Flexibility Score: inf
ROOT
ATOM      1  C   UNL     1     -18.528  22.255  13.679  1.00  0.00     0.138 A 
ATOM      2  C   UNL     1     -19.436  22.384  12.615  1.00  0.00     0.100 A 
ATOM      3  C   UNL     1     -18.955  22.477  11.309  1.00  0.00     0.197 A 
ATOM      4  O   UNL     1     -19.779  22.593  10.361  1.00  0.00    -0.289 OA
ATOM      5  C   UNL     1     -17.566  22.442  11.075  1.00  0.00     0.107 A 
ATOM      6  C   UNL     1     -16.995  22.529   9.783  1.00  0.00     0.134 A 
ATOM      7  C   UNL     1     -15.602  22.494   9.635  1.00  0.00     0.093 A 
ATOM      8  C   UNL     1     -14.769  22.374  10.751  1.00  0.00     0.123 A 
ATOM      9  C   UNL     1     -15.327  22.287  12.031  1.00  0.00     0.094 A 
ATOM     10  C   UNL     1     -16.715  22.320  12.199  1.00  0.00     0.146 A 
ATOM     11  O   UNL     1     -17.222  22.236  13.425  1.00  0.00    -0.456 OA
ENDROOT
BRANCH   1  12
ATOM     12  C   UNL     1     -18.982  22.153  15.089  1.00  0.00     0.021 A 
ATOM     13  C   UNL     1     -20.296  21.763  15.417  1.00  0.00     0.016 A 
ATOM     14  C   UNL     1     -20.693  21.666  16.753  1.00  0.00     0.051 A 
ATOM     15  C   UNL     1     -19.786  21.949  17.783  1.00  0.00     0.157 A 
ATOM     16  C   UNL     1     -18.075  22.421  16.129  1.00  0.00     0.062 A 
ATOM     17  C   UNL     1     -18.475  22.326  17.471  1.00  0.00     0.158 A 
BRANCH  15  18
ATOM     18  O   UNL     1     -20.179  21.854  19.116  1.00  0.00    -0.504 OA
ATOM     19  H   UNL     1     -19.571  21.457  19.822  1.00  0.00     0.293 HD
ENDBRANCH  15  18
BRANCH  17  20
ATOM     20  O   UNL     1     -17.573  22.601  18.497  1.00  0.00    -0.504 OA
ATOM     21  H   UNL     1     -16.673  23.029  18.311  1.00  0.00     0.293 HD
ENDBRANCH  17  20
ENDBRANCH   1  12
BRANCH   6  22
ATOM     22  O   UNL     1     -17.800  22.650   8.650  1.00  0.00    -0.507 OA
ATOM     23  H   UNL     1     -18.794  22.452   8.678  1.00  0.00     0.293 HD
ENDBRANCH   6  22
BRANCH   8  24
ATOM     24  O   UNL     1     -13.387  22.341  10.577  1.00  0.00    -0.508 OA
ATOM     25  H   UNL     1     -12.758  22.755  11.254  1.00  0.00     0.293 HD
ENDBRANCH   8  24
TORSDOF 5
ENDMDL
MODEL 3
REMARK VINA RESULT:    -6.898      1.640      2.802
REMARK INTER + INTRA:          -8.418
REMARK INTER:                  -8.158
REMARK INTRA:                  -0.260
REMARK UNBOUND:                -0.311
REMARK SMILES O=c1cc(-c2ccc(O)c(O)c2)oc2cc(O)cc(O)c12
REMARK SMILES IDX 4 1 3 2 2 3 1 4 21 5 19 6 18 7 16 8 15 9 14 10 13 11 5 12
REMARK SMILES IDX 6 13 7 14 8 15 12 16 10 17 9 18 11 20 20 22 17 24
REMARK H PARENT 9 19 11 21 20 23 17 25
REMARK Flexibility Score: inf
ROOT
ATOM      1  C   UNL     1     -18.563  22.809  14.372  1.00  0.00     0.138 A 
ATOM      2  C   UNL     1     -19.524  23.828  14.258  1.00  0.00     0.100 A 
ATOM      3  C   UNL     1     -20.125  24.070  13.023  1.00  0.00     0.197 A 
ATOM      4  O   UNL     1     -20.986  24.987  12.930  1.00  0.00    -0.289 OA
ATOM      5  C   UNL     1     -19.761  23.291  11.906  1.00  0.00     0.107 A 
ATOM      6  C   UNL     1     -20.322  23.469  10.620  1.00  0.00     0.134 A 
ATOM      7  C   UNL     1     -19.900  22.655   9.559  1.00  0.00     0.093 A 
ATOM      8  C   UNL     1     -18.929  21.671   9.758  1.00  0.00     0.123 A 
ATOM      9  C   UNL     1     -18.370  21.489  11.028  1.00  0.00     0.094 A 
ATOM     10  C   UNL     1     -18.778  22.290  12.099  1.00  0.00     0.146 A 
ATOM     11  O   UNL     1     -18.233  22.098  13.296  1.00  0.00    -0.456 OA
ENDROOT
BRANCH   1  12
ATOM     12  C   UNL     1     -17.889  22.508  15.660  1.00  0.00     0.021 A 
ATOM     13  C   UNL     1     -16.558  22.898  15.908  1.00  0.00     0.016 A 
ATOM     14  C   UNL     1     -15.953  22.611  17.133  1.00  0.00     0.051 A 
ATOM     15  C   UNL     1     -16.666  21.937  18.134  1.00  0.00     0.157 A 
ATOM     16  C   UNL     1     -18.601  21.845  16.675  1.00  0.00     0.062 A 
ATOM     17  C   UNL     1     -17.992  21.555  17.905  1.00  0.00     0.158 A 
BRANCH  15  18
ATOM     18  O   UNL     1     -16.064  21.648  19.357  1.00  0.00    -0.504 OA
ATOM     19  H   UNL     1     -15.064  21.499  19.434  1.00  0.00     0.293 HD
ENDBRANCH  15  18
BRANCH  17  20
ATOM     20  O   UNL     1     -18.700  20.889  18.904  1.00  0.00    -0.504 OA
ATOM     21  H   UNL     1     -19.186  21.395  19.636  1.00  0.00     0.293 HD
ENDBRANCH  17  20
ENDBRANCH   1  12
BRANCH   6  22
ATOM     22  O   UNL     1     -21.293  24.444  10.390  1.00  0.00    -0.507 OA
ATOM     23  H   UNL     1     -21.775  24.517   9.501  1.00  0.00     0.293 HD
ENDBRANCH   6  22
BRANCH   8  24
ATOM     24  O   UNL     1     -18.527  20.875   8.686  1.00  0.00    -0.508 OA
ATOM     25  H   UNL     1     -17.803  21.178   8.045  1.00  0.00     0.293 HD
ENDBRANCH   8  24
TORSDOF 5
ENDMDL
MODEL 4
REMARK VINA RESULT:    -6.763      2.145      6.160
REMARK INTER + INTRA:          -8.260
REMARK INTER:                  -7.979
REMARK INTRA:                  -0.280
REMARK UNBOUND:                -0.311
REMARK SMILES O=c1cc(-c2ccc(O)c(O)c2)oc2cc(O)cc(O)c12
REMARK SMILES IDX 4 1 3 2 2 3 1 4 21 5 19 6 18 7 16 8 15 9 14 10 13 11 5 12
REMARK SMILES IDX 6 13 7 14 8 15 12 16 10 17 9 18 11 20 20 22 17 24
REMARK H PARENT 9 19 11 21 20 23 17 25
REMARK Flexibility Score: inf
ROOT
ATOM      1  C   UNL     1     -16.852  22.152  12.926  1.00  0.00     0.138 A 
ATOM      2  C   UNL     1     -18.060  22.218  12.211  1.00  0.00     0.100 A 
ATOM      3  C   UNL     1     -19.261  22.368  12.904  1.00  0.00     0.197 A 
ATOM      4  O   UNL     1     -20.340  22.426  12.253  1.00  0.00    -0.289 OA
ATOM      5  C   UNL     1     -19.248  22.449  14.310  1.00  0.00     0.107 A 
ATOM      6  C   UNL     1     -20.419  22.603  15.089  1.00  0.00     0.134 A 
ATOM      7  C   UNL     1     -20.321  22.669  16.486  1.00  0.00     0.093 A 
ATOM      8  C   UNL     1     -19.078  22.584  17.118  1.00  0.00     0.123 A 
ATOM      9  C   UNL     1     -17.916  22.432  16.354  1.00  0.00     0.094 A 
ATOM     10  C   UNL     1     -17.993  22.365  14.960  1.00  0.00     0.146 A 
ATOM     11  O   UNL     1     -16.875  22.221  14.255  1.00  0.00    -0.456 OA
ENDROOT
BRANCH   1  12
ATOM     12  C   UNL     1     -15.544  21.991  12.242  1.00  0.00     0.021 A 
ATOM     13  C   UNL     1     -14.532  21.164  12.767  1.00  0.00     0.016 A 
ATOM     14  C   UNL     1     -13.314  21.024  12.096  1.00  0.00     0.051 A 
ATOM     15  C   UNL     1     -13.089  21.699  10.889  1.00  0.00     0.157 A 
ATOM     16  C   UNL     1     -15.315  22.654  11.023  1.00  0.00     0.062 A 
ATOM     17  C   UNL     1     -14.091  22.515  10.352  1.00  0.00     0.158 A 
BRANCH  15  18
ATOM     18  O   UNL     1     -11.875  21.562  10.219  1.00  0.00    -0.504 OA
ATOM     19  H   UNL     1     -11.040  21.242  10.695  1.00  0.00     0.293 HD
ENDBRANCH  15  18
BRANCH  17  20
ATOM     20  O   UNL     1     -13.867  23.181   9.148  1.00  0.00    -0.504 OA
ATOM     21  H   UNL     1     -14.527  23.860   8.787  1.00  0.00     0.293 HD
ENDBRANCH  17  20
ENDBRANCH   1  12
BRANCH   6  22
ATOM     22  O   UNL     1     -21.675  22.690  14.487  1.00  0.00    -0.507 OA
ATOM     23  H   UNL     1     -22.431  22.063  14.738  1.00  0.00     0.293 HD
ENDBRANCH   6  22
BRANCH   8  24
ATOM     24  O   UNL     1     -19.008  22.653  18.509  1.00  0.00    -0.508 OA
ATOM     25  H   UNL     1     -18.257  22.208  19.024  1.00  0.00     0.293 HD
ENDBRANCH   8  24
TORSDOF 5
ENDMDL
MODEL 5
REMARK VINA RESULT:    -6.607      1.419      7.277
REMARK INTER + INTRA:          -8.077
REMARK INTER:                  -7.782
REMARK INTRA:                  -0.294
REMARK UNBOUND:                -0.311
REMARK SMILES O=c1cc(-c2ccc(O)c(O)c2)oc2cc(O)cc(O)c12
REMARK SMILES IDX 4 1 3 2 2 3 1 4 21 5 19 6 18 7 16 8 15 9 14 10 13 11 5 12
REMARK SMILES IDX 6 13 7 14 8 15 12 16 10 17 9 18 11 20 20 22 17 24
REMARK H PARENT 9 19 11 21 20 23 17 25
REMARK Flexibility Score: inf
ROOT
ATOM      1  C   UNL     1     -18.471  22.129  13.620  1.00  0.00     0.138 A 
ATOM      2  C   UNL     1     -19.557  22.663  14.333  1.00  0.00     0.100 A 
ATOM      3  C   UNL     1     -19.485  22.761  15.722  1.00  0.00     0.197 A 
ATOM      4  O   UNL     1     -20.466  23.241  16.353  1.00  0.00    -0.289 OA
ATOM      5  C   UNL     1     -18.326  22.321  16.392  1.00  0.00     0.107 A 
ATOM      6  C   UNL     1     -18.170  22.386  17.797  1.00  0.00     0.134 A 
ATOM      7  C   UNL     1     -16.987  21.921  18.387  1.00  0.00     0.093 A 
ATOM      8  C   UNL     1     -15.958  21.394  17.602  1.00  0.00     0.123 A 
ATOM      9  C   UNL     1     -16.105  21.327  16.213  1.00  0.00     0.094 A 
ATOM     10  C   UNL     1     -17.278  21.786  15.605  1.00  0.00     0.146 A 
ATOM     11  O   UNL     1     -17.394  21.713  14.283  1.00  0.00    -0.456 OA
ENDROOT
BRANCH   1  12
ATOM     12  C   UNL     1     -18.492  21.999  12.141  1.00  0.00     0.021 A 
ATOM     13  C   UNL     1     -17.356  21.585  11.418  1.00  0.00     0.016 A 
ATOM     14  C   UNL     1     -17.408  21.462  10.027  1.00  0.00     0.051 A 
ATOM     15  C   UNL     1     -18.594  21.742   9.336  1.00  0.00     0.157 A 
ATOM     16  C   UNL     1     -19.682  22.265  11.440  1.00  0.00     0.062 A 
ATOM     17  C   UNL     1     -19.732  22.143  10.043  1.00  0.00     0.158 A 
BRANCH  15  18
ATOM     18  O   UNL     1     -18.648  21.621   7.949  1.00  0.00    -0.504 OA
ATOM     19  H   UNL     1     -17.934  22.025   7.353  1.00  0.00     0.293 HD
ENDBRANCH  15  18
BRANCH  17  20
ATOM     20  O   UNL     1     -20.912  22.417   9.354  1.00  0.00    -0.504 OA
ATOM     21  H   UNL     1     -20.930  22.498   8.343  1.00  0.00     0.293 HD
ENDBRANCH  17  20
ENDBRANCH   1  12
BRANCH   6  22
ATOM     22  O   UNL     1     -19.180  22.906  18.607  1.00  0.00    -0.507 OA
ATOM     23  H   UNL     1     -20.021  23.315  18.215  1.00  0.00     0.293 HD
ENDBRANCH   6  22
BRANCH   8  24
ATOM     24  O   UNL     1     -14.791  20.939  18.214  1.00  0.00    -0.508 OA
ATOM     25  H   UNL     1     -14.781  20.092  18.771  1.00  0.00     0.293 HD
ENDBRANCH   8  24
TORSDOF 5
ENDMDL
MODEL 6
REMARK VINA RESULT:    -6.572      1.797      7.047
REMARK INTER + INTRA:          -8.035
REMARK INTER:                  -7.724
REMARK INTRA:                  -0.311
REMARK UNBOUND:                -0.311
REMARK SMILES O=c1cc(-c2ccc(O)c(O)c2)oc2cc(O)cc(O)c12
REMARK SMILES IDX 4 1 3 2 2 3 1 4 21 5 19 6 18 7 16 8 15 9 14 10 13 11 5 12
REMARK SMILES IDX 6 13 7 14 8 15 12 16 10 17 9 18 11 20 20 22 17 24
REMARK H PARENT 9 19 11 21 20 23 17 25
REMARK Flexibility Score: inf
ROOT
ATOM      1  C   UNL     1     -18.050  22.214  13.114  1.00  0.00     0.138 A 
ATOM      2  C   UNL     1     -19.443  22.148  13.287  1.00  0.00     0.100 A 
ATOM      3  C   UNL     1     -19.976  22.140  14.575  1.00  0.00     0.197 A 
ATOM      4  O   UNL     1     -21.227  22.079  14.720  1.00  0.00    -0.289 OA
ATOM      5  C   UNL     1     -19.111  22.197  15.687  1.00  0.00     0.107 A 
ATOM      6  C   UNL     1     -19.568  22.195  17.026  1.00  0.00     0.134 A 
ATOM      7  C   UNL     1     -18.641  22.248  18.076  1.00  0.00     0.093 A 
ATOM      8  C   UNL     1     -17.269  22.301  17.815  1.00  0.00     0.123 A 
ATOM      9  C   UNL     1     -16.811  22.304  16.493  1.00  0.00     0.094 A 
ATOM     10  C   UNL     1     -17.720  22.252  15.432  1.00  0.00     0.146 A 
ATOM     11  O   UNL     1     -17.260  22.256  14.185  1.00  0.00    -0.456 OA
ENDROOT
BRANCH   1  12
ATOM     12  C   UNL     1     -17.427  22.224  11.766  1.00  0.00     0.021 A 
ATOM     13  C   UNL     1     -18.100  21.720  10.636  1.00  0.00     0.016 A 
ATOM     14  C   UNL     1     -17.493  21.751   9.378  1.00  0.00     0.051 A 
ATOM     15  C   UNL     1     -16.209  22.292   9.226  1.00  0.00     0.157 A 
ATOM     16  C   UNL     1     -16.144  22.777  11.601  1.00  0.00     0.062 A 
ATOM     17  C   UNL     1     -15.534  22.806  10.338  1.00  0.00     0.158 A 
BRANCH  15  18
ATOM     18  O   UNL     1     -15.601  22.323   7.972  1.00  0.00    -0.504 OA
ATOM     19  H   UNL     1     -16.117  22.582   7.139  1.00  0.00     0.293 HD
ENDBRANCH  15  18
BRANCH  17  20
ATOM     20  O   UNL     1     -14.260  23.348  10.183  1.00  0.00    -0.504 OA
ATOM     21  H   UNL     1     -13.496  23.090  10.797  1.00  0.00     0.293 HD
ENDBRANCH  17  20
ENDBRANCH   1  12
BRANCH   6  22
ATOM     22  O   UNL     1     -20.931  22.141  17.318  1.00  0.00    -0.507 OA
ATOM     23  H   UNL     1     -21.278  22.255  18.264  1.00  0.00     0.293 HD
ENDBRANCH   6  22
BRANCH   8  24
ATOM     24  O   UNL     1     -16.369  22.353  18.878  1.00  0.00    -0.508 OA
ATOM     25  H   UNL     1     -16.677  22.547  19.823  1.00  0.00     0.293 HD
ENDBRANCH   8  24
TORSDOF 5
ENDMDL
MODEL 7
REMARK VINA RESULT:    -6.362      1.214      2.703
REMARK INTER + INTRA:          -7.788
REMARK INTER:                  -7.502
REMARK INTRA:                  -0.286
REMARK UNBOUND:                -0.311
REMARK SMILES O=c1cc(-c2ccc(O)c(O)c2)oc2cc(O)cc(O)c12
REMARK SMILES IDX 4 1 3 2 2 3 1 4 21 5 19 6 18 7 16 8 15 9 14 10 13 11 5 12
REMARK SMILES IDX 6 13 7 14 8 15 12 16 10 17 9 18 11 20 20 22 17 24
REMARK H PARENT 9 19 11 21 20 23 17 25
REMARK Flexibility Score: inf
ROOT
ATOM      1  C   UNL     1     -17.631  22.255  13.829  1.00  0.00     0.138 A 
ATOM      2  C   UNL     1     -18.956  22.348  13.371  1.00  0.00     0.100 A 
ATOM      3  C   UNL     1     -19.199  22.593  12.019  1.00  0.00     0.197 A 
ATOM      4  O   UNL     1     -20.392  22.676  11.618  1.00  0.00    -0.289 OA
ATOM      5  C   UNL     1     -18.114  22.745  11.133  1.00  0.00     0.107 A 
ATOM      6  C   UNL     1     -18.273  22.993   9.749  1.00  0.00     0.134 A 
ATOM      7  C   UNL     1     -17.141  23.139   8.935  1.00  0.00     0.093 A 
ATOM      8  C   UNL     1     -15.856  23.041   9.477  1.00  0.00     0.123 A 
ATOM      9  C   UNL     1     -15.693  22.796  10.844  1.00  0.00     0.094 A 
ATOM     10  C   UNL     1     -16.809  22.647  11.672  1.00  0.00     0.146 A 
ATOM     11  O   UNL     1     -16.628  22.414  12.968  1.00  0.00    -0.456 OA
ENDROOT
BRANCH   1  12
ATOM     12  C   UNL     1     -17.312  21.997  15.256  1.00  0.00     0.021 A 
ATOM     13  C   UNL     1     -16.125  21.345  15.643  1.00  0.00     0.016 A 
ATOM     14  C   UNL     1     -15.846  21.125  16.995  1.00  0.00     0.051 A 
ATOM     15  C   UNL     1     -16.741  21.559  17.981  1.00  0.00     0.157 A 
ATOM     16  C   UNL     1     -18.198  22.441  16.254  1.00  0.00     0.062 A 
ATOM     17  C   UNL     1     -17.918  22.218  17.611  1.00  0.00     0.158 A 
BRANCH  15  18
ATOM     18  O   UNL     1     -16.466  21.340  19.329  1.00  0.00    -0.504 OA
ATOM     19  H   UNL     1     -15.736  21.851  19.812  1.00  0.00     0.293 HD
ENDBRANCH  15  18
BRANCH  17  20
ATOM     20  O   UNL     1     -18.805  22.653  18.594  1.00  0.00    -0.504 OA
ATOM     21  H   UNL     1     -18.573  23.419  19.216  1.00  0.00     0.293 HD
ENDBRANCH  17  20
ENDBRANCH   1  12
BRANCH   6  22
ATOM     22  O   UNL     1     -19.542  23.096   9.179  1.00  0.00    -0.507 OA
ATOM     23  H   UNL     1     -20.373  22.783   9.669  1.00  0.00     0.293 HD
ENDBRANCH   6  22
BRANCH   8  24
ATOM     24  O   UNL     1     -14.747  23.190   8.645  1.00  0.00    -0.508 OA
ATOM     25  H   UNL     1     -13.918  23.684   8.952  1.00  0.00     0.293 HD
ENDBRANCH   8  24
TORSDOF 5
ENDMDL
MODEL 8
REMARK VINA RESULT:    -6.287      2.424      3.404
REMARK INTER + INTRA:          -7.700
REMARK INTER:                  -7.383
REMARK INTRA:                  -0.317
REMARK UNBOUND:                -0.311
REMARK SMILES O=c1cc(-c2ccc(O)c(O)c2)oc2cc(O)cc(O)c12
REMARK SMILES IDX 4 1 3 2 2 3 1 4 21 5 19 6 18 7 16 8 15 9 14 10 13 11 5 12
REMARK SMILES IDX 6 13 7 14 8 15 12 16 10 17 9 18 11 20 20 22 17 24
REMARK H PARENT 9 19 11 21 20 23 17 25
REMARK Flexibility Score: inf
ROOT
ATOM      1  C   UNL     1     -17.282  22.116  12.971  1.00  0.00     0.138 A 
ATOM      2  C   UNL     1     -15.934  21.760  13.150  1.00  0.00     0.100 A 
ATOM      3  C   UNL     1     -15.028  21.954  12.108  1.00  0.00     0.197 A 
ATOM      4  O   UNL     1     -13.821  21.630  12.279  1.00  0.00    -0.289 OA
ATOM      5  C   UNL     1     -15.475  22.503  10.890  1.00  0.00     0.107 A 
ATOM      6  C   UNL     1     -14.622  22.735   9.785  1.00  0.00     0.134 A 
ATOM      7  C   UNL     1     -15.148  23.279   8.604  1.00  0.00     0.093 A 
ATOM      8  C   UNL     1     -16.505  23.596   8.508  1.00  0.00     0.123 A 
ATOM      9  C   UNL     1     -17.353  23.370   9.597  1.00  0.00     0.094 A 
ATOM     10  C   UNL     1     -16.849  22.828  10.783  1.00  0.00     0.146 A 
ATOM     11  O   UNL     1     -17.674  22.623  11.804  1.00  0.00    -0.456 OA
ENDROOT
BRANCH   1  12
ATOM     12  C   UNL     1     -18.291  21.931  14.044  1.00  0.00     0.021 A 
ATOM     13  C   UNL     1     -17.917  21.614  15.365  1.00  0.00     0.016 A 
ATOM     14  C   UNL     1     -18.888  21.455  16.357  1.00  0.00     0.051 A 
ATOM     15  C   UNL     1     -20.245  21.616  16.050  1.00  0.00     0.157 A 
ATOM     16  C   UNL     1     -19.655  22.104  13.749  1.00  0.00     0.062 A 
ATOM     17  C   UNL     1     -20.629  21.942  14.745  1.00  0.00     0.158 A 
BRANCH  15  18
ATOM     18  O   UNL     1     -21.216  21.457  17.037  1.00  0.00    -0.504 OA
ATOM     19  H   UNL     1     -21.606  22.252  17.531  1.00  0.00     0.293 HD
ENDBRANCH  15  18
BRANCH  17  20
ATOM     20  O   UNL     1     -21.980  22.107  14.443  1.00  0.00    -0.504 OA
ATOM     21  H   UNL     1     -22.339  22.982  14.080  1.00  0.00     0.293 HD
ENDBRANCH  17  20
ENDBRANCH   1  12
BRANCH   6  22
ATOM     22  O   UNL     1     -13.263  22.428   9.850  1.00  0.00    -0.507 OA
ATOM     23  H   UNL     1     -12.550  23.141   9.744  1.00  0.00     0.293 HD
ENDBRANCH   6  22
BRANCH   8  24
ATOM     24  O   UNL     1     -17.002  24.136   7.322  1.00  0.00    -0.508 OA
ATOM     25  H   UNL     1     -17.666  23.631   6.748  1.00  0.00     0.293 HD
ENDBRANCH   8  24
TORSDOF 5
ENDMDL
MODEL 9
REMARK VINA RESULT:    -6.276      1.682      6.802
REMARK INTER + INTRA:          -7.687
REMARK INTER:                  -7.390
REMARK INTRA:                  -0.297
REMARK UNBOUND:                -0.311
REMARK SMILES O=c1cc(-c2ccc(O)c(O)c2)oc2cc(O)cc(O)c12
REMARK SMILES IDX 4 1 3 2 2 3 1 4 21 5 19 6 18 7 16 8 15 9 14 10 13 11 5 12
REMARK SMILES IDX 6 13 7 14 8 15 12 16 10 17 9 18 11 20 20 22 17 24
REMARK H PARENT 9 19 11 21 20 23 17 25
REMARK Flexibility Score: inf
ROOT
ATOM      1  C   UNL     1     -18.039  22.096  13.613  1.00  0.00     0.138 A 
ATOM      2  C   UNL     1     -16.881  22.611  14.220  1.00  0.00     0.100 A 
ATOM      3  C   UNL     1     -16.808  22.680  15.611  1.00  0.00     0.197 A 
ATOM      4  O   UNL     1     -15.765  23.145  16.146  1.00  0.00    -0.289 OA
ATOM      5  C   UNL     1     -17.895  22.235  16.388  1.00  0.00     0.107 A 
ATOM      6  C   UNL     1     -17.902  22.268  17.803  1.00  0.00     0.134 A 
ATOM      7  C   UNL     1     -19.028  21.811  18.503  1.00  0.00     0.093 A 
ATOM      8  C   UNL     1     -20.144  21.324  17.818  1.00  0.00     0.123 A 
ATOM      9  C   UNL     1     -20.143  21.288  16.420  1.00  0.00     0.094 A 
ATOM     10  C   UNL     1     -19.030  21.738  15.704  1.00  0.00     0.146 A 
ATOM     11  O   UNL     1     -19.053  21.693  14.375  1.00  0.00    -0.456 OA
ENDROOT
BRANCH   1  12
ATOM     12  C   UNL     1     -18.174  22.000  12.137  1.00  0.00     0.021 A 
ATOM     13  C   UNL     1     -17.110  21.563  11.324  1.00  0.00     0.016 A 
ATOM     14  C   UNL     1     -17.269  21.473   9.938  1.00  0.00     0.051 A 
ATOM     15  C   UNL     1     -18.492  21.810   9.343  1.00  0.00     0.157 A 
ATOM     16  C   UNL     1     -19.402  22.323  11.532  1.00  0.00     0.062 A 
ATOM     17  C   UNL     1     -19.560  22.235  10.141  1.00  0.00     0.158 A 
BRANCH  15  18
ATOM     18  O   UNL     1     -18.652  21.722   7.962  1.00  0.00    -0.504 OA
ATOM     19  H   UNL     1     -19.137  22.441   7.437  1.00  0.00     0.293 HD
ENDBRANCH  15  18
BRANCH  17  20
ATOM     20  O   UNL     1     -20.777  22.564   9.547  1.00  0.00    -0.504 OA
ATOM     21  H   UNL     1     -20.834  22.837   8.572  1.00  0.00     0.293 HD
ENDBRANCH  17  20
ENDBRANCH   1  12
BRANCH   6  22
ATOM     22  O   UNL     1     -16.803  22.750  18.514  1.00  0.00    -0.507 OA
ATOM     23  H   UNL     1     -16.718  23.728  18.765  1.00  0.00     0.293 HD
ENDBRANCH   6  22
BRANCH   8  24
ATOM     24  O   UNL     1     -21.250  20.875  18.539  1.00  0.00    -0.508 OA
ATOM     25  H   UNL     1     -21.586  21.372  19.356  1.00  0.00     0.293 HD
ENDBRANCH   8  24
TORSDOF 5
ENDMDL
