MODEL 1
REMARK VINA RESULT:    -4.453      0.000      0.000
REMARK INTER + INTRA:         -10.749
REMARK INTER:                  -8.618
REMARK INTRA:                  -2.131
REMARK UNBOUND:                -2.131
REMARK SMILES CCCCCCCCCCCCCCCCCC(=O)[O-]
REMARK SMILES IDX 10 1 11 2 12 3 13 4 14 5 15 6 16 7 17 8 18 9 19 10 20 11
REMARK SMILES IDX 9 12 8 13 7 14 6 15 5 16 4 17 3 18 2 19 1 20
REMARK H PARENT
REMARK Flexibility Score: inf
ROOT
ATOM      1  C   UNL     1      19.848  -6.368  47.790  1.00  0.00     0.000 C 
ENDROOT
BRANCH   1   2
ATOM      2  C   UNL     1      20.645  -7.409  48.591  1.00  0.00     0.000 C 
BRANCH   2   3
ATOM      3  C   UNL     1      20.368  -7.273  50.095  1.00  0.00     0.000 C 
BRANCH   3   4
ATOM      4  C   UNL     1      21.647  -7.050  50.919  1.00  0.00     0.000 C 
BRANCH   4   5
ATOM      5  C   UNL     1      22.555  -5.962  50.321  1.00  0.00     0.000 C 
BRANCH   5   6
ATOM      6  C   UNL     1      22.980  -4.914  51.363  1.00  0.00     0.000 C 
BRANCH   6   7
ATOM      7  C   UNL     1      23.178  -3.517  50.747  1.00  0.00     0.006 C 
BRANCH   7   8
ATOM      8  C   UNL     1      23.173  -3.555  49.214  1.00  0.00     0.053 C 
BRANCH   8   9
ATOM      9  C   UNL     1      22.604  -2.301  48.624  1.00  0.00     0.041 C 
ATOM     10  O   UNL     1      22.026  -1.461  49.362  1.00  0.00    -0.550 OA
ATOM     11  O   UNL     1      22.739  -2.047  47.265  1.00  0.00    -0.550 OA
ENDBRANCH   8   9
ENDBRANCH   7   8
ENDBRANCH   6   7
ENDBRANCH   5   6
ENDBRANCH   4   5
ENDBRANCH   3   4
ENDBRANCH   2   3
ENDBRANCH   1   2
BRANCH   1  12
ATOM     12  C   UNL     1      20.748  -5.307  47.136  1.00  0.00     0.000 C 
BRANCH  12  13
ATOM     13  C   UNL     1      22.003  -5.913  46.489  1.00  0.00    -0.000 C 
BRANCH  13  14
ATOM     14  C   UNL     1      22.191  -5.389  45.056  1.00  0.00    -0.000 C 
BRANCH  14  15
ATOM     15  C   UNL     1      22.175  -6.512  44.001  1.00  0.00    -0.000 C 
BRANCH  15  16
ATOM     16  C   UNL     1      20.982  -6.475  43.028  1.00  0.00    -0.000 C 
BRANCH  16  17
ATOM     17  C   UNL     1      20.186  -5.156  43.020  1.00  0.00    -0.000 C 
BRANCH  17  18
ATOM     18  C   UNL     1      18.742  -5.297  43.548  1.00  0.00    -0.000 C 
BRANCH  18  19
ATOM     19  C   UNL     1      18.260  -6.755  43.557  1.00  0.00    -0.003 C 
ATOM     20  C   UNL     1      17.995  -7.237  44.981  1.00  0.00     0.004 C 
ENDBRANCH  18  19
ENDBRANCH  17  18
ENDBRANCH  16  17
ENDBRANCH  15  16
ENDBRANCH  14  15
ENDBRANCH  13  14
ENDBRANCH  12  13
ENDBRANCH   1  12
TORSDOF 16
ENDMDL
MODEL 2
REMARK VINA RESULT:    -4.381      1.182      2.278
REMARK INTER + INTRA:         -10.610
REMARK INTER:                  -8.034
REMARK INTRA:                  -2.577
REMARK UNBOUND:                -2.131
REMARK SMILES CCCCCCCCCCCCCCCCCC(=O)[O-]
REMARK SMILES IDX 10 1 11 2 12 3 13 4 14 5 15 6 16 7 17 8 18 9 19 10 20 11
REMARK SMILES IDX 9 12 8 13 7 14 6 15 5 16 4 17 3 18 2 19 1 20
REMARK H PARENT
REMARK Flexibility Score: inf
ROOT
ATOM      1  C   UNL     1      21.560  -7.579  48.358  1.00  0.00     0.000 C 
ENDROOT
BRANCH   1   2
ATOM      2  C   UNL     1      20.482  -7.438  49.443  1.00  0.00     0.000 C 
BRANCH   2   3
ATOM      3  C   UNL     1      21.085  -6.896  50.747  1.00  0.00     0.000 C 
BRANCH   3   4
ATOM      4  C   UNL     1      22.572  -6.528  50.608  1.00  0.00     0.000 C 
BRANCH   4   5
ATOM      5  C   UNL     1      22.955  -5.288  51.434  1.00  0.00     0.000 C 
BRANCH   5   6
ATOM      6  C   UNL     1      23.311  -4.080  50.550  1.00  0.00     0.000 C 
BRANCH   6   7
ATOM      7  C   UNL     1      23.410  -4.451  49.059  1.00  0.00     0.006 C 
BRANCH   7   8
ATOM      8  C   UNL     1      22.511  -3.567  48.184  1.00  0.00     0.053 C 
BRANCH   8   9
ATOM      9  C   UNL     1      22.897  -2.122  48.266  1.00  0.00     0.041 C 
ATOM     10  O   UNL     1      23.976  -1.724  47.753  1.00  0.00    -0.550 OA
ATOM     11  O   UNL     1      22.051  -1.209  48.882  1.00  0.00    -0.550 OA
ENDBRANCH   8   9
ENDBRANCH   7   8
ENDBRANCH   6   7
ENDBRANCH   5   6
ENDBRANCH   4   5
ENDBRANCH   3   4
ENDBRANCH   2   3
ENDBRANCH   1   2
BRANCH   1  12
ATOM     12  C   UNL     1      21.161  -6.907  47.034  1.00  0.00     0.000 C 
BRANCH  12  13
ATOM     13  C   UNL     1      19.699  -6.434  47.027  1.00  0.00    -0.000 C 
BRANCH  13  14
ATOM     14  C   UNL     1      18.914  -7.092  45.882  1.00  0.00    -0.000 C 
BRANCH  14  15
ATOM     15  C   UNL     1      19.778  -8.040  45.030  1.00  0.00    -0.000 C 
BRANCH  15  16
ATOM     16  C   UNL     1      19.918  -7.642  43.549  1.00  0.00    -0.000 C 
BRANCH  16  17
ATOM     17  C   UNL     1      21.075  -6.672  43.240  1.00  0.00    -0.000 C 
BRANCH  17  18
ATOM     18  C   UNL     1      20.644  -5.192  43.168  1.00  0.00    -0.000 C 
BRANCH  18  19
ATOM     19  C   UNL     1      21.327  -4.327  44.237  1.00  0.00    -0.003 C 
ATOM     20  C   UNL     1      20.306  -3.487  44.999  1.00  0.00     0.004 C 
ENDBRANCH  18  19
ENDBRANCH  17  18
ENDBRANCH  16  17
ENDBRANCH  15  16
ENDBRANCH  14  15
ENDBRANCH  13  14
ENDBRANCH  12  13
ENDBRANCH   1  12
TORSDOF 16
ENDMDL
MODEL 3
REMARK VINA RESULT:    -4.363      1.777      6.409
REMARK INTER + INTRA:         -10.575
REMARK INTER:                  -8.531
REMARK INTRA:                  -2.044
REMARK UNBOUND:                -2.131
REMARK SMILES CCCCCCCCCCCCCCCCCC(=O)[O-]
REMARK SMILES IDX 10 1 11 2 12 3 13 4 14 5 15 6 16 7 17 8 18 9 19 10 20 11
REMARK SMILES IDX 9 12 8 13 7 14 6 15 5 16 4 17 3 18 2 19 1 20
REMARK H PARENT
REMARK Flexibility Score: inf
ROOT
ATOM      1  C   UNL     1      19.292  -6.741  46.452  1.00  0.00     0.000 C 
ENDROOT
BRANCH   1   2
ATOM      2  C   UNL     1      20.027  -7.507  45.341  1.00  0.00     0.000 C 
BRANCH   2   3
ATOM      3  C   UNL     1      19.119  -7.705  44.119  1.00  0.00     0.000 C 
BRANCH   3   4
ATOM      4  C   UNL     1      18.611  -6.376  43.532  1.00  0.00     0.000 C 
BRANCH   4   5
ATOM      5  C   UNL     1      19.728  -5.563  42.855  1.00  0.00     0.000 C 
BRANCH   5   6
ATOM      6  C   UNL     1      19.607  -4.055  43.135  1.00  0.00     0.000 C 
BRANCH   6   7
ATOM      7  C   UNL     1      20.137  -3.669  44.528  1.00  0.00     0.006 C 
BRANCH   7   8
ATOM      8  C   UNL     1      21.603  -4.077  44.722  1.00  0.00     0.053 C 
BRANCH   8   9
ATOM      9  C   UNL     1      22.534  -2.916  44.549  1.00  0.00     0.041 C 
ATOM     10  O   UNL     1      23.764  -3.051  44.780  1.00  0.00    -0.550 OA
ATOM     11  O   UNL     1      22.047  -1.694  44.103  1.00  0.00    -0.550 OA
ENDBRANCH   8   9
ENDBRANCH   7   8
ENDBRANCH   6   7
ENDBRANCH   5   6
ENDBRANCH   4   5
ENDBRANCH   3   4
ENDBRANCH   2   3
ENDBRANCH   1   2
BRANCH   1  12
ATOM     12  C   UNL     1      20.231  -6.285  47.580  1.00  0.00     0.000 C 
BRANCH  12  13
ATOM     13  C   UNL     1      20.865  -7.462  48.335  1.00  0.00    -0.000 C 
BRANCH  13  14
ATOM     14  C   UNL     1      20.162  -7.695  49.681  1.00  0.00    -0.000 C 
BRANCH  14  15
ATOM     15  C   UNL     1      20.916  -7.068  50.869  1.00  0.00    -0.000 C 
BRANCH  15  16
ATOM     16  C   UNL     1      22.377  -7.528  51.030  1.00  0.00    -0.000 C 
BRANCH  16  17
ATOM     17  C   UNL     1      23.433  -6.418  50.863  1.00  0.00    -0.000 C 
BRANCH  17  18
ATOM     18  C   UNL     1      22.934  -5.016  51.275  1.00  0.00    -0.000 C 
BRANCH  18  19
ATOM     19  C   UNL     1      23.459  -3.909  50.350  1.00  0.00    -0.003 C 
ATOM     20  C   UNL     1      23.021  -4.146  48.907  1.00  0.00     0.004 C 
ENDBRANCH  18  19
ENDBRANCH  17  18
ENDBRANCH  16  17
ENDBRANCH  15  16
ENDBRANCH  14  15
ENDBRANCH  13  14
ENDBRANCH  12  13
ENDBRANCH   1  12
TORSDOF 16
ENDMDL
MODEL 4
REMARK VINA RESULT:    -4.350      1.653      5.568
REMARK INTER + INTRA:         -10.550
REMARK INTER:                  -7.973
REMARK INTRA:                  -2.576
REMARK UNBOUND:                -2.131
REMARK SMILES CCCCCCCCCCCCCCCCCC(=O)[O-]
REMARK SMILES IDX 10 1 11 2 12 3 13 4 14 5 15 6 16 7 17 8 18 9 19 10 20 11
REMARK SMILES IDX 9 12 8 13 7 14 6 15 5 16 4 17 3 18 2 19 1 20
REMARK H PARENT
REMARK Flexibility Score: inf
ROOT
ATOM      1  C   UNL     1      20.819  -8.034  45.674  1.00  0.00     0.000 C 
ENDROOT
BRANCH   1   2
ATOM      2  C   UNL     1      21.769  -7.503  44.589  1.00  0.00     0.000 C 
BRANCH   2   3
ATOM      3  C   UNL     1      21.352  -6.096  44.137  1.00  0.00     0.000 C 
BRANCH   3   4
ATOM      4  C   UNL     1      22.320  -5.004  44.621  1.00  0.00     0.000 C 
BRANCH   4   5
ATOM      5  C   UNL     1      23.377  -5.540  45.602  1.00  0.00     0.000 C 
BRANCH   5   6
ATOM      6  C   UNL     1      23.231  -4.937  47.010  1.00  0.00     0.000 C 
BRANCH   6   7
ATOM      7  C   UNL     1      22.315  -3.700  47.029  1.00  0.00     0.006 C 
BRANCH   7   8
ATOM      8  C   UNL     1      23.103  -2.401  47.235  1.00  0.00     0.053 C 
BRANCH   8   9
ATOM      9  C   UNL     1      22.883  -1.430  46.115  1.00  0.00     0.041 C 
ATOM     10  O   UNL     1      21.716  -1.069  45.810  1.00  0.00    -0.550 OA
ATOM     11  O   UNL     1      23.969  -0.901  45.428  1.00  0.00    -0.550 OA
ENDBRANCH   8   9
ENDBRANCH   7   8
ENDBRANCH   6   7
ENDBRANCH   5   6
ENDBRANCH   4   5
ENDBRANCH   3   4
ENDBRANCH   2   3
ENDBRANCH   1   2
BRANCH   1  12
ATOM     12  C   UNL     1      19.698  -7.041  46.019  1.00  0.00     0.000 C 
BRANCH  12  13
ATOM     13  C   UNL     1      19.842  -6.453  47.431  1.00  0.00    -0.000 C 
BRANCH  13  14
ATOM     14  C   UNL     1      20.647  -7.394  48.340  1.00  0.00    -0.000 C 
BRANCH  14  15
ATOM     15  C   UNL     1      20.211  -7.320  49.816  1.00  0.00    -0.000 C 
BRANCH  15  16
ATOM     16  C   UNL     1      21.364  -7.284  50.836  1.00  0.00    -0.000 C 
BRANCH  16  17
ATOM     17  C   UNL     1      22.777  -7.395  50.228  1.00  0.00    -0.000 C 
BRANCH  17  18
ATOM     18  C   UNL     1      23.673  -6.169  50.509  1.00  0.00    -0.000 C 
BRANCH  18  19
ATOM     19  C   UNL     1      22.924  -5.051  51.248  1.00  0.00    -0.003 C 
ATOM     20  C   UNL     1      23.358  -3.676  50.747  1.00  0.00     0.004 C 
ENDBRANCH  18  19
ENDBRANCH  17  18
ENDBRANCH  16  17
ENDBRANCH  15  16
ENDBRANCH  14  15
ENDBRANCH  13  14
ENDBRANCH  12  13
ENDBRANCH   1  12
TORSDOF 16
ENDMDL
MODEL 5
REMARK VINA RESULT:    -4.315      2.783      6.744
REMARK INTER + INTRA:         -10.481
REMARK INTER:                  -8.345
REMARK INTRA:                  -2.136
REMARK UNBOUND:                -2.131
REMARK SMILES CCCCCCCCCCCCCCCCCC(=O)[O-]
REMARK SMILES IDX 10 1 11 2 12 3 13 4 14 5 15 6 16 7 17 8 18 9 19 10 20 11
REMARK SMILES IDX 9 12 8 13 7 14 6 15 5 16 4 17 3 18 2 19 1 20
REMARK H PARENT
REMARK Flexibility Score: inf
ROOT
ATOM      1  C   UNL     1      19.889  -6.608  48.496  1.00  0.00     0.000 C 
ENDROOT
BRANCH   1   2
ATOM      2  C   UNL     1      20.893  -6.659  47.334  1.00  0.00     0.000 C 
BRANCH   2   3
ATOM      3  C   UNL     1      21.982  -5.590  47.502  1.00  0.00     0.000 C 
BRANCH   3   4
ATOM      4  C   UNL     1      21.500  -4.182  47.114  1.00  0.00     0.000 C 
BRANCH   4   5
ATOM      5  C   UNL     1      21.582  -3.925  45.599  1.00  0.00     0.000 C 
BRANCH   5   6
ATOM      6  C   UNL     1      20.209  -3.609  44.982  1.00  0.00     0.000 C 
BRANCH   6   7
ATOM      7  C   UNL     1      19.550  -4.846  44.345  1.00  0.00     0.006 C 
BRANCH   7   8
ATOM      8  C   UNL     1      20.395  -5.428  43.205  1.00  0.00     0.053 C 
BRANCH   8   9
ATOM      9  C   UNL     1      20.567  -6.911  43.336  1.00  0.00     0.041 C 
ATOM     10  O   UNL     1      21.691  -7.439  43.131  1.00  0.00    -0.550 OA
ATOM     11  O   UNL     1      19.491  -7.705  43.714  1.00  0.00    -0.550 OA
ENDBRANCH   8   9
ENDBRANCH   7   8
ENDBRANCH   6   7
ENDBRANCH   5   6
ENDBRANCH   4   5
ENDBRANCH   3   4
ENDBRANCH   2   3
ENDBRANCH   1   2
BRANCH   1  12
ATOM     12  C   UNL     1      20.266  -7.554  49.648  1.00  0.00     0.000 C 
BRANCH  12  13
ATOM     13  C   UNL     1      20.971  -6.828  50.803  1.00  0.00    -0.000 C 
BRANCH  13  14
ATOM     14  C   UNL     1      22.408  -7.342  50.981  1.00  0.00    -0.000 C 
BRANCH  14  15
ATOM     15  C   UNL     1      23.455  -6.213  50.964  1.00  0.00    -0.000 C 
BRANCH  15  16
ATOM     16  C   UNL     1      22.902  -4.806  51.256  1.00  0.00    -0.000 C 
BRANCH  16  17
ATOM     17  C   UNL     1      23.561  -3.667  50.453  1.00  0.00    -0.000 C 
BRANCH  17  18
ATOM     18  C   UNL     1      22.852  -2.304  50.610  1.00  0.00    -0.000 C 
BRANCH  18  19
ATOM     19  C   UNL     1      23.255  -1.303  49.517  1.00  0.00    -0.003 C 
ATOM     20  C   UNL     1      24.139  -1.965  48.464  1.00  0.00     0.004 C 
ENDBRANCH  18  19
ENDBRANCH  17  18
ENDBRANCH  16  17
ENDBRANCH  15  16
ENDBRANCH  14  15
ENDBRANCH  13  14
ENDBRANCH  12  13
ENDBRANCH   1  12
TORSDOF 16
ENDMDL
MODEL 6
REMARK VINA RESULT:    -4.313      1.461      2.106
REMARK INTER + INTRA:         -10.477
REMARK INTER:                  -7.993
REMARK INTRA:                  -2.485
REMARK UNBOUND:                -2.131
REMARK SMILES CCCCCCCCCCCCCCCCCC(=O)[O-]
REMARK SMILES IDX 10 1 11 2 12 3 13 4 14 5 15 6 16 7 17 8 18 9 19 10 20 11
REMARK SMILES IDX 9 12 8 13 7 14 6 15 5 16 4 17 3 18 2 19 1 20
REMARK H PARENT
REMARK Flexibility Score: inf
ROOT
ATOM      1  C   UNL     1      19.865  -6.543  47.533  1.00  0.00     0.000 C 
ENDROOT
BRANCH   1   2
ATOM      2  C   UNL     1      20.702  -7.443  48.456  1.00  0.00     0.000 C 
BRANCH   2   3
ATOM      3  C   UNL     1      20.306  -7.241  49.925  1.00  0.00     0.000 C 
BRANCH   3   4
ATOM      4  C   UNL     1      21.473  -7.486  50.896  1.00  0.00     0.000 C 
BRANCH   4   5
ATOM      5  C   UNL     1      22.316  -6.223  51.142  1.00  0.00     0.000 C 
BRANCH   5   6
ATOM      6  C   UNL     1      23.486  -6.096  50.151  1.00  0.00     0.000 C 
BRANCH   6   7
ATOM      7  C   UNL     1      24.138  -4.702  50.184  1.00  0.00     0.006 C 
BRANCH   7   8
ATOM      8  C   UNL     1      23.245  -3.663  50.874  1.00  0.00     0.053 C 
BRANCH   8   9
ATOM      9  C   UNL     1      23.056  -2.439  50.031  1.00  0.00     0.041 C 
ATOM     10  O   UNL     1      23.259  -1.296  50.518  1.00  0.00    -0.550 OA
ATOM     11  O   UNL     1      22.684  -2.562  48.698  1.00  0.00    -0.550 OA
ENDBRANCH   8   9
ENDBRANCH   7   8
ENDBRANCH   6   7
ENDBRANCH   5   6
ENDBRANCH   4   5
ENDBRANCH   3   4
ENDBRANCH   2   3
ENDBRANCH   1   2
BRANCH   1  12
ATOM     12  C   UNL     1      20.675  -5.375  46.949  1.00  0.00     0.000 C 
BRANCH  12  13
ATOM     13  C   UNL     1      22.145  -5.742  46.694  1.00  0.00    -0.000 C 
BRANCH  13  14
ATOM     14  C   UNL     1      22.501  -5.581  45.208  1.00  0.00    -0.000 C 
BRANCH  14  15
ATOM     15  C   UNL     1      21.261  -5.485  44.300  1.00  0.00    -0.000 C 
BRANCH  15  16
ATOM     16  C   UNL     1      21.109  -6.629  43.280  1.00  0.00    -0.000 C 
BRANCH  16  17
ATOM     17  C   UNL     1      20.019  -7.666  43.620  1.00  0.00    -0.000 C 
BRANCH  17  18
ATOM     18  C   UNL     1      20.467  -8.725  44.650  1.00  0.00    -0.000 C 
BRANCH  18  19
ATOM     19  C   UNL     1      21.931  -9.147  44.461  1.00  0.00    -0.003 C 
ATOM     20  C   UNL     1      22.620  -9.357  45.807  1.00  0.00     0.004 C 
ENDBRANCH  18  19
ENDBRANCH  17  18
ENDBRANCH  16  17
ENDBRANCH  15  16
ENDBRANCH  14  15
ENDBRANCH  13  14
ENDBRANCH  12  13
ENDBRANCH   1  12
TORSDOF 16
ENDMDL
MODEL 7
REMARK VINA RESULT:    -4.308      2.377      6.617
REMARK INTER + INTRA:         -10.469
REMARK INTER:                  -7.675
REMARK INTRA:                  -2.794
REMARK UNBOUND:                -2.131
REMARK SMILES CCCCCCCCCCCCCCCCCC(=O)[O-]
REMARK SMILES IDX 10 1 11 2 12 3 13 4 14 5 15 6 16 7 17 8 18 9 19 10 20 11
REMARK SMILES IDX 9 12 8 13 7 14 6 15 5 16 4 17 3 18 2 19 1 20
REMARK H PARENT
REMARK Flexibility Score: inf
ROOT
ATOM      1  C   UNL     1      22.386  -8.573  47.085  1.00  0.00     0.000 C 
ENDROOT
BRANCH   1   2
ATOM      2  C   UNL     1      22.718  -9.427  45.851  1.00  0.00     0.000 C 
BRANCH   2   3
ATOM      3  C   UNL     1      22.234  -8.743  44.564  1.00  0.00     0.000 C 
BRANCH   3   4
ATOM      4  C   UNL     1      21.407  -9.678  43.666  1.00  0.00     0.000 C 
BRANCH   4   5
ATOM      5  C   UNL     1      19.939  -9.235  43.542  1.00  0.00     0.000 C 
BRANCH   5   6
ATOM      6  C   UNL     1      19.627  -7.992  44.393  1.00  0.00     0.000 C 
BRANCH   6   7
ATOM      7  C   UNL     1      19.216  -6.780  43.538  1.00  0.00     0.006 C 
BRANCH   7   8
ATOM      8  C   UNL     1      20.237  -5.638  43.626  1.00  0.00     0.053 C 
BRANCH   8   9
ATOM      9  C   UNL     1      19.596  -4.344  44.028  1.00  0.00     0.041 C 
ATOM     10  O   UNL     1      18.635  -3.880  43.360  1.00  0.00    -0.550 OA
ATOM     11  O   UNL     1      20.040  -3.668  45.157  1.00  0.00    -0.550 OA
ENDBRANCH   8   9
ENDBRANCH   7   8
ENDBRANCH   6   7
ENDBRANCH   5   6
ENDBRANCH   4   5
ENDBRANCH   3   4
ENDBRANCH   2   3
ENDBRANCH   1   2
BRANCH   1  12
ATOM     12  C   UNL     1      22.544  -7.067  46.823  1.00  0.00     0.000 C 
BRANCH  12  13
ATOM     13  C   UNL     1      21.315  -6.257  47.264  1.00  0.00    -0.000 C 
BRANCH  13  14
ATOM     14  C   UNL     1      20.270  -7.163  47.932  1.00  0.00    -0.000 C 
BRANCH  14  15
ATOM     15  C   UNL     1      19.954  -6.746  49.381  1.00  0.00    -0.000 C 
BRANCH  15  16
ATOM     16  C   UNL     1      20.438  -7.729  50.464  1.00  0.00    -0.000 C 
BRANCH  16  17
ATOM     17  C   UNL     1      21.898  -7.534  50.916  1.00  0.00    -0.000 C 
BRANCH  17  18
ATOM     18  C   UNL     1      22.380  -6.069  50.852  1.00  0.00    -0.000 C 
BRANCH  18  19
ATOM     19  C   UNL     1      23.795  -5.940  50.271  1.00  0.00    -0.003 C 
ATOM     20  C   UNL     1      24.412  -7.312  50.016  1.00  0.00     0.004 C 
ENDBRANCH  18  19
ENDBRANCH  17  18
ENDBRANCH  16  17
ENDBRANCH  15  16
ENDBRANCH  14  15
ENDBRANCH  13  14
ENDBRANCH  12  13
ENDBRANCH   1  12
TORSDOF 16
ENDMDL
MODEL 8
REMARK VINA RESULT:    -4.303      2.828      6.842
REMARK INTER + INTRA:         -10.459
REMARK INTER:                  -7.602
REMARK INTRA:                  -2.857
REMARK UNBOUND:                -2.131
REMARK SMILES CCCCCCCCCCCCCCCCCC(=O)[O-]
REMARK SMILES IDX 10 1 11 2 12 3 13 4 14 5 15 6 16 7 17 8 18 9 19 10 20 11
REMARK SMILES IDX 9 12 8 13 7 14 6 15 5 16 4 17 3 18 2 19 1 20
REMARK H PARENT
REMARK Flexibility Score: inf
ROOT
ATOM      1  C   UNL     1      21.323  -6.287  46.939  1.00  0.00     0.000 C 
ENDROOT
BRANCH   1   2
ATOM      2  C   UNL     1      22.570  -7.049  46.463  1.00  0.00     0.000 C 
BRANCH   2   3
ATOM      3  C   UNL     1      22.722  -8.377  47.218  1.00  0.00     0.000 C 
BRANCH   3   4
ATOM      4  C   UNL     1      23.001  -9.566  46.283  1.00  0.00     0.000 C 
BRANCH   4   5
ATOM      5  C   UNL     1      21.766  -9.975  45.461  1.00  0.00     0.000 C 
BRANCH   5   6
ATOM      6  C   UNL     1      21.980  -9.792  43.949  1.00  0.00     0.000 C 
BRANCH   6   7
ATOM      7  C   UNL     1      20.695  -9.361  43.220  1.00  0.00     0.006 C 
BRANCH   7   8
ATOM      8  C   UNL     1      19.918  -8.293  43.999  1.00  0.00     0.053 C 
BRANCH   8   9
ATOM      9  C   UNL     1      20.098  -6.928  43.409  1.00  0.00     0.041 C 
ATOM     10  O   UNL     1      19.098  -6.195  43.192  1.00  0.00    -0.550 OA
ATOM     11  O   UNL     1      21.373  -6.454  43.125  1.00  0.00    -0.550 OA
ENDBRANCH   8   9
ENDBRANCH   7   8
ENDBRANCH   6   7
ENDBRANCH   5   6
ENDBRANCH   4   5
ENDBRANCH   3   4
ENDBRANCH   2   3
ENDBRANCH   1   2
BRANCH   1  12
ATOM     12  C   UNL     1      20.276  -7.208  47.585  1.00  0.00     0.000 C 
BRANCH  12  13
ATOM     13  C   UNL     1      19.852  -6.734  48.983  1.00  0.00    -0.000 C 
BRANCH  13  14
ATOM     14  C   UNL     1      20.256  -7.757  50.057  1.00  0.00    -0.000 C 
BRANCH  14  15
ATOM     15  C   UNL     1      21.289  -7.201  51.055  1.00  0.00    -0.000 C 
BRANCH  15  16
ATOM     16  C   UNL     1      22.714  -7.766  50.901  1.00  0.00    -0.000 C 
BRANCH  16  17
ATOM     17  C   UNL     1      23.769  -6.751  50.419  1.00  0.00    -0.000 C 
BRANCH  17  18
ATOM     18  C   UNL     1      23.459  -5.293  50.819  1.00  0.00    -0.000 C 
BRANCH  18  19
ATOM     19  C   UNL     1      23.211  -4.390  49.602  1.00  0.00    -0.003 C 
ATOM     20  C   UNL     1      24.355  -4.496  48.597  1.00  0.00     0.004 C 
ENDBRANCH  18  19
ENDBRANCH  17  18
ENDBRANCH  16  17
ENDBRANCH  15  16
ENDBRANCH  14  15
ENDBRANCH  13  14
ENDBRANCH  12  13
ENDBRANCH   1  12
TORSDOF 16
ENDMDL
MODEL 9
REMARK VINA RESULT:    -4.238      1.639      2.809
REMARK INTER + INTRA:         -10.333
REMARK INTER:                  -7.801
REMARK INTRA:                  -2.532
REMARK UNBOUND:                -2.131
REMARK SMILES CCCCCCCCCCCCCCCCCC(=O)[O-]
REMARK SMILES IDX 10 1 11 2 12 3 13 4 14 5 15 6 16 7 17 8 18 9 19 10 20 11
REMARK SMILES IDX 9 12 8 13 7 14 6 15 5 16 4 17 3 18 2 19 1 20
REMARK H PARENT
REMARK Flexibility Score: inf
ROOT
ATOM      1  C   UNL     1      20.710  -7.180  50.385  1.00  0.00     0.000 C 
ENDROOT
BRANCH   1   2
ATOM      2  C   UNL     1      22.178  -7.046  50.818  1.00  0.00     0.000 C 
BRANCH   2   3
ATOM      3  C   UNL     1      22.511  -5.592  51.182  1.00  0.00     0.000 C 
BRANCH   3   4
ATOM      4  C   UNL     1      23.576  -4.975  50.260  1.00  0.00     0.000 C 
BRANCH   4   5
ATOM      5  C   UNL     1      23.937  -5.891  49.077  1.00  0.00     0.000 C 
BRANCH   5   6
ATOM      6  C   UNL     1      23.476  -5.314  47.727  1.00  0.00     0.000 C 
BRANCH   6   7
ATOM      7  C   UNL     1      22.647  -4.027  47.887  1.00  0.00     0.006 C 
BRANCH   7   8
ATOM      8  C   UNL     1      21.926  -3.639  46.590  1.00  0.00     0.053 C 
BRANCH   8   9
ATOM      9  C   UNL     1      22.480  -2.380  45.997  1.00  0.00     0.041 C 
ATOM     10  O   UNL     1      21.705  -1.462  45.622  1.00  0.00    -0.550 OA
ATOM     11  O   UNL     1      23.854  -2.208  45.887  1.00  0.00    -0.550 OA
ENDBRANCH   8   9
ENDBRANCH   7   8
ENDBRANCH   6   7
ENDBRANCH   5   6
ENDBRANCH   4   5
ENDBRANCH   3   4
ENDBRANCH   2   3
ENDBRANCH   1   2
BRANCH   1  12
ATOM     12  C   UNL     1      20.558  -7.465  48.882  1.00  0.00     0.000 C 
BRANCH  12  13
ATOM     13  C   UNL     1      19.761  -6.374  48.151  1.00  0.00    -0.000 C 
BRANCH  13  14
ATOM     14  C   UNL     1      19.672  -6.673  46.646  1.00  0.00    -0.000 C 
BRANCH  14  15
ATOM     15  C   UNL     1      20.922  -7.389  46.102  1.00  0.00    -0.000 C 
BRANCH  15  16
ATOM     16  C   UNL     1      20.913  -7.657  44.585  1.00  0.00    -0.000 C 
BRANCH  16  17
ATOM     17  C   UNL     1      21.493  -6.523  43.718  1.00  0.00    -0.000 C 
BRANCH  17  18
ATOM     18  C   UNL     1      20.430  -5.758  42.900  1.00  0.00    -0.000 C 
BRANCH  18  19
ATOM     19  C   UNL     1      19.949  -4.483  43.608  1.00  0.00    -0.003 C 
ATOM     20  C   UNL     1      18.598  -4.029  43.062  1.00  0.00     0.004 C 
ENDBRANCH  18  19
ENDBRANCH  17  18
ENDBRANCH  16  17
ENDBRANCH  15  16
ENDBRANCH  14  15
ENDBRANCH  13  14
ENDBRANCH  12  13
ENDBRANCH   1  12
TORSDOF 16
ENDMDL
