MODEL 1
REMARK VINA RESULT:    -5.105      0.000      0.000
REMARK INTER + INTRA:          -8.010
REMARK INTER:                  -7.045
REMARK INTRA:                  -0.965
REMARK UNBOUND:                -0.965
REMARK SMILES CCCCc1cccc(O)c1CCCC
REMARK SMILES IDX 5 1 11 2 9 3 8 4 7 5 6 6 4 7 3 8 2 9 1 10 12 11 13 12 14 13
REMARK SMILES IDX 15 14 10 15
REMARK H PARENT 10 16
REMARK Flexibility Score: inf
ROOT
ATOM      1  C   UNL     1      15.417 -45.281  29.768  1.00  0.00    -0.041 A 
ATOM      2  C   UNL     1      16.765 -45.214  29.295  1.00  0.00    -0.003 A 
ATOM      3  C   UNL     1      17.805 -44.951  30.232  1.00  0.00     0.119 A 
ATOM      4  C   UNL     1      17.509 -44.811  31.589  1.00  0.00     0.046 A 
ATOM      5  C   UNL     1      16.200 -44.906  32.044  1.00  0.00     0.004 A 
ATOM      6  C   UNL     1      15.164 -45.130  31.143  1.00  0.00     0.004 A 
ENDROOT
BRANCH   1   7
ATOM      7  C   UNL     1      14.214 -45.475  28.857  1.00  0.00     0.036 C 
BRANCH   7   8
ATOM      8  C   UNL     1      13.230 -44.291  28.862  1.00  0.00     0.004 C 
BRANCH   8   9
ATOM      9  C   UNL     1      13.767 -43.015  28.190  1.00  0.00    -0.003 C 
ATOM     10  C   UNL     1      13.579 -43.024  26.674  1.00  0.00     0.004 C 
ENDBRANCH   8   9
ENDBRANCH   7   8
ENDBRANCH   1   7
BRANCH   2  11
ATOM     11  C   UNL     1      17.115 -45.463  27.837  1.00  0.00     0.040 C 
BRANCH  11  12
ATOM     12  C   UNL     1      17.081 -44.155  27.028  1.00  0.00     0.005 C 
BRANCH  12  13
ATOM     13  C   UNL     1      17.811 -44.315  25.691  1.00  0.00    -0.003 C 
ATOM     14  C   UNL     1      18.572 -43.044  25.323  1.00  0.00     0.004 C 
ENDBRANCH  12  13
ENDBRANCH  11  12
ENDBRANCH   2  11
BRANCH   3  15
ATOM     15  O   UNL     1      19.146 -44.818  29.858  1.00  0.00    -0.508 OA
ATOM     16  H   UNL     1      19.914 -44.736  30.509  1.00  0.00     0.293 HD
ENDBRANCH   3  15
TORSDOF 7
ENDMDL
MODEL 2
REMARK VINA RESULT:    -5.088      2.211      4.518
REMARK INTER + INTRA:          -7.987
REMARK INTER:                  -6.616
REMARK INTRA:                  -1.371
REMARK UNBOUND:                -0.965
REMARK SMILES CCCCc1cccc(O)c1CCCC
REMARK SMILES IDX 5 1 11 2 9 3 8 4 7 5 6 6 4 7 3 8 2 9 1 10 12 11 13 12 14 13
REMARK SMILES IDX 15 14 10 15
REMARK H PARENT 10 16
REMARK Flexibility Score: inf
ROOT
ATOM      1  C   UNL     1      15.666 -44.973  31.280  1.00  0.00    -0.041 A 
ATOM      2  C   UNL     1      16.844 -45.094  30.480  1.00  0.00    -0.003 A 
ATOM      3  C   UNL     1      16.699 -45.290  29.076  1.00  0.00     0.119 A 
ATOM      4  C   UNL     1      15.428 -45.315  28.498  1.00  0.00     0.046 A 
ATOM      5  C   UNL     1      14.290 -45.169  29.279  1.00  0.00     0.004 A 
ATOM      6  C   UNL     1      14.405 -45.008  30.656  1.00  0.00     0.004 A 
ENDROOT
BRANCH   1   7
ATOM      7  C   UNL     1      15.686 -44.841  32.796  1.00  0.00     0.036 C 
BRANCH   7   8
ATOM      8  C   UNL     1      15.296 -43.443  33.307  1.00  0.00     0.004 C 
BRANCH   8   9
ATOM      9  C   UNL     1      16.490 -42.538  33.659  1.00  0.00    -0.003 C 
ATOM     10  C   UNL     1      16.603 -41.327  32.734  1.00  0.00     0.004 C 
ENDBRANCH   8   9
ENDBRANCH   7   8
ENDBRANCH   1   7
BRANCH   2  11
ATOM     11  C   UNL     1      18.235 -44.968  31.079  1.00  0.00     0.040 C 
BRANCH  11  12
ATOM     12  C   UNL     1      18.787 -43.543  30.903  1.00  0.00     0.005 C 
BRANCH  12  13
ATOM     13  C   UNL     1      19.756 -43.184  32.034  1.00  0.00    -0.003 C 
ATOM     14  C   UNL     1      19.767 -44.263  33.114  1.00  0.00     0.004 C 
ENDBRANCH  12  13
ENDBRANCH  11  12
ENDBRANCH   2  11
BRANCH   3  15
ATOM     15  O   UNL     1      17.790 -45.469  28.220  1.00  0.00    -0.508 OA
ATOM     16  H   UNL     1      18.648 -45.935  28.480  1.00  0.00     0.293 HD
ENDBRANCH   3  15
TORSDOF 7
ENDMDL
MODEL 3
REMARK VINA RESULT:    -5.001      2.000      3.392
REMARK INTER + INTRA:          -7.866
REMARK INTER:                  -6.589
REMARK INTRA:                  -1.277
REMARK UNBOUND:                -0.965
REMARK SMILES CCCCc1cccc(O)c1CCCC
REMARK SMILES IDX 5 1 11 2 9 3 8 4 7 5 6 6 4 7 3 8 2 9 1 10 12 11 13 12 14 13
REMARK SMILES IDX 15 14 10 15
REMARK H PARENT 10 16
REMARK Flexibility Score: inf
ROOT
ATOM      1  C   UNL     1      17.409 -44.590  30.426  1.00  0.00    -0.041 A 
ATOM      2  C   UNL     1      16.604 -45.193  29.410  1.00  0.00    -0.003 A 
ATOM      3  C   UNL     1      15.238 -45.476  29.699  1.00  0.00     0.119 A 
ATOM      4  C   UNL     1      14.694 -45.125  30.936  1.00  0.00     0.046 A 
ATOM      5  C   UNL     1      15.476 -44.514  31.907  1.00  0.00     0.004 A 
ATOM      6  C   UNL     1      16.820 -44.256  31.659  1.00  0.00     0.004 A 
ENDROOT
BRANCH   1   7
ATOM      7  C   UNL     1      18.896 -44.312  30.268  1.00  0.00     0.036 C 
BRANCH   7   8
ATOM      8  C   UNL     1      19.260 -42.817  30.303  1.00  0.00     0.004 C 
BRANCH   8   9
ATOM      9  C   UNL     1      19.112 -42.095  28.953  1.00  0.00    -0.003 C 
ATOM     10  C   UNL     1      17.833 -41.263  28.867  1.00  0.00     0.004 C 
ENDBRANCH   8   9
ENDBRANCH   7   8
ENDBRANCH   1   7
BRANCH   2  11
ATOM     11  C   UNL     1      17.154 -45.490  28.025  1.00  0.00     0.040 C 
BRANCH  11  12
ATOM     12  C   UNL     1      16.821 -44.355  27.041  1.00  0.00     0.005 C 
BRANCH  12  13
ATOM     13  C   UNL     1      17.646 -44.478  25.756  1.00  0.00    -0.003 C 
ATOM     14  C   UNL     1      18.412 -43.190  25.468  1.00  0.00     0.004 C 
ENDBRANCH  12  13
ENDBRANCH  11  12
ENDBRANCH   2  11
BRANCH   3  15
ATOM     15  O   UNL     1      14.387 -46.110  28.787  1.00  0.00    -0.508 OA
ATOM     16  H   UNL     1      14.517 -46.101  27.786  1.00  0.00     0.293 HD
ENDBRANCH   3  15
TORSDOF 7
ENDMDL
MODEL 4
REMARK VINA RESULT:    -4.978      1.718      3.512
REMARK INTER + INTRA:          -7.835
REMARK INTER:                  -6.749
REMARK INTRA:                  -1.086
REMARK UNBOUND:                -0.965
REMARK SMILES CCCCc1cccc(O)c1CCCC
REMARK SMILES IDX 5 1 11 2 9 3 8 4 7 5 6 6 4 7 3 8 2 9 1 10 12 11 13 12 14 13
REMARK SMILES IDX 15 14 10 15
REMARK H PARENT 10 16
REMARK Flexibility Score: inf
ROOT
ATOM      1  C   UNL     1      16.372 -45.221  29.016  1.00  0.00    -0.041 A 
ATOM      2  C   UNL     1      16.928 -44.846  30.278  1.00  0.00    -0.003 A 
ATOM      3  C   UNL     1      16.050 -44.671  31.387  1.00  0.00     0.119 A 
ATOM      4  C   UNL     1      14.682 -44.910  31.244  1.00  0.00     0.046 A 
ATOM      5  C   UNL     1      14.154 -45.301  30.021  1.00  0.00     0.004 A 
ATOM      6  C   UNL     1      14.987 -45.448  28.917  1.00  0.00     0.004 A 
ENDROOT
BRANCH   1   7
ATOM      7  C   UNL     1      17.191 -45.360  27.742  1.00  0.00     0.036 C 
BRANCH   7   8
ATOM      8  C   UNL     1      16.906 -44.270  26.693  1.00  0.00     0.004 C 
BRANCH   8   9
ATOM      9  C   UNL     1      17.905 -44.237  25.524  1.00  0.00    -0.003 C 
ATOM     10  C   UNL     1      18.620 -42.892  25.399  1.00  0.00     0.004 C 
ENDBRANCH   8   9
ENDBRANCH   7   8
ENDBRANCH   1   7
BRANCH   2  11
ATOM     11  C   UNL     1      18.426 -44.679  30.475  1.00  0.00     0.040 C 
BRANCH  11  12
ATOM     12  C   UNL     1      18.801 -43.196  30.635  1.00  0.00     0.005 C 
BRANCH  12  13
ATOM     13  C   UNL     1      18.981 -42.522  29.270  1.00  0.00    -0.003 C 
ATOM     14  C   UNL     1      17.881 -41.496  29.014  1.00  0.00     0.004 C 
ENDBRANCH  12  13
ENDBRANCH  11  12
ENDBRANCH   2  11
BRANCH   3  15
ATOM     15  O   UNL     1      16.495 -44.256  32.646  1.00  0.00    -0.508 OA
ATOM     16  H   UNL     1      15.913 -44.220  33.472  1.00  0.00     0.293 HD
ENDBRANCH   3  15
TORSDOF 7
ENDMDL
MODEL 5
REMARK VINA RESULT:    -4.975      2.111      3.764
REMARK INTER + INTRA:          -7.831
REMARK INTER:                  -6.341
REMARK INTRA:                  -1.490
REMARK UNBOUND:                -0.965
REMARK SMILES CCCCc1cccc(O)c1CCCC
REMARK SMILES IDX 5 1 11 2 9 3 8 4 7 5 6 6 4 7 3 8 2 9 1 10 12 11 13 12 14 13
REMARK SMILES IDX 15 14 10 15
REMARK H PARENT 10 16
REMARK Flexibility Score: inf
ROOT
ATOM      1  C   UNL     1      17.425 -42.934  31.773  1.00  0.00    -0.041 A 
ATOM      2  C   UNL     1      18.266 -43.624  30.845  1.00  0.00    -0.003 A 
ATOM      3  C   UNL     1      19.573 -44.008  31.262  1.00  0.00     0.119 A 
ATOM      4  C   UNL     1      19.997 -43.752  32.568  1.00  0.00     0.046 A 
ATOM      5  C   UNL     1      19.163 -43.107  33.471  1.00  0.00     0.004 A 
ATOM      6  C   UNL     1      17.894 -42.694  33.077  1.00  0.00     0.004 A 
ENDROOT
BRANCH   1   7
ATOM      7  C   UNL     1      16.043 -42.402  31.423  1.00  0.00     0.036 C 
BRANCH   7   8
ATOM      8  C   UNL     1      14.909 -43.004  32.272  1.00  0.00     0.004 C 
BRANCH   8   9
ATOM      9  C   UNL     1      14.584 -44.473  31.949  1.00  0.00    -0.003 C 
ATOM     10  C   UNL     1      15.240 -45.449  32.925  1.00  0.00     0.004 C 
ENDBRANCH   8   9
ENDBRANCH   7   8
ENDBRANCH   1   7
BRANCH   2  11
ATOM     11  C   UNL     1      17.784 -43.998  29.453  1.00  0.00     0.040 C 
BRANCH  11  12
ATOM     12  C   UNL     1      17.142 -45.396  29.446  1.00  0.00     0.005 C 
BRANCH  12  13
ATOM     13  C   UNL     1      15.880 -45.419  28.577  1.00  0.00    -0.003 C 
ATOM     14  C   UNL     1      15.437 -44.005  28.211  1.00  0.00     0.004 C 
ENDBRANCH  12  13
ENDBRANCH  11  12
ENDBRANCH   2  11
BRANCH   3  15
ATOM     15  O   UNL     1      20.484 -44.640  30.411  1.00  0.00    -0.508 OA
ATOM     16  H   UNL     1      20.234 -45.343  29.730  1.00  0.00     0.293 HD
ENDBRANCH   3  15
TORSDOF 7
ENDMDL
MODEL 6
REMARK VINA RESULT:    -4.926      2.081      4.429
REMARK INTER + INTRA:          -7.764
REMARK INTER:                  -6.883
REMARK INTRA:                  -0.880
REMARK UNBOUND:                -0.965
REMARK SMILES CCCCc1cccc(O)c1CCCC
REMARK SMILES IDX 5 1 11 2 9 3 8 4 7 5 6 6 4 7 3 8 2 9 1 10 12 11 13 12 14 13
REMARK SMILES IDX 15 14 10 15
REMARK H PARENT 10 16
REMARK Flexibility Score: inf
ROOT
ATOM      1  C   UNL     1      15.923 -44.962  29.882  1.00  0.00    -0.041 A 
ATOM      2  C   UNL     1      15.905 -44.103  31.024  1.00  0.00    -0.003 A 
ATOM      3  C   UNL     1      14.647 -43.659  31.526  1.00  0.00     0.119 A 
ATOM      4  C   UNL     1      13.461 -44.098  30.935  1.00  0.00     0.046 A 
ATOM      5  C   UNL     1      13.487 -44.955  29.843  1.00  0.00     0.004 A 
ATOM      6  C   UNL     1      14.703 -45.376  29.316  1.00  0.00     0.004 A 
ENDROOT
BRANCH   1   7
ATOM      7  C   UNL     1      17.199 -45.437  29.205  1.00  0.00     0.036 C 
BRANCH   7   8
ATOM      8  C   UNL     1      17.081 -45.579  27.676  1.00  0.00     0.004 C 
BRANCH   8   9
ATOM      9  C   UNL     1      17.206 -44.254  26.904  1.00  0.00    -0.003 C 
ATOM     10  C   UNL     1      17.832 -44.435  25.522  1.00  0.00     0.004 C 
ENDBRANCH   8   9
ENDBRANCH   7   8
ENDBRANCH   1   7
BRANCH   2  11
ATOM     11  C   UNL     1      17.183 -43.696  31.739  1.00  0.00     0.040 C 
BRANCH  11  12
ATOM     12  C   UNL     1      17.552 -44.712  32.834  1.00  0.00     0.005 C 
BRANCH  12  13
ATOM     13  C   UNL     1      18.980 -45.234  32.643  1.00  0.00    -0.003 C 
ATOM     14  C   UNL     1      19.744 -44.388  31.627  1.00  0.00     0.004 C 
ENDBRANCH  12  13
ENDBRANCH  11  12
ENDBRANCH   2  11
BRANCH   3  15
ATOM     15  O   UNL     1      14.531 -42.779  32.606  1.00  0.00    -0.508 OA
ATOM     16  H   UNL     1      13.833 -42.052  32.676  1.00  0.00     0.293 HD
ENDBRANCH   3  15
TORSDOF 7
ENDMDL
MODEL 7
REMARK VINA RESULT:    -4.921      1.832      4.082
REMARK INTER + INTRA:          -7.756
REMARK INTER:                  -6.658
REMARK INTRA:                  -1.098
REMARK UNBOUND:                -0.965
REMARK SMILES CCCCc1cccc(O)c1CCCC
REMARK SMILES IDX 5 1 11 2 9 3 8 4 7 5 6 6 4 7 3 8 2 9 1 10 12 11 13 12 14 13
REMARK SMILES IDX 15 14 10 15
REMARK H PARENT 10 16
REMARK Flexibility Score: inf
ROOT
ATOM      1  C   UNL     1      18.236 -42.972  29.067  1.00  0.00    -0.041 A 
ATOM      2  C   UNL     1      18.135 -44.196  29.797  1.00  0.00    -0.003 A 
ATOM      3  C   UNL     1      18.932 -44.363  30.966  1.00  0.00     0.119 A 
ATOM      4  C   UNL     1      19.758 -43.327  31.407  1.00  0.00     0.046 A 
ATOM      5  C   UNL     1      19.829 -42.129  30.707  1.00  0.00     0.004 A 
ATOM      6  C   UNL     1      19.084 -41.956  29.546  1.00  0.00     0.004 A 
ENDROOT
BRANCH   1   7
ATOM      7  C   UNL     1      17.499 -42.705  27.763  1.00  0.00     0.036 C 
BRANCH   7   8
ATOM      8  C   UNL     1      18.426 -42.391  26.575  1.00  0.00     0.004 C 
BRANCH   8   9
ATOM      9  C   UNL     1      18.302 -43.370  25.395  1.00  0.00    -0.003 C 
ATOM     10  C   UNL     1      17.507 -44.625  25.753  1.00  0.00     0.004 C 
ENDBRANCH   8   9
ENDBRANCH   7   8
ENDBRANCH   1   7
BRANCH   2  11
ATOM     11  C   UNL     1      17.168 -45.295  29.387  1.00  0.00     0.040 C 
BRANCH  11  12
ATOM     12  C   UNL     1      15.791 -45.094  30.044  1.00  0.00     0.005 C 
BRANCH  12  13
ATOM     13  C   UNL     1      14.660 -45.445  29.072  1.00  0.00    -0.003 C 
ATOM     14  C   UNL     1      14.202 -44.216  28.292  1.00  0.00     0.004 C 
ENDBRANCH  12  13
ENDBRANCH  11  12
ENDBRANCH   2  11
BRANCH   3  15
ATOM     15  O   UNL     1      18.939 -45.543  31.716  1.00  0.00    -0.508 OA
ATOM     16  H   UNL     1      19.079 -45.581  32.716  1.00  0.00     0.293 HD
ENDBRANCH   3  15
TORSDOF 7
ENDMDL
MODEL 8
REMARK VINA RESULT:    -4.888      2.064      4.256
REMARK INTER + INTRA:          -7.711
REMARK INTER:                  -6.812
REMARK INTRA:                  -0.899
REMARK UNBOUND:                -0.965
REMARK SMILES CCCCc1cccc(O)c1CCCC
REMARK SMILES IDX 5 1 11 2 9 3 8 4 7 5 6 6 4 7 3 8 2 9 1 10 12 11 13 12 14 13
REMARK SMILES IDX 15 14 10 15
REMARK H PARENT 10 16
REMARK Flexibility Score: inf
ROOT
ATOM      1  C   UNL     1      17.128 -44.230  31.044  1.00  0.00    -0.041 A 
ATOM      2  C   UNL     1      15.859 -44.335  31.693  1.00  0.00    -0.003 A 
ATOM      3  C   UNL     1      15.622 -43.557  32.863  1.00  0.00     0.119 A 
ATOM      4  C   UNL     1      16.601 -42.679  33.331  1.00  0.00     0.046 A 
ATOM      5  C   UNL     1      17.822 -42.562  32.679  1.00  0.00     0.004 A 
ATOM      6  C   UNL     1      18.087 -43.335  31.554  1.00  0.00     0.004 A 
ENDROOT
BRANCH   1   7
ATOM      7  C   UNL     1      17.530 -45.066  29.838  1.00  0.00     0.036 C 
BRANCH   7   8
ATOM      8  C   UNL     1      17.250 -44.386  28.486  1.00  0.00     0.004 C 
BRANCH   8   9
ATOM      9  C   UNL     1      17.156 -45.355  27.295  1.00  0.00    -0.003 C 
ATOM     10  C   UNL     1      17.512 -44.691  25.965  1.00  0.00     0.004 C 
ENDBRANCH   8   9
ENDBRANCH   7   8
ENDBRANCH   1   7
BRANCH   2  11
ATOM     11  C   UNL     1      14.747 -45.211  31.138  1.00  0.00     0.040 C 
BRANCH  11  12
ATOM     12  C   UNL     1      13.875 -44.433  30.138  1.00  0.00     0.005 C 
BRANCH  12  13
ATOM     13  C   UNL     1      13.592 -45.269  28.886  1.00  0.00    -0.003 C 
ATOM     14  C   UNL     1      12.425 -44.691  28.090  1.00  0.00     0.004 C 
ENDBRANCH  12  13
ENDBRANCH  11  12
ENDBRANCH   2  11
BRANCH   3  15
ATOM     15  O   UNL     1      14.432 -43.630  33.592  1.00  0.00    -0.508 OA
ATOM     16  H   UNL     1      14.205 -44.371  34.240  1.00  0.00     0.293 HD
ENDBRANCH   3  15
TORSDOF 7
ENDMDL
MODEL 9
REMARK VINA RESULT:    -4.880      3.330      5.154
REMARK INTER + INTRA:          -7.700
REMARK INTER:                  -6.456
REMARK INTRA:                  -1.244
REMARK UNBOUND:                -0.965
REMARK SMILES CCCCc1cccc(O)c1CCCC
REMARK SMILES IDX 5 1 11 2 9 3 8 4 7 5 6 6 4 7 3 8 2 9 1 10 12 11 13 12 14 13
REMARK SMILES IDX 15 14 10 15
REMARK H PARENT 10 16
REMARK Flexibility Score: inf
ROOT
ATOM      1  C   UNL     1      18.254 -41.070  27.942  1.00  0.00    -0.041 A 
ATOM      2  C   UNL     1      17.837 -41.381  29.274  1.00  0.00    -0.003 A 
ATOM      3  C   UNL     1      17.554 -40.309  30.169  1.00  0.00     0.119 A 
ATOM      4  C   UNL     1      17.640 -38.987  29.731  1.00  0.00     0.046 A 
ATOM      5  C   UNL     1      18.019 -38.694  28.427  1.00  0.00     0.004 A 
ATOM      6  C   UNL     1      18.331 -39.723  27.545  1.00  0.00     0.004 A 
ENDROOT
BRANCH   1   7
ATOM      7  C   UNL     1      18.661 -42.120  26.920  1.00  0.00     0.036 C 
BRANCH   7   8
ATOM      8  C   UNL     1      17.716 -42.212  25.708  1.00  0.00     0.004 C 
BRANCH   8   9
ATOM      9  C   UNL     1      16.792 -43.441  25.714  1.00  0.00    -0.003 C 
ATOM     10  C   UNL     1      17.561 -44.757  25.618  1.00  0.00     0.004 C 
ENDBRANCH   8   9
ENDBRANCH   7   8
ENDBRANCH   1   7
BRANCH   2  11
ATOM     11  C   UNL     1      17.642 -42.815  29.737  1.00  0.00     0.040 C 
BRANCH  11  12
ATOM     12  C   UNL     1      16.228 -43.318  29.400  1.00  0.00     0.005 C 
BRANCH  12  13
ATOM     13  C   UNL     1      16.150 -44.846  29.490  1.00  0.00    -0.003 C 
ATOM     14  C   UNL     1      17.507 -45.484  29.207  1.00  0.00     0.004 C 
ENDBRANCH  12  13
ENDBRANCH  11  12
ENDBRANCH   2  11
BRANCH   3  15
ATOM     15  O   UNL     1      17.189 -40.514  31.504  1.00  0.00    -0.508 OA
ATOM     16  H   UNL     1      16.712 -41.337  31.844  1.00  0.00     0.293 HD
ENDBRANCH   3  15
TORSDOF 7
ENDMDL
