MODEL 1
REMARK VINA RESULT:    -3.152      0.000      0.000
REMARK INTER + INTRA:         -14.725
REMARK INTER:                  -8.311
REMARK INTRA:                  -6.414
REMARK UNBOUND:                -6.414
REMARK SMILES CCCCCCCCCCCCCCCCCCCCCCCCCCCCCC(=O)[O-]
REMARK SMILES IDX 16 1 17 2 18 3 19 4 20 5 21 6 22 7 23 8 24 9 25 10 26 11
REMARK SMILES IDX 27 12 28 13 29 14 30 15 31 16 32 17 15 18 14 19 13 20 12 21
REMARK SMILES IDX 11 22 10 23 9 24 8 25 7 26 6 27 5 28 4 29 3 30 2 31 1 32
REMARK H PARENT
REMARK Flexibility Score: inf
ROOT
ATOM      1  C   UNL     1     169.132 172.001 153.923  1.00  0.00     0.000 C 
ENDROOT
BRANCH   1   2
ATOM      2  C   UNL     1     167.840 171.774 153.122  1.00  0.00     0.000 C 
BRANCH   2   3
ATOM      3  C   UNL     1     168.093 170.872 151.903  1.00  0.00     0.000 C 
BRANCH   3   4
ATOM      4  C   UNL     1     166.793 170.343 151.278  1.00  0.00     0.000 C 
BRANCH   4   5
ATOM      5  C   UNL     1     166.241 169.111 152.012  1.00  0.00     0.000 C 
BRANCH   5   6
ATOM      6  C   UNL     1     165.378 168.219 151.106  1.00  0.00     0.000 C 
BRANCH   6   7
ATOM      7  C   UNL     1     165.154 168.835 149.712  1.00  0.00     0.000 C 
BRANCH   7   8
ATOM      8  C   UNL     1     163.717 168.646 149.201  1.00  0.00     0.000 C 
BRANCH   8   9
ATOM      9  C   UNL     1     163.048 169.970 148.804  1.00  0.00     0.000 C 
BRANCH   9  10
ATOM     10  C   UNL     1     163.753 171.158 149.475  1.00  0.00     0.000 C 
BRANCH  10  11
ATOM     11  C   UNL     1     162.939 171.766 150.631  1.00  0.00     0.000 C 
BRANCH  11  12
ATOM     12  C   UNL     1     163.185 171.127 152.012  1.00  0.00     0.000 C 
BRANCH  12  13
ATOM     13  C   UNL     1     161.964 170.420 152.631  1.00  0.00     0.006 C 
BRANCH  13  14
ATOM     14  C   UNL     1     162.131 168.896 152.703  1.00  0.00     0.053 C 
BRANCH  14  15
ATOM     15  C   UNL     1     162.358 168.455 154.116  1.00  0.00     0.041 C 
ATOM     16  O   UNL     1     163.494 168.589 154.648  1.00  0.00    -0.550 OA
ATOM     17  O   UNL     1     161.309 167.926 154.858  1.00  0.00    -0.550 OA
ENDBRANCH  14  15
ENDBRANCH  13  14
ENDBRANCH  12  13
ENDBRANCH  11  12
ENDBRANCH  10  11
ENDBRANCH   9  10
ENDBRANCH   8   9
ENDBRANCH   7   8
ENDBRANCH   6   7
ENDBRANCH   5   6
ENDBRANCH   4   5
ENDBRANCH   3   4
ENDBRANCH   2   3
ENDBRANCH   1   2
BRANCH   1  18
ATOM     18  C   UNL     1     169.849 173.307 153.520  1.00  0.00     0.000 C 
BRANCH  18  19
ATOM     19  C   UNL     1     171.242 173.088 152.902  1.00  0.00     0.000 C 
BRANCH  19  20
ATOM     20  C   UNL     1     171.717 171.630 153.001  1.00  0.00     0.000 C 
BRANCH  20  21
ATOM     21  C   UNL     1     171.932 170.981 151.623  1.00  0.00     0.000 C 
BRANCH  21  22
ATOM     22  C   UNL     1     171.365 171.831 150.471  1.00  0.00     0.000 C 
BRANCH  22  23
ATOM     23  C   UNL     1     170.653 170.985 149.405  1.00  0.00     0.000 C 
BRANCH  23  24
ATOM     24  C   UNL     1     170.840 169.474 149.628  1.00  0.00    -0.000 C 
BRANCH  24  25
ATOM     25  C   UNL     1     169.568 168.673 149.301  1.00  0.00    -0.000 C 
BRANCH  25  26
ATOM     26  C   UNL     1     169.243 167.618 150.369  1.00  0.00    -0.000 C 
BRANCH  26  27
ATOM     27  C   UNL     1     170.162 167.772 151.589  1.00  0.00    -0.000 C 
BRANCH  27  28
ATOM     28  C   UNL     1     169.420 167.612 152.930  1.00  0.00    -0.000 C 
BRANCH  28  29
ATOM     29  C   UNL     1     169.960 168.476 154.086  1.00  0.00    -0.000 C 
BRANCH  29  30
ATOM     30  C   UNL     1     169.281 168.171 155.432  1.00  0.00    -0.000 C 
BRANCH  30  31
ATOM     31  C   UNL     1     167.763 167.970 155.292  1.00  0.00    -0.003 C 
ATOM     32  C   UNL     1     166.966 169.234 155.619  1.00  0.00     0.004 C 
ENDBRANCH  30  31
ENDBRANCH  29  30
ENDBRANCH  28  29
ENDBRANCH  27  28
ENDBRANCH  26  27
ENDBRANCH  25  26
ENDBRANCH  24  25
ENDBRANCH  23  24
ENDBRANCH  22  23
ENDBRANCH  21  22
ENDBRANCH  20  21
ENDBRANCH  19  20
ENDBRANCH  18  19
ENDBRANCH   1  18
TORSDOF 28
ENDMDL
MODEL 2
REMARK VINA RESULT:    -3.069      1.763      2.797
REMARK INTER + INTRA:         -14.507
REMARK INTER:                  -8.309
REMARK INTRA:                  -6.198
REMARK UNBOUND:                -6.414
REMARK SMILES CCCCCCCCCCCCCCCCCCCCCCCCCCCCCC(=O)[O-]
REMARK SMILES IDX 16 1 17 2 18 3 19 4 20 5 21 6 22 7 23 8 24 9 25 10 26 11
REMARK SMILES IDX 27 12 28 13 29 14 30 15 31 16 32 17 15 18 14 19 13 20 12 21
REMARK SMILES IDX 11 22 10 23 9 24 8 25 7 26 6 27 5 28 4 29 3 30 2 31 1 32
REMARK H PARENT
REMARK Flexibility Score: inf
ROOT
ATOM      1  C   UNL     1     168.440 171.786 153.367  1.00  0.00     0.000 C 
ENDROOT
BRANCH   1   2
ATOM      2  C   UNL     1     167.079 171.508 152.708  1.00  0.00     0.000 C 
BRANCH   2   3
ATOM      3  C   UNL     1     166.433 170.237 153.282  1.00  0.00     0.000 C 
BRANCH   3   4
ATOM      4  C   UNL     1     166.561 169.030 152.339  1.00  0.00     0.000 C 
BRANCH   4   5
ATOM      5  C   UNL     1     165.464 167.978 152.570  1.00  0.00     0.000 C 
BRANCH   5   6
ATOM      6  C   UNL     1     164.716 168.184 153.896  1.00  0.00     0.000 C 
BRANCH   6   7
ATOM      7  C   UNL     1     163.201 167.941 153.763  1.00  0.00     0.000 C 
BRANCH   7   8
ATOM      8  C   UNL     1     162.368 169.201 154.043  1.00  0.00     0.000 C 
BRANCH   8   9
ATOM      9  C   UNL     1     161.869 169.882 152.761  1.00  0.00     0.000 C 
BRANCH   9  10
ATOM     10  C   UNL     1     162.795 171.042 152.366  1.00  0.00     0.000 C 
BRANCH  10  11
ATOM     11  C   UNL     1     163.518 170.805 151.028  1.00  0.00     0.000 C 
BRANCH  11  12
ATOM     12  C   UNL     1     162.694 170.055 149.962  1.00  0.00     0.000 C 
BRANCH  12  13
ATOM     13  C   UNL     1     163.409 168.860 149.306  1.00  0.00     0.006 C 
BRANCH  13  14
ATOM     14  C   UNL     1     163.089 167.524 149.991  1.00  0.00     0.053 C 
BRANCH  14  15
ATOM     15  C   UNL     1     161.625 167.220 149.900  1.00  0.00     0.041 C 
ATOM     16  O   UNL     1     161.061 167.148 148.774  1.00  0.00    -0.550 OA
ATOM     17  O   UNL     1     160.890 166.984 151.055  1.00  0.00    -0.550 OA
ENDBRANCH  14  15
ENDBRANCH  13  14
ENDBRANCH  12  13
ENDBRANCH  11  12
ENDBRANCH  10  11
ENDBRANCH   9  10
ENDBRANCH   8   9
ENDBRANCH   7   8
ENDBRANCH   6   7
ENDBRANCH   5   6
ENDBRANCH   4   5
ENDBRANCH   3   4
ENDBRANCH   2   3
ENDBRANCH   1   2
BRANCH   1  18
ATOM     18  C   UNL     1     168.748 173.295 153.460  1.00  0.00     0.000 C 
BRANCH  18  19
ATOM     19  C   UNL     1     170.251 173.620 153.537  1.00  0.00     0.000 C 
BRANCH  19  20
ATOM     20  C   UNL     1     171.079 172.480 154.152  1.00  0.00     0.000 C 
BRANCH  20  21
ATOM     21  C   UNL     1     172.156 171.945 153.192  1.00  0.00     0.000 C 
BRANCH  21  22
ATOM     22  C   UNL     1     172.004 172.495 151.763  1.00  0.00     0.000 C 
BRANCH  22  23
ATOM     23  C   UNL     1     171.865 171.382 150.712  1.00  0.00     0.000 C 
BRANCH  23  24
ATOM     24  C   UNL     1     170.425 171.237 150.191  1.00  0.00    -0.000 C 
BRANCH  24  25
ATOM     25  C   UNL     1     169.776 169.914 150.627  1.00  0.00    -0.000 C 
BRANCH  25  26
ATOM     26  C   UNL     1     170.737 169.019 151.426  1.00  0.00    -0.000 C 
BRANCH  26  27
ATOM     27  C   UNL     1     170.107 168.592 152.759  1.00  0.00    -0.000 C 
BRANCH  27  28
ATOM     28  C   UNL     1     171.088 168.664 153.944  1.00  0.00    -0.000 C 
BRANCH  28  29
ATOM     29  C   UNL     1     170.451 168.485 155.336  1.00  0.00    -0.000 C 
BRANCH  29  30
ATOM     30  C   UNL     1     168.925 168.674 155.327  1.00  0.00    -0.000 C 
BRANCH  30  31
ATOM     31  C   UNL     1     168.177 167.429 155.831  1.00  0.00    -0.003 C 
ATOM     32  C   UNL     1     167.960 166.385 154.734  1.00  0.00     0.004 C 
ENDBRANCH  30  31
ENDBRANCH  29  30
ENDBRANCH  28  29
ENDBRANCH  27  28
ENDBRANCH  26  27
ENDBRANCH  25  26
ENDBRANCH  24  25
ENDBRANCH  23  24
ENDBRANCH  22  23
ENDBRANCH  21  22
ENDBRANCH  20  21
ENDBRANCH  19  20
ENDBRANCH  18  19
ENDBRANCH   1  18
TORSDOF 28
ENDMDL
MODEL 3
REMARK VINA RESULT:    -3.066      1.715      6.151
REMARK INTER + INTRA:         -14.499
REMARK INTER:                  -8.812
REMARK INTRA:                  -5.686
REMARK UNBOUND:                -6.414
REMARK SMILES CCCCCCCCCCCCCCCCCCCCCCCCCCCCCC(=O)[O-]
REMARK SMILES IDX 16 1 17 2 18 3 19 4 20 5 21 6 22 7 23 8 24 9 25 10 26 11
REMARK SMILES IDX 27 12 28 13 29 14 30 15 31 16 32 17 15 18 14 19 13 20 12 21
REMARK SMILES IDX 11 22 10 23 9 24 8 25 7 26 6 27 5 28 4 29 3 30 2 31 1 32
REMARK H PARENT
REMARK Flexibility Score: inf
ROOT
ATOM      1  C   UNL     1     169.961 173.704 153.543  1.00  0.00     0.000 C 
ENDROOT
BRANCH   1   2
ATOM      2  C   UNL     1     170.720 172.570 154.250  1.00  0.00     0.000 C 
BRANCH   2   3
ATOM      3  C   UNL     1     171.855 172.025 153.368  1.00  0.00     0.000 C 
BRANCH   3   4
ATOM      4  C   UNL     1     171.893 172.684 151.980  1.00  0.00     0.000 C 
BRANCH   4   5
ATOM      5  C   UNL     1     171.949 171.657 150.837  1.00  0.00     0.000 C 
BRANCH   5   6
ATOM      6  C   UNL     1     170.556 171.285 150.306  1.00  0.00     0.000 C 
BRANCH   6   7
ATOM      7  C   UNL     1     170.131 169.861 150.710  1.00  0.00     0.000 C 
BRANCH   7   8
ATOM      8  C   UNL     1     171.326 168.936 150.984  1.00  0.00     0.000 C 
BRANCH   8   9
ATOM      9  C   UNL     1     171.323 168.364 152.409  1.00  0.00     0.000 C 
BRANCH   9  10
ATOM     10  C   UNL     1     169.989 168.661 153.110  1.00  0.00     0.000 C 
BRANCH  10  11
ATOM     11  C   UNL     1     170.143 168.884 154.624  1.00  0.00     0.000 C 
BRANCH  11  12
ATOM     12  C   UNL     1     168.822 169.064 155.398  1.00  0.00     0.000 C 
BRANCH  12  13
ATOM     13  C   UNL     1     167.756 167.986 155.129  1.00  0.00     0.006 C 
BRANCH  13  14
ATOM     14  C   UNL     1     166.761 167.829 156.287  1.00  0.00     0.053 C 
BRANCH  14  15
ATOM     15  C   UNL     1     166.367 166.394 156.455  1.00  0.00     0.041 C 
ATOM     16  O   UNL     1     166.673 165.544 155.574  1.00  0.00    -0.550 OA
ATOM     17  O   UNL     1     165.690 165.987 157.598  1.00  0.00    -0.550 OA
ENDBRANCH  14  15
ENDBRANCH  13  14
ENDBRANCH  12  13
ENDBRANCH  11  12
ENDBRANCH  10  11
ENDBRANCH   9  10
ENDBRANCH   8   9
ENDBRANCH   7   8
ENDBRANCH   6   7
ENDBRANCH   5   6
ENDBRANCH   4   5
ENDBRANCH   3   4
ENDBRANCH   2   3
ENDBRANCH   1   2
BRANCH   1  18
ATOM     18  C   UNL     1     168.509 173.312 153.197  1.00  0.00     0.000 C 
BRANCH  18  19
ATOM     19  C   UNL     1     168.270 171.791 153.149  1.00  0.00     0.000 C 
BRANCH  19  20
ATOM     20  C   UNL     1     166.778 171.421 153.150  1.00  0.00     0.000 C 
BRANCH  20  21
ATOM     21  C   UNL     1     166.493 170.105 152.407  1.00  0.00     0.000 C 
BRANCH  21  22
ATOM     22  C   UNL     1     165.867 170.330 151.018  1.00  0.00     0.000 C 
BRANCH  22  23
ATOM     23  C   UNL     1     164.893 169.210 150.619  1.00  0.00     0.000 C 
BRANCH  23  24
ATOM     24  C   UNL     1     163.475 169.734 150.336  1.00  0.00    -0.000 C 
BRANCH  24  25
ATOM     25  C   UNL     1     163.220 171.106 150.980  1.00  0.00    -0.000 C 
BRANCH  25  26
ATOM     26  C   UNL     1     162.749 170.997 152.438  1.00  0.00    -0.000 C 
BRANCH  26  27
ATOM     27  C   UNL     1     161.902 169.732 152.646  1.00  0.00    -0.000 C 
BRANCH  27  28
ATOM     28  C   UNL     1     162.116 169.080 154.025  1.00  0.00    -0.000 C 
BRANCH  28  29
ATOM     29  C   UNL     1     163.575 168.712 154.358  1.00  0.00    -0.000 C 
BRANCH  29  30
ATOM     30  C   UNL     1     164.031 167.402 153.693  1.00  0.00    -0.000 C 
BRANCH  30  31
ATOM     31  C   UNL     1     163.007 166.268 153.866  1.00  0.00    -0.003 C 
ATOM     32  C   UNL     1     163.028 165.662 155.270  1.00  0.00     0.004 C 
ENDBRANCH  30  31
ENDBRANCH  29  30
ENDBRANCH  28  29
ENDBRANCH  27  28
ENDBRANCH  26  27
ENDBRANCH  25  26
ENDBRANCH  24  25
ENDBRANCH  23  24
ENDBRANCH  22  23
ENDBRANCH  21  22
ENDBRANCH  20  21
ENDBRANCH  19  20
ENDBRANCH  18  19
ENDBRANCH   1  18
TORSDOF 28
ENDMDL
MODEL 4
REMARK VINA RESULT:    -3.065      1.901      6.702
REMARK INTER + INTRA:         -14.495
REMARK INTER:                  -8.438
REMARK INTRA:                  -6.057
REMARK UNBOUND:                -6.414
REMARK SMILES CCCCCCCCCCCCCCCCCCCCCCCCCCCCCC(=O)[O-]
REMARK SMILES IDX 16 1 17 2 18 3 19 4 20 5 21 6 22 7 23 8 24 9 25 10 26 11
REMARK SMILES IDX 27 12 28 13 29 14 30 15 31 16 32 17 15 18 14 19 13 20 12 21
REMARK SMILES IDX 11 22 10 23 9 24 8 25 7 26 6 27 5 28 4 29 3 30 2 31 1 32
REMARK H PARENT
REMARK Flexibility Score: inf
ROOT
ATOM      1  C   UNL     1     168.070 171.219 152.232  1.00  0.00     0.000 C 
ENDROOT
BRANCH   1   2
ATOM      2  C   UNL     1     168.599 170.673 153.568  1.00  0.00     0.000 C 
BRANCH   2   3
ATOM      3  C   UNL     1     169.554 171.674 154.239  1.00  0.00     0.000 C 
BRANCH   3   4
ATOM      4  C   UNL     1     169.488 173.071 153.604  1.00  0.00     0.000 C 
BRANCH   4   5
ATOM      5  C   UNL     1     170.858 173.562 153.107  1.00  0.00     0.000 C 
BRANCH   5   6
ATOM      6  C   UNL     1     171.764 172.413 152.638  1.00  0.00     0.000 C 
BRANCH   6   7
ATOM      7  C   UNL     1     171.553 172.062 151.153  1.00  0.00     0.000 C 
BRANCH   7   8
ATOM      8  C   UNL     1     171.558 170.549 150.891  1.00  0.00     0.000 C 
BRANCH   8   9
ATOM      9  C   UNL     1     171.983 169.733 152.121  1.00  0.00     0.000 C 
BRANCH   9  10
ATOM     10  C   UNL     1     171.610 168.253 151.946  1.00  0.00     0.000 C 
BRANCH  10  11
ATOM     11  C   UNL     1     170.932 167.653 153.190  1.00  0.00     0.000 C 
BRANCH  11  12
ATOM     12  C   UNL     1     171.363 168.273 154.534  1.00  0.00     0.000 C 
BRANCH  12  13
ATOM     13  C   UNL     1     170.296 168.233 155.644  1.00  0.00     0.006 C 
BRANCH  13  14
ATOM     14  C   UNL     1     169.406 166.984 155.570  1.00  0.00     0.053 C 
BRANCH  14  15
ATOM     15  C   UNL     1     167.975 167.367 155.354  1.00  0.00     0.041 C 
ATOM     16  O   UNL     1     167.506 168.404 155.899  1.00  0.00    -0.550 OA
ATOM     17  O   UNL     1     167.166 166.598 154.527  1.00  0.00    -0.550 OA
ENDBRANCH  14  15
ENDBRANCH  13  14
ENDBRANCH  12  13
ENDBRANCH  11  12
ENDBRANCH  10  11
ENDBRANCH   9  10
ENDBRANCH   8   9
ENDBRANCH   7   8
ENDBRANCH   6   7
ENDBRANCH   5   6
ENDBRANCH   4   5
ENDBRANCH   3   4
ENDBRANCH   2   3
ENDBRANCH   1   2
BRANCH   1  18
ATOM     18  C   UNL     1     167.941 170.118 151.159  1.00  0.00     0.000 C 
BRANCH  18  19
ATOM     19  C   UNL     1     167.885 168.691 151.734  1.00  0.00     0.000 C 
BRANCH  19  20
ATOM     20  C   UNL     1     167.341 167.662 150.730  1.00  0.00     0.000 C 
BRANCH  20  21
ATOM     21  C   UNL     1     166.641 168.319 149.528  1.00  0.00     0.000 C 
BRANCH  21  22
ATOM     22  C   UNL     1     165.113 168.137 149.558  1.00  0.00     0.000 C 
BRANCH  22  23
ATOM     23  C   UNL     1     164.357 169.400 149.117  1.00  0.00     0.000 C 
BRANCH  23  24
ATOM     24  C   UNL     1     164.434 170.529 150.159  1.00  0.00    -0.000 C 
BRANCH  24  25
ATOM     25  C   UNL     1     163.768 170.142 151.489  1.00  0.00    -0.000 C 
BRANCH  25  26
ATOM     26  C   UNL     1     164.583 170.591 152.712  1.00  0.00    -0.000 C 
BRANCH  26  27
ATOM     27  C   UNL     1     164.978 169.385 153.578  1.00  0.00    -0.000 C 
BRANCH  27  28
ATOM     28  C   UNL     1     164.112 168.140 153.313  1.00  0.00    -0.000 C 
BRANCH  28  29
ATOM     29  C   UNL     1     163.225 167.695 154.492  1.00  0.00    -0.000 C 
BRANCH  29  30
ATOM     30  C   UNL     1     161.896 168.466 154.569  1.00  0.00    -0.000 C 
BRANCH  30  31
ATOM     31  C   UNL     1     160.675 167.533 154.576  1.00  0.00    -0.003 C 
ATOM     32  C   UNL     1     160.914 166.251 155.373  1.00  0.00     0.004 C 
ENDBRANCH  30  31
ENDBRANCH  29  30
ENDBRANCH  28  29
ENDBRANCH  27  28
ENDBRANCH  26  27
ENDBRANCH  25  26
ENDBRANCH  24  25
ENDBRANCH  23  24
ENDBRANCH  22  23
ENDBRANCH  21  22
ENDBRANCH  20  21
ENDBRANCH  19  20
ENDBRANCH  18  19
ENDBRANCH   1  18
TORSDOF 28
ENDMDL
MODEL 5
REMARK VINA RESULT:    -3.059      1.927      7.151
REMARK INTER + INTRA:         -14.481
REMARK INTER:                  -8.353
REMARK INTRA:                  -6.128
REMARK UNBOUND:                -6.414
REMARK SMILES CCCCCCCCCCCCCCCCCCCCCCCCCCCCCC(=O)[O-]
REMARK SMILES IDX 16 1 17 2 18 3 19 4 20 5 21 6 22 7 23 8 24 9 25 10 26 11
REMARK SMILES IDX 27 12 28 13 29 14 30 15 31 16 32 17 15 18 14 19 13 20 12 21
REMARK SMILES IDX 11 22 10 23 9 24 8 25 7 26 6 27 5 28 4 29 3 30 2 31 1 32
REMARK H PARENT
REMARK Flexibility Score: inf
ROOT
ATOM      1  C   UNL     1     169.035 170.502 150.667  1.00  0.00     0.000 C 
ENDROOT
BRANCH   1   2
ATOM      2  C   UNL     1     169.848 170.547 149.363  1.00  0.00     0.000 C 
BRANCH   2   3
ATOM      3  C   UNL     1     171.241 171.153 149.597  1.00  0.00     0.000 C 
BRANCH   3   4
ATOM      4  C   UNL     1     172.047 170.390 150.659  1.00  0.00     0.000 C 
BRANCH   4   5
ATOM      5  C   UNL     1     172.651 171.319 151.725  1.00  0.00     0.000 C 
BRANCH   5   6
ATOM      6  C   UNL     1     172.048 172.731 151.690  1.00  0.00     0.000 C 
BRANCH   6   7
ATOM      7  C   UNL     1     171.489 173.169 153.057  1.00  0.00     0.000 C 
BRANCH   7   8
ATOM      8  C   UNL     1     169.959 173.310 153.059  1.00  0.00     0.000 C 
BRANCH   8   9
ATOM      9  C   UNL     1     169.261 172.210 153.873  1.00  0.00     0.000 C 
BRANCH   9  10
ATOM     10  C   UNL     1     170.293 171.333 154.598  1.00  0.00     0.000 C 
BRANCH  10  11
ATOM     11  C   UNL     1     170.085 169.829 154.346  1.00  0.00     0.000 C 
BRANCH  11  12
ATOM     12  C   UNL     1     170.156 168.939 155.603  1.00  0.00     0.000 C 
BRANCH  12  13
ATOM     13  C   UNL     1     169.581 167.521 155.431  1.00  0.00     0.006 C 
BRANCH  13  14
ATOM     14  C   UNL     1     169.394 167.127 153.959  1.00  0.00     0.053 C 
BRANCH  14  15
ATOM     15  C   UNL     1     168.255 166.167 153.808  1.00  0.00     0.041 C 
ATOM     16  O   UNL     1     167.669 165.712 154.829  1.00  0.00    -0.550 OA
ATOM     17  O   UNL     1     167.818 165.798 152.542  1.00  0.00    -0.550 OA
ENDBRANCH  14  15
ENDBRANCH  13  14
ENDBRANCH  12  13
ENDBRANCH  11  12
ENDBRANCH  10  11
ENDBRANCH   9  10
ENDBRANCH   8   9
ENDBRANCH   7   8
ENDBRANCH   6   7
ENDBRANCH   5   6
ENDBRANCH   4   5
ENDBRANCH   3   4
ENDBRANCH   2   3
ENDBRANCH   1   2
BRANCH   1  18
ATOM     18  C   UNL     1     168.493 169.089 150.970  1.00  0.00     0.000 C 
BRANCH  18  19
ATOM     19  C   UNL     1     167.079 169.082 151.580  1.00  0.00     0.000 C 
BRANCH  19  20
ATOM     20  C   UNL     1     166.581 170.488 151.950  1.00  0.00     0.000 C 
BRANCH  20  21
ATOM     21  C   UNL     1     166.094 170.582 153.406  1.00  0.00     0.000 C 
BRANCH  21  22
ATOM     22  C   UNL     1     166.446 169.332 154.231  1.00  0.00     0.000 C 
BRANCH  22  23
ATOM     23  C   UNL     1     165.213 168.685 154.881  1.00  0.00     0.000 C 
BRANCH  23  24
ATOM     24  C   UNL     1     164.683 167.483 154.079  1.00  0.00    -0.000 C 
BRANCH  24  25
ATOM     25  C   UNL     1     163.397 167.819 153.307  1.00  0.00    -0.000 C 
BRANCH  25  26
ATOM     26  C   UNL     1     162.612 168.978 153.940  1.00  0.00    -0.000 C 
BRANCH  26  27
ATOM     27  C   UNL     1     161.956 169.850 152.859  1.00  0.00    -0.000 C 
BRANCH  27  28
ATOM     28  C   UNL     1     162.878 170.972 152.344  1.00  0.00    -0.000 C 
BRANCH  28  29
ATOM     29  C   UNL     1     163.030 171.046 150.812  1.00  0.00    -0.000 C 
BRANCH  29  30
ATOM     30  C   UNL     1     162.662 169.729 150.108  1.00  0.00    -0.000 C 
BRANCH  30  31
ATOM     31  C   UNL     1     163.884 168.824 149.880  1.00  0.00    -0.003 C 
ATOM     32  C   UNL     1     164.587 169.103 148.552  1.00  0.00     0.004 C 
ENDBRANCH  30  31
ENDBRANCH  29  30
ENDBRANCH  28  29
ENDBRANCH  27  28
ENDBRANCH  26  27
ENDBRANCH  25  26
ENDBRANCH  24  25
ENDBRANCH  23  24
ENDBRANCH  22  23
ENDBRANCH  21  22
ENDBRANCH  20  21
ENDBRANCH  19  20
ENDBRANCH  18  19
ENDBRANCH   1  18
TORSDOF 28
ENDMDL
MODEL 6
REMARK VINA RESULT:    -3.049      1.350      2.154
REMARK INTER + INTRA:         -14.455
REMARK INTER:                  -8.742
REMARK INTRA:                  -5.713
REMARK UNBOUND:                -6.414
REMARK SMILES CCCCCCCCCCCCCCCCCCCCCCCCCCCCCC(=O)[O-]
REMARK SMILES IDX 16 1 17 2 18 3 19 4 20 5 21 6 22 7 23 8 24 9 25 10 26 11
REMARK SMILES IDX 27 12 28 13 29 14 30 15 31 16 32 17 15 18 14 19 13 20 12 21
REMARK SMILES IDX 11 22 10 23 9 24 8 25 7 26 6 27 5 28 4 29 3 30 2 31 1 32
REMARK H PARENT
REMARK Flexibility Score: inf
ROOT
ATOM      1  C   UNL     1     168.285 171.803 153.543  1.00  0.00     0.000 C 
ENDROOT
BRANCH   1   2
ATOM      2  C   UNL     1     167.116 171.264 152.703  1.00  0.00     0.000 C 
BRANCH   2   3
ATOM      3  C   UNL     1     166.260 170.275 153.512  1.00  0.00     0.000 C 
BRANCH   3   4
ATOM      4  C   UNL     1     165.940 168.992 152.730  1.00  0.00     0.000 C 
BRANCH   4   5
ATOM      5  C   UNL     1     166.134 169.158 151.213  1.00  0.00     0.000 C 
BRANCH   5   6
ATOM      6  C   UNL     1     165.105 168.364 150.394  1.00  0.00     0.000 C 
BRANCH   6   7
ATOM      7  C   UNL     1     164.490 169.195 149.254  1.00  0.00     0.000 C 
BRANCH   7   8
ATOM      8  C   UNL     1     164.249 170.661 149.647  1.00  0.00     0.000 C 
BRANCH   8   9
ATOM      9  C   UNL     1     162.896 170.878 150.339  1.00  0.00     0.000 C 
BRANCH   9  10
ATOM     10  C   UNL     1     163.092 171.170 151.834  1.00  0.00     0.000 C 
BRANCH  10  11
ATOM     11  C   UNL     1     162.013 170.521 152.719  1.00  0.00     0.000 C 
BRANCH  11  12
ATOM     12  C   UNL     1     162.175 169.004 152.943  1.00  0.00     0.000 C 
BRANCH  12  13
ATOM     13  C   UNL     1     162.234 168.565 154.418  1.00  0.00     0.006 C 
BRANCH  13  14
ATOM     14  C   UNL     1     163.155 167.359 154.644  1.00  0.00     0.053 C 
BRANCH  14  15
ATOM     15  C   UNL     1     162.430 166.267 155.368  1.00  0.00     0.041 C 
ATOM     16  O   UNL     1     161.207 166.396 155.650  1.00  0.00    -0.550 OA
ATOM     17  O   UNL     1     163.093 165.093 155.703  1.00  0.00    -0.550 OA
ENDBRANCH  14  15
ENDBRANCH  13  14
ENDBRANCH  12  13
ENDBRANCH  11  12
ENDBRANCH  10  11
ENDBRANCH   9  10
ENDBRANCH   8   9
ENDBRANCH   7   8
ENDBRANCH   6   7
ENDBRANCH   5   6
ENDBRANCH   4   5
ENDBRANCH   3   4
ENDBRANCH   2   3
ENDBRANCH   1   2
BRANCH   1  18
ATOM     18  C   UNL     1     168.590 173.285 153.239  1.00  0.00     0.000 C 
BRANCH  18  19
ATOM     19  C   UNL     1     170.057 173.682 153.484  1.00  0.00     0.000 C 
BRANCH  19  20
ATOM     20  C   UNL     1     170.839 172.622 154.276  1.00  0.00     0.000 C 
BRANCH  20  21
ATOM     21  C   UNL     1     171.973 171.984 153.456  1.00  0.00     0.000 C 
BRANCH  21  22
ATOM     22  C   UNL     1     172.004 172.481 151.999  1.00  0.00     0.000 C 
BRANCH  22  23
ATOM     23  C   UNL     1     171.828 171.343 150.981  1.00  0.00     0.000 C 
BRANCH  23  24
ATOM     24  C   UNL     1     170.382 171.230 150.465  1.00  0.00    -0.000 C 
BRANCH  24  25
ATOM     25  C   UNL     1     169.791 169.829 150.686  1.00  0.00    -0.000 C 
BRANCH  25  26
ATOM     26  C   UNL     1     170.552 169.027 151.754  1.00  0.00    -0.000 C 
BRANCH  26  27
ATOM     27  C   UNL     1     169.598 168.534 152.851  1.00  0.00    -0.000 C 
BRANCH  27  28
ATOM     28  C   UNL     1     170.191 168.652 154.268  1.00  0.00    -0.000 C 
BRANCH  28  29
ATOM     29  C   UNL     1     169.164 168.890 155.392  1.00  0.00    -0.000 C 
BRANCH  29  30
ATOM     30  C   UNL     1     168.192 167.712 155.577  1.00  0.00    -0.000 C 
BRANCH  30  31
ATOM     31  C   UNL     1     168.918 166.360 155.666  1.00  0.00    -0.003 C 
ATOM     32  C   UNL     1     168.972 165.812 157.093  1.00  0.00     0.004 C 
ENDBRANCH  30  31
ENDBRANCH  29  30
ENDBRANCH  28  29
ENDBRANCH  27  28
ENDBRANCH  26  27
ENDBRANCH  25  26
ENDBRANCH  24  25
ENDBRANCH  23  24
ENDBRANCH  22  23
ENDBRANCH  21  22
ENDBRANCH  20  21
ENDBRANCH  19  20
ENDBRANCH  18  19
ENDBRANCH   1  18
TORSDOF 28
ENDMDL
MODEL 7
REMARK VINA RESULT:    -3.037      2.043      4.140
REMARK INTER + INTRA:         -14.421
REMARK INTER:                  -8.682
REMARK INTRA:                  -5.739
REMARK UNBOUND:                -6.414
REMARK SMILES CCCCCCCCCCCCCCCCCCCCCCCCCCCCCC(=O)[O-]
REMARK SMILES IDX 16 1 17 2 18 3 19 4 20 5 21 6 22 7 23 8 24 9 25 10 26 11
REMARK SMILES IDX 27 12 28 13 29 14 30 15 31 16 32 17 15 18 14 19 13 20 12 21
REMARK SMILES IDX 11 22 10 23 9 24 8 25 7 26 6 27 5 28 4 29 3 30 2 31 1 32
REMARK H PARENT
REMARK Flexibility Score: inf
ROOT
ATOM      1  C   UNL     1     169.334 170.901 150.036  1.00  0.00     0.000 C 
ENDROOT
BRANCH   1   2
ATOM      2  C   UNL     1     168.926 169.573 150.695  1.00  0.00     0.000 C 
BRANCH   2   3
ATOM      3  C   UNL     1     167.401 169.483 150.865  1.00  0.00     0.000 C 
BRANCH   3   4
ATOM      4  C   UNL     1     166.789 170.781 151.413  1.00  0.00     0.000 C 
BRANCH   4   5
ATOM      5  C   UNL     1     166.274 170.632 152.854  1.00  0.00     0.000 C 
BRANCH   5   6
ATOM      6  C   UNL     1     166.613 169.264 153.465  1.00  0.00     0.000 C 
BRANCH   6   7
ATOM      7  C   UNL     1     166.676 169.303 155.003  1.00  0.00     0.000 C 
BRANCH   7   8
ATOM      8  C   UNL     1     165.734 168.287 155.666  1.00  0.00     0.000 C 
BRANCH   8   9
ATOM      9  C   UNL     1     165.175 167.258 154.672  1.00  0.00     0.000 C 
BRANCH   9  10
ATOM     10  C   UNL     1     163.639 167.256 154.698  1.00  0.00     0.000 C 
BRANCH  10  11
ATOM     11  C   UNL     1     163.027 168.548 154.129  1.00  0.00     0.000 C 
BRANCH  11  12
ATOM     12  C   UNL     1     163.039 168.657 152.591  1.00  0.00     0.000 C 
BRANCH  12  13
ATOM     13  C   UNL     1     162.201 169.811 152.011  1.00  0.00     0.006 C 
BRANCH  13  14
ATOM     14  C   UNL     1     163.063 170.947 151.443  1.00  0.00     0.053 C 
BRANCH  14  15
ATOM     15  C   UNL     1     163.054 170.920 149.945  1.00  0.00     0.041 C 
ATOM     16  O   UNL     1     163.428 171.931 149.290  1.00  0.00    -0.550 OA
ATOM     17  O   UNL     1     162.666 169.768 149.272  1.00  0.00    -0.550 OA
ENDBRANCH  14  15
ENDBRANCH  13  14
ENDBRANCH  12  13
ENDBRANCH  11  12
ENDBRANCH  10  11
ENDBRANCH   9  10
ENDBRANCH   8   9
ENDBRANCH   7   8
ENDBRANCH   6   7
ENDBRANCH   5   6
ENDBRANCH   4   5
ENDBRANCH   3   4
ENDBRANCH   2   3
ENDBRANCH   1   2
BRANCH   1  18
ATOM     18  C   UNL     1     170.866 171.068 149.955  1.00  0.00     0.000 C 
BRANCH  18  19
ATOM     19  C   UNL     1     171.631 170.353 151.084  1.00  0.00     0.000 C 
BRANCH  19  20
ATOM     20  C   UNL     1     172.527 171.305 151.894  1.00  0.00     0.000 C 
BRANCH  20  21
ATOM     21  C   UNL     1     172.037 172.762 151.850  1.00  0.00     0.000 C 
BRANCH  21  22
ATOM     22  C   UNL     1     171.347 173.196 153.156  1.00  0.00     0.000 C 
BRANCH  22  23
ATOM     23  C   UNL     1     169.826 172.976 153.123  1.00  0.00     0.000 C 
BRANCH  23  24
ATOM     24  C   UNL     1     169.387 171.755 153.949  1.00  0.00    -0.000 C 
BRANCH  24  25
ATOM     25  C   UNL     1     170.481 171.282 154.919  1.00  0.00    -0.000 C 
BRANCH  25  26
ATOM     26  C   UNL     1     170.250 169.847 155.418  1.00  0.00    -0.000 C 
BRANCH  26  27
ATOM     27  C   UNL     1     171.009 168.836 154.546  1.00  0.00    -0.000 C 
BRANCH  27  28
ATOM     28  C   UNL     1     170.091 168.055 153.587  1.00  0.00    -0.000 C 
BRANCH  28  29
ATOM     29  C   UNL     1     169.409 166.814 154.196  1.00  0.00    -0.000 C 
BRANCH  29  30
ATOM     30  C   UNL     1     170.286 166.095 155.235  1.00  0.00    -0.000 C 
BRANCH  30  31
ATOM     31  C   UNL     1     169.637 166.061 156.629  1.00  0.00    -0.003 C 
ATOM     32  C   UNL     1     168.156 165.683 156.582  1.00  0.00     0.004 C 
ENDBRANCH  30  31
ENDBRANCH  29  30
ENDBRANCH  28  29
ENDBRANCH  27  28
ENDBRANCH  26  27
ENDBRANCH  25  26
ENDBRANCH  24  25
ENDBRANCH  23  24
ENDBRANCH  22  23
ENDBRANCH  21  22
ENDBRANCH  20  21
ENDBRANCH  19  20
ENDBRANCH  18  19
ENDBRANCH   1  18
TORSDOF 28
ENDMDL
MODEL 8
REMARK VINA RESULT:    -2.995      1.688      4.592
REMARK INTER + INTRA:         -14.311
REMARK INTER:                  -7.732
REMARK INTRA:                  -6.579
REMARK UNBOUND:                -6.414
REMARK SMILES CCCCCCCCCCCCCCCCCCCCCCCCCCCCCC(=O)[O-]
REMARK SMILES IDX 16 1 17 2 18 3 19 4 20 5 21 6 22 7 23 8 24 9 25 10 26 11
REMARK SMILES IDX 27 12 28 13 29 14 30 15 31 16 32 17 15 18 14 19 13 20 12 21
REMARK SMILES IDX 11 22 10 23 9 24 8 25 7 26 6 27 5 28 4 29 3 30 2 31 1 32
REMARK H PARENT
REMARK Flexibility Score: inf
ROOT
ATOM      1  C   UNL     1     171.152 173.205 152.758  1.00  0.00     0.000 C 
ENDROOT
BRANCH   1   2
ATOM      2  C   UNL     1     172.086 171.985 152.758  1.00  0.00     0.000 C 
BRANCH   2   3
ATOM      3  C   UNL     1     171.783 171.053 151.574  1.00  0.00     0.000 C 
BRANCH   3   4
ATOM      4  C   UNL     1     171.433 171.821 150.290  1.00  0.00     0.000 C 
BRANCH   4   5
ATOM      5  C   UNL     1     170.363 171.110 149.446  1.00  0.00     0.000 C 
BRANCH   5   6
ATOM      6  C   UNL     1     169.354 170.330 150.303  1.00  0.00     0.000 C 
BRANCH   6   7
ATOM      7  C   UNL     1     169.244 168.852 149.888  1.00  0.00     0.000 C 
BRANCH   7   8
ATOM      8  C   UNL     1     168.760 167.946 151.030  1.00  0.00     0.000 C 
BRANCH   8   9
ATOM      9  C   UNL     1     167.276 168.155 151.368  1.00  0.00     0.000 C 
BRANCH   9  10
ATOM     10  C   UNL     1     166.416 168.092 150.098  1.00  0.00     0.000 C 
BRANCH  10  11
ATOM     11  C   UNL     1     165.355 169.205 150.035  1.00  0.00     0.000 C 
BRANCH  11  12
ATOM     12  C   UNL     1     165.583 170.382 151.005  1.00  0.00     0.000 C 
BRANCH  12  13
ATOM     13  C   UNL     1     164.347 170.806 151.819  1.00  0.00     0.006 C 
BRANCH  13  14
ATOM     14  C   UNL     1     163.030 170.584 151.062  1.00  0.00     0.053 C 
BRANCH  14  15
ATOM     15  C   UNL     1     162.093 169.737 151.867  1.00  0.00     0.041 C 
ATOM     16  O   UNL     1     161.712 170.120 153.008  1.00  0.00    -0.550 OA
ATOM     17  O   UNL     1     161.614 168.541 151.348  1.00  0.00    -0.550 OA
ENDBRANCH  14  15
ENDBRANCH  13  14
ENDBRANCH  12  13
ENDBRANCH  11  12
ENDBRANCH  10  11
ENDBRANCH   9  10
ENDBRANCH   8   9
ENDBRANCH   7   8
ENDBRANCH   6   7
ENDBRANCH   5   6
ENDBRANCH   4   5
ENDBRANCH   3   4
ENDBRANCH   2   3
ENDBRANCH   1   2
BRANCH   1  18
ATOM     18  C   UNL     1     169.991 173.054 153.765  1.00  0.00     0.000 C 
BRANCH  18  19
ATOM     19  C   UNL     1     168.667 172.599 153.125  1.00  0.00     0.000 C 
BRANCH  19  20
ATOM     20  C   UNL     1     168.274 171.166 153.517  1.00  0.00     0.000 C 
BRANCH  20  21
ATOM     21  C   UNL     1     169.143 170.604 154.656  1.00  0.00     0.000 C 
BRANCH  21  22
ATOM     22  C   UNL     1     169.914 169.337 154.244  1.00  0.00     0.000 C 
BRANCH  22  23
ATOM     23  C   UNL     1     169.642 168.148 155.180  1.00  0.00     0.000 C 
BRANCH  23  24
ATOM     24  C   UNL     1     168.388 167.353 154.776  1.00  0.00    -0.000 C 
BRANCH  24  25
ATOM     25  C   UNL     1     167.556 166.919 155.994  1.00  0.00    -0.000 C 
BRANCH  25  26
ATOM     26  C   UNL     1     166.294 167.775 156.183  1.00  0.00    -0.000 C 
BRANCH  26  27
ATOM     27  C   UNL     1     166.000 168.603 154.924  1.00  0.00    -0.000 C 
BRANCH  27  28
ATOM     28  C   UNL     1     164.507 168.624 154.548  1.00  0.00    -0.000 C 
BRANCH  28  29
ATOM     29  C   UNL     1     163.890 167.248 154.230  1.00  0.00    -0.000 C 
BRANCH  29  30
ATOM     30  C   UNL     1     164.287 166.717 152.842  1.00  0.00    -0.000 C 
BRANCH  30  31
ATOM     31  C   UNL     1     164.624 165.217 152.862  1.00  0.00    -0.003 C 
ATOM     32  C   UNL     1     166.126 164.949 152.962  1.00  0.00     0.004 C 
ENDBRANCH  30  31
ENDBRANCH  29  30
ENDBRANCH  28  29
ENDBRANCH  27  28
ENDBRANCH  26  27
ENDBRANCH  25  26
ENDBRANCH  24  25
ENDBRANCH  23  24
ENDBRANCH  22  23
ENDBRANCH  21  22
ENDBRANCH  20  21
ENDBRANCH  19  20
ENDBRANCH  18  19
ENDBRANCH   1  18
TORSDOF 28
ENDMDL
MODEL 9
REMARK VINA RESULT:    -2.964      1.594      4.373
REMARK INTER + INTRA:         -14.231
REMARK INTER:                  -7.777
REMARK INTRA:                  -6.454
REMARK UNBOUND:                -6.414
REMARK SMILES CCCCCCCCCCCCCCCCCCCCCCCCCCCCCC(=O)[O-]
REMARK SMILES IDX 16 1 17 2 18 3 19 4 20 5 21 6 22 7 23 8 24 9 25 10 26 11
REMARK SMILES IDX 27 12 28 13 29 14 30 15 31 16 32 17 15 18 14 19 13 20 12 21
REMARK SMILES IDX 11 22 10 23 9 24 8 25 7 26 6 27 5 28 4 29 3 30 2 31 1 32
REMARK H PARENT
REMARK Flexibility Score: inf
ROOT
ATOM      1  C   UNL     1     164.184 167.658 153.721  1.00  0.00     0.000 C 
ENDROOT
BRANCH   1   2
ATOM      2  C   UNL     1     163.466 169.011 153.853  1.00  0.00     0.000 C 
BRANCH   2   3
ATOM      3  C   UNL     1     164.024 170.036 152.853  1.00  0.00     0.000 C 
BRANCH   3   4
ATOM      4  C   UNL     1     162.922 170.882 152.196  1.00  0.00     0.000 C 
BRANCH   4   5
ATOM      5  C   UNL     1     163.141 171.072 150.686  1.00  0.00     0.000 C 
BRANCH   5   6
ATOM      6  C   UNL     1     164.558 170.681 150.239  1.00  0.00     0.000 C 
BRANCH   6   7
ATOM      7  C   UNL     1     164.562 169.495 149.257  1.00  0.00     0.000 C 
BRANCH   7   8
ATOM      8  C   UNL     1     165.294 168.263 149.811  1.00  0.00     0.000 C 
BRANCH   8   9
ATOM      9  C   UNL     1     164.355 167.073 150.057  1.00  0.00     0.000 C 
BRANCH   9  10
ATOM     10  C   UNL     1     162.905 167.446 149.715  1.00  0.00     0.000 C 
BRANCH  10  11
ATOM     11  C   UNL     1     161.956 167.336 150.922  1.00  0.00     0.000 C 
BRANCH  11  12
ATOM     12  C   UNL     1     160.676 168.191 150.828  1.00  0.00     0.000 C 
BRANCH  12  13
ATOM     13  C   UNL     1     160.085 168.630 152.181  1.00  0.00     0.006 C 
BRANCH  13  14
ATOM     14  C   UNL     1     159.170 167.567 152.805  1.00  0.00     0.053 C 
BRANCH  14  15
ATOM     15  C   UNL     1     159.859 166.874 153.939  1.00  0.00     0.041 C 
ATOM     16  O   UNL     1     159.953 165.616 153.951  1.00  0.00    -0.550 OA
ATOM     17  O   UNL     1     160.427 167.617 154.967  1.00  0.00    -0.550 OA
ENDBRANCH  14  15
ENDBRANCH  13  14
ENDBRANCH  12  13
ENDBRANCH  11  12
ENDBRANCH  10  11
ENDBRANCH   9  10
ENDBRANCH   8   9
ENDBRANCH   7   8
ENDBRANCH   6   7
ENDBRANCH   5   6
ENDBRANCH   4   5
ENDBRANCH   3   4
ENDBRANCH   2   3
ENDBRANCH   1   2
BRANCH   1  18
ATOM     18  C   UNL     1     165.709 167.818 153.549  1.00  0.00     0.000 C 
BRANCH  18  19
ATOM     19  C   UNL     1     166.497 167.741 154.870  1.00  0.00     0.000 C 
BRANCH  19  20
ATOM     20  C   UNL     1     166.984 169.115 155.357  1.00  0.00     0.000 C 
BRANCH  20  21
ATOM     21  C   UNL     1     168.518 169.220 155.399  1.00  0.00     0.000 C 
BRANCH  21  22
ATOM     22  C   UNL     1     169.215 168.001 154.768  1.00  0.00     0.000 C 
BRANCH  22  23
ATOM     23  C   UNL     1     170.275 168.396 153.729  1.00  0.00     0.000 C 
BRANCH  23  24
ATOM     24  C   UNL     1     170.110 167.641 152.399  1.00  0.00    -0.000 C 
BRANCH  24  25
ATOM     25  C   UNL     1     168.782 167.973 151.700  1.00  0.00    -0.000 C 
BRANCH  25  26
ATOM     26  C   UNL     1     168.982 168.740 150.383  1.00  0.00    -0.000 C 
BRANCH  26  27
ATOM     27  C   UNL     1     168.557 170.208 150.534  1.00  0.00    -0.000 C 
BRANCH  27  28
ATOM     28  C   UNL     1     167.633 170.449 151.743  1.00  0.00    -0.000 C 
BRANCH  28  29
ATOM     29  C   UNL     1     168.124 171.513 152.743  1.00  0.00    -0.000 C 
BRANCH  29  30
ATOM     30  C   UNL     1     169.638 171.771 152.651  1.00  0.00    -0.000 C 
BRANCH  30  31
ATOM     31  C   UNL     1     170.171 172.571 153.850  1.00  0.00    -0.003 C 
ATOM     32  C   UNL     1     169.650 174.009 153.880  1.00  0.00     0.004 C 
ENDBRANCH  30  31
ENDBRANCH  29  30
ENDBRANCH  28  29
ENDBRANCH  27  28
ENDBRANCH  26  27
ENDBRANCH  25  26
ENDBRANCH  24  25
ENDBRANCH  23  24
ENDBRANCH  22  23
ENDBRANCH  21  22
ENDBRANCH  20  21
ENDBRANCH  19  20
ENDBRANCH  18  19
ENDBRANCH   1  18
TORSDOF 28
ENDMDL
