MODEL 1
REMARK VINA RESULT:    -3.746      0.000      0.000
REMARK INTER + INTRA:          -4.476
REMARK INTER:                  -4.403
REMARK INTRA:                  -0.073
REMARK UNBOUND:                -0.073
REMARK SMILES CCCCC(=O)[O-]
REMARK SMILES IDX 4 1 5 2 6 3 7 4 3 5 2 6 1 7
REMARK H PARENT
REMARK Flexibility Score: inf
ROOT
ATOM      1  C   UNL     1      -4.937  10.344  -9.975  1.00  0.00     0.053 C 
ENDROOT
BRANCH   1   2
ATOM      2  C   UNL     1      -5.504  11.525  -9.250  1.00  0.00     0.041 C 
ATOM      3  O   UNL     1      -5.076  12.683  -9.495  1.00  0.00    -0.550 OA
ATOM      4  O   UNL     1      -6.528  11.350  -8.329  1.00  0.00    -0.550 OA
ENDBRANCH   1   2
BRANCH   1   5
ATOM      5  C   UNL     1      -5.590   9.025  -9.531  1.00  0.00     0.006 C 
BRANCH   5   6
ATOM      6  C   UNL     1      -6.564   8.428 -10.563  1.00  0.00    -0.003 C 
ATOM      7  C   UNL     1      -6.577   9.198 -11.883  1.00  0.00     0.004 C 
ENDBRANCH   5   6
ENDBRANCH   1   5
TORSDOF 3
ENDMDL
MODEL 2
REMARK VINA RESULT:    -3.660      2.056      2.940
REMARK INTER + INTRA:          -4.375
REMARK INTER:                  -4.314
REMARK INTRA:                  -0.060
REMARK UNBOUND:                -0.073
REMARK SMILES CCCCC(=O)[O-]
REMARK SMILES IDX 4 1 5 2 6 3 7 4 3 5 2 6 1 7
REMARK H PARENT
REMARK Flexibility Score: inf
ROOT
ATOM      1  C   UNL     1      -5.243  11.371  -9.455  1.00  0.00     0.053 C 
ENDROOT
BRANCH   1   2
ATOM      2  C   UNL     1      -6.690  11.635  -9.170  1.00  0.00     0.041 C 
ATOM      3  O   UNL     1      -7.022  12.581  -8.409  1.00  0.00    -0.550 OA
ATOM      4  O   UNL     1      -7.671  10.858  -9.771  1.00  0.00    -0.550 OA
ENDBRANCH   1   2
BRANCH   1   5
ATOM      5  C   UNL     1      -4.814   9.965  -9.005  1.00  0.00     0.006 C 
BRANCH   5   6
ATOM      6  C   UNL     1      -4.542   9.845  -7.494  1.00  0.00    -0.003 C 
ATOM      7  C   UNL     1      -3.535   8.747  -7.158  1.00  0.00     0.004 C 
ENDBRANCH   5   6
ENDBRANCH   1   5
TORSDOF 3
ENDMDL
MODEL 3
REMARK VINA RESULT:    -3.627      0.831      1.338
REMARK INTER + INTRA:          -4.335
REMARK INTER:                  -4.250
REMARK INTRA:                  -0.086
REMARK UNBOUND:                -0.073
REMARK SMILES CCCCC(=O)[O-]
REMARK SMILES IDX 4 1 5 2 6 3 7 4 3 5 2 6 1 7
REMARK H PARENT
REMARK Flexibility Score: inf
ROOT
ATOM      1  C   UNL     1      -5.222  10.195 -10.289  1.00  0.00     0.053 C 
ENDROOT
BRANCH   1   2
ATOM      2  C   UNL     1      -5.650  11.305  -9.379  1.00  0.00     0.041 C 
ATOM      3  O   UNL     1      -5.125  12.446  -9.482  1.00  0.00    -0.550 OA
ATOM      4  O   UNL     1      -6.650  11.091  -8.441  1.00  0.00    -0.550 OA
ENDBRANCH   1   2
BRANCH   1   5
ATOM      5  C   UNL     1      -6.419   9.385 -10.813  1.00  0.00     0.006 C 
BRANCH   5   6
ATOM      6  C   UNL     1      -6.450   7.925 -10.328  1.00  0.00    -0.003 C 
ATOM      7  C   UNL     1      -7.728   7.579  -9.565  1.00  0.00     0.004 C 
ENDBRANCH   5   6
ENDBRANCH   1   5
TORSDOF 3
ENDMDL
MODEL 4
REMARK VINA RESULT:    -3.591     12.907     13.559
REMARK INTER + INTRA:          -4.294
REMARK INTER:                  -4.205
REMARK INTRA:                  -0.088
REMARK UNBOUND:                -0.073
REMARK SMILES CCCCC(=O)[O-]
REMARK SMILES IDX 4 1 5 2 6 3 7 4 3 5 2 6 1 7
REMARK H PARENT
REMARK Flexibility Score: inf
ROOT
ATOM      1  C   UNL     1       3.073   1.917  -8.061  1.00  0.00     0.053 C 
ENDROOT
BRANCH   1   2
ATOM      2  C   UNL     1       4.123   0.899  -7.740  1.00  0.00     0.041 C 
ATOM      3  O   UNL     1       4.291   0.516  -6.552  1.00  0.00    -0.550 OA
ATOM      4  O   UNL     1       4.893   0.348  -8.755  1.00  0.00    -0.550 OA
ENDBRANCH   1   2
BRANCH   1   5
ATOM      5  C   UNL     1       3.660   3.146  -8.773  1.00  0.00     0.006 C 
BRANCH   5   6
ATOM      6  C   UNL     1       4.891   3.750  -8.074  1.00  0.00    -0.003 C 
ATOM      7  C   UNL     1       4.538   4.917  -7.153  1.00  0.00     0.004 C 
ENDBRANCH   5   6
ENDBRANCH   1   5
TORSDOF 3
ENDMDL
MODEL 5
REMARK VINA RESULT:    -3.580     12.401     12.956
REMARK INTER + INTRA:          -4.280
REMARK INTER:                  -4.159
REMARK INTRA:                  -0.122
REMARK UNBOUND:                -0.073
REMARK SMILES CCCCC(=O)[O-]
REMARK SMILES IDX 4 1 5 2 6 3 7 4 3 5 2 6 1 7
REMARK H PARENT
REMARK Flexibility Score: inf
ROOT
ATOM      1  C   UNL     1       3.469   3.381  -8.768  1.00  0.00     0.053 C 
ENDROOT
BRANCH   1   2
ATOM      2  C   UNL     1       4.702   3.891  -8.088  1.00  0.00     0.041 C 
ATOM      3  O   UNL     1       5.835   3.452  -8.422  1.00  0.00    -0.550 OA
ATOM      4  O   UNL     1       4.605   4.872  -7.112  1.00  0.00    -0.550 OA
ENDBRANCH   1   2
BRANCH   1   5
ATOM      5  C   UNL     1       3.369   1.849  -8.710  1.00  0.00     0.006 C 
BRANCH   5   6
ATOM      6  C   UNL     1       3.359   1.273  -7.283  1.00  0.00    -0.003 C 
ATOM      7  C   UNL     1       4.393   0.165  -7.082  1.00  0.00     0.004 C 
ENDBRANCH   5   6
ENDBRANCH   1   5
TORSDOF 3
ENDMDL
MODEL 6
REMARK VINA RESULT:    -3.566      2.385      3.350
REMARK INTER + INTRA:          -4.264
REMARK INTER:                  -4.224
REMARK INTRA:                  -0.040
REMARK UNBOUND:                -0.073
REMARK SMILES CCCCC(=O)[O-]
REMARK SMILES IDX 4 1 5 2 6 3 7 4 3 5 2 6 1 7
REMARK H PARENT
REMARK Flexibility Score: inf
ROOT
ATOM      1  C   UNL     1      -5.080  10.500  -9.939  1.00  0.00     0.053 C 
ENDROOT
BRANCH   1   2
ATOM      2  C   UNL     1      -6.371  10.050 -10.551  1.00  0.00     0.041 C 
ATOM      3  O   UNL     1      -7.458  10.235  -9.943  1.00  0.00    -0.550 OA
ATOM      4  O   UNL     1      -6.377   9.458 -11.807  1.00  0.00    -0.550 OA
ENDBRANCH   1   2
BRANCH   1   5
ATOM      5  C   UNL     1      -4.878   9.922  -8.529  1.00  0.00     0.006 C 
BRANCH   5   6
ATOM      6  C   UNL     1      -4.051   8.625  -8.494  1.00  0.00    -0.003 C 
ATOM      7  C   UNL     1      -3.370   8.391  -7.146  1.00  0.00     0.004 C 
ENDBRANCH   5   6
ENDBRANCH   1   5
TORSDOF 3
ENDMDL
MODEL 7
REMARK VINA RESULT:    -3.519      2.224      3.225
REMARK INTER + INTRA:          -4.209
REMARK INTER:                  -4.092
REMARK INTRA:                  -0.116
REMARK UNBOUND:                -0.073
REMARK SMILES CCCCC(=O)[O-]
REMARK SMILES IDX 4 1 5 2 6 3 7 4 3 5 2 6 1 7
REMARK H PARENT
REMARK Flexibility Score: inf
ROOT
ATOM      1  C   UNL     1      -5.990   8.565  -9.929  1.00  0.00     0.053 C 
ENDROOT
BRANCH   1   2
ATOM      2  C   UNL     1      -6.907   9.191 -10.934  1.00  0.00     0.041 C 
ATOM      3  O   UNL     1      -6.513   9.384 -12.115  1.00  0.00    -0.550 OA
ATOM      4  O   UNL     1      -8.205   9.530 -10.578  1.00  0.00    -0.550 OA
ENDBRANCH   1   2
BRANCH   1   5
ATOM      5  C   UNL     1      -4.891   9.535  -9.467  1.00  0.00     0.006 C 
BRANCH   5   6
ATOM      6  C   UNL     1      -5.415  10.746  -8.673  1.00  0.00    -0.003 C 
ATOM      7  C   UNL     1      -5.211  12.070  -9.407  1.00  0.00     0.004 C 
ENDBRANCH   5   6
ENDBRANCH   1   5
TORSDOF 3
ENDMDL
MODEL 8
REMARK VINA RESULT:    -3.500      1.912      2.357
REMARK INTER + INTRA:          -4.186
REMARK INTER:                  -4.086
REMARK INTRA:                  -0.100
REMARK UNBOUND:                -0.073
REMARK SMILES CCCCC(=O)[O-]
REMARK SMILES IDX 4 1 5 2 6 3 7 4 3 5 2 6 1 7
REMARK H PARENT
REMARK Flexibility Score: inf
ROOT
ATOM      1  C   UNL     1      -5.141  10.652  -9.619  1.00  0.00     0.053 C 
ENDROOT
BRANCH   1   2
ATOM      2  C   UNL     1      -4.837   9.666  -8.534  1.00  0.00     0.041 C 
ATOM      3  O   UNL     1      -5.405   9.762  -7.414  1.00  0.00    -0.550 OA
ATOM      4  O   UNL     1      -3.952   8.622  -8.769  1.00  0.00    -0.550 OA
ENDBRANCH   1   2
BRANCH   1   5
ATOM      5  C   UNL     1      -6.653  10.864  -9.799  1.00  0.00     0.006 C 
BRANCH   5   6
ATOM      6  C   UNL     1      -7.350   9.757 -10.611  1.00  0.00    -0.003 C 
ATOM      7  C   UNL     1      -6.530   9.295 -11.814  1.00  0.00     0.004 C 
ENDBRANCH   5   6
ENDBRANCH   1   5
TORSDOF 3
ENDMDL
MODEL 9
REMARK VINA RESULT:    -3.425      2.336      3.468
REMARK INTER + INTRA:          -4.098
REMARK INTER:                  -3.967
REMARK INTRA:                  -0.131
REMARK UNBOUND:                -0.073
REMARK SMILES CCCCC(=O)[O-]
REMARK SMILES IDX 4 1 5 2 6 3 7 4 3 5 2 6 1 7
REMARK H PARENT
REMARK Flexibility Score: inf
ROOT
ATOM      1  C   UNL     1      -6.538   7.964 -10.252  1.00  0.00     0.053 C 
ENDROOT
BRANCH   1   2
ATOM      2  C   UNL     1      -6.229   7.776  -8.798  1.00  0.00     0.041 C 
ATOM      3  O   UNL     1      -5.238   7.083  -8.447  1.00  0.00    -0.550 OA
ATOM      4  O   UNL     1      -7.014   8.393  -7.834  1.00  0.00    -0.550 OA
ENDBRANCH   1   2
BRANCH   1   5
ATOM      5  C   UNL     1      -6.466   9.441 -10.671  1.00  0.00     0.006 C 
BRANCH   5   6
ATOM      6  C   UNL     1      -5.168  10.152 -10.248  1.00  0.00    -0.003 C 
ATOM      7  C   UNL     1      -5.423  11.457  -9.496  1.00  0.00     0.004 C 
ENDBRANCH   5   6
ENDBRANCH   1   5
TORSDOF 3
ENDMDL
