MODEL 1
REMARK VINA RESULT:    -2.360      0.000      0.000
REMARK INTER + INTRA:          -2.360
REMARK INTER:                  -2.360
REMARK INTRA:                   0.000
REMARK UNBOUND:                 0.000
REMARK SMILES CC(=O)[O-]
REMARK SMILES IDX 1 1 2 2 3 3 4 4
REMARK H PARENT
REMARK Flexibility Score: inf
ROOT
ATOM      1  C   UNL     1      89.155  76.227  68.948  1.00  0.00     0.063 C 
ATOM      2  C   UNL     1      90.395  76.033  69.753  1.00  0.00     0.038 C 
ATOM      3  O   UNL     1      90.778  74.872  70.055  1.00  0.00    -0.550 OA
ATOM      4  O   UNL     1      91.161  77.129  70.126  1.00  0.00    -0.550 OA
ENDROOT
TORSDOF 0
ENDMDL
MODEL 2
REMARK VINA RESULT:    -2.351      1.227      1.472
REMARK INTER + INTRA:          -2.351
REMARK INTER:                  -2.351
REMARK INTRA:                   0.000
REMARK UNBOUND:                 0.000
REMARK SMILES CC(=O)[O-]
REMARK SMILES IDX 1 1 2 2 3 3 4 4
REMARK H PARENT
REMARK Flexibility Score: inf
ROOT
ATOM      1  C   UNL     1      89.590  75.599  68.875  1.00  0.00     0.063 C 
ATOM      2  C   UNL     1      89.958  76.561  69.952  1.00  0.00     0.038 C 
ATOM      3  O   UNL     1      89.101  76.914  70.805  1.00  0.00    -0.550 OA
ATOM      4  O   UNL     1      91.261  77.031  70.051  1.00  0.00    -0.550 OA
ENDROOT
TORSDOF 0
ENDMDL
MODEL 3
REMARK VINA RESULT:    -2.329      1.219      1.615
REMARK INTER + INTRA:          -2.329
REMARK INTER:                  -2.329
REMARK INTRA:                   0.000
REMARK UNBOUND:                 0.000
REMARK SMILES CC(=O)[O-]
REMARK SMILES IDX 1 1 2 2 3 3 4 4
REMARK H PARENT
REMARK Flexibility Score: inf
ROOT
ATOM      1  C   UNL     1      89.559  75.644  68.878  1.00  0.00     0.063 C 
ATOM      2  C   UNL     1      90.005  76.555  69.971  1.00  0.00     0.038 C 
ATOM      3  O   UNL     1      91.196  76.959  70.010  1.00  0.00    -0.550 OA
ATOM      4  O   UNL     1      89.093  77.005  70.917  1.00  0.00    -0.550 OA
ENDROOT
TORSDOF 0
ENDMDL
MODEL 4
REMARK VINA RESULT:    -2.300      1.491      1.801
REMARK INTER + INTRA:          -2.300
REMARK INTER:                  -2.300
REMARK INTRA:                   0.000
REMARK UNBOUND:                 0.000
REMARK SMILES CC(=O)[O-]
REMARK SMILES IDX 1 1 2 2 3 3 4 4
REMARK H PARENT
REMARK Flexibility Score: inf
ROOT
ATOM      1  C   UNL     1      90.983  77.000  70.237  1.00  0.00     0.063 C 
ATOM      2  C   UNL     1      90.096  76.023  69.543  1.00  0.00     0.038 C 
ATOM      3  O   UNL     1      90.345  74.791  69.600  1.00  0.00    -0.550 OA
ATOM      4  O   UNL     1      88.961  76.466  68.876  1.00  0.00    -0.550 OA
ENDROOT
TORSDOF 0
ENDMDL
MODEL 5
REMARK VINA RESULT:    -2.260      2.548      2.716
REMARK INTER + INTRA:          -2.260
REMARK INTER:                  -2.260
REMARK INTRA:                   0.000
REMARK UNBOUND:                 0.000
REMARK SMILES CC(=O)[O-]
REMARK SMILES IDX 1 1 2 2 3 3 4 4
REMARK H PARENT
REMARK Flexibility Score: inf
ROOT
ATOM      1  C   UNL     1      89.549  75.727  68.916  1.00  0.00     0.063 C 
ATOM      2  C   UNL     1      88.277  76.248  69.493  1.00  0.00     0.038 C 
ATOM      3  O   UNL     1      87.192  76.092  68.875  1.00  0.00    -0.550 OA
ATOM      4  O   UNL     1      88.278  76.859  70.740  1.00  0.00    -0.550 OA
ENDROOT
TORSDOF 0
ENDMDL
MODEL 6
REMARK VINA RESULT:    -2.197      2.267      2.612
REMARK INTER + INTRA:          -2.197
REMARK INTER:                  -2.197
REMARK INTRA:                   0.000
REMARK UNBOUND:                 0.000
REMARK SMILES CC(=O)[O-]
REMARK SMILES IDX 1 1 2 2 3 3 4 4
REMARK H PARENT
REMARK Flexibility Score: inf
ROOT
ATOM      1  C   UNL     1      89.847  75.778  69.114  1.00  0.00     0.063 C 
ATOM      2  C   UNL     1      88.744  76.349  69.938  1.00  0.00     0.038 C 
ATOM      3  O   UNL     1      89.007  77.006  70.979  1.00  0.00    -0.550 OA
ATOM      4  O   UNL     1      87.424  76.203  69.531  1.00  0.00    -0.550 OA
ENDROOT
TORSDOF 0
ENDMDL
MODEL 7
REMARK VINA RESULT:    -2.147      3.186      3.281
REMARK INTER + INTRA:          -2.147
REMARK INTER:                  -2.147
REMARK INTRA:                   0.000
REMARK UNBOUND:                 0.000
REMARK SMILES CC(=O)[O-]
REMARK SMILES IDX 1 1 2 2 3 3 4 4
REMARK H PARENT
REMARK Flexibility Score: inf
ROOT
ATOM      1  C   UNL     1      86.930  76.339  72.167  1.00  0.00     0.063 C 
ATOM      2  C   UNL     1      87.795  76.572  70.976  1.00  0.00     0.038 C 
ATOM      3  O   UNL     1      87.366  76.311  69.822  1.00  0.00    -0.550 OA
ATOM      4  O   UNL     1      89.058  77.129  71.132  1.00  0.00    -0.550 OA
ENDROOT
TORSDOF 0
ENDMDL
MODEL 8
REMARK VINA RESULT:    -2.026     14.266     14.618
REMARK INTER + INTRA:          -2.026
REMARK INTER:                  -2.026
REMARK INTRA:                   0.000
REMARK UNBOUND:                 0.000
REMARK SMILES CC(=O)[O-]
REMARK SMILES IDX 1 1 2 2 3 3 4 4
REMARK H PARENT
REMARK Flexibility Score: inf
ROOT
ATOM      1  C   UNL     1      97.641  82.264  81.270  1.00  0.00     0.063 C 
ATOM      2  C   UNL     1      96.776  83.234  80.538  1.00  0.00     0.038 C 
ATOM      3  O   UNL     1      95.525  83.099  80.550  1.00  0.00    -0.550 OA
ATOM      4  O   UNL     1      97.346  84.320  79.886  1.00  0.00    -0.550 OA
ENDROOT
TORSDOF 0
ENDMDL
