MODEL 1
REMARK VINA RESULT:    17.523      0.000      0.000
REMARK INTER + INTRA:          28.549
REMARK INTER:                  26.742
REMARK INTRA:                   1.807
REMARK UNBOUND:                 1.807
REMARK SMILES CC1=CCC[C@@H](C)C(=O)C[C@H](C(C)C)C(=O)C1
REMARK SMILES IDX 8 1 9 2 6 3 7 4 5 5 4 6 3 7 2 8 1 9 10 11 11 12 15 13 16 14
REMARK SMILES IDX 17 15 12 17 13 18 14 19
REMARK H PARENT
REMARK Flexibility Score: 70.00
ROOT
ATOM      1  C   UNL     1      35.343  11.942  40.370  1.00  0.00     0.136 C 
ATOM      2  O   UNL     1      34.695  12.627  39.591  1.00  0.00    -0.299 OA
ENDROOT
BRANCH   1   3
ATOM      3  C   UNL     1      35.614  10.486  40.053  1.00  0.00     0.053 C 
ATOM      4  C   UNL     1      36.945  10.373  39.303  1.00  0.00     0.016 C 
BRANCH   3   5
ATOM      5  C   UNL     1      34.478   9.829  39.231  1.00  0.00     0.015 C 
BRANCH   5   6
ATOM      6  C   UNL     1      33.377   9.186  40.095  1.00  0.00     0.028 C 
BRANCH   6   7
ATOM      7  C   UNL     1      32.307  10.187  40.463  1.00  0.00    -0.028 C 
ATOM      8  C   UNL     1      32.370  11.062  41.492  1.00  0.00    -0.070 CG0
ATOM      9  C   UNL     1      31.197  11.984  41.709  1.00  0.00     0.039 C 
ATOM     10  G   UNL     1      33.561  11.154  42.429  1.00  0.00     0.000 G0
ENDBRANCH   6   7
ENDBRANCH   5   6
ENDBRANCH   3   5
ENDBRANCH   1   3
BRANCH   1  11
ATOM     11  C   UNL     1      35.925  12.584  41.608  1.00  0.00     0.087 C 
BRANCH  11  12
ATOM     12  C   UNL     1      34.885  13.461  42.343  1.00  0.00     0.066 C 
BRANCH  12  13
ATOM     13  C   UNL     1      33.776  12.600  42.925  1.00  0.00     0.140 C 
ATOM     14  O   UNL     1      33.020  13.067  43.765  1.00  0.00    -0.299 OA
BRANCH  13  15
ATOM     15  C   UNL     1      33.557  11.180  42.462  1.00  0.00     0.106 CG0
ATOM     16  G   UNL     1      32.409  11.066  41.476  1.00  0.00     0.000 G0
ENDBRANCH  13  15
ENDBRANCH  12  13
BRANCH  12  17
ATOM     17  C   UNL     1      35.503  14.388  43.435  1.00  0.00    -0.006 C 
ATOM     18  C   UNL     1      37.025  14.584  43.306  1.00  0.00     0.008 C 
ATOM     19  C   UNL     1      34.803  15.756  43.478  1.00  0.00     0.008 C 
ENDBRANCH  12  17
ENDBRANCH  11  12
ENDBRANCH   1  11
TORSDOF 1
ENDMDL
MODEL 2
REMARK VINA RESULT:    19.227      1.553      2.120
REMARK INTER + INTRA:          31.151
REMARK INTER:                  28.330
REMARK INTRA:                   2.821
REMARK UNBOUND:                 1.807
REMARK SMILES CC1=CCC[C@@H](C)C(=O)C[C@H](C(C)C)C(=O)C1
REMARK SMILES IDX 8 1 9 2 6 3 7 4 5 5 4 6 3 7 2 8 1 9 10 11 11 12 15 13 16 14
REMARK SMILES IDX 17 15 12 17 13 18 14 19
REMARK H PARENT
REMARK Flexibility Score: 70.00
ROOT
ATOM      1  C   UNL     1      35.668  10.535  40.845  1.00  0.00     0.136 C 
ATOM      2  O   UNL     1      36.625  10.675  40.097  1.00  0.00    -0.299 OA
ENDROOT
BRANCH   1   3
ATOM      3  C   UNL     1      34.840   9.267  40.786  1.00  0.00     0.053 C 
ATOM      4  C   UNL     1      35.760   8.057  40.975  1.00  0.00     0.016 C 
BRANCH   3   5
ATOM      5  C   UNL     1      34.040   9.133  39.468  1.00  0.00     0.015 C 
BRANCH   5   6
ATOM      6  C   UNL     1      32.537   9.431  39.618  1.00  0.00     0.028 C 
BRANCH   6   7
ATOM      7  C   UNL     1      32.260  10.275  40.840  1.00  0.00    -0.028 C 
ATOM      8  C   UNL     1      32.623  11.568  41.002  1.00  0.00    -0.070 CG0
ATOM      9  C   UNL     1      32.261  12.246  42.299  1.00  0.00     0.039 C 
ATOM     10  G   UNL     1      33.371  12.356  39.942  1.00  0.00     0.000 G0
ENDBRANCH   6   7
ENDBRANCH   5   6
ENDBRANCH   3   5
ENDBRANCH   1   3
BRANCH   1  11
ATOM     11  C   UNL     1      35.369  11.605  41.868  1.00  0.00     0.087 C 
BRANCH  11  12
ATOM     12  C   UNL     1      35.540  13.026  41.281  1.00  0.00     0.066 C 
BRANCH  12  13
ATOM     13  C   UNL     1      34.331  13.404  40.439  1.00  0.00     0.140 C 
ATOM     14  O   UNL     1      34.131  14.576  40.155  1.00  0.00    -0.299 OA
BRANCH  13  15
ATOM     15  C   UNL     1      33.383  12.357  39.909  1.00  0.00     0.106 CG0
ATOM     16  G   UNL     1      32.682  11.599  41.022  1.00  0.00     0.000 G0
ENDBRANCH  13  15
ENDBRANCH  12  13
BRANCH  12  17
ATOM     17  C   UNL     1      35.837  14.119  42.353  1.00  0.00    -0.006 C 
ATOM     18  C   UNL     1      34.597  14.587  43.135  1.00  0.00     0.008 C 
ATOM     19  C   UNL     1      36.932  13.667  43.333  1.00  0.00     0.008 C 
ENDBRANCH  12  17
ENDBRANCH  11  12
ENDBRANCH   1  11
TORSDOF 1
ENDMDL
MODEL 3
REMARK VINA RESULT:    19.432      1.877      4.095
REMARK INTER + INTRA:          31.462
REMARK INTER:                  28.970
REMARK INTRA:                   2.492
REMARK UNBOUND:                 1.807
REMARK SMILES CC1=CCC[C@@H](C)C(=O)C[C@H](C(C)C)C(=O)C1
REMARK SMILES IDX 8 1 9 2 6 3 7 4 5 5 4 6 3 7 2 8 1 9 10 11 11 12 15 13 16 14
REMARK SMILES IDX 17 15 12 17 13 18 14 19
REMARK H PARENT
REMARK Flexibility Score: 70.00
ROOT
ATOM      1  C   UNL     1      34.528  12.983  40.417  1.00  0.00     0.136 C 
ATOM      2  O   UNL     1      34.156  14.140  40.548  1.00  0.00    -0.299 OA
ENDROOT
BRANCH   1   3
ATOM      3  C   UNL     1      35.720  12.477  41.205  1.00  0.00     0.053 C 
ATOM      4  C   UNL     1      36.144  13.546  42.217  1.00  0.00     0.016 C 
BRANCH   3   5
ATOM      5  C   UNL     1      36.916  12.089  40.302  1.00  0.00     0.015 C 
BRANCH   5   6
ATOM      6  C   UNL     1      37.122  10.570  40.161  1.00  0.00     0.028 C 
BRANCH   6   7
ATOM      7  C   UNL     1      36.344  10.012  38.993  1.00  0.00    -0.028 C 
ATOM      8  C   UNL     1      35.133   9.413  39.068  1.00  0.00    -0.070 CG0
ATOM      9  C   UNL     1      34.512   8.912  37.789  1.00  0.00     0.039 C 
ATOM     10  G   UNL     1      34.382   9.229  40.374  1.00  0.00     0.000 G0
ENDBRANCH   6   7
ENDBRANCH   5   6
ENDBRANCH   3   5
ENDBRANCH   1   3
BRANCH   1  11
ATOM     11  C   UNL     1      33.746  12.054  39.520  1.00  0.00     0.087 C 
BRANCH  11  12
ATOM     12  C   UNL     1      32.663  11.276  40.303  1.00  0.00     0.066 C 
BRANCH  12  13
ATOM     13  C   UNL     1      32.928   9.780  40.239  1.00  0.00     0.140 C 
ATOM     14  O   UNL     1      32.000   9.004  40.063  1.00  0.00    -0.299 OA
BRANCH  13  15
ATOM     15  C   UNL     1      34.327   9.224  40.352  1.00  0.00     0.106 CG0
ATOM     16  G   UNL     1      35.127   9.418  39.077  1.00  0.00     0.000 G0
ENDBRANCH  13  15
ENDBRANCH  12  13
BRANCH  12  17
ATOM     17  C   UNL     1      32.490  11.749  41.779  1.00  0.00    -0.006 C 
ATOM     18  C   UNL     1      31.161  11.318  42.426  1.00  0.00     0.008 C 
ATOM     19  C   UNL     1      33.668  11.301  42.658  1.00  0.00     0.008 C 
ENDBRANCH  12  17
ENDBRANCH  11  12
ENDBRANCH   1  11
TORSDOF 1
ENDMDL
MODEL 4
REMARK VINA RESULT:    19.986      2.466      5.121
REMARK INTER + INTRA:          32.309
REMARK INTER:                  31.980
REMARK INTRA:                   0.329
REMARK UNBOUND:                 1.807
REMARK SMILES CC1=CCC[C@@H](C)C(=O)C[C@H](C(C)C)C(=O)C1
REMARK SMILES IDX 8 1 9 2 6 3 7 4 5 5 4 6 3 7 2 8 1 9 10 11 11 12 15 13 16 14
REMARK SMILES IDX 17 15 12 17 13 18 14 19
REMARK H PARENT
REMARK Flexibility Score: 70.00
ROOT
ATOM      1  C   UNL     1      35.416  12.949  42.861  1.00  0.00     0.136 C 
ATOM      2  O   UNL     1      34.646  12.460  43.676  1.00  0.00    -0.299 OA
ENDROOT
BRANCH   1   3
ATOM      3  C   UNL     1      36.350  14.067  43.278  1.00  0.00     0.053 C 
ATOM      4  C   UNL     1      36.782  13.847  44.731  1.00  0.00     0.016 C 
BRANCH   3   5
ATOM      5  C   UNL     1      35.718  15.470  43.113  1.00  0.00     0.015 C 
BRANCH   5   6
ATOM      6  C   UNL     1      34.214  15.441  42.784  1.00  0.00     0.028 C 
BRANCH   6   7
ATOM      7  C   UNL     1      33.891  16.307  41.589  1.00  0.00    -0.028 C 
ATOM      8  C   UNL     1      34.062  15.956  40.294  1.00  0.00    -0.070 CG0
ATOM      9  C   UNL     1      33.687  16.960  39.234  1.00  0.00     0.039 C 
ATOM     10  G   UNL     1      34.609  14.605  39.868  1.00  0.00     0.000 G0
ENDBRANCH   6   7
ENDBRANCH   5   6
ENDBRANCH   3   5
ENDBRANCH   1   3
BRANCH   1  11
ATOM     11  C   UNL     1      35.471  12.377  41.464  1.00  0.00     0.087 C 
BRANCH  11  12
ATOM     12  C   UNL     1      34.060  12.208  40.856  1.00  0.00     0.066 C 
BRANCH  12  13
ATOM     13  C   UNL     1      33.688  13.426  40.024  1.00  0.00     0.140 C 
ATOM     14  O   UNL     1      32.579  13.498  39.513  1.00  0.00    -0.299 OA
BRANCH  13  15
ATOM     15  C   UNL     1      34.647  14.576  39.841  1.00  0.00     0.106 CG0
ATOM     16  G   UNL     1      34.040  15.904  40.255  1.00  0.00     0.000 G0
ENDBRANCH  13  15
ENDBRANCH  12  13
BRANCH  12  17
ATOM     17  C   UNL     1      33.881  10.895  40.033  1.00  0.00    -0.006 C 
ATOM     18  C   UNL     1      34.980   9.845  40.278  1.00  0.00     0.008 C 
ATOM     19  C   UNL     1      32.498  10.266  40.265  1.00  0.00     0.008 C 
ENDBRANCH  12  17
ENDBRANCH  11  12
ENDBRANCH   1  11
TORSDOF 1
ENDMDL
