MODEL 1
REMARK VINA RESULT:    -5.171      0.000      0.000
REMARK INTER + INTRA:          -7.404
REMARK INTER:                  -7.892
REMARK INTRA:                   0.487
REMARK UNBOUND:                 0.487
REMARK SMILES CC1=CCC[C@@H](C)C(=O)C[C@@H](C(C)C)C(=O)C1
REMARK SMILES IDX 8 1 9 2 6 3 7 4 5 5 4 6 3 7 2 8 1 9 10 11 11 12 15 13 16 14
REMARK SMILES IDX 17 15 12 17 13 18 14 19
REMARK H PARENT
REMARK Flexibility Score: 70.00
ROOT
ATOM      1  C   UNL     1      -4.806 -13.940  30.216  1.00  0.00     0.136 C 
ATOM      2  O   UNL     1      -5.669 -14.762  29.944  1.00  0.00    -0.299 OA
ENDROOT
BRANCH   1   3
ATOM      3  C   UNL     1      -4.279 -13.847  31.633  1.00  0.00     0.053 C 
ATOM      4  C   UNL     1      -5.101 -14.767  32.541  1.00  0.00     0.016 C 
BRANCH   3   5
ATOM      5  C   UNL     1      -4.313 -12.397  32.176  1.00  0.00     0.015 C 
BRANCH   5   6
ATOM      6  C   UNL     1      -3.331 -11.444  31.477  1.00  0.00     0.028 C 
BRANCH   6   7
ATOM      7  C   UNL     1      -1.898 -11.869  31.692  1.00  0.00    -0.028 C 
ATOM      8  C   UNL     1      -1.019 -12.167  30.708  1.00  0.00    -0.070 CG0
ATOM      9  C   UNL     1       0.382 -12.556  31.102  1.00  0.00     0.039 C 
ATOM     10  G   UNL     1      -1.385 -12.120  29.234  1.00  0.00     0.000 G0
ENDBRANCH   6   7
ENDBRANCH   5   6
ENDBRANCH   3   5
ENDBRANCH   1   3
BRANCH   1  11
ATOM     11  C   UNL     1      -4.248 -13.069  29.113  1.00  0.00     0.087 C 
BRANCH  11  12
ATOM     12  C   UNL     1      -3.206 -13.794  28.224  1.00  0.00     0.066 C 
BRANCH  12  13
ATOM     13  C   UNL     1      -1.778 -13.464  28.650  1.00  0.00     0.140 C 
ATOM     14  O   UNL     1      -0.917 -14.326  28.553  1.00  0.00    -0.299 OA
BRANCH  13  15
ATOM     15  C   UNL     1      -1.378 -12.124  29.234  1.00  0.00     0.106 CG0
ATOM     16  G   UNL     1      -1.036 -12.164  30.713  1.00  0.00     0.000 G0
ENDBRANCH  13  15
ENDBRANCH  12  13
BRANCH  12  17
ATOM     17  C   UNL     1      -3.458 -13.521  26.708  1.00  0.00    -0.006 C 
ATOM     18  C   UNL     1      -3.417 -12.018  26.395  1.00  0.00     0.008 C 
ATOM     19  C   UNL     1      -4.762 -14.132  26.164  1.00  0.00     0.008 C 
ENDBRANCH  12  17
ENDBRANCH  11  12
ENDBRANCH   1  11
TORSDOF 1
ENDMDL
MODEL 2
REMARK VINA RESULT:    -5.146      1.982      2.853
REMARK INTER + INTRA:          -7.366
REMARK INTER:                  -7.462
REMARK INTRA:                   0.097
REMARK UNBOUND:                 0.487
REMARK SMILES CC1=CCC[C@@H](C)C(=O)C[C@@H](C(C)C)C(=O)C1
REMARK SMILES IDX 8 1 9 2 6 3 7 4 5 5 4 6 3 7 2 8 1 9 10 11 11 12 15 13 16 14
REMARK SMILES IDX 17 15 12 17 13 18 14 19
REMARK H PARENT
REMARK Flexibility Score: 70.00
ROOT
ATOM      1  C   UNL     1      -3.977 -10.829  29.750  1.00  0.00     0.136 C 
ATOM      2  O   UNL     1      -3.260  -9.922  29.353  1.00  0.00    -0.299 OA
ENDROOT
BRANCH   1   3
ATOM      3  C   UNL     1      -4.005 -11.170  31.226  1.00  0.00     0.053 C 
ATOM      4  C   UNL     1      -4.505  -9.959  32.018  1.00  0.00     0.016 C 
BRANCH   3   5
ATOM      5  C   UNL     1      -2.616 -11.611  31.750  1.00  0.00     0.015 C 
BRANCH   5   6
ATOM      6  C   UNL     1      -2.240 -13.056  31.386  1.00  0.00     0.028 C 
BRANCH   6   7
ATOM      7  C   UNL     1      -1.001 -13.105  30.524  1.00  0.00    -0.028 C 
ATOM      8  C   UNL     1      -0.941 -13.624  29.276  1.00  0.00    -0.070 CG0
ATOM      9  C   UNL     1       0.377 -13.573  28.548  1.00  0.00     0.039 C 
ATOM     10  G   UNL     1      -2.143 -14.245  28.584  1.00  0.00     0.000 G0
ENDBRANCH   6   7
ENDBRANCH   5   6
ENDBRANCH   3   5
ENDBRANCH   1   3
BRANCH   1  11
ATOM     11  C   UNL     1      -4.861 -11.553  28.760  1.00  0.00     0.087 C 
BRANCH  11  12
ATOM     12  C   UNL     1      -4.528 -13.059  28.624  1.00  0.00     0.066 C 
BRANCH  12  13
ATOM     13  C   UNL     1      -3.151 -13.276  28.003  1.00  0.00     0.140 C 
ATOM     14  O   UNL     1      -2.858 -12.668  26.983  1.00  0.00    -0.299 OA
BRANCH  13  15
ATOM     15  C   UNL     1      -2.135 -14.251  28.564  1.00  0.00     0.106 CG0
ATOM     16  G   UNL     1      -0.963 -13.593  29.272  1.00  0.00     0.000 G0
ENDBRANCH  13  15
ENDBRANCH  12  13
BRANCH  12  17
ATOM     17  C   UNL     1      -5.655 -13.829  27.867  1.00  0.00    -0.006 C 
ATOM     18  C   UNL     1      -6.224 -14.971  28.722  1.00  0.00     0.008 C 
ATOM     19  C   UNL     1      -5.235 -14.370  26.488  1.00  0.00     0.008 C 
ENDBRANCH  12  17
ENDBRANCH  11  12
ENDBRANCH   1  11
TORSDOF 1
ENDMDL
MODEL 3
REMARK VINA RESULT:    -5.033      1.931      4.371
REMARK INTER + INTRA:          -7.193
REMARK INTER:                  -7.459
REMARK INTRA:                   0.266
REMARK UNBOUND:                 0.487
REMARK SMILES CC1=CCC[C@@H](C)C(=O)C[C@@H](C(C)C)C(=O)C1
REMARK SMILES IDX 8 1 9 2 6 3 7 4 5 5 4 6 3 7 2 8 1 9 10 11 11 12 15 13 16 14
REMARK SMILES IDX 17 15 12 17 13 18 14 19
REMARK H PARENT
REMARK Flexibility Score: 70.00
ROOT
ATOM      1  C   UNL     1      -2.260 -12.323  31.011  1.00  0.00     0.136 C 
ATOM      2  O   UNL     1      -2.136 -11.139  30.734  1.00  0.00    -0.299 OA
ENDROOT
BRANCH   1   3
ATOM      3  C   UNL     1      -1.038 -13.218  31.035  1.00  0.00     0.053 C 
ATOM      4  C   UNL     1       0.054 -12.565  31.888  1.00  0.00     0.016 C 
BRANCH   3   5
ATOM      5  C   UNL     1      -0.498 -13.509  29.613  1.00  0.00     0.015 C 
BRANCH   5   6
ATOM      6  C   UNL     1      -1.576 -13.961  28.615  1.00  0.00     0.028 C 
BRANCH   6   7
ATOM      7  C   UNL     1      -1.796 -12.932  27.533  1.00  0.00    -0.028 C 
ATOM      8  C   UNL     1      -3.005 -12.523  27.083  1.00  0.00    -0.070 CG0
ATOM      9  C   UNL     1      -3.043 -11.468  26.008  1.00  0.00     0.039 C 
ATOM     10  G   UNL     1      -4.314 -13.077  27.620  1.00  0.00     0.000 G0
ENDBRANCH   6   7
ENDBRANCH   5   6
ENDBRANCH   3   5
ENDBRANCH   1   3
BRANCH   1  11
ATOM     11  C   UNL     1      -3.628 -12.853  31.376  1.00  0.00     0.087 C 
BRANCH  11  12
ATOM     12  C   UNL     1      -4.320 -13.619  30.221  1.00  0.00     0.066 C 
BRANCH  12  13
ATOM     13  C   UNL     1      -4.625 -12.701  29.041  1.00  0.00     0.140 C 
ATOM     14  O   UNL     1      -5.170 -11.627  29.250  1.00  0.00    -0.299 OA
BRANCH  13  15
ATOM     15  C   UNL     1      -4.324 -13.075  27.603  1.00  0.00     0.106 CG0
ATOM     16  G   UNL     1      -3.001 -12.539  27.082  1.00  0.00     0.000 G0
ENDBRANCH  13  15
ENDBRANCH  12  13
BRANCH  12  17
ATOM     17  C   UNL     1      -5.581 -14.391  30.720  1.00  0.00    -0.006 C 
ATOM     18  C   UNL     1      -5.299 -15.132  32.036  1.00  0.00     0.008 C 
ATOM     19  C   UNL     1      -6.173 -15.369  29.689  1.00  0.00     0.008 C 
ENDBRANCH  12  17
ENDBRANCH  11  12
ENDBRANCH   1  11
TORSDOF 1
ENDMDL
MODEL 4
REMARK VINA RESULT:    -4.961      1.459      1.800
REMARK INTER + INTRA:          -7.084
REMARK INTER:                  -7.540
REMARK INTRA:                   0.456
REMARK UNBOUND:                 0.487
REMARK SMILES CC1=CCC[C@@H](C)C(=O)C[C@@H](C(C)C)C(=O)C1
REMARK SMILES IDX 8 1 9 2 6 3 7 4 5 5 4 6 3 7 2 8 1 9 10 11 11 12 15 13 16 14
REMARK SMILES IDX 17 15 12 17 13 18 14 19
REMARK H PARENT
REMARK Flexibility Score: 70.00
ROOT
ATOM      1  C   UNL     1      -5.029 -13.978  29.870  1.00  0.00     0.136 C 
ATOM      2  O   UNL     1      -5.648 -14.886  29.334  1.00  0.00    -0.299 OA
ENDROOT
BRANCH   1   3
ATOM      3  C   UNL     1      -4.351 -14.220  31.204  1.00  0.00     0.053 C 
ATOM      4  C   UNL     1      -5.266 -15.070  32.091  1.00  0.00     0.016 C 
BRANCH   3   5
ATOM      5  C   UNL     1      -3.992 -12.897  31.925  1.00  0.00     0.015 C 
BRANCH   5   6
ATOM      6  C   UNL     1      -2.481 -12.653  32.066  1.00  0.00     0.028 C 
BRANCH   6   7
ATOM      7  C   UNL     1      -1.687 -13.547  31.145  1.00  0.00    -0.028 C 
ATOM      8  C   UNL     1      -1.161 -13.169  29.957  1.00  0.00    -0.070 CG0
ATOM      9  C   UNL     1      -0.376 -14.188  29.172  1.00  0.00     0.039 C 
ATOM     10  G   UNL     1      -1.324 -11.768  29.392  1.00  0.00     0.000 G0
ENDBRANCH   6   7
ENDBRANCH   5   6
ENDBRANCH   3   5
ENDBRANCH   1   3
BRANCH   1  11
ATOM     11  C   UNL     1      -4.912 -12.649  29.160  1.00  0.00     0.087 C 
BRANCH  11  12
ATOM     12  C   UNL     1      -3.637 -12.526  28.288  1.00  0.00     0.066 C 
BRANCH  12  13
ATOM     13  C   UNL     1      -2.692 -11.454  28.822  1.00  0.00     0.140 C 
ATOM     14  O   UNL     1      -3.036 -10.282  28.769  1.00  0.00    -0.299 OA
BRANCH  13  15
ATOM     15  C   UNL     1      -1.318 -11.766  29.380  1.00  0.00     0.106 CG0
ATOM     16  G   UNL     1      -1.177 -13.169  29.945  1.00  0.00     0.000 G0
ENDBRANCH  13  15
ENDBRANCH  12  13
BRANCH  12  17
ATOM     17  C   UNL     1      -3.990 -12.318  26.782  1.00  0.00    -0.006 C 
ATOM     18  C   UNL     1      -4.146 -13.660  26.053  1.00  0.00     0.008 C 
ATOM     19  C   UNL     1      -2.998 -11.422  26.018  1.00  0.00     0.008 C 
ENDBRANCH  12  17
ENDBRANCH  11  12
ENDBRANCH   1  11
TORSDOF 1
ENDMDL
MODEL 5
REMARK VINA RESULT:    -4.945      2.044      4.079
REMARK INTER + INTRA:          -7.060
REMARK INTER:                  -7.142
REMARK INTRA:                   0.083
REMARK UNBOUND:                 0.487
REMARK SMILES CC1=CCC[C@@H](C)C(=O)C[C@@H](C(C)C)C(=O)C1
REMARK SMILES IDX 8 1 9 2 6 3 7 4 5 5 4 6 3 7 2 8 1 9 10 11 11 12 15 13 16 14
REMARK SMILES IDX 17 15 12 17 13 18 14 19
REMARK H PARENT
REMARK Flexibility Score: 70.00
ROOT
ATOM      1  C   UNL     1      -4.160 -13.625  31.499  1.00  0.00     0.136 C 
ATOM      2  O   UNL     1      -3.988 -12.953  32.506  1.00  0.00    -0.299 OA
ENDROOT
BRANCH   1   3
ATOM      3  C   UNL     1      -5.452 -14.396  31.325  1.00  0.00     0.053 C 
ATOM      4  C   UNL     1      -5.622 -15.373  32.493  1.00  0.00     0.016 C 
BRANCH   3   5
ATOM      5  C   UNL     1      -5.500 -15.162  29.980  1.00  0.00     0.015 C 
BRANCH   5   6
ATOM      6  C   UNL     1      -6.218 -14.404  28.853  1.00  0.00     0.028 C 
BRANCH   6   7
ATOM      7  C   UNL     1      -5.311 -14.191  27.664  1.00  0.00    -0.028 C 
ATOM      8  C   UNL     1      -4.532 -13.103  27.466  1.00  0.00    -0.070 CG0
ATOM      9  C   UNL     1      -3.671 -13.062  26.230  1.00  0.00     0.039 C 
ATOM     10  G   UNL     1      -4.487 -11.934  28.435  1.00  0.00     0.000 G0
ENDBRANCH   6   7
ENDBRANCH   5   6
ENDBRANCH   3   5
ENDBRANCH   1   3
BRANCH   1  11
ATOM     11  C   UNL     1      -3.094 -13.626  30.427  1.00  0.00     0.087 C 
BRANCH  11  12
ATOM     12  C   UNL     1      -2.484 -12.227  30.164  1.00  0.00     0.066 C 
BRANCH  12  13
ATOM     13  C   UNL     1      -3.116 -11.558  28.947  1.00  0.00     0.140 C 
ATOM     14  O   UNL     1      -2.508 -10.661  28.381  1.00  0.00    -0.299 OA
BRANCH  13  15
ATOM     15  C   UNL     1      -4.493 -11.919  28.427  1.00  0.00     0.106 CG0
ATOM     16  G   UNL     1      -4.512 -13.105  27.479  1.00  0.00     0.000 G0
ENDBRANCH  13  15
ENDBRANCH  12  13
BRANCH  12  17
ATOM     17  C   UNL     1      -0.927 -12.290  30.071  1.00  0.00    -0.006 C 
ATOM     18  C   UNL     1      -0.468 -13.372  29.083  1.00  0.00     0.008 C 
ATOM     19  C   UNL     1      -0.221 -12.487  31.425  1.00  0.00     0.008 C 
ENDBRANCH  12  17
ENDBRANCH  11  12
ENDBRANCH   1  11
TORSDOF 1
ENDMDL
MODEL 6
REMARK VINA RESULT:    -4.746      2.281      4.756
REMARK INTER + INTRA:          -6.755
REMARK INTER:                  -7.024
REMARK INTRA:                   0.269
REMARK UNBOUND:                 0.487
REMARK SMILES CC1=CCC[C@@H](C)C(=O)C[C@@H](C(C)C)C(=O)C1
REMARK SMILES IDX 8 1 9 2 6 3 7 4 5 5 4 6 3 7 2 8 1 9 10 11 11 12 15 13 16 14
REMARK SMILES IDX 17 15 12 17 13 18 14 19
REMARK H PARENT
REMARK Flexibility Score: 70.00
ROOT
ATOM      1  C   UNL     1      -3.133 -11.510  28.211  1.00  0.00     0.136 C 
ATOM      2  O   UNL     1      -3.915 -10.576  28.317  1.00  0.00    -0.299 OA
ENDROOT
BRANCH   1   3
ATOM      3  C   UNL     1      -3.197 -12.405  26.991  1.00  0.00     0.053 C 
ATOM      4  C   UNL     1      -3.710 -11.597  25.795  1.00  0.00     0.016 C 
BRANCH   3   5
ATOM      5  C   UNL     1      -4.097 -13.644  27.221  1.00  0.00     0.015 C 
BRANCH   5   6
ATOM      6  C   UNL     1      -5.368 -13.351  28.034  1.00  0.00     0.028 C 
BRANCH   6   7
ATOM      7  C   UNL     1      -5.610 -14.410  29.083  1.00  0.00    -0.028 C 
ATOM      8  C   UNL     1      -5.259 -14.308  30.385  1.00  0.00    -0.070 CG0
ATOM      9  C   UNL     1      -5.595 -15.456  31.303  1.00  0.00     0.039 C 
ATOM     10  G   UNL     1      -4.550 -13.091  30.955  1.00  0.00     0.000 G0
ENDBRANCH   6   7
ENDBRANCH   5   6
ENDBRANCH   3   5
ENDBRANCH   1   3
BRANCH   1  11
ATOM     11  C   UNL     1      -2.084 -11.714  29.280  1.00  0.00     0.087 C 
BRANCH  11  12
ATOM     12  C   UNL     1      -2.075 -13.147  29.868  1.00  0.00     0.066 C 
BRANCH  12  13
ATOM     13  C   UNL     1      -3.015 -13.270  31.064  1.00  0.00     0.140 C 
ATOM     14  O   UNL     1      -2.549 -13.554  32.158  1.00  0.00    -0.299 OA
BRANCH  13  15
ATOM     15  C   UNL     1      -4.518 -13.101  30.955  1.00  0.00     0.106 CG0
ATOM     16  G   UNL     1      -5.242 -14.307  30.381  1.00  0.00     0.000 G0
ENDBRANCH  13  15
ENDBRANCH  12  13
BRANCH  12  17
ATOM     17  C   UNL     1      -0.625 -13.624  30.195  1.00  0.00    -0.006 C 
ATOM     18  C   UNL     1       0.131 -12.583  31.033  1.00  0.00     0.008 C 
ATOM     19  C   UNL     1       0.210 -14.002  28.958  1.00  0.00     0.008 C 
ENDBRANCH  12  17
ENDBRANCH  11  12
ENDBRANCH   1  11
TORSDOF 1
ENDMDL
MODEL 7
REMARK VINA RESULT:    -4.694      1.575      3.736
REMARK INTER + INTRA:          -6.676
REMARK INTER:                  -8.762
REMARK INTRA:                   2.086
REMARK UNBOUND:                 0.487
REMARK SMILES CC1=CCC[C@@H](C)C(=O)C[C@@H](C(C)C)C(=O)C1
REMARK SMILES IDX 8 1 9 2 6 3 7 4 5 5 4 6 3 7 2 8 1 9 10 11 11 12 15 13 16 14
REMARK SMILES IDX 17 15 12 17 13 18 14 19
REMARK H PARENT
REMARK Flexibility Score: 70.00
ROOT
ATOM      1  C   UNL     1      -1.871 -13.041  28.381  1.00  0.00     0.136 C 
ATOM      2  O   UNL     1      -2.106 -12.148  27.579  1.00  0.00    -0.299 OA
ENDROOT
BRANCH   1   3
ATOM      3  C   UNL     1      -0.526 -13.087  29.077  1.00  0.00     0.053 C 
ATOM      4  C   UNL     1       0.361 -14.135  28.397  1.00  0.00     0.016 C 
BRANCH   3   5
ATOM      5  C   UNL     1      -0.660 -13.403  30.587  1.00  0.00     0.015 C 
BRANCH   5   6
ATOM      6  C   UNL     1      -0.794 -12.157  31.477  1.00  0.00     0.028 C 
BRANCH   6   7
ATOM      7  C   UNL     1      -1.804 -11.184  30.918  1.00  0.00    -0.028 C 
ATOM      8  C   UNL     1      -3.147 -11.317  31.012  1.00  0.00    -0.070 CG0
ATOM      9  C   UNL     1      -4.011 -10.237  30.413  1.00  0.00     0.039 C 
ATOM     10  G   UNL     1      -3.812 -12.498  31.698  1.00  0.00     0.000 G0
ENDBRANCH   6   7
ENDBRANCH   5   6
ENDBRANCH   3   5
ENDBRANCH   1   3
BRANCH   1  11
ATOM     11  C   UNL     1      -2.953 -14.048  28.696  1.00  0.00     0.087 C 
BRANCH  11  12
ATOM     12  C   UNL     1      -4.271 -13.402  29.192  1.00  0.00     0.066 C 
BRANCH  12  13
ATOM     13  C   UNL     1      -4.420 -13.520  30.706  1.00  0.00     0.140 C 
ATOM     14  O   UNL     1      -5.083 -14.438  31.166  1.00  0.00    -0.299 OA
BRANCH  13  15
ATOM     15  C   UNL     1      -3.821 -12.522  31.677  1.00  0.00     0.106 CG0
ATOM     16  G   UNL     1      -3.170 -11.320  31.014  1.00  0.00     0.000 G0
ENDBRANCH  13  15
ENDBRANCH  12  13
BRANCH  12  17
ATOM     17  C   UNL     1      -5.508 -13.961  28.422  1.00  0.00    -0.006 C 
ATOM     18  C   UNL     1      -6.168 -15.117  29.188  1.00  0.00     0.008 C 
ATOM     19  C   UNL     1      -5.209 -14.398  26.977  1.00  0.00     0.008 C 
ENDBRANCH  12  17
ENDBRANCH  11  12
ENDBRANCH   1  11
TORSDOF 1
ENDMDL
MODEL 8
REMARK VINA RESULT:    -4.595      2.165      3.815
REMARK INTER + INTRA:          -6.526
REMARK INTER:                  -7.171
REMARK INTRA:                   0.645
REMARK UNBOUND:                 0.487
REMARK SMILES CC1=CCC[C@@H](C)C(=O)C[C@@H](C(C)C)C(=O)C1
REMARK SMILES IDX 8 1 9 2 6 3 7 4 5 5 4 6 3 7 2 8 1 9 10 11 11 12 15 13 16 14
REMARK SMILES IDX 17 15 12 17 13 18 14 19
REMARK H PARENT
REMARK Flexibility Score: 70.00
ROOT
ATOM      1  C   UNL     1      -2.522 -11.229  30.263  1.00  0.00     0.136 C 
ATOM      2  O   UNL     1      -2.797 -10.038  30.247  1.00  0.00    -0.299 OA
ENDROOT
BRANCH   1   3
ATOM      3  C   UNL     1      -2.534 -11.983  31.577  1.00  0.00     0.053 C 
ATOM      4  C   UNL     1      -1.536 -13.143  31.506  1.00  0.00     0.016 C 
BRANCH   3   5
ATOM      5  C   UNL     1      -3.944 -12.516  31.932  1.00  0.00     0.015 C 
BRANCH   5   6
ATOM      6  C   UNL     1      -4.008 -14.041  32.114  1.00  0.00     0.028 C 
BRANCH   6   7
ATOM      7  C   UNL     1      -5.199 -14.634  31.400  1.00  0.00    -0.028 C 
ATOM      8  C   UNL     1      -5.335 -14.725  30.057  1.00  0.00    -0.070 CG0
ATOM      9  C   UNL     1      -6.585 -15.366  29.511  1.00  0.00     0.039 C 
ATOM     10  G   UNL     1      -4.283 -14.215  29.086  1.00  0.00     0.000 G0
ENDBRANCH   6   7
ENDBRANCH   5   6
ENDBRANCH   3   5
ENDBRANCH   1   3
BRANCH   1  11
ATOM     11  C   UNL     1      -2.226 -11.931  28.958  1.00  0.00     0.087 C 
BRANCH  11  12
ATOM     12  C   UNL     1      -3.429 -11.949  27.982  1.00  0.00     0.066 C 
BRANCH  12  13
ATOM     13  C   UNL     1      -4.541 -12.870  28.476  1.00  0.00     0.140 C 
ATOM     14  O   UNL     1      -5.698 -12.478  28.433  1.00  0.00    -0.299 OA
BRANCH  13  15
ATOM     15  C   UNL     1      -4.278 -14.241  29.065  1.00  0.00     0.106 CG0
ATOM     16  G   UNL     1      -5.334 -14.711  30.050  1.00  0.00     0.000 G0
ENDBRANCH  13  15
ENDBRANCH  12  13
BRANCH  12  17
ATOM     17  C   UNL     1      -2.979 -12.282  26.524  1.00  0.00    -0.006 C 
ATOM     18  C   UNL     1      -3.009 -11.033  25.631  1.00  0.00     0.008 C 
ATOM     19  C   UNL     1      -3.779 -13.417  25.859  1.00  0.00     0.008 C 
ENDBRANCH  12  17
ENDBRANCH  11  12
ENDBRANCH   1  11
TORSDOF 1
ENDMDL
MODEL 9
REMARK VINA RESULT:    -4.443      1.849      4.340
REMARK INTER + INTRA:          -6.293
REMARK INTER:                  -6.902
REMARK INTRA:                   0.610
REMARK UNBOUND:                 0.487
REMARK SMILES CC1=CCC[C@@H](C)C(=O)C[C@@H](C(C)C)C(=O)C1
REMARK SMILES IDX 8 1 9 2 6 3 7 4 5 5 4 6 3 7 2 8 1 9 10 11 11 12 15 13 16 14
REMARK SMILES IDX 17 15 12 17 13 18 14 19
REMARK H PARENT
REMARK Flexibility Score: 70.00
ROOT
ATOM      1  C   UNL     1      -5.249 -14.451  29.465  1.00  0.00     0.136 C 
ATOM      2  O   UNL     1      -5.797 -15.033  30.390  1.00  0.00    -0.299 OA
ENDROOT
BRANCH   1   3
ATOM      3  C   UNL     1      -6.015 -14.190  28.185  1.00  0.00     0.053 C 
ATOM      4  C   UNL     1      -7.440 -14.735  28.326  1.00  0.00     0.016 C 
BRANCH   3   5
ATOM      5  C   UNL     1      -5.325 -14.821  26.951  1.00  0.00     0.015 C 
BRANCH   5   6
ATOM      6  C   UNL     1      -3.857 -14.402  26.773  1.00  0.00     0.028 C 
BRANCH   6   7
ATOM      7  C   UNL     1      -3.745 -13.017  26.182  1.00  0.00    -0.028 C 
ATOM      8  C   UNL     1      -3.019 -12.003  26.709  1.00  0.00    -0.070 CG0
ATOM      9  C   UNL     1      -3.003 -10.687  25.976  1.00  0.00     0.039 C 
ATOM     10  G   UNL     1      -2.224 -12.141  27.996  1.00  0.00     0.000 G0
ENDBRANCH   6   7
ENDBRANCH   5   6
ENDBRANCH   3   5
ENDBRANCH   1   3
BRANCH   1  11
ATOM     11  C   UNL     1      -3.831 -13.959  29.645  1.00  0.00     0.087 C 
BRANCH  11  12
ATOM     12  C   UNL     1      -3.746 -12.503  30.167  1.00  0.00     0.066 C 
BRANCH  12  13
ATOM     13  C   UNL     1      -2.914 -11.621  29.240  1.00  0.00     0.140 C 
ATOM     14  O   UNL     1      -2.822 -10.426  29.484  1.00  0.00    -0.299 OA
BRANCH  13  15
ATOM     15  C   UNL     1      -2.228 -12.146  27.995  1.00  0.00     0.106 CG0
ATOM     16  G   UNL     1      -3.043 -11.997  26.722  1.00  0.00     0.000 G0
ENDBRANCH  13  15
ENDBRANCH  12  13
BRANCH  12  17
ATOM     17  C   UNL     1      -3.249 -12.453  31.646  1.00  0.00    -0.006 C 
ATOM     18  C   UNL     1      -1.763 -12.823  31.751  1.00  0.00     0.008 C 
ATOM     19  C   UNL     1      -4.072 -13.318  32.619  1.00  0.00     0.008 C 
ENDBRANCH  12  17
ENDBRANCH  11  12
ENDBRANCH   1  11
TORSDOF 1
ENDMDL
