MODEL 1
REMARK VINA RESULT:    -3.328      0.000      0.000
REMARK INTER + INTRA:          -4.090
REMARK INTER:                  -3.911
REMARK INTRA:                  -0.179
REMARK UNBOUND:                -0.179
REMARK SMILES O=C([O-])CCC(=O)[O-]
REMARK SMILES IDX 4 1 2 2 1 3 3 4 5 5 6 6 7 7 8 8
REMARK H PARENT
REMARK Flexibility Score: inf
ROOT
ATOM      1  C   UNL     1      30.516   3.923 -26.178  1.00  0.00     0.059 C 
ENDROOT
BRANCH   1   2
ATOM      2  C   UNL     1      29.215   4.237 -25.511  1.00  0.00     0.042 C 
ATOM      3  O   UNL     1      28.204   4.532 -26.200  1.00  0.00    -0.550 OA
ATOM      4  O   UNL     1      29.131   4.254 -24.124  1.00  0.00    -0.550 OA
ENDBRANCH   1   2
BRANCH   1   5
ATOM      5  C   UNL     1      31.631   4.810 -25.621  1.00  0.00     0.059 C 
BRANCH   5   6
ATOM      6  C   UNL     1      31.340   6.251 -25.899  1.00  0.00     0.042 C 
ATOM      7  O   UNL     1      31.299   6.672 -27.084  1.00  0.00    -0.550 OA
ATOM      8  O   UNL     1      31.163   7.141 -24.846  1.00  0.00    -0.550 OA
ENDBRANCH   5   6
ENDBRANCH   1   5
TORSDOF 3
ENDMDL
MODEL 2
REMARK VINA RESULT:    -3.292      1.827      3.434
REMARK INTER + INTRA:          -4.048
REMARK INTER:                  -3.938
REMARK INTRA:                  -0.110
REMARK UNBOUND:                -0.179
REMARK SMILES O=C([O-])CCC(=O)[O-]
REMARK SMILES IDX 4 1 2 2 1 3 3 4 5 5 6 6 7 7 8 8
REMARK H PARENT
REMARK Flexibility Score: inf
ROOT
ATOM      1  C   UNL     1      31.850   6.723 -26.049  1.00  0.00     0.059 C 
ENDROOT
BRANCH   1   2
ATOM      2  C   UNL     1      31.432   7.190 -24.691  1.00  0.00     0.042 C 
ATOM      3  O   UNL     1      31.877   8.273 -24.229  1.00  0.00    -0.550 OA
ATOM      4  O   UNL     1      30.590   6.404 -23.914  1.00  0.00    -0.550 OA
ENDBRANCH   1   2
BRANCH   1   5
ATOM      5  C   UNL     1      31.863   5.195 -26.109  1.00  0.00     0.059 C 
BRANCH   5   6
ATOM      6  C   UNL     1      30.936   4.705 -27.176  1.00  0.00     0.042 C 
ATOM      7  O   UNL     1      29.697   4.649 -26.961  1.00  0.00    -0.550 OA
ATOM      8  O   UNL     1      31.445   4.263 -28.391  1.00  0.00    -0.550 OA
ENDBRANCH   5   6
ENDBRANCH   1   5
TORSDOF 3
ENDMDL
MODEL 3
REMARK VINA RESULT:    -3.233      1.751      2.490
REMARK INTER + INTRA:          -3.979
REMARK INTER:                  -3.866
REMARK INTRA:                  -0.114
REMARK UNBOUND:                -0.179
REMARK SMILES O=C([O-])CCC(=O)[O-]
REMARK SMILES IDX 4 1 2 2 1 3 3 4 5 5 6 6 7 7 8 8
REMARK H PARENT
REMARK Flexibility Score: inf
ROOT
ATOM      1  C   UNL     1      31.748   4.948 -26.203  1.00  0.00     0.059 C 
ENDROOT
BRANCH   1   2
ATOM      2  C   UNL     1      30.721   4.499 -27.193  1.00  0.00     0.042 C 
ATOM      3  O   UNL     1      29.559   4.203 -26.811  1.00  0.00    -0.550 OA
ATOM      4  O   UNL     1      31.063   4.358 -28.533  1.00  0.00    -0.550 OA
ENDBRANCH   1   2
BRANCH   1   5
ATOM      5  C   UNL     1      31.763   6.474 -26.103  1.00  0.00     0.059 C 
BRANCH   5   6
ATOM      6  C   UNL     1      31.327   6.914 -24.741  1.00  0.00     0.042 C 
ATOM      7  O   UNL     1      30.511   6.218 -24.082  1.00  0.00    -0.550 OA
ATOM      8  O   UNL     1      31.785   8.117 -24.218  1.00  0.00    -0.550 OA
ENDBRANCH   5   6
ENDBRANCH   1   5
TORSDOF 3
ENDMDL
MODEL 4
REMARK VINA RESULT:    -3.173      2.749      4.005
REMARK INTER + INTRA:          -3.908
REMARK INTER:                  -3.804
REMARK INTRA:                  -0.104
REMARK UNBOUND:                -0.179
REMARK SMILES O=C([O-])CCC(=O)[O-]
REMARK SMILES IDX 4 1 2 2 1 3 3 4 5 5 6 6 7 7 8 8
REMARK H PARENT
REMARK Flexibility Score: inf
ROOT
ATOM      1  C   UNL     1      30.587   4.214 -28.679  1.00  0.00     0.059 C 
ENDROOT
BRANCH   1   2
ATOM      2  C   UNL     1      31.369   4.683 -29.865  1.00  0.00     0.042 C 
ATOM      3  O   UNL     1      32.086   3.875 -30.511  1.00  0.00    -0.550 OA
ATOM      4  O   UNL     1      31.344   6.024 -30.227  1.00  0.00    -0.550 OA
ENDBRANCH   1   2
BRANCH   1   5
ATOM      5  C   UNL     1      31.520   3.936 -27.499  1.00  0.00     0.059 C 
BRANCH   5   6
ATOM      6  C   UNL     1      31.246   4.890 -26.380  1.00  0.00     0.042 C 
ATOM      7  O   UNL     1      31.030   4.457 -25.218  1.00  0.00    -0.550 OA
ATOM      8  O   UNL     1      31.181   6.255 -26.629  1.00  0.00    -0.550 OA
ENDBRANCH   5   6
ENDBRANCH   1   5
TORSDOF 3
ENDMDL
MODEL 5
REMARK VINA RESULT:    -3.161      1.748      2.967
REMARK INTER + INTRA:          -3.895
REMARK INTER:                  -3.785
REMARK INTRA:                  -0.110
REMARK UNBOUND:                -0.179
REMARK SMILES O=C([O-])CCC(=O)[O-]
REMARK SMILES IDX 4 1 2 2 1 3 3 4 5 5 6 6 7 7 8 8
REMARK H PARENT
REMARK Flexibility Score: inf
ROOT
ATOM      1  C   UNL     1      31.560   4.962 -26.467  1.00  0.00     0.059 C 
ENDROOT
BRANCH   1   2
ATOM      2  C   UNL     1      31.000   4.292 -27.681  1.00  0.00     0.042 C 
ATOM      3  O   UNL     1      31.712   4.143 -28.708  1.00  0.00    -0.550 OA
ATOM      4  O   UNL     1      29.674   3.875 -27.695  1.00  0.00    -0.550 OA
ENDBRANCH   1   2
BRANCH   1   5
ATOM      5  C   UNL     1      31.326   4.102 -25.224  1.00  0.00     0.059 C 
BRANCH   5   6
ATOM      6  C   UNL     1      30.298   4.732 -24.338  1.00  0.00     0.042 C 
ATOM      7  O   UNL     1      29.129   4.265 -24.293  1.00  0.00    -0.550 OA
ATOM      8  O   UNL     1      30.616   5.864 -23.598  1.00  0.00    -0.550 OA
ENDBRANCH   5   6
ENDBRANCH   1   5
TORSDOF 3
ENDMDL
MODEL 6
REMARK VINA RESULT:    -3.139     24.835     25.404
REMARK INTER + INTRA:          -3.869
REMARK INTER:                  -3.747
REMARK INTRA:                  -0.122
REMARK UNBOUND:                -0.179
REMARK SMILES O=C([O-])CCC(=O)[O-]
REMARK SMILES IDX 4 1 2 2 1 3 3 4 5 5 6 6 7 7 8 8
REMARK H PARENT
REMARK Flexibility Score: inf
ROOT
ATOM      1  C   UNL     1      12.958  23.279 -20.813  1.00  0.00     0.059 C 
ENDROOT
BRANCH   1   2
ATOM      2  C   UNL     1      12.697  22.625 -22.133  1.00  0.00     0.042 C 
ATOM      3  O   UNL     1      12.718  21.371 -22.234  1.00  0.00    -0.550 OA
ATOM      4  O   UNL     1      12.480  23.403 -23.264  1.00  0.00    -0.550 OA
ENDBRANCH   1   2
BRANCH   1   5
ATOM      5  C   UNL     1      11.913  22.844 -19.785  1.00  0.00     0.059 C 
BRANCH   5   6
ATOM      6  C   UNL     1      12.556  22.065 -18.682  1.00  0.00     0.042 C 
ATOM      7  O   UNL     1      13.698  21.560 -18.846  1.00  0.00    -0.550 OA
ATOM      8  O   UNL     1      11.875  21.854 -17.490  1.00  0.00    -0.550 OA
ENDBRANCH   5   6
ENDBRANCH   1   5
TORSDOF 3
ENDMDL
MODEL 7
REMARK VINA RESULT:    -3.120      2.006      2.706
REMARK INTER + INTRA:          -3.846
REMARK INTER:                  -3.725
REMARK INTRA:                  -0.121
REMARK UNBOUND:                -0.179
REMARK SMILES O=C([O-])CCC(=O)[O-]
REMARK SMILES IDX 4 1 2 2 1 3 3 4 5 5 6 6 7 7 8 8
REMARK H PARENT
REMARK Flexibility Score: inf
ROOT
ATOM      1  C   UNL     1      31.611   3.940 -25.754  1.00  0.00     0.059 C 
ENDROOT
BRANCH   1   2
ATOM      2  C   UNL     1      30.783   4.257 -24.549  1.00  0.00     0.042 C 
ATOM      3  O   UNL     1      29.572   4.573 -24.679  1.00  0.00    -0.550 OA
ATOM      4  O   UNL     1      31.363   4.252 -23.287  1.00  0.00    -0.550 OA
ENDBRANCH   1   2
BRANCH   1   5
ATOM      5  C   UNL     1      31.370   4.972 -26.856  1.00  0.00     0.059 C 
BRANCH   5   6
ATOM      6  C   UNL     1      30.735   4.328 -28.048  1.00  0.00     0.042 C 
ATOM      7  O   UNL     1      31.370   4.233 -29.130  1.00  0.00    -0.550 OA
ATOM      8  O   UNL     1      29.423   3.875 -27.978  1.00  0.00    -0.550 OA
ENDBRANCH   5   6
ENDBRANCH   1   5
TORSDOF 3
ENDMDL
MODEL 8
REMARK VINA RESULT:    -3.099      1.760      2.191
REMARK INTER + INTRA:          -3.821
REMARK INTER:                  -3.699
REMARK INTRA:                  -0.122
REMARK UNBOUND:                -0.179
REMARK SMILES O=C([O-])CCC(=O)[O-]
REMARK SMILES IDX 4 1 2 2 1 3 3 4 5 5 6 6 7 7 8 8
REMARK H PARENT
REMARK Flexibility Score: inf
ROOT
ATOM      1  C   UNL     1      30.009   4.319 -24.904  1.00  0.00     0.059 C 
ENDROOT
BRANCH   1   2
ATOM      2  C   UNL     1      30.138   4.981 -23.568  1.00  0.00     0.042 C 
ATOM      3  O   UNL     1      30.545   6.170 -23.487  1.00  0.00    -0.550 OA
ATOM      4  O   UNL     1      29.857   4.269 -22.409  1.00  0.00    -0.550 OA
ENDBRANCH   1   2
BRANCH   1   5
ATOM      5  C   UNL     1      31.364   4.272 -25.611  1.00  0.00     0.059 C 
BRANCH   5   6
ATOM      6  C   UNL     1      31.331   5.094 -26.860  1.00  0.00     0.042 C 
ATOM      7  O   UNL     1      31.372   4.535 -27.988  1.00  0.00    -0.550 OA
ATOM      8  O   UNL     1      31.305   6.481 -26.780  1.00  0.00    -0.550 OA
ENDBRANCH   5   6
ENDBRANCH   1   5
TORSDOF 3
ENDMDL
