MODEL 1
REMARK VINA RESULT:    -5.110      0.000      0.000
REMARK INTER + INTRA:          -5.259
REMARK INTER:                  -5.259
REMARK INTRA:                   0.000
REMARK UNBOUND:                 0.000
REMARK SMILES O=c1ccc2cc(O)ccc2o1
REMARK SMILES IDX 9 1 10 2 11 3 5 4 4 5 3 6 2 7 1 8 12 9 6 10 7 11 8 12
REMARK H PARENT 8 13
REMARK Flexibility Score: inf
ROOT
ATOM      1  C   UNL     1     -43.128 -35.442 -19.898  1.00  0.00     0.050 A 
ATOM      2  C   UNL     1     -42.799 -36.791 -20.066  1.00  0.00     0.052 A 
ATOM      3  C   UNL     1     -41.477 -37.162 -20.331  1.00  0.00     0.138 A 
ATOM      4  C   UNL     1     -40.477 -36.171 -20.429  1.00  0.00     0.021 A 
ATOM      5  C   UNL     1     -39.163 -36.573 -20.694  1.00  0.00     0.019 A 
ATOM      6  C   UNL     1     -38.882 -37.929 -20.854  1.00  0.00     0.094 A 
ATOM      7  C   UNL     1     -39.925 -38.855 -20.744  1.00  0.00     0.336 A 
ATOM      8  O   UNL     1     -39.691 -40.084 -20.886  1.00  0.00    -0.246 OA
ATOM      9  O   UNL     1     -41.165 -38.446 -20.491  1.00  0.00    -0.423 OA
ATOM     10  C   UNL     1     -40.811 -34.820 -20.259  1.00  0.00     0.058 A 
ATOM     11  C   UNL     1     -42.137 -34.455 -19.995  1.00  0.00     0.116 A 
ENDROOT
BRANCH  11  12
ATOM     12  O   UNL     1     -42.457 -33.109 -19.829  1.00  0.00    -0.508 OA
ATOM     13  H   UNL     1     -42.215 -32.609 -18.980  1.00  0.00     0.293 HD
ENDBRANCH  11  12
TORSDOF 1
ENDMDL
MODEL 2
REMARK VINA RESULT:    -4.644      0.983      2.164
REMARK INTER + INTRA:          -4.780
REMARK INTER:                  -4.780
REMARK INTRA:                   0.000
REMARK UNBOUND:                 0.000
REMARK SMILES O=c1ccc2cc(O)ccc2o1
REMARK SMILES IDX 9 1 10 2 11 3 5 4 4 5 3 6 2 7 1 8 12 9 6 10 7 11 8 12
REMARK H PARENT 8 13
REMARK Flexibility Score: inf
ROOT
ATOM      1  C   UNL     1     -40.564 -34.610 -20.151  1.00  0.00     0.050 A 
ATOM      2  C   UNL     1     -39.919 -35.839 -20.329  1.00  0.00     0.052 A 
ATOM      3  C   UNL     1     -40.661 -37.024 -20.338  1.00  0.00     0.138 A 
ATOM      4  C   UNL     1     -42.061 -36.977 -20.167  1.00  0.00     0.021 A 
ATOM      5  C   UNL     1     -42.777 -38.178 -20.182  1.00  0.00     0.019 A 
ATOM      6  C   UNL     1     -42.092 -39.380 -20.362  1.00  0.00     0.094 A 
ATOM      7  C   UNL     1     -40.703 -39.350 -20.525  1.00  0.00     0.336 A 
ATOM      8  O   UNL     1     -40.067 -40.424 -20.689  1.00  0.00    -0.246 OA
ATOM      9  O   UNL     1     -40.047 -38.193 -20.508  1.00  0.00    -0.423 OA
ATOM     10  C   UNL     1     -42.703 -35.742 -19.989  1.00  0.00     0.058 A 
ATOM     11  C   UNL     1     -41.954 -34.559 -19.979  1.00  0.00     0.116 A 
ENDROOT
BRANCH  11  12
ATOM     12  O   UNL     1     -42.603 -33.339 -19.802  1.00  0.00    -0.508 OA
ATOM     13  H   UNL     1     -42.131 -32.458 -19.976  1.00  0.00     0.293 HD
ENDBRANCH  11  12
TORSDOF 1
ENDMDL
MODEL 3
REMARK VINA RESULT:    -4.503     17.343     18.446
REMARK INTER + INTRA:          -4.635
REMARK INTER:                  -4.635
REMARK INTRA:                   0.000
REMARK UNBOUND:                 0.000
REMARK SMILES O=c1ccc2cc(O)ccc2o1
REMARK SMILES IDX 9 1 10 2 11 3 5 4 4 5 3 6 2 7 1 8 12 9 6 10 7 11 8 12
REMARK H PARENT 8 13
REMARK Flexibility Score: inf
ROOT
ATOM      1  C   UNL     1     -57.573 -28.441 -22.891  1.00  0.00     0.050 A 
ATOM      2  C   UNL     1     -57.802 -27.760 -21.691  1.00  0.00     0.052 A 
ATOM      3  C   UNL     1     -57.574 -28.398 -20.468  1.00  0.00     0.138 A 
ATOM      4  C   UNL     1     -57.112 -29.732 -20.449  1.00  0.00     0.021 A 
ATOM      5  C   UNL     1     -56.892 -30.344 -19.211  1.00  0.00     0.019 A 
ATOM      6  C   UNL     1     -57.135 -29.626 -18.040  1.00  0.00     0.094 A 
ATOM      7  C   UNL     1     -57.593 -28.308 -18.137  1.00  0.00     0.336 A 
ATOM      8  O   UNL     1     -57.817 -27.643 -17.091  1.00  0.00    -0.246 OA
ATOM      9  O   UNL     1     -57.793 -27.749 -19.327  1.00  0.00    -0.423 OA
ATOM     10  C   UNL     1     -56.883 -30.411 -21.655  1.00  0.00     0.058 A 
ATOM     11  C   UNL     1     -57.114 -29.766 -22.876  1.00  0.00     0.116 A 
ENDROOT
BRANCH  11  12
ATOM     12  O   UNL     1     -56.884 -30.451 -24.067  1.00  0.00    -0.508 OA
ATOM     13  H   UNL     1     -57.036 -30.012 -24.968  1.00  0.00     0.293 HD
ENDBRANCH  11  12
TORSDOF 1
ENDMDL
MODEL 4
REMARK VINA RESULT:    -4.401      2.030      2.965
REMARK INTER + INTRA:          -4.530
REMARK INTER:                  -4.530
REMARK INTRA:                   0.000
REMARK UNBOUND:                 0.000
REMARK SMILES O=c1ccc2cc(O)ccc2o1
REMARK SMILES IDX 9 1 10 2 11 3 5 4 4 5 3 6 2 7 1 8 12 9 6 10 7 11 8 12
REMARK H PARENT 8 13
REMARK Flexibility Score: inf
ROOT
ATOM      1  C   UNL     1     -40.280 -35.591 -20.145  1.00  0.00     0.050 A 
ATOM      2  C   UNL     1     -41.384 -36.445 -20.233  1.00  0.00     0.052 A 
ATOM      3  C   UNL     1     -41.200 -37.802 -20.517  1.00  0.00     0.138 A 
ATOM      4  C   UNL     1     -39.896 -38.306 -20.715  1.00  0.00     0.021 A 
ATOM      5  C   UNL     1     -39.742 -39.667 -20.996  1.00  0.00     0.019 A 
ATOM      6  C   UNL     1     -40.872 -40.481 -21.075  1.00  0.00     0.094 A 
ATOM      7  C   UNL     1     -42.133 -39.911 -20.867  1.00  0.00     0.336 A 
ATOM      8  O   UNL     1     -43.165 -40.630 -20.934  1.00  0.00    -0.246 OA
ATOM      9  O   UNL     1     -42.251 -38.614 -20.600  1.00  0.00    -0.423 OA
ATOM     10  C   UNL     1     -38.792 -37.446 -20.626  1.00  0.00     0.058 A 
ATOM     11  C   UNL     1     -38.984 -36.088 -20.342  1.00  0.00     0.116 A 
ENDROOT
BRANCH  11  12
ATOM     12  O   UNL     1     -37.880 -35.243 -20.256  1.00  0.00    -0.508 OA
ATOM     13  H   UNL     1     -37.179 -35.359 -19.532  1.00  0.00     0.293 HD
ENDBRANCH  11  12
TORSDOF 1
ENDMDL
MODEL 5
REMARK VINA RESULT:    -4.338      7.032      7.981
REMARK INTER + INTRA:          -4.465
REMARK INTER:                  -4.465
REMARK INTRA:                   0.000
REMARK UNBOUND:                 0.000
REMARK SMILES O=c1ccc2cc(O)ccc2o1
REMARK SMILES IDX 9 1 10 2 11 3 5 4 4 5 3 6 2 7 1 8 12 9 6 10 7 11 8 12
REMARK H PARENT 8 13
REMARK Flexibility Score: inf
ROOT
ATOM      1  C   UNL     1     -47.905 -34.363 -17.546  1.00  0.00     0.050 A 
ATOM      2  C   UNL     1     -47.256 -35.585 -17.758  1.00  0.00     0.052 A 
ATOM      3  C   UNL     1     -47.902 -36.609 -18.457  1.00  0.00     0.138 A 
ATOM      4  C   UNL     1     -49.211 -36.407 -18.946  1.00  0.00     0.021 A 
ATOM      5  C   UNL     1     -49.832 -37.450 -19.641  1.00  0.00     0.019 A 
ATOM      6  C   UNL     1     -49.147 -38.650 -19.829  1.00  0.00     0.094 A 
ATOM      7  C   UNL     1     -47.852 -38.779 -19.315  1.00  0.00     0.336 A 
ATOM      8  O   UNL     1     -47.218 -39.854 -19.475  1.00  0.00    -0.246 OA
ATOM      9  O   UNL     1     -47.285 -37.771 -18.658  1.00  0.00    -0.423 OA
ATOM     10  C   UNL     1     -49.857 -35.181 -18.731  1.00  0.00     0.058 A 
ATOM     11  C   UNL     1     -49.205 -34.159 -18.030  1.00  0.00     0.116 A 
ENDROOT
BRANCH  11  12
ATOM     12  O   UNL     1     -49.856 -32.946 -17.823  1.00  0.00    -0.508 OA
ATOM     13  H   UNL     1     -50.805 -32.792 -18.147  1.00  0.00     0.293 HD
ENDBRANCH  11  12
TORSDOF 1
ENDMDL
MODEL 6
REMARK VINA RESULT:    -4.215      1.306      4.364
REMARK INTER + INTRA:          -4.339
REMARK INTER:                  -4.339
REMARK INTRA:                   0.000
REMARK UNBOUND:                 0.000
REMARK SMILES O=c1ccc2cc(O)ccc2o1
REMARK SMILES IDX 9 1 10 2 11 3 5 4 4 5 3 6 2 7 1 8 12 9 6 10 7 11 8 12
REMARK H PARENT 8 13
REMARK Flexibility Score: inf
ROOT
ATOM      1  C   UNL     1     -41.713 -39.742 -21.171  1.00  0.00     0.050 A 
ATOM      2  C   UNL     1     -42.245 -38.472 -20.921  1.00  0.00     0.052 A 
ATOM      3  C   UNL     1     -41.394 -37.400 -20.633  1.00  0.00     0.138 A 
ATOM      4  C   UNL     1     -39.998 -37.604 -20.594  1.00  0.00     0.021 A 
ATOM      5  C   UNL     1     -39.172 -36.514 -20.304  1.00  0.00     0.019 A 
ATOM      6  C   UNL     1     -39.746 -35.266 -20.061  1.00  0.00     0.094 A 
ATOM      7  C   UNL     1     -41.139 -35.139 -20.116  1.00  0.00     0.336 A 
ATOM      8  O   UNL     1     -41.675 -34.021 -19.900  1.00  0.00    -0.246 OA
ATOM      9  O   UNL     1     -41.901 -36.193 -20.395  1.00  0.00    -0.423 OA
ATOM     10  C   UNL     1     -39.469 -38.879 -20.846  1.00  0.00     0.058 A 
ATOM     11  C   UNL     1     -40.327 -39.948 -21.133  1.00  0.00     0.116 A 
ENDROOT
BRANCH  11  12
ATOM     12  O   UNL     1     -39.791 -41.209 -21.381  1.00  0.00    -0.508 OA
ATOM     13  H   UNL     1     -39.313 -41.734 -20.656  1.00  0.00     0.293 HD
ENDBRANCH  11  12
TORSDOF 1
ENDMDL
MODEL 7
REMARK VINA RESULT:    -4.137      1.946      3.630
REMARK INTER + INTRA:          -4.258
REMARK INTER:                  -4.258
REMARK INTRA:                   0.000
REMARK UNBOUND:                 0.000
REMARK SMILES O=c1ccc2cc(O)ccc2o1
REMARK SMILES IDX 9 1 10 2 11 3 5 4 4 5 3 6 2 7 1 8 12 9 6 10 7 11 8 12
REMARK H PARENT 8 13
REMARK Flexibility Score: inf
ROOT
ATOM      1  C   UNL     1     -39.008 -37.314 -20.490  1.00  0.00     0.050 A 
ATOM      2  C   UNL     1     -40.181 -38.063 -20.639  1.00  0.00     0.052 A 
ATOM      3  C   UNL     1     -41.428 -37.448 -20.493  1.00  0.00     0.138 A 
ATOM      4  C   UNL     1     -41.500 -36.070 -20.195  1.00  0.00     0.021 A 
ATOM      5  C   UNL     1     -42.762 -35.482 -20.056  1.00  0.00     0.019 A 
ATOM      6  C   UNL     1     -43.903 -36.268 -20.212  1.00  0.00     0.094 A 
ATOM      7  C   UNL     1     -43.755 -37.628 -20.507  1.00  0.00     0.336 A 
ATOM      8  O   UNL     1     -44.773 -38.353 -20.652  1.00  0.00    -0.246 OA
ATOM      9  O   UNL     1     -42.543 -38.161 -20.635  1.00  0.00    -0.423 OA
ATOM     10  C   UNL     1     -40.323 -35.323 -20.046  1.00  0.00     0.058 A 
ATOM     11  C   UNL     1     -39.076 -35.945 -20.193  1.00  0.00     0.116 A 
ENDROOT
BRANCH  11  12
ATOM     12  O   UNL     1     -37.913 -35.193 -20.043  1.00  0.00    -0.508 OA
ATOM     13  H   UNL     1     -37.058 -35.606 -19.686  1.00  0.00     0.293 HD
ENDBRANCH  11  12
TORSDOF 1
ENDMDL
MODEL 8
REMARK VINA RESULT:    -4.084      2.064      4.300
REMARK INTER + INTRA:          -4.203
REMARK INTER:                  -4.203
REMARK INTRA:                   0.000
REMARK UNBOUND:                 0.000
REMARK SMILES O=c1ccc2cc(O)ccc2o1
REMARK SMILES IDX 9 1 10 2 11 3 5 4 4 5 3 6 2 7 1 8 12 9 6 10 7 11 8 12
REMARK H PARENT 8 13
REMARK Flexibility Score: inf
ROOT
ATOM      1  C   UNL     1     -40.826 -40.464 -20.913  1.00  0.00     0.050 A 
ATOM      2  C   UNL     1     -39.761 -39.567 -20.782  1.00  0.00     0.052 A 
ATOM      3  C   UNL     1     -40.011 -38.205 -20.588  1.00  0.00     0.138 A 
ATOM      4  C   UNL     1     -41.342 -37.739 -20.525  1.00  0.00     0.021 A 
ATOM      5  C   UNL     1     -41.562 -36.372 -20.329  1.00  0.00     0.019 A 
ATOM      6  C   UNL     1     -40.469 -35.514 -20.204  1.00  0.00     0.094 A 
ATOM      7  C   UNL     1     -39.177 -36.048 -20.277  1.00  0.00     0.336 A 
ATOM      8  O   UNL     1     -38.178 -35.290 -20.166  1.00  0.00    -0.246 OA
ATOM      9  O   UNL     1     -38.997 -37.353 -20.463  1.00  0.00    -0.423 OA
ATOM     10  C   UNL     1     -42.407 -38.642 -20.657  1.00  0.00     0.058 A 
ATOM     11  C   UNL     1     -42.150 -40.004 -20.852  1.00  0.00     0.116 A 
ENDROOT
BRANCH  11  12
ATOM     12  O   UNL     1     -43.215 -40.892 -20.981  1.00  0.00    -0.508 OA
ATOM     13  H   UNL     1     -43.582 -41.400 -20.183  1.00  0.00     0.293 HD
ENDBRANCH  11  12
TORSDOF 1
ENDMDL
MODEL 9
REMARK VINA RESULT:    -4.005      2.308      3.887
REMARK INTER + INTRA:          -4.122
REMARK INTER:                  -4.122
REMARK INTRA:                   0.000
REMARK UNBOUND:                 0.000
REMARK SMILES O=c1ccc2cc(O)ccc2o1
REMARK SMILES IDX 9 1 10 2 11 3 5 4 4 5 3 6 2 7 1 8 12 9 6 10 7 11 8 12
REMARK H PARENT 8 13
REMARK Flexibility Score: inf
ROOT
ATOM      1  C   UNL     1     -40.234 -35.251 -19.876  1.00  0.00     0.050 A 
ATOM      2  C   UNL     1     -41.580 -35.154 -20.245  1.00  0.00     0.052 A 
ATOM      3  C   UNL     1     -42.289 -36.300 -20.617  1.00  0.00     0.138 A 
ATOM      4  C   UNL     1     -41.642 -37.555 -20.619  1.00  0.00     0.021 A 
ATOM      5  C   UNL     1     -42.376 -38.684 -20.995  1.00  0.00     0.019 A 
ATOM      6  C   UNL     1     -43.716 -38.540 -21.356  1.00  0.00     0.094 A 
ATOM      7  C   UNL     1     -44.291 -37.264 -21.331  1.00  0.00     0.336 A 
ATOM      8  O   UNL     1     -45.498 -37.114 -21.653  1.00  0.00    -0.246 OA
ATOM      9  O   UNL     1     -43.569 -36.207 -20.968  1.00  0.00    -0.423 OA
ATOM     10  C   UNL     1     -40.292 -37.648 -20.248  1.00  0.00     0.058 A 
ATOM     11  C   UNL     1     -39.588 -36.495 -19.877  1.00  0.00     0.116 A 
ENDROOT
BRANCH  11  12
ATOM     12  O   UNL     1     -38.248 -36.599 -19.511  1.00  0.00    -0.508 OA
ATOM     13  H   UNL     1     -37.952 -37.204 -18.752  1.00  0.00     0.293 HD
ENDBRANCH  11  12
TORSDOF 1
ENDMDL
