MODEL 1
REMARK VINA RESULT:    -3.655      0.000      0.000
REMARK INTER + INTRA:          -5.678
REMARK INTER:                  -5.151
REMARK INTRA:                  -0.527
REMARK UNBOUND:                -0.527
REMARK SMILES CCCCCCCCC(=O)[O-]
REMARK SMILES IDX 6 1 7 2 8 3 9 4 10 5 11 6 5 7 4 8 3 9 2 10 1 11
REMARK H PARENT
REMARK Flexibility Score: inf
ROOT
ATOM      1  C   UNL     1      33.645  51.916  26.502  1.00  0.00     0.000 C 
ENDROOT
BRANCH   1   2
ATOM      2  C   UNL     1      33.405  50.401  26.432  1.00  0.00     0.006 C 
BRANCH   2   3
ATOM      3  C   UNL     1      34.716  49.605  26.406  1.00  0.00     0.053 C 
BRANCH   3   4
ATOM      4  C   UNL     1      34.623  48.413  25.502  1.00  0.00     0.041 C 
ATOM      5  O   UNL     1      35.428  47.454  25.633  1.00  0.00    -0.550 OA
ATOM      6  O   UNL     1      33.628  48.350  24.536  1.00  0.00    -0.550 OA
ENDBRANCH   3   4
ENDBRANCH   2   3
ENDBRANCH   1   2
BRANCH   1   7
ATOM      7  C   UNL     1      32.325  52.674  26.680  1.00  0.00     0.000 C 
BRANCH   7   8
ATOM      8  C   UNL     1      31.510  52.673  25.380  1.00  0.00    -0.000 C 
BRANCH   8   9
ATOM      9  C   UNL     1      30.092  52.133  25.621  1.00  0.00    -0.000 C 
BRANCH   9  10
ATOM     10  C   UNL     1      29.725  50.990  24.662  1.00  0.00    -0.003 C 
ATOM     11  C   UNL     1      30.866  50.627  23.710  1.00  0.00     0.004 C 
ENDBRANCH   9  10
ENDBRANCH   8   9
ENDBRANCH   7   8
ENDBRANCH   1   7
TORSDOF 7
ENDMDL
MODEL 2
REMARK VINA RESULT:    -3.648      1.470      2.622
REMARK INTER + INTRA:          -5.668
REMARK INTER:                  -5.097
REMARK INTRA:                  -0.571
REMARK UNBOUND:                -0.527
REMARK SMILES CCCCCCCCC(=O)[O-]
REMARK SMILES IDX 6 1 7 2 8 3 9 4 10 5 11 6 5 7 4 8 3 9 2 10 1 11
REMARK H PARENT
REMARK Flexibility Score: inf
ROOT
ATOM      1  C   UNL     1      31.594  49.871  24.136  1.00  0.00     0.000 C 
ENDROOT
BRANCH   1   2
ATOM      2  C   UNL     1      32.285  50.044  25.497  1.00  0.00     0.006 C 
BRANCH   2   3
ATOM      3  C   UNL     1      32.616  48.699  26.156  1.00  0.00     0.053 C 
BRANCH   3   4
ATOM      4  C   UNL     1      33.495  47.856  25.283  1.00  0.00     0.041 C 
ATOM      5  O   UNL     1      33.080  46.752  24.844  1.00  0.00    -0.550 OA
ATOM      6  O   UNL     1      34.761  48.306  24.931  1.00  0.00    -0.550 OA
ENDBRANCH   3   4
ENDBRANCH   2   3
ENDBRANCH   1   2
BRANCH   1   7
ATOM      7  C   UNL     1      30.685  51.065  23.826  1.00  0.00     0.000 C 
BRANCH   7   8
ATOM      8  C   UNL     1      29.391  51.001  24.647  1.00  0.00    -0.000 C 
BRANCH   8   9
ATOM      9  C   UNL     1      29.331  52.147  25.668  1.00  0.00    -0.000 C 
BRANCH   9  10
ATOM     10  C   UNL     1      30.241  53.326  25.287  1.00  0.00    -0.003 C 
ATOM     11  C   UNL     1      31.265  53.657  26.373  1.00  0.00     0.004 C 
ENDBRANCH   9  10
ENDBRANCH   8   9
ENDBRANCH   7   8
ENDBRANCH   1   7
TORSDOF 7
ENDMDL
MODEL 3
REMARK VINA RESULT:    -3.537      2.795      5.056
REMARK INTER + INTRA:          -5.511
REMARK INTER:                  -4.892
REMARK INTRA:                  -0.619
REMARK UNBOUND:                -0.527
REMARK SMILES CCCCCCCCC(=O)[O-]
REMARK SMILES IDX 6 1 7 2 8 3 9 4 10 5 11 6 5 7 4 8 3 9 2 10 1 11
REMARK H PARENT
REMARK Flexibility Score: inf
ROOT
ATOM      1  C   UNL     1      31.615  49.861  24.481  1.00  0.00     0.000 C 
ENDROOT
BRANCH   1   2
ATOM      2  C   UNL     1      30.833  51.028  23.859  1.00  0.00     0.006 C 
BRANCH   2   3
ATOM      3  C   UNL     1      30.165  51.911  24.920  1.00  0.00     0.053 C 
BRANCH   3   4
ATOM      4  C   UNL     1      30.915  53.193  25.126  1.00  0.00     0.041 C 
ATOM      5  O   UNL     1      32.123  53.171  25.478  1.00  0.00    -0.550 OA
ATOM      6  O   UNL     1      30.285  54.410  24.898  1.00  0.00    -0.550 OA
ENDBRANCH   3   4
ENDBRANCH   2   3
ENDBRANCH   1   2
BRANCH   1   7
ATOM      7  C   UNL     1      31.153  49.595  25.919  1.00  0.00     0.000 C 
BRANCH   7   8
ATOM      8  C   UNL     1      32.350  49.356  26.847  1.00  0.00    -0.000 C 
BRANCH   8   9
ATOM      9  C   UNL     1      33.588  50.123  26.356  1.00  0.00    -0.000 C 
BRANCH   9  10
ATOM     10  C   UNL     1      34.858  49.259  26.358  1.00  0.00    -0.003 C 
ATOM     11  C   UNL     1      34.843  48.184  25.270  1.00  0.00     0.004 C 
ENDBRANCH   9  10
ENDBRANCH   8   9
ENDBRANCH   7   8
ENDBRANCH   1   7
TORSDOF 7
ENDMDL
MODEL 4
REMARK VINA RESULT:    -3.477      1.614      2.529
REMARK INTER + INTRA:          -5.426
REMARK INTER:                  -4.791
REMARK INTRA:                  -0.635
REMARK UNBOUND:                -0.527
REMARK SMILES CCCCCCCCC(=O)[O-]
REMARK SMILES IDX 6 1 7 2 8 3 9 4 10 5 11 6 5 7 4 8 3 9 2 10 1 11
REMARK H PARENT
REMARK Flexibility Score: inf
ROOT
ATOM      1  C   UNL     1      34.715  49.492  26.258  1.00  0.00     0.000 C 
ENDROOT
BRANCH   1   2
ATOM      2  C   UNL     1      34.684  48.334  25.249  1.00  0.00     0.006 C 
BRANCH   2   3
ATOM      3  C   UNL     1      33.269  47.775  25.049  1.00  0.00     0.053 C 
BRANCH   3   4
ATOM      4  C   UNL     1      33.157  46.363  25.540  1.00  0.00     0.041 C 
ATOM      5  O   UNL     1      32.742  45.457  24.772  1.00  0.00    -0.550 OA
ATOM      6  O   UNL     1      33.540  46.046  26.836  1.00  0.00    -0.550 OA
ENDBRANCH   3   4
ENDBRANCH   2   3
ENDBRANCH   1   2
BRANCH   1   7
ATOM      7  C   UNL     1      33.301  50.010  26.543  1.00  0.00     0.000 C 
BRANCH   7   8
ATOM      8  C   UNL     1      33.252  51.542  26.475  1.00  0.00    -0.000 C 
BRANCH   8   9
ATOM      9  C   UNL     1      32.070  52.016  25.615  1.00  0.00    -0.000 C 
BRANCH   9  10
ATOM     10  C   UNL     1      31.089  50.881  25.282  1.00  0.00    -0.003 C 
ATOM     11  C   UNL     1      30.827  50.748  23.781  1.00  0.00     0.004 C 
ENDBRANCH   9  10
ENDBRANCH   8   9
ENDBRANCH   7   8
ENDBRANCH   1   7
TORSDOF 7
ENDMDL
MODEL 5
REMARK VINA RESULT:    -3.470      1.582      2.484
REMARK INTER + INTRA:          -5.417
REMARK INTER:                  -5.073
REMARK INTRA:                  -0.344
REMARK UNBOUND:                -0.527
REMARK SMILES CCCCCCCCC(=O)[O-]
REMARK SMILES IDX 6 1 7 2 8 3 9 4 10 5 11 6 5 7 4 8 3 9 2 10 1 11
REMARK H PARENT
REMARK Flexibility Score: inf
ROOT
ATOM      1  C   UNL     1      32.324  50.361  25.681  1.00  0.00     0.000 C 
ENDROOT
BRANCH   1   2
ATOM      2  C   UNL     1      33.529  49.465  26.003  1.00  0.00     0.006 C 
BRANCH   2   3
ATOM      3  C   UNL     1      33.712  48.344  24.972  1.00  0.00     0.053 C 
BRANCH   3   4
ATOM      4  C   UNL     1      33.901  47.011  25.630  1.00  0.00     0.041 C 
ATOM      5  O   UNL     1      34.818  46.847  26.477  1.00  0.00    -0.550 OA
ATOM      6  O   UNL     1      33.044  45.961  25.329  1.00  0.00    -0.550 OA
ENDBRANCH   3   4
ENDBRANCH   2   3
ENDBRANCH   1   2
BRANCH   1   7
ATOM      7  C   UNL     1      31.625  49.901  24.396  1.00  0.00     0.000 C 
BRANCH   7   8
ATOM      8  C   UNL     1      30.778  51.030  23.796  1.00  0.00    -0.000 C 
BRANCH   8   9
ATOM      9  C   UNL     1      30.500  52.123  24.839  1.00  0.00    -0.000 C 
BRANCH   9  10
ATOM     10  C   UNL     1      30.981  53.509  24.384  1.00  0.00    -0.003 C 
ATOM     11  C   UNL     1      30.718  54.598  25.425  1.00  0.00     0.004 C 
ENDBRANCH   9  10
ENDBRANCH   8   9
ENDBRANCH   7   8
ENDBRANCH   1   7
TORSDOF 7
ENDMDL
MODEL 6
REMARK VINA RESULT:    -3.466      2.304      4.433
REMARK INTER + INTRA:          -5.411
REMARK INTER:                  -4.865
REMARK INTRA:                  -0.546
REMARK UNBOUND:                -0.527
REMARK SMILES CCCCCCCCC(=O)[O-]
REMARK SMILES IDX 6 1 7 2 8 3 9 4 10 5 11 6 5 7 4 8 3 9 2 10 1 11
REMARK H PARENT
REMARK Flexibility Score: inf
ROOT
ATOM      1  C   UNL     1      33.032  52.531  26.427  1.00  0.00     0.000 C 
ENDROOT
BRANCH   1   2
ATOM      2  C   UNL     1      31.739  51.720  26.255  1.00  0.00     0.006 C 
BRANCH   2   3
ATOM      3  C   UNL     1      30.807  52.329  25.201  1.00  0.00     0.053 C 
BRANCH   3   4
ATOM      4  C   UNL     1      30.267  51.286  24.269  1.00  0.00     0.041 C 
ATOM      5  O   UNL     1      29.150  50.752  24.494  1.00  0.00    -0.550 OA
ATOM      6  O   UNL     1      30.986  50.929  23.136  1.00  0.00    -0.550 OA
ENDBRANCH   3   4
ENDBRANCH   2   3
ENDBRANCH   1   2
BRANCH   1   7
ATOM      7  C   UNL     1      34.230  51.609  26.682  1.00  0.00     0.000 C 
BRANCH   7   8
ATOM      8  C   UNL     1      33.781  50.148  26.815  1.00  0.00    -0.000 C 
BRANCH   8   9
ATOM      9  C   UNL     1      34.894  49.188  26.367  1.00  0.00    -0.000 C 
BRANCH   9  10
ATOM     10  C   UNL     1      34.452  48.263  25.223  1.00  0.00    -0.003 C 
ATOM     11  C   UNL     1      33.032  48.560  24.738  1.00  0.00     0.004 C 
ENDBRANCH   9  10
ENDBRANCH   8   9
ENDBRANCH   7   8
ENDBRANCH   1   7
TORSDOF 7
ENDMDL
MODEL 7
REMARK VINA RESULT:    -3.391      1.172      1.899
REMARK INTER + INTRA:          -5.305
REMARK INTER:                  -4.951
REMARK INTRA:                  -0.355
REMARK UNBOUND:                -0.527
REMARK SMILES CCCCCCCCC(=O)[O-]
REMARK SMILES IDX 6 1 7 2 8 3 9 4 10 5 11 6 5 7 4 8 3 9 2 10 1 11
REMARK H PARENT
REMARK Flexibility Score: inf
ROOT
ATOM      1  C   UNL     1      34.186  51.566  26.716  1.00  0.00     0.000 C 
ENDROOT
BRANCH   1   2
ATOM      2  C   UNL     1      33.744  50.100  26.840  1.00  0.00     0.006 C 
BRANCH   2   3
ATOM      3  C   UNL     1      34.671  49.147  26.077  1.00  0.00     0.053 C 
BRANCH   3   4
ATOM      4  C   UNL     1      33.908  48.031  25.430  1.00  0.00     0.041 C 
ATOM      5  O   UNL     1      34.154  46.835  25.735  1.00  0.00    -0.550 OA
ATOM      6  O   UNL     1      32.905  48.316  24.513  1.00  0.00    -0.550 OA
ENDBRANCH   3   4
ENDBRANCH   2   3
ENDBRANCH   1   2
BRANCH   1   7
ATOM      7  C   UNL     1      33.048  52.440  26.177  1.00  0.00     0.000 C 
BRANCH   7   8
ATOM      8  C   UNL     1      31.872  51.579  25.698  1.00  0.00    -0.000 C 
BRANCH   8   9
ATOM      9  C   UNL     1      30.940  52.383  24.780  1.00  0.00    -0.000 C 
BRANCH   9  10
ATOM     10  C   UNL     1      31.363  53.855  24.651  1.00  0.00    -0.003 C 
ATOM     11  C   UNL     1      30.505  54.792  25.502  1.00  0.00     0.004 C 
ENDBRANCH   9  10
ENDBRANCH   8   9
ENDBRANCH   7   8
ENDBRANCH   1   7
TORSDOF 7
ENDMDL
MODEL 8
REMARK VINA RESULT:    -3.267      2.136      4.465
REMARK INTER + INTRA:          -5.131
REMARK INTER:                  -4.425
REMARK INTRA:                  -0.706
REMARK UNBOUND:                -0.527
REMARK SMILES CCCCCCCCC(=O)[O-]
REMARK SMILES IDX 6 1 7 2 8 3 9 4 10 5 11 6 5 7 4 8 3 9 2 10 1 11
REMARK H PARENT
REMARK Flexibility Score: inf
ROOT
ATOM      1  C   UNL     1      33.950  51.129  26.421  1.00  0.00     0.000 C 
ENDROOT
BRANCH   1   2
ATOM      2  C   UNL     1      32.522  51.665  26.236  1.00  0.00     0.006 C 
BRANCH   2   3
ATOM      3  C   UNL     1      31.469  50.552  26.313  1.00  0.00     0.053 C 
BRANCH   3   4
ATOM      4  C   UNL     1      30.692  50.437  25.036  1.00  0.00     0.041 C 
ATOM      5  O   UNL     1      29.454  50.663  25.026  1.00  0.00    -0.550 OA
ATOM      6  O   UNL     1      31.343  50.108  23.854  1.00  0.00    -0.550 OA
ENDBRANCH   3   4
ENDBRANCH   2   3
ENDBRANCH   1   2
BRANCH   1   7
ATOM      7  C   UNL     1      33.939  49.767  27.125  1.00  0.00     0.000 C 
BRANCH   7   8
ATOM      8  C   UNL     1      34.938  48.803  26.474  1.00  0.00    -0.000 C 
BRANCH   8   9
ATOM      9  C   UNL     1      34.473  48.397  25.067  1.00  0.00    -0.000 C 
BRANCH   9  10
ATOM     10  C   UNL     1      33.281  47.429  25.096  1.00  0.00    -0.003 C 
ATOM     11  C   UNL     1      33.515  46.229  26.014  1.00  0.00     0.004 C 
ENDBRANCH   9  10
ENDBRANCH   8   9
ENDBRANCH   7   8
ENDBRANCH   1   7
TORSDOF 7
ENDMDL
MODEL 9
REMARK VINA RESULT:    -3.144      2.764      5.305
REMARK INTER + INTRA:          -4.958
REMARK INTER:                  -4.415
REMARK INTRA:                  -0.542
REMARK UNBOUND:                -0.527
REMARK SMILES CCCCCCCCC(=O)[O-]
REMARK SMILES IDX 6 1 7 2 8 3 9 4 10 5 11 6 5 7 4 8 3 9 2 10 1 11
REMARK H PARENT
REMARK Flexibility Score: inf
ROOT
ATOM      1  C   UNL     1      33.199  48.648  24.734  1.00  0.00     0.000 C 
ENDROOT
BRANCH   1   2
ATOM      2  C   UNL     1      32.261  49.233  25.801  1.00  0.00     0.006 C 
BRANCH   2   3
ATOM      3  C   UNL     1      31.887  50.691  25.509  1.00  0.00     0.053 C 
BRANCH   3   4
ATOM      4  C   UNL     1      30.716  50.788  24.578  1.00  0.00     0.041 C 
ATOM      5  O   UNL     1      30.898  51.001  23.351  1.00  0.00    -0.550 OA
ATOM      6  O   UNL     1      29.427  50.612  25.064  1.00  0.00    -0.550 OA
ENDBRANCH   3   4
ENDBRANCH   2   3
ENDBRANCH   1   2
BRANCH   1   7
ATOM      7  C   UNL     1      34.585  48.357  25.320  1.00  0.00     0.000 C 
BRANCH   7   8
ATOM      8  C   UNL     1      34.472  47.696  26.699  1.00  0.00    -0.000 C 
BRANCH   8   9
ATOM      9  C   UNL     1      34.521  46.165  26.580  1.00  0.00    -0.000 C 
BRANCH   9  10
ATOM     10  C   UNL     1      33.123  45.528  26.570  1.00  0.00    -0.003 C 
ATOM     11  C   UNL     1      32.724  44.997  25.193  1.00  0.00     0.004 C 
ENDBRANCH   9  10
ENDBRANCH   8   9
ENDBRANCH   7   8
ENDBRANCH   1   7
TORSDOF 7
ENDMDL
