MODEL 1
REMARK VINA RESULT:    -2.429      0.000      0.000
REMARK INTER + INTRA:          -2.429
REMARK INTER:                  -2.429
REMARK INTRA:                   0.000
REMARK UNBOUND:                 0.000
REMARK SMILES CC(=O)[O-]
REMARK SMILES IDX 1 1 2 2 3 3 4 4
REMARK H PARENT
REMARK Flexibility Score: inf
ROOT
ATOM      1  C   UNL     1     133.802 -41.676  40.522  1.00  0.00     0.063 C 
ATOM      2  C   UNL     1     132.538 -41.384  39.789  1.00  0.00     0.038 C 
ATOM      3  O   UNL     1     131.710 -40.562  40.261  1.00  0.00    -0.550 OA
ATOM      4  O   UNL     1     132.296 -41.974  38.555  1.00  0.00    -0.550 OA
ENDROOT
TORSDOF 0
ENDMDL
MODEL 2
REMARK VINA RESULT:    -2.341      1.731      1.983
REMARK INTER + INTRA:          -2.341
REMARK INTER:                  -2.341
REMARK INTRA:                   0.000
REMARK UNBOUND:                 0.000
REMARK SMILES CC(=O)[O-]
REMARK SMILES IDX 1 1 2 2 3 3 4 4
REMARK H PARENT
REMARK Flexibility Score: inf
ROOT
ATOM      1  C   UNL     1     132.269 -40.921  39.987  1.00  0.00     0.063 C 
ATOM      2  C   UNL     1     133.439 -41.826  40.163  1.00  0.00     0.038 C 
ATOM      3  O   UNL     1     134.159 -41.735  41.191  1.00  0.00    -0.550 OA
ATOM      4  O   UNL     1     133.706 -42.811  39.220  1.00  0.00    -0.550 OA
ENDROOT
TORSDOF 0
ENDMDL
MODEL 3
REMARK VINA RESULT:    -2.214      1.840      2.155
REMARK INTER + INTRA:          -2.214
REMARK INTER:                  -2.214
REMARK INTRA:                   0.000
REMARK UNBOUND:                 0.000
REMARK SMILES CC(=O)[O-]
REMARK SMILES IDX 1 1 2 2 3 3 4 4
REMARK H PARENT
REMARK Flexibility Score: inf
ROOT
ATOM      1  C   UNL     1     133.761 -42.814  39.275  1.00  0.00     0.063 C 
ATOM      2  C   UNL     1     133.547 -41.857  40.398  1.00  0.00     0.038 C 
ATOM      3  O   UNL     1     134.351 -41.830  41.366  1.00  0.00    -0.550 OA
ATOM      4  O   UNL     1     132.492 -40.955  40.353  1.00  0.00    -0.550 OA
ENDROOT
TORSDOF 0
ENDMDL
MODEL 4
REMARK VINA RESULT:    -2.181     18.632     18.818
REMARK INTER + INTRA:          -2.181
REMARK INTER:                  -2.181
REMARK INTRA:                   0.000
REMARK UNBOUND:                 0.000
REMARK SMILES CC(=O)[O-]
REMARK SMILES IDX 1 1 2 2 3 3 4 4
REMARK H PARENT
REMARK Flexibility Score: inf
ROOT
ATOM      1  C   UNL     1     128.249 -23.654  40.694  1.00  0.00     0.063 C 
ATOM      2  C   UNL     1     128.038 -23.363  42.140  1.00  0.00     0.038 C 
ATOM      3  O   UNL     1     126.926 -23.607  42.677  1.00  0.00    -0.550 OA
ATOM      4  O   UNL     1     129.084 -22.875  42.913  1.00  0.00    -0.550 OA
ENDROOT
TORSDOF 0
ENDMDL
MODEL 5
REMARK VINA RESULT:    -2.152     11.503     12.135
REMARK INTER + INTRA:          -2.152
REMARK INTER:                  -2.152
REMARK INTRA:                   0.000
REMARK UNBOUND:                 0.000
REMARK SMILES CC(=O)[O-]
REMARK SMILES IDX 1 1 2 2 3 3 4 4
REMARK H PARENT
REMARK Flexibility Score: inf
ROOT
ATOM      1  C   UNL     1     125.306 -33.121  45.760  1.00  0.00     0.063 C 
ATOM      2  C   UNL     1     124.916 -34.555  45.870  1.00  0.00     0.038 C 
ATOM      3  O   UNL     1     125.794 -35.455  45.809  1.00  0.00    -0.550 OA
ATOM      4  O   UNL     1     123.590 -34.902  46.096  1.00  0.00    -0.550 OA
ENDROOT
TORSDOF 0
ENDMDL
MODEL 6
REMARK VINA RESULT:    -2.040     19.087     19.415
REMARK INTER + INTRA:          -2.040
REMARK INTER:                  -2.040
REMARK INTRA:                   0.000
REMARK UNBOUND:                 0.000
REMARK SMILES CC(=O)[O-]
REMARK SMILES IDX 1 1 2 2 3 3 4 4
REMARK H PARENT
REMARK Flexibility Score: inf
ROOT
ATOM      1  C   UNL     1     129.375 -23.816  30.188  1.00  0.00     0.063 C 
ATOM      2  C   UNL     1     130.354 -24.932  30.050  1.00  0.00     0.038 C 
ATOM      3  O   UNL     1     129.961 -26.078  29.710  1.00  0.00    -0.550 OA
ATOM      4  O   UNL     1     131.710 -24.697  30.241  1.00  0.00    -0.550 OA
ENDROOT
TORSDOF 0
ENDMDL
MODEL 7
REMARK VINA RESULT:    -2.025     17.757     18.165
REMARK INTER + INTRA:          -2.025
REMARK INTER:                  -2.025
REMARK INTRA:                   0.000
REMARK UNBOUND:                 0.000
REMARK SMILES CC(=O)[O-]
REMARK SMILES IDX 1 1 2 2 3 3 4 4
REMARK H PARENT
REMARK Flexibility Score: inf
ROOT
ATOM      1  C   UNL     1     128.312 -23.634  40.800  1.00  0.00     0.063 C 
ATOM      2  C   UNL     1     127.610 -24.012  39.541  1.00  0.00     0.038 C 
ATOM      3  O   UNL     1     126.854 -25.018  39.518  1.00  0.00    -0.550 OA
ATOM      4  O   UNL     1     127.744 -23.224  38.405  1.00  0.00    -0.550 OA
ENDROOT
TORSDOF 0
ENDMDL
MODEL 8
REMARK VINA RESULT:    -2.011     10.667     11.299
REMARK INTER + INTRA:          -2.011
REMARK INTER:                  -2.011
REMARK INTRA:                   0.000
REMARK UNBOUND:                 0.000
REMARK SMILES CC(=O)[O-]
REMARK SMILES IDX 1 1 2 2 3 3 4 4
REMARK H PARENT
REMARK Flexibility Score: inf
ROOT
ATOM      1  C   UNL     1     127.728 -38.981  28.860  1.00  0.00     0.063 C 
ATOM      2  C   UNL     1     129.018 -38.874  29.598  1.00  0.00     0.038 C 
ATOM      3  O   UNL     1     129.938 -38.136  29.157  1.00  0.00    -0.550 OA
ATOM      4  O   UNL     1     129.190 -39.545  30.802  1.00  0.00    -0.550 OA
ENDROOT
TORSDOF 0
ENDMDL
MODEL 9
REMARK VINA RESULT:    -1.914     10.792     11.322
REMARK INTER + INTRA:          -1.914
REMARK INTER:                  -1.914
REMARK INTRA:                   0.000
REMARK UNBOUND:                 0.000
REMARK SMILES CC(=O)[O-]
REMARK SMILES IDX 1 1 2 2 3 3 4 4
REMARK H PARENT
REMARK Flexibility Score: inf
ROOT
ATOM      1  C   UNL     1     129.959 -38.391  29.254  1.00  0.00     0.063 C 
ATOM      2  C   UNL     1     128.627 -38.988  29.552  1.00  0.00     0.038 C 
ATOM      3  O   UNL     1     128.435 -39.592  30.640  1.00  0.00    -0.550 OA
ATOM      4  O   UNL     1     127.577 -38.832  28.656  1.00  0.00    -0.550 OA
ENDROOT
TORSDOF 0
ENDMDL
