MODEL 1
REMARK VINA RESULT:    -4.007      0.000      0.000
REMARK INTER + INTRA:          -8.696
REMARK INTER:                  -7.052
REMARK INTRA:                  -1.645
REMARK UNBOUND:                -1.645
REMARK SMILES CCCCCCCCCCCCCCC(=O)[O-]
REMARK SMILES IDX 9 1 10 2 11 3 12 4 13 5 14 6 15 7 16 8 17 9 8 10 7 11 6 12
REMARK SMILES IDX 5 13 4 14 3 15 2 16 1 17
REMARK H PARENT
REMARK Flexibility Score: inf
ROOT
ATOM      1  C   UNL     1     -41.524 -47.566  34.377  1.00  0.00     0.000 C 
ENDROOT
BRANCH   1   2
ATOM      2  C   UNL     1     -42.717 -48.456  33.993  1.00  0.00     0.000 C 
BRANCH   2   3
ATOM      3  C   UNL     1     -42.768 -49.711  34.877  1.00  0.00     0.000 C 
BRANCH   3   4
ATOM      4  C   UNL     1     -44.095 -49.847  35.640  1.00  0.00     0.000 C 
BRANCH   4   5
ATOM      5  C   UNL     1     -44.413 -48.610  36.499  1.00  0.00     0.006 C 
BRANCH   5   6
ATOM      6  C   UNL     1     -45.295 -48.957  37.706  1.00  0.00     0.053 C 
BRANCH   6   7
ATOM      7  C   UNL     1     -46.664 -49.395  37.288  1.00  0.00     0.041 C 
ATOM      8  O   UNL     1     -47.512 -48.547  36.903  1.00  0.00    -0.550 OA
ATOM      9  O   UNL     1     -47.014 -50.738  37.352  1.00  0.00    -0.550 OA
ENDBRANCH   6   7
ENDBRANCH   5   6
ENDBRANCH   4   5
ENDBRANCH   3   4
ENDBRANCH   2   3
ENDBRANCH   1   2
BRANCH   1  10
ATOM     10  C   UNL     1     -40.374 -48.358  35.020  1.00  0.00     0.000 C 
BRANCH  10  11
ATOM     11  C   UNL     1     -39.829 -47.682  36.290  1.00  0.00    -0.000 C 
BRANCH  11  12
ATOM     12  C   UNL     1     -39.925 -48.580  37.537  1.00  0.00    -0.000 C 
BRANCH  12  13
ATOM     13  C   UNL     1     -41.295 -48.593  38.239  1.00  0.00    -0.000 C 
BRANCH  13  14
ATOM     14  C   UNL     1     -41.711 -47.211  38.770  1.00  0.00    -0.000 C 
BRANCH  14  15
ATOM     15  C   UNL     1     -42.819 -47.287  39.837  1.00  0.00    -0.000 C 
BRANCH  15  16
ATOM     16  C   UNL     1     -43.505 -45.947  40.162  1.00  0.00    -0.003 C 
ATOM     17  C   UNL     1     -42.527 -44.873  40.639  1.00  0.00     0.004 C 
ENDBRANCH  15  16
ENDBRANCH  14  15
ENDBRANCH  13  14
ENDBRANCH  12  13
ENDBRANCH  11  12
ENDBRANCH  10  11
ENDBRANCH   1  10
TORSDOF 13
ENDMDL
MODEL 2
REMARK VINA RESULT:    -3.822      3.602      5.748
REMARK INTER + INTRA:          -8.371
REMARK INTER:                  -6.627
REMARK INTRA:                  -1.744
REMARK UNBOUND:                -1.645
REMARK SMILES CCCCCCCCCCCCCCC(=O)[O-]
REMARK SMILES IDX 9 1 10 2 11 3 12 4 13 5 14 6 15 7 16 8 17 9 8 10 7 11 6 12
REMARK SMILES IDX 5 13 4 14 3 15 2 16 1 17
REMARK H PARENT
REMARK Flexibility Score: inf
ROOT
ATOM      1  C   UNL     1     -45.826 -51.669  38.164  1.00  0.00     0.000 C 
ENDROOT
BRANCH   1   2
ATOM      2  C   UNL     1     -46.676 -52.544  37.229  1.00  0.00     0.000 C 
BRANCH   2   3
ATOM      3  C   UNL     1     -47.820 -53.218  38.002  1.00  0.00     0.000 C 
BRANCH   3   4
ATOM      4  C   UNL     1     -47.332 -54.360  38.907  1.00  0.00     0.000 C 
BRANCH   4   5
ATOM      5  C   UNL     1     -47.605 -54.092  40.398  1.00  0.00     0.006 C 
BRANCH   5   6
ATOM      6  C   UNL     1     -48.678 -53.014  40.604  1.00  0.00     0.053 C 
BRANCH   6   7
ATOM      7  C   UNL     1     -48.288 -52.038  41.671  1.00  0.00     0.041 C 
ATOM      8  O   UNL     1     -47.963 -52.447  42.816  1.00  0.00    -0.550 OA
ATOM      9  O   UNL     1     -48.312 -50.674  41.407  1.00  0.00    -0.550 OA
ENDBRANCH   6   7
ENDBRANCH   5   6
ENDBRANCH   4   5
ENDBRANCH   3   4
ENDBRANCH   2   3
ENDBRANCH   1   2
BRANCH   1  10
ATOM     10  C   UNL     1     -46.485 -50.315  38.474  1.00  0.00     0.000 C 
BRANCH  10  11
ATOM     11  C   UNL     1     -46.665 -49.445  37.218  1.00  0.00    -0.000 C 
BRANCH  11  12
ATOM     12  C   UNL     1     -45.739 -48.214  37.202  1.00  0.00    -0.000 C 
BRANCH  12  13
ATOM     13  C   UNL     1     -44.325 -48.459  36.647  1.00  0.00    -0.000 C 
BRANCH  13  14
ATOM     14  C   UNL     1     -43.232 -48.368  37.725  1.00  0.00    -0.000 C 
BRANCH  14  15
ATOM     15  C   UNL     1     -43.742 -47.765  39.047  1.00  0.00    -0.000 C 
BRANCH  15  16
ATOM     16  C   UNL     1     -43.636 -48.692  40.272  1.00  0.00    -0.003 C 
ATOM     17  C   UNL     1     -42.978 -50.035  39.952  1.00  0.00     0.004 C 
ENDBRANCH  15  16
ENDBRANCH  14  15
ENDBRANCH  13  14
ENDBRANCH  12  13
ENDBRANCH  11  12
ENDBRANCH  10  11
ENDBRANCH   1  10
TORSDOF 13
ENDMDL
MODEL 3
REMARK VINA RESULT:    -3.738      3.350      5.803
REMARK INTER + INTRA:          -8.224
REMARK INTER:                  -7.054
REMARK INTRA:                  -1.170
REMARK UNBOUND:                -1.645
REMARK SMILES CCCCCCCCCCCCCCC(=O)[O-]
REMARK SMILES IDX 9 1 10 2 11 3 12 4 13 5 14 6 15 7 16 8 17 9 8 10 7 11 6 12
REMARK SMILES IDX 5 13 4 14 3 15 2 16 1 17
REMARK H PARENT
REMARK Flexibility Score: inf
ROOT
ATOM      1  C   UNL     1     -44.670 -50.678  39.171  1.00  0.00     0.000 C 
ENDROOT
BRANCH   1   2
ATOM      2  C   UNL     1     -46.200 -50.802  39.079  1.00  0.00     0.000 C 
BRANCH   2   3
ATOM      3  C   UNL     1     -46.652 -50.904  37.614  1.00  0.00     0.000 C 
BRANCH   3   4
ATOM      4  C   UNL     1     -47.252 -52.276  37.272  1.00  0.00     0.000 C 
BRANCH   4   5
ATOM      5  C   UNL     1     -47.479 -53.150  38.518  1.00  0.00     0.006 C 
BRANCH   5   6
ATOM      6  C   UNL     1     -46.711 -54.477  38.441  1.00  0.00     0.053 C 
BRANCH   6   7
ATOM      7  C   UNL     1     -47.245 -55.486  39.411  1.00  0.00     0.041 C 
ATOM      8  O   UNL     1     -47.048 -55.344  40.647  1.00  0.00    -0.550 OA
ATOM      9  O   UNL     1     -47.936 -56.598  38.947  1.00  0.00    -0.550 OA
ENDBRANCH   6   7
ENDBRANCH   5   6
ENDBRANCH   4   5
ENDBRANCH   3   4
ENDBRANCH   2   3
ENDBRANCH   1   2
BRANCH   1  10
ATOM     10  C   UNL     1     -44.219 -49.377  39.856  1.00  0.00     0.000 C 
BRANCH  10  11
ATOM     11  C   UNL     1     -43.947 -48.244  38.852  1.00  0.00    -0.000 C 
BRANCH  11  12
ATOM     12  C   UNL     1     -43.250 -48.733  37.569  1.00  0.00    -0.000 C 
BRANCH  12  13
ATOM     13  C   UNL     1     -44.060 -48.566  36.271  1.00  0.00    -0.000 C 
BRANCH  13  14
ATOM     14  C   UNL     1     -43.751 -49.650  35.225  1.00  0.00    -0.000 C 
BRANCH  14  15
ATOM     15  C   UNL     1     -43.030 -49.096  33.982  1.00  0.00    -0.000 C 
BRANCH  15  16
ATOM     16  C   UNL     1     -42.222 -47.806  34.217  1.00  0.00    -0.003 C 
ATOM     17  C   UNL     1     -40.755 -48.072  34.559  1.00  0.00     0.004 C 
ENDBRANCH  15  16
ENDBRANCH  14  15
ENDBRANCH  13  14
ENDBRANCH  12  13
ENDBRANCH  11  12
ENDBRANCH  10  11
ENDBRANCH   1  10
TORSDOF 13
ENDMDL
MODEL 4
REMARK VINA RESULT:    -3.721      1.657      4.425
REMARK INTER + INTRA:          -8.193
REMARK INTER:                  -6.088
REMARK INTRA:                  -2.106
REMARK UNBOUND:                -1.645
REMARK SMILES CCCCCCCCCCCCCCC(=O)[O-]
REMARK SMILES IDX 9 1 10 2 11 3 12 4 13 5 14 6 15 7 16 8 17 9 8 10 7 11 6 12
REMARK SMILES IDX 5 13 4 14 3 15 2 16 1 17
REMARK H PARENT
REMARK Flexibility Score: inf
ROOT
ATOM      1  C   UNL     1     -42.523 -49.421  37.677  1.00  0.00     0.000 C 
ENDROOT
BRANCH   1   2
ATOM      2  C   UNL     1     -43.512 -48.294  38.018  1.00  0.00     0.000 C 
BRANCH   2   3
ATOM      3  C   UNL     1     -43.835 -48.286  39.520  1.00  0.00     0.000 C 
BRANCH   3   4
ATOM      4  C   UNL     1     -43.958 -49.701  40.107  1.00  0.00     0.000 C 
BRANCH   4   5
ATOM      5  C   UNL     1     -45.412 -50.202  40.143  1.00  0.00     0.006 C 
BRANCH   5   6
ATOM      6  C   UNL     1     -45.655 -51.342  39.144  1.00  0.00     0.053 C 
BRANCH   6   7
ATOM      7  C   UNL     1     -46.563 -50.921  38.029  1.00  0.00     0.041 C 
ATOM      8  O   UNL     1     -47.123 -51.787  37.306  1.00  0.00    -0.550 OA
ATOM      9  O   UNL     1     -46.767 -49.572  37.770  1.00  0.00    -0.550 OA
ENDBRANCH   6   7
ENDBRANCH   5   6
ENDBRANCH   4   5
ENDBRANCH   3   4
ENDBRANCH   2   3
ENDBRANCH   1   2
BRANCH   1  10
ATOM     10  C   UNL     1     -43.089 -50.418  36.653  1.00  0.00     0.000 C 
BRANCH  10  11
ATOM     11  C   UNL     1     -43.888 -49.727  35.535  1.00  0.00    -0.000 C 
BRANCH  11  12
ATOM     12  C   UNL     1     -43.031 -49.399  34.299  1.00  0.00    -0.000 C 
BRANCH  12  13
ATOM     13  C   UNL     1     -42.633 -47.920  34.143  1.00  0.00    -0.000 C 
BRANCH  13  14
ATOM     14  C   UNL     1     -41.128 -47.677  34.349  1.00  0.00    -0.000 C 
BRANCH  14  15
ATOM     15  C   UNL     1     -40.323 -48.983  34.484  1.00  0.00    -0.000 C 
BRANCH  15  16
ATOM     16  C   UNL     1     -39.291 -48.998  35.627  1.00  0.00    -0.003 C 
ATOM     17  C   UNL     1     -39.387 -47.773  36.538  1.00  0.00     0.004 C 
ENDBRANCH  15  16
ENDBRANCH  14  15
ENDBRANCH  13  14
ENDBRANCH  12  13
ENDBRANCH  11  12
ENDBRANCH  10  11
ENDBRANCH   1  10
TORSDOF 13
ENDMDL
MODEL 5
REMARK VINA RESULT:    -3.718      2.607      3.922
REMARK INTER + INTRA:          -8.187
REMARK INTER:                  -5.977
REMARK INTRA:                  -2.210
REMARK UNBOUND:                -1.645
REMARK SMILES CCCCCCCCCCCCCCC(=O)[O-]
REMARK SMILES IDX 9 1 10 2 11 3 12 4 13 5 14 6 15 7 16 8 17 9 8 10 7 11 6 12
REMARK SMILES IDX 5 13 4 14 3 15 2 16 1 17
REMARK H PARENT
REMARK Flexibility Score: inf
ROOT
ATOM      1  C   UNL     1     -43.677 -49.634  35.358  1.00  0.00     0.000 C 
ENDROOT
BRANCH   1   2
ATOM      2  C   UNL     1     -44.541 -50.544  36.246  1.00  0.00     0.000 C 
BRANCH   2   3
ATOM      3  C   UNL     1     -45.705 -49.756  36.866  1.00  0.00     0.000 C 
BRANCH   3   4
ATOM      4  C   UNL     1     -46.883 -50.657  37.271  1.00  0.00     0.000 C 
BRANCH   4   5
ATOM      5  C   UNL     1     -46.525 -52.153  37.230  1.00  0.00     0.006 C 
BRANCH   5   6
ATOM      6  C   UNL     1     -47.678 -53.037  37.725  1.00  0.00     0.053 C 
BRANCH   6   7
ATOM      7  C   UNL     1     -47.585 -53.301  39.196  1.00  0.00     0.041 C 
ATOM      8  O   UNL     1     -48.448 -52.827  39.981  1.00  0.00    -0.550 OA
ATOM      9  O   UNL     1     -46.528 -54.046  39.703  1.00  0.00    -0.550 OA
ENDBRANCH   6   7
ENDBRANCH   5   6
ENDBRANCH   4   5
ENDBRANCH   3   4
ENDBRANCH   2   3
ENDBRANCH   1   2
BRANCH   1  10
ATOM     10  C   UNL     1     -43.290 -48.319  36.054  1.00  0.00     0.000 C 
BRANCH  10  11
ATOM     11  C   UNL     1     -41.914 -48.395  36.737  1.00  0.00    -0.000 C 
BRANCH  11  12
ATOM     12  C   UNL     1     -41.948 -47.947  38.210  1.00  0.00    -0.000 C 
BRANCH  12  13
ATOM     13  C   UNL     1     -43.343 -47.607  38.765  1.00  0.00    -0.000 C 
BRANCH  13  14
ATOM     14  C   UNL     1     -43.793 -48.559  39.886  1.00  0.00    -0.000 C 
BRANCH  14  15
ATOM     15  C   UNL     1     -43.110 -49.938  39.811  1.00  0.00    -0.000 C 
BRANCH  15  16
ATOM     16  C   UNL     1     -44.060 -51.144  39.933  1.00  0.00    -0.003 C 
ATOM     17  C   UNL     1     -45.380 -50.800  40.623  1.00  0.00     0.004 C 
ENDBRANCH  15  16
ENDBRANCH  14  15
ENDBRANCH  13  14
ENDBRANCH  12  13
ENDBRANCH  11  12
ENDBRANCH  10  11
ENDBRANCH   1  10
TORSDOF 13
ENDMDL
MODEL 6
REMARK VINA RESULT:    -3.707      2.636      4.974
REMARK INTER + INTRA:          -8.168
REMARK INTER:                  -6.576
REMARK INTRA:                  -1.592
REMARK UNBOUND:                -1.645
REMARK SMILES CCCCCCCCCCCCCCC(=O)[O-]
REMARK SMILES IDX 9 1 10 2 11 3 12 4 13 5 14 6 15 7 16 8 17 9 8 10 7 11 6 12
REMARK SMILES IDX 5 13 4 14 3 15 2 16 1 17
REMARK H PARENT
REMARK Flexibility Score: inf
ROOT
ATOM      1  C   UNL     1     -39.330 -48.778  35.694  1.00  0.00     0.000 C 
ENDROOT
BRANCH   1   2
ATOM      2  C   UNL     1     -39.895 -47.808  36.746  1.00  0.00     0.000 C 
BRANCH   2   3
ATOM      3  C   UNL     1     -40.786 -48.553  37.752  1.00  0.00     0.000 C 
BRANCH   3   4
ATOM      4  C   UNL     1     -42.147 -47.869  37.959  1.00  0.00     0.000 C 
BRANCH   4   5
ATOM      5  C   UNL     1     -42.414 -47.519  39.433  1.00  0.00     0.006 C 
BRANCH   5   6
ATOM      6  C   UNL     1     -41.672 -46.249  39.870  1.00  0.00     0.053 C 
BRANCH   6   7
ATOM      7  C   UNL     1     -42.566 -45.313  40.623  1.00  0.00     0.041 C 
ATOM      8  O   UNL     1     -43.747 -45.115  40.234  1.00  0.00    -0.550 OA
ATOM      9  O   UNL     1     -42.085 -44.637  41.737  1.00  0.00    -0.550 OA
ENDBRANCH   6   7
ENDBRANCH   5   6
ENDBRANCH   4   5
ENDBRANCH   3   4
ENDBRANCH   2   3
ENDBRANCH   1   2
BRANCH   1  10
ATOM     10  C   UNL     1     -40.038 -48.657  34.334  1.00  0.00     0.000 C 
BRANCH  10  11
ATOM     11  C   UNL     1     -41.051 -47.500  34.296  1.00  0.00    -0.000 C 
BRANCH  11  12
ATOM     12  C   UNL     1     -42.511 -47.983  34.215  1.00  0.00    -0.000 C 
BRANCH  12  13
ATOM     13  C   UNL     1     -42.697 -49.475  33.884  1.00  0.00    -0.000 C 
BRANCH  13  14
ATOM     14  C   UNL     1     -43.286 -50.281  35.054  1.00  0.00    -0.000 C 
BRANCH  14  15
ATOM     15  C   UNL     1     -44.367 -49.507  35.831  1.00  0.00    -0.000 C 
BRANCH  15  16
ATOM     16  C   UNL     1     -45.202 -50.356  36.808  1.00  0.00    -0.003 C 
ATOM     17  C   UNL     1     -45.838 -49.530  37.926  1.00  0.00     0.004 C 
ENDBRANCH  15  16
ENDBRANCH  14  15
ENDBRANCH  13  14
ENDBRANCH  12  13
ENDBRANCH  11  12
ENDBRANCH  10  11
ENDBRANCH   1  10
TORSDOF 13
ENDMDL
MODEL 7
REMARK VINA RESULT:    -3.700      2.336      5.137
REMARK INTER + INTRA:          -8.157
REMARK INTER:                  -6.539
REMARK INTRA:                  -1.618
REMARK UNBOUND:                -1.645
REMARK SMILES CCCCCCCCCCCCCCC(=O)[O-]
REMARK SMILES IDX 9 1 10 2 11 3 12 4 13 5 14 6 15 7 16 8 17 9 8 10 7 11 6 12
REMARK SMILES IDX 5 13 4 14 3 15 2 16 1 17
REMARK H PARENT
REMARK Flexibility Score: inf
ROOT
ATOM      1  C   UNL     1     -43.023 -49.348  40.761  1.00  0.00     0.000 C 
ENDROOT
BRANCH   1   2
ATOM      2  C   UNL     1     -44.368 -50.081  40.622  1.00  0.00     0.000 C 
BRANCH   2   3
ATOM      3  C   UNL     1     -44.157 -51.518  40.123  1.00  0.00     0.000 C 
BRANCH   3   4
ATOM      4  C   UNL     1     -44.680 -51.733  38.694  1.00  0.00     0.000 C 
BRANCH   4   5
ATOM      5  C   UNL     1     -45.967 -50.939  38.409  1.00  0.00     0.006 C 
BRANCH   5   6
ATOM      6  C   UNL     1     -47.007 -51.777  37.652  1.00  0.00     0.053 C 
BRANCH   6   7
ATOM      7  C   UNL     1     -47.543 -52.893  38.496  1.00  0.00     0.041 C 
ATOM      8  O   UNL     1     -47.558 -54.072  38.053  1.00  0.00    -0.550 OA
ATOM      9  O   UNL     1     -48.053 -52.625  39.760  1.00  0.00    -0.550 OA
ENDBRANCH   6   7
ENDBRANCH   5   6
ENDBRANCH   4   5
ENDBRANCH   3   4
ENDBRANCH   2   3
ENDBRANCH   1   2
BRANCH   1  10
ATOM     10  C   UNL     1     -43.074 -47.908  40.225  1.00  0.00     0.000 C 
BRANCH  10  11
ATOM     11  C   UNL     1     -43.921 -47.782  38.948  1.00  0.00    -0.000 C 
BRANCH  11  12
ATOM     12  C   UNL     1     -43.236 -48.391  37.710  1.00  0.00    -0.000 C 
BRANCH  12  13
ATOM     13  C   UNL     1     -44.097 -48.439  36.435  1.00  0.00    -0.000 C 
BRANCH  13  14
ATOM     14  C   UNL     1     -43.820 -49.679  35.568  1.00  0.00    -0.000 C 
BRANCH  14  15
ATOM     15  C   UNL     1     -43.088 -49.342  34.256  1.00  0.00    -0.000 C 
BRANCH  15  16
ATOM     16  C   UNL     1     -42.479 -47.930  34.192  1.00  0.00    -0.003 C 
ATOM     17  C   UNL     1     -40.965 -47.919  34.405  1.00  0.00     0.004 C 
ENDBRANCH  15  16
ENDBRANCH  14  15
ENDBRANCH  13  14
ENDBRANCH  12  13
ENDBRANCH  11  12
ENDBRANCH  10  11
ENDBRANCH   1  10
TORSDOF 13
ENDMDL
MODEL 8
REMARK VINA RESULT:    -3.681      1.830      4.447
REMARK INTER + INTRA:          -8.123
REMARK INTER:                  -5.934
REMARK INTRA:                  -2.188
REMARK UNBOUND:                -1.645
REMARK SMILES CCCCCCCCCCCCCCC(=O)[O-]
REMARK SMILES IDX 9 1 10 2 11 3 12 4 13 5 14 6 15 7 16 8 17 9 8 10 7 11 6 12
REMARK SMILES IDX 5 13 4 14 3 15 2 16 1 17
REMARK H PARENT
REMARK Flexibility Score: inf
ROOT
ATOM      1  C   UNL     1     -41.780 -49.331  37.741  1.00  0.00     0.000 C 
ENDROOT
BRANCH   1   2
ATOM      2  C   UNL     1     -42.551 -48.044  38.078  1.00  0.00     0.000 C 
BRANCH   2   3
ATOM      3  C   UNL     1     -44.018 -48.358  38.407  1.00  0.00     0.000 C 
BRANCH   3   4
ATOM      4  C   UNL     1     -44.977 -47.979  37.267  1.00  0.00     0.000 C 
BRANCH   4   5
ATOM      5  C   UNL     1     -46.047 -49.055  37.012  1.00  0.00     0.006 C 
BRANCH   5   6
ATOM      6  C   UNL     1     -45.494 -50.475  37.193  1.00  0.00     0.053 C 
BRANCH   6   7
ATOM      7  C   UNL     1     -46.525 -51.408  37.750  1.00  0.00     0.041 C 
ATOM      8  O   UNL     1     -47.320 -52.007  36.978  1.00  0.00    -0.550 OA
ATOM      9  O   UNL     1     -46.627 -51.593  39.123  1.00  0.00    -0.550 OA
ENDBRANCH   6   7
ENDBRANCH   5   6
ENDBRANCH   4   5
ENDBRANCH   3   4
ENDBRANCH   2   3
ENDBRANCH   1   2
BRANCH   1  10
ATOM     10  C   UNL     1     -40.482 -49.059  36.962  1.00  0.00     0.000 C 
BRANCH  10  11
ATOM     11  C   UNL     1     -40.545 -47.755  36.148  1.00  0.00    -0.000 C 
BRANCH  11  12
ATOM     12  C   UNL     1     -40.870 -47.990  34.661  1.00  0.00    -0.000 C 
BRANCH  12  13
ATOM     13  C   UNL     1     -42.330 -47.721  34.254  1.00  0.00    -0.000 C 
BRANCH  13  14
ATOM     14  C   UNL     1     -43.202 -48.988  34.272  1.00  0.00    -0.000 C 
BRANCH  14  15
ATOM     15  C   UNL     1     -42.505 -50.204  33.634  1.00  0.00    -0.000 C 
BRANCH  15  16
ATOM     16  C   UNL     1     -42.322 -51.416  34.567  1.00  0.00    -0.003 C 
ATOM     17  C   UNL     1     -40.880 -51.919  34.620  1.00  0.00     0.004 C 
ENDBRANCH  15  16
ENDBRANCH  14  15
ENDBRANCH  13  14
ENDBRANCH  12  13
ENDBRANCH  11  12
ENDBRANCH  10  11
ENDBRANCH   1  10
TORSDOF 13
ENDMDL
MODEL 9
REMARK VINA RESULT:    -3.616      1.529      2.248
REMARK INTER + INTRA:          -8.008
REMARK INTER:                  -6.145
REMARK INTRA:                  -1.863
REMARK UNBOUND:                -1.645
REMARK SMILES CCCCCCCCCCCCCCC(=O)[O-]
REMARK SMILES IDX 9 1 10 2 11 3 12 4 13 5 14 6 15 7 16 8 17 9 8 10 7 11 6 12
REMARK SMILES IDX 5 13 4 14 3 15 2 16 1 17
REMARK H PARENT
REMARK Flexibility Score: inf
ROOT
ATOM      1  C   UNL     1     -43.100 -48.296  34.842  1.00  0.00     0.000 C 
ENDROOT
BRANCH   1   2
ATOM      2  C   UNL     1     -43.200 -49.818  34.650  1.00  0.00     0.000 C 
BRANCH   2   3
ATOM      3  C   UNL     1     -43.886 -50.477  35.857  1.00  0.00     0.000 C 
BRANCH   3   4
ATOM      4  C   UNL     1     -44.888 -49.542  36.553  1.00  0.00     0.000 C 
BRANCH   4   5
ATOM      5  C   UNL     1     -46.228 -50.234  36.859  1.00  0.00     0.006 C 
BRANCH   5   6
ATOM      6  C   UNL     1     -46.036 -51.568  37.592  1.00  0.00     0.053 C 
BRANCH   6   7
ATOM      7  C   UNL     1     -46.853 -51.638  38.845  1.00  0.00     0.041 C 
ATOM      8  O   UNL     1     -46.805 -50.701  39.686  1.00  0.00    -0.550 OA
ATOM      9  O   UNL     1     -47.646 -52.750  39.098  1.00  0.00    -0.550 OA
ENDBRANCH   6   7
ENDBRANCH   5   6
ENDBRANCH   4   5
ENDBRANCH   3   4
ENDBRANCH   2   3
ENDBRANCH   1   2
BRANCH   1  10
ATOM     10  C   UNL     1     -41.786 -47.714  34.297  1.00  0.00     0.000 C 
BRANCH  10  11
ATOM     11  C   UNL     1     -40.544 -48.395  34.897  1.00  0.00    -0.000 C 
BRANCH  11  12
ATOM     12  C   UNL     1     -40.282 -47.985  36.358  1.00  0.00    -0.000 C 
BRANCH  12  13
ATOM     13  C   UNL     1     -40.664 -49.035  37.418  1.00  0.00    -0.000 C 
BRANCH  13  14
ATOM     14  C   UNL     1     -41.221 -48.412  38.709  1.00  0.00    -0.000 C 
BRANCH  14  15
ATOM     15  C   UNL     1     -42.423 -47.483  38.456  1.00  0.00    -0.000 C 
BRANCH  15  16
ATOM     16  C   UNL     1     -43.554 -47.582  39.497  1.00  0.00    -0.003 C 
ATOM     17  C   UNL     1     -43.704 -48.984  40.088  1.00  0.00     0.004 C 
ENDBRANCH  15  16
ENDBRANCH  14  15
ENDBRANCH  13  14
ENDBRANCH  12  13
ENDBRANCH  11  12
ENDBRANCH  10  11
ENDBRANCH   1  10
TORSDOF 13
ENDMDL
