MODEL 1
REMARK VINA RESULT:    -3.628      0.000      0.000
REMARK INTER + INTRA:          -4.522
REMARK INTER:                  -4.476
REMARK INTRA:                  -0.046
REMARK UNBOUND:                -0.046
REMARK SMILES CCCCCC(=O)[O-]
REMARK SMILES IDX 4 1 5 2 6 3 7 4 8 5 3 6 2 7 1 8
REMARK H PARENT
REMARK Flexibility Score: inf
ROOT
ATOM      1  C   UNL     1       3.823  -5.290  -6.422  1.00  0.00     0.006 C 
ENDROOT
BRANCH   1   2
ATOM      2  C   UNL     1       3.429  -6.448  -5.495  1.00  0.00     0.053 C 
BRANCH   2   3
ATOM      3  C   UNL     1       4.590  -6.925  -4.677  1.00  0.00     0.041 C 
ATOM      4  O   UNL     1       4.490  -7.973  -3.985  1.00  0.00    -0.550 OA
ATOM      5  O   UNL     1       5.792  -6.230  -4.705  1.00  0.00    -0.550 OA
ENDBRANCH   2   3
ENDBRANCH   1   2
BRANCH   1   6
ATOM      6  C   UNL     1       2.609  -4.683  -7.141  1.00  0.00     0.000 C 
BRANCH   6   7
ATOM      7  C   UNL     1       2.806  -3.180  -7.375  1.00  0.00    -0.003 C 
ATOM      8  C   UNL     1       1.635  -2.586  -8.152  1.00  0.00     0.004 C 
ENDBRANCH   6   7
ENDBRANCH   1   6
TORSDOF 4
ENDMDL
MODEL 2
REMARK VINA RESULT:    -3.626      0.108      1.149
REMARK INTER + INTRA:          -4.520
REMARK INTER:                  -4.472
REMARK INTRA:                  -0.047
REMARK UNBOUND:                -0.046
REMARK SMILES CCCCCC(=O)[O-]
REMARK SMILES IDX 4 1 5 2 6 3 7 4 8 5 3 6 2 7 1 8
REMARK H PARENT
REMARK Flexibility Score: inf
ROOT
ATOM      1  C   UNL     1       3.781  -5.256  -6.512  1.00  0.00     0.006 C 
ENDROOT
BRANCH   1   2
ATOM      2  C   UNL     1       3.407  -6.423  -5.588  1.00  0.00     0.053 C 
BRANCH   2   3
ATOM      3  C   UNL     1       4.574  -6.875  -4.765  1.00  0.00     0.041 C 
ATOM      4  O   UNL     1       5.652  -6.223  -4.783  1.00  0.00    -0.550 OA
ATOM      5  O   UNL     1       4.461  -7.998  -3.955  1.00  0.00    -0.550 OA
ENDBRANCH   2   3
ENDBRANCH   1   2
BRANCH   1   6
ATOM      6  C   UNL     1       2.545  -4.591  -7.137  1.00  0.00     0.000 C 
BRANCH   6   7
ATOM      7  C   UNL     1       2.814  -3.114  -7.445  1.00  0.00    -0.003 C 
ATOM      8  C   UNL     1       1.643  -2.485  -8.195  1.00  0.00     0.004 C 
ENDBRANCH   6   7
ENDBRANCH   1   6
TORSDOF 4
ENDMDL
MODEL 3
REMARK VINA RESULT:    -3.515      1.072      1.175
REMARK INTER + INTRA:          -4.383
REMARK INTER:                  -4.316
REMARK INTRA:                  -0.067
REMARK UNBOUND:                -0.046
REMARK SMILES CCCCCC(=O)[O-]
REMARK SMILES IDX 4 1 5 2 6 3 7 4 8 5 3 6 2 7 1 8
REMARK H PARENT
REMARK Flexibility Score: inf
ROOT
ATOM      1  C   UNL     1       4.153  -5.819  -6.132  1.00  0.00     0.006 C 
ENDROOT
BRANCH   1   2
ATOM      2  C   UNL     1       3.722  -6.487  -4.818  1.00  0.00     0.053 C 
BRANCH   2   3
ATOM      3  C   UNL     1       4.464  -7.766  -4.576  1.00  0.00     0.041 C 
ATOM      4  O   UNL     1       4.483  -8.664  -5.460  1.00  0.00    -0.550 OA
ATOM      5  O   UNL     1       5.158  -7.954  -3.388  1.00  0.00    -0.550 OA
ENDBRANCH   2   3
ENDBRANCH   1   2
BRANCH   1   6
ATOM      6  C   UNL     1       2.958  -5.272  -6.925  1.00  0.00     0.000 C 
BRANCH   6   7
ATOM      7  C   UNL     1       3.055  -3.751  -7.085  1.00  0.00    -0.003 C 
ATOM      8  C   UNL     1       1.804  -3.185  -7.752  1.00  0.00     0.004 C 
ENDBRANCH   6   7
ENDBRANCH   1   6
TORSDOF 4
ENDMDL
MODEL 4
REMARK VINA RESULT:    -3.379     12.929     13.882
REMARK INTER + INTRA:          -4.215
REMARK INTER:                  -4.087
REMARK INTRA:                  -0.128
REMARK UNBOUND:                -0.046
REMARK SMILES CCCCCC(=O)[O-]
REMARK SMILES IDX 4 1 5 2 6 3 7 4 8 5 3 6 2 7 1 8
REMARK H PARENT
REMARK Flexibility Score: inf
ROOT
ATOM      1  C   UNL     1       7.443   8.053  -6.795  1.00  0.00     0.006 C 
ENDROOT
BRANCH   1   2
ATOM      2  C   UNL     1       6.719   6.829  -7.375  1.00  0.00     0.053 C 
BRANCH   2   3
ATOM      3  C   UNL     1       5.839   7.200  -8.529  1.00  0.00     0.041 C 
ATOM      4  O   UNL     1       6.157   8.154  -9.287  1.00  0.00    -0.550 OA
ATOM      5  O   UNL     1       4.683   6.473  -8.784  1.00  0.00    -0.550 OA
ENDBRANCH   2   3
ENDBRANCH   1   2
BRANCH   1   6
ATOM      6  C   UNL     1       7.413   8.072  -5.260  1.00  0.00     0.000 C 
BRANCH   6   7
ATOM      7  C   UNL     1       5.989   8.300  -4.741  1.00  0.00    -0.003 C 
ATOM      8  C   UNL     1       5.658   7.344  -3.598  1.00  0.00     0.004 C 
ENDBRANCH   6   7
ENDBRANCH   1   6
TORSDOF 4
ENDMDL
MODEL 5
REMARK VINA RESULT:    -3.373      2.797      4.785
REMARK INTER + INTRA:          -4.208
REMARK INTER:                  -4.114
REMARK INTRA:                  -0.094
REMARK UNBOUND:                -0.046
REMARK SMILES CCCCCC(=O)[O-]
REMARK SMILES IDX 4 1 5 2 6 3 7 4 8 5 3 6 2 7 1 8
REMARK H PARENT
REMARK Flexibility Score: inf
ROOT
ATOM      1  C   UNL     1       4.242  -5.664  -5.674  1.00  0.00     0.006 C 
ENDROOT
BRANCH   1   2
ATOM      2  C   UNL     1       3.266  -5.626  -6.858  1.00  0.00     0.053 C 
BRANCH   2   3
ATOM      3  C   UNL     1       2.828  -4.228  -7.172  1.00  0.00     0.041 C 
ATOM      4  O   UNL     1       3.684  -3.334  -7.408  1.00  0.00    -0.550 OA
ATOM      5  O   UNL     1       1.475  -3.920  -7.234  1.00  0.00    -0.550 OA
ENDBRANCH   2   3
ENDBRANCH   1   2
BRANCH   1   6
ATOM      6  C   UNL     1       3.898  -6.777  -4.673  1.00  0.00     0.000 C 
BRANCH   6   7
ATOM      7  C   UNL     1       5.169  -7.457  -4.150  1.00  0.00    -0.003 C 
ATOM      8  C   UNL     1       6.421  -6.742  -4.649  1.00  0.00     0.004 C 
ENDBRANCH   6   7
ENDBRANCH   1   6
TORSDOF 4
ENDMDL
MODEL 6
REMARK VINA RESULT:    -3.202     11.687     13.075
REMARK INTER + INTRA:          -3.997
REMARK INTER:                  -3.891
REMARK INTRA:                  -0.106
REMARK UNBOUND:                -0.046
REMARK SMILES CCCCCC(=O)[O-]
REMARK SMILES IDX 4 1 5 2 6 3 7 4 8 5 3 6 2 7 1 8
REMARK H PARENT
REMARK Flexibility Score: inf
ROOT
ATOM      1  C   UNL     1      -2.067   6.731  -8.662  1.00  0.00     0.006 C 
ENDROOT
BRANCH   1   2
ATOM      2  C   UNL     1      -0.565   6.591  -8.951  1.00  0.00     0.053 C 
BRANCH   2   3
ATOM      3  C   UNL     1      -0.180   5.167  -9.212  1.00  0.00     0.041 C 
ATOM      4  O   UNL     1       0.780   4.646  -8.586  1.00  0.00    -0.550 OA
ATOM      5  O   UNL     1      -0.902   4.408 -10.125  1.00  0.00    -0.550 OA
ENDBRANCH   2   3
ENDBRANCH   1   2
BRANCH   1   6
ATOM      6  C   UNL     1      -2.357   6.897  -7.163  1.00  0.00     0.000 C 
BRANCH   6   7
ATOM      7  C   UNL     1      -3.846   6.687  -6.867  1.00  0.00    -0.003 C 
ATOM      8  C   UNL     1      -4.571   6.095  -8.073  1.00  0.00     0.004 C 
ENDBRANCH   6   7
ENDBRANCH   1   6
TORSDOF 4
ENDMDL
MODEL 7
REMARK VINA RESULT:    -3.091     11.850     13.220
REMARK INTER + INTRA:          -3.860
REMARK INTER:                  -3.774
REMARK INTRA:                  -0.086
REMARK UNBOUND:                -0.046
REMARK SMILES CCCCCC(=O)[O-]
REMARK SMILES IDX 4 1 5 2 6 3 7 4 8 5 3 6 2 7 1 8
REMARK H PARENT
REMARK Flexibility Score: inf
ROOT
ATOM      1  C   UNL     1       6.461   7.315  -6.863  1.00  0.00     0.006 C 
ENDROOT
BRANCH   1   2
ATOM      2  C   UNL     1       6.112   8.332  -5.768  1.00  0.00     0.053 C 
BRANCH   2   3
ATOM      3  C   UNL     1       6.256   7.745  -4.398  1.00  0.00     0.041 C 
ATOM      4  O   UNL     1       7.384   7.710  -3.839  1.00  0.00    -0.550 OA
ATOM      5  O   UNL     1       5.139   7.265  -3.726  1.00  0.00    -0.550 OA
ENDBRANCH   2   3
ENDBRANCH   1   2
BRANCH   1   6
ATOM      6  C   UNL     1       5.887   7.713  -8.231  1.00  0.00     0.000 C 
BRANCH   6   7
ATOM      7  C   UNL     1       5.652   6.478  -9.108  1.00  0.00    -0.003 C 
ATOM      8  C   UNL     1       6.086   5.202  -8.391  1.00  0.00     0.004 C 
ENDBRANCH   6   7
ENDBRANCH   1   6
TORSDOF 4
ENDMDL
MODEL 8
REMARK VINA RESULT:    -3.082      1.914      2.330
REMARK INTER + INTRA:          -3.848
REMARK INTER:                  -3.747
REMARK INTRA:                  -0.101
REMARK UNBOUND:                -0.046
REMARK SMILES CCCCCC(=O)[O-]
REMARK SMILES IDX 4 1 5 2 6 3 7 4 8 5 3 6 2 7 1 8
REMARK H PARENT
REMARK Flexibility Score: inf
ROOT
ATOM      1  C   UNL     1       3.805  -4.410  -8.073  1.00  0.00     0.006 C 
ENDROOT
BRANCH   1   2
ATOM      2  C   UNL     1       4.444  -5.484  -7.181  1.00  0.00     0.053 C 
BRANCH   2   3
ATOM      3  C   UNL     1       3.442  -6.507  -6.739  1.00  0.00     0.041 C 
ATOM      4  O   UNL     1       3.029  -6.515  -5.550  1.00  0.00    -0.550 OA
ATOM      5  O   UNL     1       2.943  -7.430  -7.649  1.00  0.00    -0.550 OA
ENDBRANCH   2   3
ENDBRANCH   1   2
BRANCH   1   6
ATOM      6  C   UNL     1       2.915  -3.446  -7.275  1.00  0.00     0.000 C 
BRANCH   6   7
ATOM      7  C   UNL     1       2.118  -2.533  -8.213  1.00  0.00    -0.003 C 
ATOM      8  C   UNL     1       0.755  -3.135  -8.543  1.00  0.00     0.004 C 
ENDBRANCH   6   7
ENDBRANCH   1   6
TORSDOF 4
ENDMDL
MODEL 9
REMARK VINA RESULT:    -3.036      2.628      4.390
REMARK INTER + INTRA:          -3.792
REMARK INTER:                  -3.622
REMARK INTRA:                  -0.171
REMARK UNBOUND:                -0.046
REMARK SMILES CCCCCC(=O)[O-]
REMARK SMILES IDX 4 1 5 2 6 3 7 4 8 5 3 6 2 7 1 8
REMARK H PARENT
REMARK Flexibility Score: inf
ROOT
ATOM      1  C   UNL     1       4.120  -5.690  -5.734  1.00  0.00     0.006 C 
ENDROOT
BRANCH   1   2
ATOM      2  C   UNL     1       3.056  -5.604  -6.838  1.00  0.00     0.053 C 
BRANCH   2   3
ATOM      3  C   UNL     1       3.374  -6.510  -7.987  1.00  0.00     0.041 C 
ATOM      4  O   UNL     1       2.466  -6.864  -8.784  1.00  0.00    -0.550 OA
ATOM      5  O   UNL     1       4.679  -6.937  -8.196  1.00  0.00    -0.550 OA
ENDBRANCH   2   3
ENDBRANCH   1   2
BRANCH   1   6
ATOM      6  C   UNL     1       3.790  -6.769  -4.692  1.00  0.00     0.000 C 
BRANCH   6   7
ATOM      7  C   UNL     1       5.071  -7.352  -4.083  1.00  0.00    -0.003 C 
ATOM      8  C   UNL     1       6.312  -6.679  -4.661  1.00  0.00     0.004 C 
ENDBRANCH   6   7
ENDBRANCH   1   6
TORSDOF 4
ENDMDL
