MODEL 1
REMARK VINA RESULT:    -6.443      0.000      0.000
REMARK INTER + INTRA:          -7.844
REMARK INTER:                  -7.574
REMARK INTRA:                  -0.271
REMARK UNBOUND:                -0.271
REMARK SMILES O=c1cc(-c2ccc(O)c(O)c2)oc2cc(O)cc(O)c12
REMARK SMILES IDX 4 1 3 2 2 3 1 4 21 5 19 6 18 7 16 8 15 9 14 10 13 11 5 12
REMARK SMILES IDX 6 13 7 14 8 15 12 16 10 17 9 18 11 20 20 22 17 24
REMARK H PARENT 9 19 11 21 20 23 17 25
REMARK Flexibility Score: inf
ROOT
ATOM      1  C   UNL     1     138.509 135.226 147.110  1.00  0.00     0.138 A 
ATOM      2  C   UNL     1     139.908 135.244 147.189  1.00  0.00     0.100 A 
ATOM      3  C   UNL     1     140.586 136.463 147.155  1.00  0.00     0.197 A 
ATOM      4  O   UNL     1     141.838 136.449 147.283  1.00  0.00    -0.289 OA
ATOM      5  C   UNL     1     139.860 137.668 147.003  1.00  0.00     0.107 A 
ATOM      6  C   UNL     1     140.446 138.968 146.920  1.00  0.00     0.134 A 
ATOM      7  C   UNL     1     139.618 140.096 146.869  1.00  0.00     0.093 A 
ATOM      8  C   UNL     1     138.230 139.972 146.841  1.00  0.00     0.123 A 
ATOM      9  C   UNL     1     137.647 138.704 146.870  1.00  0.00     0.094 A 
ATOM     10  C   UNL     1     138.444 137.561 146.956  1.00  0.00     0.146 A 
ATOM     11  O   UNL     1     137.848 136.374 147.000  1.00  0.00    -0.456 OA
ENDROOT
BRANCH   1  12
ATOM     12  C   UNL     1     137.737 133.958 147.139  1.00  0.00     0.021 A 
ATOM     13  C   UNL     1     137.769 133.046 146.067  1.00  0.00     0.016 A 
ATOM     14  C   UNL     1     137.040 131.856 146.128  1.00  0.00     0.051 A 
ATOM     15  C   UNL     1     136.274 131.550 147.256  1.00  0.00     0.157 A 
ATOM     16  C   UNL     1     136.976 133.638 148.278  1.00  0.00     0.062 A 
ATOM     17  C   UNL     1     136.243 132.444 148.339  1.00  0.00     0.158 A 
BRANCH  15  18
ATOM     18  O   UNL     1     135.557 130.355 147.287  1.00  0.00    -0.504 OA
ATOM     19  H   UNL     1     134.903 130.138 148.029  1.00  0.00     0.293 HD
ENDBRANCH  15  18
BRANCH  17  20
ATOM     20  O   UNL     1     135.485 132.144 149.470  1.00  0.00    -0.504 OA
ATOM     21  H   UNL     1     134.523 131.836 149.398  1.00  0.00     0.293 HD
ENDBRANCH  17  20
ENDBRANCH   1  12
BRANCH   6  22
ATOM     22  O   UNL     1     141.823 139.204 146.860  1.00  0.00    -0.507 OA
ATOM     23  H   UNL     1     142.526 138.656 147.330  1.00  0.00     0.293 HD
ENDBRANCH   6  22
BRANCH   8  24
ATOM     24  O   UNL     1     137.438 141.116 146.774  1.00  0.00    -0.508 OA
ATOM     25  H   UNL     1     136.502 141.091 146.385  1.00  0.00     0.293 HD
ENDBRANCH   8  24
TORSDOF 5
ENDMDL
MODEL 2
REMARK VINA RESULT:    -6.296      1.448      1.499
REMARK INTER + INTRA:          -7.671
REMARK INTER:                  -7.396
REMARK INTRA:                  -0.275
REMARK UNBOUND:                -0.271
REMARK SMILES O=c1cc(-c2ccc(O)c(O)c2)oc2cc(O)cc(O)c12
REMARK SMILES IDX 4 1 3 2 2 3 1 4 21 5 19 6 18 7 16 8 15 9 14 10 13 11 5 12
REMARK SMILES IDX 6 13 7 14 8 15 12 16 10 17 9 18 11 20 20 22 17 24
REMARK H PARENT 9 19 11 21 20 23 17 25
REMARK Flexibility Score: inf
ROOT
ATOM      1  C   UNL     1     139.009 134.844 146.030  1.00  0.00     0.138 A 
ATOM      2  C   UNL     1     140.334 134.649 145.615  1.00  0.00     0.100 A 
ATOM      3  C   UNL     1     141.139 135.753 145.330  1.00  0.00     0.197 A 
ATOM      4  O   UNL     1     142.338 135.546 145.013  1.00  0.00    -0.289 OA
ATOM      5  C   UNL     1     140.601 137.059 145.426  1.00  0.00     0.107 A 
ATOM      6  C   UNL     1     141.316 138.259 145.127  1.00  0.00     0.134 A 
ATOM      7  C   UNL     1     140.709 139.499 145.355  1.00  0.00     0.093 A 
ATOM      8  C   UNL     1     139.395 139.586 145.815  1.00  0.00     0.123 A 
ATOM      9  C   UNL     1     138.669 138.420 146.062  1.00  0.00     0.094 A 
ATOM     10  C   UNL     1     139.259 137.167 145.878  1.00  0.00     0.146 A 
ATOM     11  O   UNL     1     138.539 136.082 146.143  1.00  0.00    -0.456 OA
ENDROOT
BRANCH   1  12
ATOM     12  C   UNL     1     138.109 133.707 146.343  1.00  0.00     0.021 A 
ATOM     13  C   UNL     1     137.747 132.758 145.369  1.00  0.00     0.016 A 
ATOM     14  C   UNL     1     136.906 131.691 145.695  1.00  0.00     0.051 A 
ATOM     15  C   UNL     1     136.417 131.548 146.997  1.00  0.00     0.157 A 
ATOM     16  C   UNL     1     137.625 133.549 147.655  1.00  0.00     0.062 A 
ATOM     17  C   UNL     1     136.780 132.480 147.983  1.00  0.00     0.158 A 
BRANCH  15  18
ATOM     18  O   UNL     1     135.578 130.473 147.293  1.00  0.00    -0.504 OA
ATOM     19  H   UNL     1     134.587 130.594 147.460  1.00  0.00     0.293 HD
ENDBRANCH  15  18
BRANCH  17  20
ATOM     20  O   UNL     1     136.300 132.340 149.285  1.00  0.00    -0.504 OA
ATOM     21  H   UNL     1     136.893 132.010 150.037  1.00  0.00     0.293 HD
ENDBRANCH  17  20
ENDBRANCH   1  12
BRANCH   6  22
ATOM     22  O   UNL     1     142.606 138.288 144.587  1.00  0.00    -0.507 OA
ATOM     23  H   UNL     1     142.918 138.916 143.863  1.00  0.00     0.293 HD
ENDBRANCH   6  22
BRANCH   8  24
ATOM     24  O   UNL     1     138.818 140.837 146.014  1.00  0.00    -0.508 OA
ATOM     25  H   UNL     1     139.218 141.678 145.612  1.00  0.00     0.293 HD
ENDBRANCH   8  24
TORSDOF 5
ENDMDL
MODEL 3
REMARK VINA RESULT:    -6.235      2.325      3.351
REMARK INTER + INTRA:          -7.600
REMARK INTER:                  -7.332
REMARK INTRA:                  -0.268
REMARK UNBOUND:                -0.271
REMARK SMILES O=c1cc(-c2ccc(O)c(O)c2)oc2cc(O)cc(O)c12
REMARK SMILES IDX 4 1 3 2 2 3 1 4 21 5 19 6 18 7 16 8 15 9 14 10 13 11 5 12
REMARK SMILES IDX 6 13 7 14 8 15 12 16 10 17 9 18 11 20 20 22 17 24
REMARK H PARENT 9 19 11 21 20 23 17 25
REMARK Flexibility Score: inf
ROOT
ATOM      1  C   UNL     1     137.618 133.968 147.298  1.00  0.00     0.138 A 
ATOM      2  C   UNL     1     138.474 132.995 146.765  1.00  0.00     0.100 A 
ATOM      3  C   UNL     1     139.525 133.380 145.931  1.00  0.00     0.197 A 
ATOM      4  O   UNL     1     140.307 132.487 145.513  1.00  0.00    -0.289 OA
ATOM      5  C   UNL     1     139.697 134.745 145.602  1.00  0.00     0.107 A 
ATOM      6  C   UNL     1     140.712 135.252 144.734  1.00  0.00     0.134 A 
ATOM      7  C   UNL     1     140.844 136.635 144.561  1.00  0.00     0.093 A 
ATOM      8  C   UNL     1     139.966 137.527 145.176  1.00  0.00     0.123 A 
ATOM      9  C   UNL     1     138.938 137.040 145.985  1.00  0.00     0.094 A 
ATOM     10  C   UNL     1     138.802 135.667 146.206  1.00  0.00     0.146 A 
ATOM     11  O   UNL     1     137.821 135.247 146.999  1.00  0.00    -0.456 OA
ENDROOT
BRANCH   1  12
ATOM     12  C   UNL     1     136.483 133.615 148.188  1.00  0.00     0.021 A 
ATOM     13  C   UNL     1     135.160 133.983 147.881  1.00  0.00     0.016 A 
ATOM     14  C   UNL     1     134.110 133.628 148.733  1.00  0.00     0.051 A 
ATOM     15  C   UNL     1     134.359 132.896 149.897  1.00  0.00     0.157 A 
ATOM     16  C   UNL     1     136.726 132.866 149.354  1.00  0.00     0.062 A 
ATOM     17  C   UNL     1     135.673 132.510 150.209  1.00  0.00     0.158 A 
BRANCH  15  18
ATOM     18  O   UNL     1     133.291 132.557 150.728  1.00  0.00    -0.504 OA
ATOM     19  H   UNL     1     133.428 132.106 151.624  1.00  0.00     0.293 HD
ENDBRANCH  15  18
BRANCH  17  20
ATOM     20  O   UNL     1     135.929 131.776 151.366  1.00  0.00    -0.504 OA
ATOM     21  H   UNL     1     135.247 131.707 152.113  1.00  0.00     0.293 HD
ENDBRANCH  17  20
ENDBRANCH   1  12
BRANCH   6  22
ATOM     22  O   UNL     1     141.594 134.447 144.006  1.00  0.00    -0.507 OA
ATOM     23  H   UNL     1     141.812 133.486 144.219  1.00  0.00     0.293 HD
ENDBRANCH   6  22
BRANCH   8  24
ATOM     24  O   UNL     1     140.118 138.895 144.968  1.00  0.00    -0.508 OA
ATOM     25  H   UNL     1     139.361 139.464 144.605  1.00  0.00     0.293 HD
ENDBRANCH   8  24
TORSDOF 5
ENDMDL
MODEL 4
REMARK VINA RESULT:    -6.185      3.674      5.431
REMARK INTER + INTRA:          -7.540
REMARK INTER:                  -7.267
REMARK INTRA:                  -0.274
REMARK UNBOUND:                -0.271
REMARK SMILES O=c1cc(-c2ccc(O)c(O)c2)oc2cc(O)cc(O)c12
REMARK SMILES IDX 4 1 3 2 2 3 1 4 21 5 19 6 18 7 16 8 15 9 14 10 13 11 5 12
REMARK SMILES IDX 6 13 7 14 8 15 12 16 10 17 9 18 11 20 20 22 17 24
REMARK H PARENT 9 19 11 21 20 23 17 25
REMARK Flexibility Score: inf
ROOT
ATOM      1  C   UNL     1     136.186 132.883 148.133  1.00  0.00     0.138 A 
ATOM      2  C   UNL     1     135.975 132.308 146.872  1.00  0.00     0.100 A 
ATOM      3  C   UNL     1     137.005 132.310 145.931  1.00  0.00     0.197 A 
ATOM      4  O   UNL     1     136.802 131.738 144.829  1.00  0.00    -0.289 OA
ATOM      5  C   UNL     1     138.241 132.924 146.242  1.00  0.00     0.107 A 
ATOM      6  C   UNL     1     139.352 133.018 145.350  1.00  0.00     0.134 A 
ATOM      7  C   UNL     1     140.559 133.562 145.805  1.00  0.00     0.093 A 
ATOM      8  C   UNL     1     140.681 134.068 147.099  1.00  0.00     0.123 A 
ATOM      9  C   UNL     1     139.586 134.028 147.964  1.00  0.00     0.094 A 
ATOM     10  C   UNL     1     138.379 133.459 147.551  1.00  0.00     0.146 A 
ATOM     11  O   UNL     1     137.367 133.425 148.412  1.00  0.00    -0.456 OA
ENDROOT
BRANCH   1  12
ATOM     12  C   UNL     1     135.125 132.911 149.171  1.00  0.00     0.021 A 
ATOM     13  C   UNL     1     133.924 133.622 148.984  1.00  0.00     0.016 A 
ATOM     14  C   UNL     1     132.939 133.622 149.975  1.00  0.00     0.051 A 
ATOM     15  C   UNL     1     133.128 132.910 151.163  1.00  0.00     0.157 A 
ATOM     16  C   UNL     1     135.304 132.185 150.363  1.00  0.00     0.062 A 
ATOM     17  C   UNL     1     134.316 132.186 151.358  1.00  0.00     0.158 A 
BRANCH  15  18
ATOM     18  O   UNL     1     132.127 132.930 152.134  1.00  0.00    -0.504 OA
ATOM     19  H   UNL     1     131.551 132.120 152.329  1.00  0.00     0.293 HD
ENDBRANCH  15  18
BRANCH  17  20
ATOM     20  O   UNL     1     134.510 131.469 152.538  1.00  0.00    -0.504 OA
ATOM     21  H   UNL     1     133.893 131.579 153.334  1.00  0.00     0.293 HD
ENDBRANCH  17  20
ENDBRANCH   1  12
BRANCH   6  22
ATOM     22  O   UNL     1     139.317 132.616 144.010  1.00  0.00    -0.507 OA
ATOM     23  H   UNL     1     140.030 132.073 143.549  1.00  0.00     0.293 HD
ENDBRANCH   6  22
BRANCH   8  24
ATOM     24  O   UNL     1     141.892 134.617 147.512  1.00  0.00    -0.508 OA
ATOM     25  H   UNL     1     142.628 134.042 147.908  1.00  0.00     0.293 HD
ENDBRANCH   8  24
TORSDOF 5
ENDMDL
MODEL 5
REMARK VINA RESULT:    -6.106      2.497      3.803
REMARK INTER + INTRA:          -7.447
REMARK INTER:                  -7.140
REMARK INTRA:                  -0.308
REMARK UNBOUND:                -0.271
REMARK SMILES O=c1cc(-c2ccc(O)c(O)c2)oc2cc(O)cc(O)c12
REMARK SMILES IDX 4 1 3 2 2 3 1 4 21 5 19 6 18 7 16 8 15 9 14 10 13 11 5 12
REMARK SMILES IDX 6 13 7 14 8 15 12 16 10 17 9 18 11 20 20 22 17 24
REMARK H PARENT 9 19 11 21 20 23 17 25
REMARK Flexibility Score: inf
ROOT
ATOM      1  C   UNL     1     140.081 136.107 147.089  1.00  0.00     0.138 A 
ATOM      2  C   UNL     1     139.023 136.607 146.317  1.00  0.00     0.100 A 
ATOM      3  C   UNL     1     139.142 137.856 145.707  1.00  0.00     0.197 A 
ATOM      4  O   UNL     1     138.198 138.252 144.977  1.00  0.00    -0.289 OA
ATOM      5  C   UNL     1     140.315 138.625 145.902  1.00  0.00     0.107 A 
ATOM      6  C   UNL     1     140.535 139.927 145.359  1.00  0.00     0.134 A 
ATOM      7  C   UNL     1     141.776 140.549 145.540  1.00  0.00     0.093 A 
ATOM      8  C   UNL     1     142.784 139.945 146.289  1.00  0.00     0.123 A 
ATOM      9  C   UNL     1     142.562 138.694 146.868  1.00  0.00     0.094 A 
ATOM     10  C   UNL     1     141.347 138.032 146.677  1.00  0.00     0.146 A 
ATOM     11  O   UNL     1     141.184 136.835 147.230  1.00  0.00    -0.456 OA
ENDROOT
BRANCH   1  12
ATOM     12  C   UNL     1     140.006 134.785 147.762  1.00  0.00     0.021 A 
ATOM     13  C   UNL     1     139.234 133.731 147.239  1.00  0.00     0.016 A 
ATOM     14  C   UNL     1     139.191 132.494 147.888  1.00  0.00     0.051 A 
ATOM     15  C   UNL     1     139.920 132.285 149.062  1.00  0.00     0.157 A 
ATOM     16  C   UNL     1     140.748 134.564 148.936  1.00  0.00     0.062 A 
ATOM     17  C   UNL     1     140.705 133.324 149.589  1.00  0.00     0.158 A 
BRANCH  15  18
ATOM     18  O   UNL     1     139.856 131.041 149.689  1.00  0.00    -0.504 OA
ATOM     19  H   UNL     1     140.479 130.281 149.442  1.00  0.00     0.293 HD
ENDBRANCH  15  18
BRANCH  17  20
ATOM     20  O   UNL     1     141.438 133.122 150.758  1.00  0.00    -0.504 OA
ATOM     21  H   UNL     1     142.242 133.694 150.986  1.00  0.00     0.293 HD
ENDBRANCH  17  20
ENDBRANCH   1  12
BRANCH   6  22
ATOM     22  O   UNL     1     139.569 140.658 144.660  1.00  0.00    -0.507 OA
ATOM     23  H   UNL     1     139.587 140.844 143.670  1.00  0.00     0.293 HD
ENDBRANCH   6  22
BRANCH   8  24
ATOM     24  O   UNL     1     144.001 140.600 146.461  1.00  0.00    -0.508 OA
ATOM     25  H   UNL     1     144.595 140.416 147.263  1.00  0.00     0.293 HD
ENDBRANCH   8  24
TORSDOF 5
ENDMDL
MODEL 6
REMARK VINA RESULT:    -6.034      1.742      1.906
REMARK INTER + INTRA:          -7.363
REMARK INTER:                  -7.084
REMARK INTRA:                  -0.279
REMARK UNBOUND:                -0.271
REMARK SMILES O=c1cc(-c2ccc(O)c(O)c2)oc2cc(O)cc(O)c12
REMARK SMILES IDX 4 1 3 2 2 3 1 4 21 5 19 6 18 7 16 8 15 9 14 10 13 11 5 12
REMARK SMILES IDX 6 13 7 14 8 15 12 16 10 17 9 18 11 20 20 22 17 24
REMARK H PARENT 9 19 11 21 20 23 17 25
REMARK Flexibility Score: inf
ROOT
ATOM      1  C   UNL     1     138.470 135.557 147.001  1.00  0.00     0.138 A 
ATOM      2  C   UNL     1     138.877 135.921 145.710  1.00  0.00     0.100 A 
ATOM      3  C   UNL     1     139.127 137.262 145.417  1.00  0.00     0.197 A 
ATOM      4  O   UNL     1     139.543 137.549 144.265  1.00  0.00    -0.289 OA
ATOM      5  C   UNL     1     138.934 138.248 146.414  1.00  0.00     0.107 A 
ATOM      6  C   UNL     1     139.124 139.650 146.221  1.00  0.00     0.134 A 
ATOM      7  C   UNL     1     138.997 140.520 147.310  1.00  0.00     0.093 A 
ATOM      8  C   UNL     1     138.632 140.050 148.571  1.00  0.00     0.123 A 
ATOM      9  C   UNL     1     138.393 138.687 148.760  1.00  0.00     0.094 A 
ATOM     10  C   UNL     1     138.546 137.789 147.701  1.00  0.00     0.146 A 
ATOM     11  O   UNL     1     138.327 136.498 147.928  1.00  0.00    -0.456 OA
ENDROOT
BRANCH   1  12
ATOM     12  C   UNL     1     138.188 134.146 147.367  1.00  0.00     0.021 A 
ATOM     13  C   UNL     1     139.171 133.143 147.264  1.00  0.00     0.016 A 
ATOM     14  C   UNL     1     138.880 131.825 147.625  1.00  0.00     0.051 A 
ATOM     15  C   UNL     1     137.610 131.485 148.101  1.00  0.00     0.157 A 
ATOM     16  C   UNL     1     136.917 133.800 147.860  1.00  0.00     0.062 A 
ATOM     17  C   UNL     1     136.623 132.477 148.222  1.00  0.00     0.158 A 
BRANCH  15  18
ATOM     18  O   UNL     1     137.349 130.161 148.453  1.00  0.00    -0.504 OA
ATOM     19  H   UNL     1     137.584 129.790 149.365  1.00  0.00     0.293 HD
ENDBRANCH  15  18
BRANCH  17  20
ATOM     20  O   UNL     1     135.356 132.147 148.700  1.00  0.00    -0.504 OA
ATOM     21  H   UNL     1     134.994 131.203 148.635  1.00  0.00     0.293 HD
ENDBRANCH  17  20
ENDBRANCH   1  12
BRANCH   6  22
ATOM     22  O   UNL     1     139.414 140.239 144.985  1.00  0.00    -0.507 OA
ATOM     23  H   UNL     1     140.292 140.668 144.739  1.00  0.00     0.293 HD
ENDBRANCH   6  22
BRANCH   8  24
ATOM     24  O   UNL     1     138.499 140.946 149.628  1.00  0.00    -0.508 OA
ATOM     25  H   UNL     1     138.984 141.837 149.633  1.00  0.00     0.293 HD
ENDBRANCH   8  24
TORSDOF 5
ENDMDL
MODEL 7
REMARK VINA RESULT:    -5.985      1.770      2.481
REMARK INTER + INTRA:          -7.306
REMARK INTER:                  -7.042
REMARK INTRA:                  -0.264
REMARK UNBOUND:                -0.271
REMARK SMILES O=c1cc(-c2ccc(O)c(O)c2)oc2cc(O)cc(O)c12
REMARK SMILES IDX 4 1 3 2 2 3 1 4 21 5 19 6 18 7 16 8 15 9 14 10 13 11 5 12
REMARK SMILES IDX 6 13 7 14 8 15 12 16 10 17 9 18 11 20 20 22 17 24
REMARK H PARENT 9 19 11 21 20 23 17 25
REMARK Flexibility Score: inf
ROOT
ATOM      1  C   UNL     1     138.837 134.701 147.037  1.00  0.00     0.138 A 
ATOM      2  C   UNL     1     139.996 134.089 146.540  1.00  0.00     0.100 A 
ATOM      3  C   UNL     1     140.909 134.837 145.796  1.00  0.00     0.197 A 
ATOM      4  O   UNL     1     141.965 134.272 145.412  1.00  0.00    -0.289 OA
ATOM      5  C   UNL     1     140.641 136.199 145.518  1.00  0.00     0.107 A 
ATOM      6  C   UNL     1     141.482 137.052 144.741  1.00  0.00     0.134 A 
ATOM      7  C   UNL     1     141.160 138.409 144.616  1.00  0.00     0.093 A 
ATOM      8  C   UNL     1     140.002 138.933 145.190  1.00  0.00     0.123 A 
ATOM      9  C   UNL     1     139.147 138.097 145.909  1.00  0.00     0.094 A 
ATOM     10  C   UNL     1     139.457 136.746 146.081  1.00  0.00     0.146 A 
ATOM     11  O   UNL     1     138.625 135.989 146.788  1.00  0.00    -0.456 OA
ENDROOT
BRANCH   1  12
ATOM     12  C   UNL     1     137.832 133.952 147.832  1.00  0.00     0.021 A 
ATOM     13  C   UNL     1     137.515 134.313 149.155  1.00  0.00     0.016 A 
ATOM     14  C   UNL     1     136.557 133.596 149.875  1.00  0.00     0.051 A 
ATOM     15  C   UNL     1     135.895 132.513 149.290  1.00  0.00     0.157 A 
ATOM     16  C   UNL     1     137.152 132.870 147.244  1.00  0.00     0.062 A 
ATOM     17  C   UNL     1     136.191 132.148 147.966  1.00  0.00     0.158 A 
BRANCH  15  18
ATOM     18  O   UNL     1     134.944 131.815 150.035  1.00  0.00    -0.504 OA
ATOM     19  H   UNL     1     135.103 130.870 150.360  1.00  0.00     0.293 HD
ENDBRANCH  15  18
BRANCH  17  20
ATOM     20  O   UNL     1     135.531 131.072 147.374  1.00  0.00    -0.504 OA
ATOM     21  H   UNL     1     135.752 130.767 146.434  1.00  0.00     0.293 HD
ENDBRANCH  17  20
ENDBRANCH   1  12
BRANCH   6  22
ATOM     22  O   UNL     1     142.621 136.618 144.056  1.00  0.00    -0.507 OA
ATOM     23  H   UNL     1     142.947 135.665 144.019  1.00  0.00     0.293 HD
ENDBRANCH   6  22
BRANCH   8  24
ATOM     24  O   UNL     1     139.706 140.284 145.031  1.00  0.00    -0.508 OA
ATOM     25  H   UNL     1     140.063 140.818 144.246  1.00  0.00     0.293 HD
ENDBRANCH   8  24
TORSDOF 5
ENDMDL
MODEL 8
REMARK VINA RESULT:    -5.976      8.445     10.178
REMARK INTER + INTRA:          -7.295
REMARK INTER:                  -7.031
REMARK INTRA:                  -0.264
REMARK UNBOUND:                -0.271
REMARK SMILES O=c1cc(-c2ccc(O)c(O)c2)oc2cc(O)cc(O)c12
REMARK SMILES IDX 4 1 3 2 2 3 1 4 21 5 19 6 18 7 16 8 15 9 14 10 13 11 5 12
REMARK SMILES IDX 6 13 7 14 8 15 12 16 10 17 9 18 11 20 20 22 17 24
REMARK H PARENT 9 19 11 21 20 23 17 25
REMARK Flexibility Score: inf
ROOT
ATOM      1  C   UNL     1     132.167 135.881 153.959  1.00  0.00     0.138 A 
ATOM      2  C   UNL     1     130.787 135.978 154.184  1.00  0.00     0.100 A 
ATOM      3  C   UNL     1     130.287 137.009 154.981  1.00  0.00     0.197 A 
ATOM      4  O   UNL     1     129.040 137.100 155.119  1.00  0.00    -0.289 OA
ATOM      5  C   UNL     1     131.180 137.927 155.585  1.00  0.00     0.107 A 
ATOM      6  C   UNL     1     130.789 138.998 156.445  1.00  0.00     0.134 A 
ATOM      7  C   UNL     1     131.754 139.901 156.904  1.00  0.00     0.093 A 
ATOM      8  C   UNL     1     133.102 139.743 156.584  1.00  0.00     0.123 A 
ATOM      9  C   UNL     1     133.502 138.670 155.785  1.00  0.00     0.094 A 
ATOM     10  C   UNL     1     132.559 137.772 155.283  1.00  0.00     0.146 A 
ATOM     11  O   UNL     1     132.981 136.775 154.511  1.00  0.00    -0.456 OA
ENDROOT
BRANCH   1  12
ATOM     12  C   UNL     1     132.752 134.804 153.122  1.00  0.00     0.021 A 
ATOM     13  C   UNL     1     133.094 133.549 153.662  1.00  0.00     0.016 A 
ATOM     14  C   UNL     1     133.634 132.551 152.848  1.00  0.00     0.051 A 
ATOM     15  C   UNL     1     133.837 132.780 151.484  1.00  0.00     0.157 A 
ATOM     16  C   UNL     1     132.945 135.024 151.746  1.00  0.00     0.062 A 
ATOM     17  C   UNL     1     133.488 134.023 150.929  1.00  0.00     0.158 A 
BRANCH  15  18
ATOM     18  O   UNL     1     134.379 131.764 150.697  1.00  0.00    -0.504 OA
ATOM     19  H   UNL     1     134.592 131.899 149.717  1.00  0.00     0.293 HD
ENDBRANCH  15  18
BRANCH  17  20
ATOM     20  O   UNL     1     133.683 134.258 149.568  1.00  0.00    -0.504 OA
ATOM     21  H   UNL     1     132.922 134.547 148.965  1.00  0.00     0.293 HD
ENDBRANCH  17  20
ENDBRANCH   1  12
BRANCH   6  22
ATOM     22  O   UNL     1     129.480 139.204 156.894  1.00  0.00    -0.507 OA
ATOM     23  H   UNL     1     129.229 139.582 157.794  1.00  0.00     0.293 HD
ENDBRANCH   6  22
BRANCH   8  24
ATOM     24  O   UNL     1     134.037 140.652 157.072  1.00  0.00    -0.508 OA
ATOM     25  H   UNL     1     134.933 140.348 157.436  1.00  0.00     0.293 HD
ENDBRANCH   8  24
TORSDOF 5
ENDMDL
MODEL 9
REMARK VINA RESULT:    -5.915      1.509      2.634
REMARK INTER + INTRA:          -7.223
REMARK INTER:                  -6.933
REMARK INTRA:                  -0.290
REMARK UNBOUND:                -0.271
REMARK SMILES O=c1cc(-c2ccc(O)c(O)c2)oc2cc(O)cc(O)c12
REMARK SMILES IDX 4 1 3 2 2 3 1 4 21 5 19 6 18 7 16 8 15 9 14 10 13 11 5 12
REMARK SMILES IDX 6 13 7 14 8 15 12 16 10 17 9 18 11 20 20 22 17 24
REMARK H PARENT 9 19 11 21 20 23 17 25
REMARK Flexibility Score: inf
ROOT
ATOM      1  C   UNL     1     138.423 135.174 146.912  1.00  0.00     0.138 A 
ATOM      2  C   UNL     1     138.073 136.279 147.699  1.00  0.00     0.100 A 
ATOM      3  C   UNL     1     138.806 137.463 147.593  1.00  0.00     0.197 A 
ATOM      4  O   UNL     1     138.433 138.453 148.273  1.00  0.00    -0.289 OA
ATOM      5  C   UNL     1     139.917 137.526 146.719  1.00  0.00     0.107 A 
ATOM      6  C   UNL     1     140.759 138.667 146.553  1.00  0.00     0.134 A 
ATOM      7  C   UNL     1     141.770 138.644 145.585  1.00  0.00     0.093 A 
ATOM      8  C   UNL     1     142.008 137.505 144.817  1.00  0.00     0.123 A 
ATOM      9  C   UNL     1     141.224 136.365 145.007  1.00  0.00     0.094 A 
ATOM     10  C   UNL     1     140.185 136.369 145.940  1.00  0.00     0.146 A 
ATOM     11  O   UNL     1     139.451 135.270 146.076  1.00  0.00    -0.456 OA
ENDROOT
BRANCH   1  12
ATOM     12  C   UNL     1     137.680 133.890 146.986  1.00  0.00     0.021 A 
ATOM     13  C   UNL     1     137.748 132.934 145.955  1.00  0.00     0.016 A 
ATOM     14  C   UNL     1     137.046 131.731 146.057  1.00  0.00     0.051 A 
ATOM     15  C   UNL     1     136.272 131.456 147.187  1.00  0.00     0.157 A 
ATOM     16  C   UNL     1     136.910 133.602 148.128  1.00  0.00     0.062 A 
ATOM     17  C   UNL     1     136.204 132.395 148.230  1.00  0.00     0.158 A 
BRANCH  15  18
ATOM     18  O   UNL     1     135.581 130.246 147.260  1.00  0.00    -0.504 OA
ATOM     19  H   UNL     1     136.046 129.353 147.148  1.00  0.00     0.293 HD
ENDBRANCH  15  18
BRANCH  17  20
ATOM     20  O   UNL     1     135.438 132.125 149.363  1.00  0.00    -0.504 OA
ATOM     21  H   UNL     1     134.430 132.033 149.313  1.00  0.00     0.293 HD
ENDBRANCH  17  20
ENDBRANCH   1  12
BRANCH   6  22
ATOM     22  O   UNL     1     140.662 139.831 147.323  1.00  0.00    -0.507 OA
ATOM     23  H   UNL     1     141.245 140.647 147.217  1.00  0.00     0.293 HD
ENDBRANCH   6  22
BRANCH   8  24
ATOM     24  O   UNL     1     143.033 137.512 143.875  1.00  0.00    -0.508 OA
ATOM     25  H   UNL     1     143.980 137.241 144.118  1.00  0.00     0.293 HD
ENDBRANCH   8  24
TORSDOF 5
ENDMDL
