MODEL 1
REMARK VINA RESULT:    -3.265      0.000      0.000
REMARK INTER + INTRA:          -3.938
REMARK INTER:                  -3.838
REMARK INTRA:                  -0.100
REMARK UNBOUND:                -0.100
REMARK SMILES CCCCC(=O)[O-]
REMARK SMILES IDX 4 1 5 2 6 3 7 4 3 5 2 6 1 7
REMARK H PARENT
REMARK Flexibility Score: inf
ROOT
ATOM      1  C   UNL     1     -36.150  82.242 -17.528  1.00  0.00     0.053 C 
ENDROOT
BRANCH   1   2
ATOM      2  C   UNL     1     -35.430  81.534 -18.635  1.00  0.00     0.041 C 
ATOM      3  O   UNL     1     -34.194  81.707 -18.797  1.00  0.00    -0.550 OA
ATOM      4  O   UNL     1     -36.118  80.659 -19.466  1.00  0.00    -0.550 OA
ENDBRANCH   1   2
BRANCH   1   5
ATOM      5  C   UNL     1     -36.773  83.560 -18.006  1.00  0.00     0.006 C 
BRANCH   5   6
ATOM      6  C   UNL     1     -36.084  84.786 -17.390  1.00  0.00    -0.003 C 
ATOM      7  C   UNL     1     -34.873  85.209 -18.216  1.00  0.00     0.004 C 
ENDBRANCH   5   6
ENDBRANCH   1   5
TORSDOF 3
ENDMDL
MODEL 2
REMARK VINA RESULT:    -3.242      0.999      1.539
REMARK INTER + INTRA:          -3.911
REMARK INTER:                  -3.882
REMARK INTRA:                  -0.029
REMARK UNBOUND:                -0.100
REMARK SMILES CCCCC(=O)[O-]
REMARK SMILES IDX 4 1 5 2 6 3 7 4 3 5 2 6 1 7
REMARK H PARENT
REMARK Flexibility Score: inf
ROOT
ATOM      1  C   UNL     1     -36.313  82.350 -17.863  1.00  0.00     0.053 C 
ENDROOT
BRANCH   1   2
ATOM      2  C   UNL     1     -36.760  81.485 -19.002  1.00  0.00     0.041 C 
ATOM      3  O   UNL     1     -37.919  81.614 -19.476  1.00  0.00    -0.550 OA
ATOM      4  O   UNL     1     -35.887  80.561 -19.559  1.00  0.00    -0.550 OA
ENDBRANCH   1   2
BRANCH   1   5
ATOM      5  C   UNL     1     -36.847  83.782 -17.992  1.00  0.00     0.006 C 
BRANCH   5   6
ATOM      6  C   UNL     1     -35.915  84.812 -17.338  1.00  0.00    -0.003 C 
ATOM      7  C   UNL     1     -34.779  85.201 -18.280  1.00  0.00     0.004 C 
ENDBRANCH   5   6
ENDBRANCH   1   5
TORSDOF 3
ENDMDL
MODEL 3
REMARK VINA RESULT:    -3.241     17.276     18.809
REMARK INTER + INTRA:          -3.910
REMARK INTER:                  -3.877
REMARK INTRA:                  -0.034
REMARK UNBOUND:                -0.100
REMARK SMILES CCCCC(=O)[O-]
REMARK SMILES IDX 4 1 5 2 6 3 7 4 3 5 2 6 1 7
REMARK H PARENT
REMARK Flexibility Score: inf
ROOT
ATOM      1  C   UNL     1     -25.652  94.826 -27.844  1.00  0.00     0.053 C 
ENDROOT
BRANCH   1   2
ATOM      2  C   UNL     1     -26.632  94.869 -26.712  1.00  0.00     0.041 C 
ATOM      3  O   UNL     1     -27.745  94.290 -26.818  1.00  0.00    -0.550 OA
ATOM      4  O   UNL     1     -26.304  95.520 -25.530  1.00  0.00    -0.550 OA
ENDBRANCH   1   2
BRANCH   1   5
ATOM      5  C   UNL     1     -25.105  96.220 -28.177  1.00  0.00     0.006 C 
BRANCH   5   6
ATOM      6  C   UNL     1     -24.378  96.253 -29.529  1.00  0.00    -0.003 C 
ATOM      7  C   UNL     1     -24.311  94.861 -30.150  1.00  0.00     0.004 C 
ENDBRANCH   5   6
ENDBRANCH   1   5
TORSDOF 3
ENDMDL
MODEL 4
REMARK VINA RESULT:    -3.238      2.098      3.260
REMARK INTER + INTRA:          -3.906
REMARK INTER:                  -3.777
REMARK INTRA:                  -0.129
REMARK UNBOUND:                -0.100
REMARK SMILES CCCCC(=O)[O-]
REMARK SMILES IDX 4 1 5 2 6 3 7 4 3 5 2 6 1 7
REMARK H PARENT
REMARK Flexibility Score: inf
ROOT
ATOM      1  C   UNL     1     -36.321  84.688 -17.572  1.00  0.00     0.053 C 
ENDROOT
BRANCH   1   2
ATOM      2  C   UNL     1     -35.081  85.002 -18.352  1.00  0.00     0.041 C 
ATOM      3  O   UNL     1     -34.036  85.373 -17.756  1.00  0.00    -0.550 OA
ATOM      4  O   UNL     1     -35.071  84.854 -19.733  1.00  0.00    -0.550 OA
ENDBRANCH   1   2
BRANCH   1   5
ATOM      5  C   UNL     1     -36.976  83.383 -18.045  1.00  0.00     0.006 C 
BRANCH   5   6
ATOM      6  C   UNL     1     -36.141  82.148 -17.680  1.00  0.00    -0.003 C 
ATOM      7  C   UNL     1     -35.695  81.396 -18.930  1.00  0.00     0.004 C 
ENDBRANCH   5   6
ENDBRANCH   1   5
TORSDOF 3
ENDMDL
MODEL 5
REMARK VINA RESULT:    -3.220      2.316      3.680
REMARK INTER + INTRA:          -3.886
REMARK INTER:                  -3.840
REMARK INTRA:                  -0.045
REMARK UNBOUND:                -0.100
REMARK SMILES CCCCC(=O)[O-]
REMARK SMILES IDX 4 1 5 2 6 3 7 4 3 5 2 6 1 7
REMARK H PARENT
REMARK Flexibility Score: inf
ROOT
ATOM      1  C   UNL     1     -36.152  84.002 -17.692  1.00  0.00     0.053 C 
ENDROOT
BRANCH   1   2
ATOM      2  C   UNL     1     -35.105  84.767 -18.442  1.00  0.00     0.041 C 
ATOM      3  O   UNL     1     -35.121  84.792 -19.701  1.00  0.00    -0.550 OA
ATOM      4  O   UNL     1     -34.133  85.479 -17.752  1.00  0.00    -0.550 OA
ENDBRANCH   1   2
BRANCH   1   5
ATOM      5  C   UNL     1     -37.145  83.317 -18.639  1.00  0.00     0.006 C 
BRANCH   5   6
ATOM      6  C   UNL     1     -36.842  81.822 -18.817  1.00  0.00    -0.003 C 
ATOM      7  C   UNL     1     -37.889  81.150 -19.700  1.00  0.00     0.004 C 
ENDBRANCH   5   6
ENDBRANCH   1   5
TORSDOF 3
ENDMDL
MODEL 6
REMARK VINA RESULT:    -3.081      1.373      1.875
REMARK INTER + INTRA:          -3.722
REMARK INTER:                  -3.610
REMARK INTRA:                  -0.113
REMARK UNBOUND:                -0.100
REMARK SMILES CCCCC(=O)[O-]
REMARK SMILES IDX 4 1 5 2 6 3 7 4 3 5 2 6 1 7
REMARK H PARENT
REMARK Flexibility Score: inf
ROOT
ATOM      1  C   UNL     1     -35.528  81.523 -18.838  1.00  0.00     0.053 C 
ENDROOT
BRANCH   1   2
ATOM      2  C   UNL     1     -34.055  81.786 -18.920  1.00  0.00     0.041 C 
ATOM      3  O   UNL     1     -33.237  80.945 -18.462  1.00  0.00    -0.550 OA
ATOM      4  O   UNL     1     -33.586  82.942 -19.529  1.00  0.00    -0.550 OA
ENDBRANCH   1   2
BRANCH   1   5
ATOM      5  C   UNL     1     -36.173  82.259 -17.656  1.00  0.00     0.006 C 
BRANCH   5   6
ATOM      6  C   UNL     1     -36.819  83.585 -18.079  1.00  0.00    -0.003 C 
ATOM      7  C   UNL     1     -36.059  84.776 -17.503  1.00  0.00     0.004 C 
ENDBRANCH   5   6
ENDBRANCH   1   5
TORSDOF 3
ENDMDL
MODEL 7
REMARK VINA RESULT:    -3.042      1.611      2.786
REMARK INTER + INTRA:          -3.676
REMARK INTER:                  -3.595
REMARK INTRA:                  -0.081
REMARK UNBOUND:                -0.100
REMARK SMILES CCCCC(=O)[O-]
REMARK SMILES IDX 4 1 5 2 6 3 7 4 3 5 2 6 1 7
REMARK H PARENT
REMARK Flexibility Score: inf
ROOT
ATOM      1  C   UNL     1     -34.615  84.138 -19.478  1.00  0.00     0.053 C 
ENDROOT
BRANCH   1   2
ATOM      2  C   UNL     1     -33.491  83.191 -19.188  1.00  0.00     0.041 C 
ATOM      3  O   UNL     1     -33.717  81.958 -19.074  1.00  0.00    -0.550 OA
ATOM      4  O   UNL     1     -32.191  83.666 -19.074  1.00  0.00    -0.550 OA
ENDBRANCH   1   2
BRANCH   1   5
ATOM      5  C   UNL     1     -34.880  85.085 -18.301  1.00  0.00     0.006 C 
BRANCH   5   6
ATOM      6  C   UNL     1     -36.060  84.622 -17.436  1.00  0.00    -0.003 C 
ATOM      7  C   UNL     1     -36.977  83.684 -18.214  1.00  0.00     0.004 C 
ENDBRANCH   5   6
ENDBRANCH   1   5
TORSDOF 3
ENDMDL
MODEL 8
REMARK VINA RESULT:    -2.916     13.199     14.017
REMARK INTER + INTRA:          -3.528
REMARK INTER:                  -3.427
REMARK INTRA:                  -0.100
REMARK UNBOUND:                -0.100
REMARK SMILES CCCCC(=O)[O-]
REMARK SMILES IDX 4 1 5 2 6 3 7 4 3 5 2 6 1 7
REMARK H PARENT
REMARK Flexibility Score: inf
ROOT
ATOM      1  C   UNL     1     -22.370  84.600 -20.653  1.00  0.00     0.053 C 
ENDROOT
BRANCH   1   2
ATOM      2  C   UNL     1     -22.409  83.255 -19.995  1.00  0.00     0.041 C 
ATOM      3  O   UNL     1     -21.479  82.901 -19.224  1.00  0.00    -0.550 OA
ATOM      4  O   UNL     1     -23.486  82.405 -20.210  1.00  0.00    -0.550 OA
ENDBRANCH   1   2
BRANCH   1   5
ATOM      5  C   UNL     1     -22.743  84.519 -22.139  1.00  0.00     0.006 C 
BRANCH   5   6
ATOM      6  C   UNL     1     -21.523  84.244 -23.030  1.00  0.00    -0.003 C 
ATOM      7  C   UNL     1     -21.666  82.913 -23.761  1.00  0.00     0.004 C 
ENDBRANCH   5   6
ENDBRANCH   1   5
TORSDOF 3
ENDMDL
MODEL 9
REMARK VINA RESULT:    -2.913     13.907     14.517
REMARK INTER + INTRA:          -3.524
REMARK INTER:                  -3.427
REMARK INTRA:                  -0.097
REMARK UNBOUND:                -0.100
REMARK SMILES CCCCC(=O)[O-]
REMARK SMILES IDX 4 1 5 2 6 3 7 4 3 5 2 6 1 7
REMARK H PARENT
REMARK Flexibility Score: inf
ROOT
ATOM      1  C   UNL     1     -21.333  83.680 -22.555  1.00  0.00     0.053 C 
ENDROOT
BRANCH   1   2
ATOM      2  C   UNL     1     -21.462  82.332 -23.196  1.00  0.00     0.041 C 
ATOM      3  O   UNL     1     -21.305  82.206 -24.439  1.00  0.00    -0.550 OA
ATOM      4  O   UNL     1     -21.724  81.212 -22.418  1.00  0.00    -0.550 OA
ENDBRANCH   1   2
BRANCH   1   5
ATOM      5  C   UNL     1     -22.564  84.028 -21.708  1.00  0.00     0.006 C 
BRANCH   5   6
ATOM      6  C   UNL     1     -22.192  84.391 -20.264  1.00  0.00    -0.003 C 
ATOM      7  C   UNL     1     -21.668  83.174 -19.507  1.00  0.00     0.004 C 
ENDBRANCH   5   6
ENDBRANCH   1   5
TORSDOF 3
ENDMDL
