MODEL 1
REMARK VINA RESULT:    23.007      0.000      0.000
REMARK INTER + INTRA:          27.352
REMARK INTER:                  27.715
REMARK INTRA:                  -0.363
REMARK UNBOUND:                -0.363
REMARK SMILES COc1ccc([C@@H]2CC(=O)c3c(O)cc(O)cc3O2)cc1O
REMARK SMILES IDX 7 1 8 2 9 3 10 4 11 5 12 6 14 7 15 8 17 9 18 10 19 11 6 12
REMARK SMILES IDX 3 13 21 14 4 15 20 16 5 17 2 18 1 19 22 20 13 22 16 24
REMARK H PARENT 22 21 13 23 16 25
REMARK Flexibility Score: inf
ROOT
ATOM      1  C   UNL     1      -6.554   7.295  15.391  1.00  0.00     0.211 C 
ATOM      2  C   UNL     1      -7.517   6.653  14.383  1.00  0.00     0.131 C 
ATOM      3  C   UNL     1      -7.081   5.243  14.116  1.00  0.00     0.174 C 
ATOM      4  O   UNL     1      -7.021   4.829  12.929  1.00  0.00    -0.294 OA
ATOM      5  C   UNL     1      -6.669   4.394  15.262  1.00  0.00     0.102 A 
ATOM      6  C   UNL     1      -6.607   2.976  15.221  1.00  0.00     0.133 A 
ATOM      7  C   UNL     1      -6.138   2.274  16.339  1.00  0.00     0.093 A 
ATOM      8  C   UNL     1      -5.787   2.949  17.513  1.00  0.00     0.123 A 
ATOM      9  C   UNL     1      -5.891   4.338  17.571  1.00  0.00     0.093 A 
ATOM     10  C   UNL     1      -6.318   5.062  16.456  1.00  0.00     0.138 A 
ATOM     11  O   UNL     1      -6.397   6.459  16.541  1.00  0.00    -0.484 OA
ENDROOT
BRANCH   1  12
ATOM     12  C   UNL     1      -7.047   8.659  15.806  1.00  0.00    -0.003 A 
ATOM     13  C   UNL     1      -8.033  11.180  16.606  1.00  0.00     0.160 A 
ATOM     14  C   UNL     1      -8.402  10.634  15.363  1.00  0.00     0.158 A 
ATOM     15  C   UNL     1      -7.175  10.448  17.449  1.00  0.00     0.051 A 
ATOM     16  C   UNL     1      -7.915   9.382  14.973  1.00  0.00     0.057 A 
ATOM     17  C   UNL     1      -6.692   9.198  17.053  1.00  0.00     0.011 A 
BRANCH  13  18
ATOM     18  O   UNL     1      -8.537  12.439  16.971  1.00  0.00    -0.493 OA
ATOM     19  C   UNL     1      -9.426  12.667  18.060  1.00  0.00     0.278 C 
ENDBRANCH  13  18
BRANCH  14  20
ATOM     20  O   UNL     1      -9.256  11.321  14.500  1.00  0.00    -0.504 OA
ATOM     21  H   UNL     1      -9.943  11.986  14.836  1.00  0.00     0.293 HD
ENDBRANCH  14  20
ENDBRANCH   1  12
BRANCH   6  22
ATOM     22  O   UNL     1      -7.027   2.225  14.120  1.00  0.00    -0.507 OA
ATOM     23  H   UNL     1      -7.882   2.397  13.612  1.00  0.00     0.293 HD
ENDBRANCH   6  22
BRANCH   8  24
ATOM     24  O   UNL     1      -5.338   2.245  18.629  1.00  0.00    -0.508 OA
ATOM     25  H   UNL     1      -5.644   2.485  19.565  1.00  0.00     0.293 HD
ENDBRANCH   8  24
TORSDOF 5
ENDMDL
MODEL 2
REMARK VINA RESULT:    23.649      1.251      1.689
REMARK INTER + INTRA:          28.124
REMARK INTER:                  27.875
REMARK INTRA:                   0.249
REMARK UNBOUND:                -0.363
REMARK SMILES COc1ccc([C@@H]2CC(=O)c3c(O)cc(O)cc3O2)cc1O
REMARK SMILES IDX 7 1 8 2 9 3 10 4 11 5 12 6 14 7 15 8 17 9 18 10 19 11 6 12
REMARK SMILES IDX 3 13 21 14 4 15 20 16 5 17 2 18 1 19 22 20 13 22 16 24
REMARK H PARENT 22 21 13 23 16 25
REMARK Flexibility Score: inf
ROOT
ATOM      1  C   UNL     1      -6.407   8.195  16.682  1.00  0.00     0.211 C 
ATOM      2  C   UNL     1      -6.957   7.988  15.264  1.00  0.00     0.131 C 
ATOM      3  C   UNL     1      -6.357   6.743  14.681  1.00  0.00     0.174 C 
ATOM      4  O   UNL     1      -5.898   6.769  13.509  1.00  0.00    -0.294 OA
ATOM      5  C   UNL     1      -6.263   5.530  15.531  1.00  0.00     0.102 A 
ATOM      6  C   UNL     1      -6.087   4.214  15.025  1.00  0.00     0.133 A 
ATOM      7  C   UNL     1      -5.941   3.146  15.919  1.00  0.00     0.093 A 
ATOM      8  C   UNL     1      -6.025   3.352  17.301  1.00  0.00     0.123 A 
ATOM      9  C   UNL     1      -6.244   4.636  17.798  1.00  0.00     0.093 A 
ATOM     10  C   UNL     1      -6.353   5.722  16.927  1.00  0.00     0.138 A 
ATOM     11  O   UNL     1      -6.558   7.003  17.459  1.00  0.00    -0.484 OA
ENDROOT
BRANCH   1  12
ATOM     12  C   UNL     1      -7.105   9.347  17.362  1.00  0.00    -0.003 A 
ATOM     13  C   UNL     1      -8.473  11.480  18.604  1.00  0.00     0.160 A 
ATOM     14  C   UNL     1      -8.051  11.589  17.266  1.00  0.00     0.158 A 
ATOM     15  C   UNL     1      -8.213  10.290  19.310  1.00  0.00     0.051 A 
ATOM     16  C   UNL     1      -7.377  10.527  16.654  1.00  0.00     0.057 A 
ATOM     17  C   UNL     1      -7.540   9.233  18.692  1.00  0.00     0.011 A 
BRANCH  13  18
ATOM     18  O   UNL     1      -9.146  12.562  19.193  1.00  0.00    -0.493 OA
ATOM     19  C   UNL     1     -10.089  13.390  18.520  1.00  0.00     0.278 C 
ENDBRANCH  13  18
BRANCH  14  20
ATOM     20  O   UNL     1      -8.294  12.746  16.527  1.00  0.00    -0.504 OA
ATOM     21  H   UNL     1      -8.916  12.755  15.726  1.00  0.00     0.293 HD
ENDBRANCH  14  20
ENDBRANCH   1  12
BRANCH   6  22
ATOM     22  O   UNL     1      -6.086   3.916  13.661  1.00  0.00    -0.507 OA
ATOM     23  H   UNL     1      -5.932   4.598  12.933  1.00  0.00     0.293 HD
ENDBRANCH   6  22
BRANCH   8  24
ATOM     24  O   UNL     1      -5.898   2.284  18.186  1.00  0.00    -0.508 OA
ATOM     25  H   UNL     1      -6.475   2.211  19.016  1.00  0.00     0.293 HD
ENDBRANCH   8  24
TORSDOF 5
ENDMDL
MODEL 3
REMARK VINA RESULT:    25.286      1.876      7.997
REMARK INTER + INTRA:          30.096
REMARK INTER:                  30.469
REMARK INTRA:                  -0.373
REMARK UNBOUND:                -0.363
REMARK SMILES COc1ccc([C@@H]2CC(=O)c3c(O)cc(O)cc3O2)cc1O
REMARK SMILES IDX 7 1 8 2 9 3 10 4 11 5 12 6 14 7 15 8 17 9 18 10 19 11 6 12
REMARK SMILES IDX 3 13 21 14 4 15 20 16 5 17 2 18 1 19 22 20 13 22 16 24
REMARK H PARENT 22 21 13 23 16 25
REMARK Flexibility Score: inf
ROOT
ATOM      1  C   UNL     1      -6.637   8.607  17.502  1.00  0.00     0.211 C 
ATOM      2  C   UNL     1      -7.540   8.484  18.738  1.00  0.00     0.131 C 
ATOM      3  C   UNL     1      -7.868   9.858  19.245  1.00  0.00     0.174 C 
ATOM      4  O   UNL     1      -7.772  10.100  20.477  1.00  0.00    -0.294 OA
ATOM      5  C   UNL     1      -8.235  10.911  18.267  1.00  0.00     0.102 A 
ATOM      6  C   UNL     1      -8.925  12.106  18.604  1.00  0.00     0.133 A 
ATOM      7  C   UNL     1      -9.162  13.068  17.614  1.00  0.00     0.093 A 
ATOM      8  C   UNL     1      -8.780  12.840  16.288  1.00  0.00     0.123 A 
ATOM      9  C   UNL     1      -8.145  11.647  15.945  1.00  0.00     0.093 A 
ATOM     10  C   UNL     1      -7.862  10.691  16.923  1.00  0.00     0.138 A 
ATOM     11  O   UNL     1      -7.209   9.508  16.549  1.00  0.00    -0.484 OA
ENDROOT
BRANCH   1  12
ATOM     12  C   UNL     1      -6.414   7.256  16.868  1.00  0.00    -0.003 A 
ATOM     13  C   UNL     1      -6.066   4.712  15.698  1.00  0.00     0.160 A 
ATOM     14  C   UNL     1      -5.956   4.875  17.091  1.00  0.00     0.158 A 
ATOM     15  C   UNL     1      -6.362   5.832  14.898  1.00  0.00     0.051 A 
ATOM     16  C   UNL     1      -6.134   6.137  17.667  1.00  0.00     0.057 A 
ATOM     17  C   UNL     1      -6.539   7.090  15.480  1.00  0.00     0.011 A 
BRANCH  13  18
ATOM     18  O   UNL     1      -5.881   3.434  15.147  1.00  0.00    -0.493 OA
ATOM     19  C   UNL     1      -4.691   2.999  14.498  1.00  0.00     0.278 C 
ENDBRANCH  13  18
BRANCH  14  20
ATOM     20  O   UNL     1      -5.671   3.792  17.922  1.00  0.00    -0.504 OA
ATOM     21  H   UNL     1      -4.906   3.807  18.587  1.00  0.00     0.293 HD
ENDBRANCH  14  20
ENDBRANCH   1  12
BRANCH   6  22
ATOM     22  O   UNL     1      -9.419  12.366  19.885  1.00  0.00    -0.507 OA
ATOM     23  H   UNL     1     -10.339  12.097  20.201  1.00  0.00     0.293 HD
ENDBRANCH   6  22
BRANCH   8  24
ATOM     24  O   UNL     1      -9.034  13.792  15.302  1.00  0.00    -0.508 OA
ATOM     25  H   UNL     1      -8.640  13.710  14.372  1.00  0.00     0.293 HD
ENDBRANCH   8  24
TORSDOF 5
ENDMDL
