MODEL 1
REMARK VINA RESULT:    -3.961      0.000      0.000
REMARK INTER + INTRA:          -4.562
REMARK INTER:                  -4.308
REMARK INTRA:                  -0.254
REMARK UNBOUND:                -0.254
REMARK SMILES O=C([O-])c1ccccc1O
REMARK SMILES IDX 4 1 9 2 5 3 8 4 6 5 7 6 2 7 1 8 3 9 10 10
REMARK H PARENT 10 11
REMARK Flexibility Score: inf
ROOT
ATOM      1  C   UNL     1      42.871  18.974  -2.380  1.00  0.00     0.039 A 
ATOM      2  C   UNL     1      42.089  18.646  -1.247  1.00  0.00     0.124 A 
ATOM      3  C   UNL     1      42.982  20.325  -2.759  1.00  0.00     0.014 A 
ATOM      4  C   UNL     1      41.442  19.661  -0.525  1.00  0.00     0.047 A 
ATOM      5  C   UNL     1      42.333  21.326  -2.032  1.00  0.00     0.001 A 
ATOM      6  C   UNL     1      41.564  20.995  -0.917  1.00  0.00     0.004 A 
ENDROOT
BRANCH   1   7
ATOM      7  C   UNL     1      43.575  17.938  -3.177  1.00  0.00     0.075 C 
ATOM      8  O   UNL     1      43.475  17.902  -4.432  1.00  0.00    -0.545 OA
ATOM      9  O   UNL     1      44.363  16.982  -2.544  1.00  0.00    -0.545 OA
ENDBRANCH   1   7
BRANCH   2  10
ATOM     10  O   UNL     1      41.950  17.320  -0.835  1.00  0.00    -0.507 OA
ATOM     11  H   UNL     1      42.676  16.848  -0.309  1.00  0.00     0.293 HD
ENDBRANCH   2  10
TORSDOF 2
ENDMDL
MODEL 2
REMARK VINA RESULT:    -3.751      1.331      2.017
REMARK INTER + INTRA:          -4.334
REMARK INTER:                  -4.079
REMARK INTRA:                  -0.255
REMARK UNBOUND:                -0.254
REMARK SMILES O=C([O-])c1ccccc1O
REMARK SMILES IDX 4 1 9 2 5 3 8 4 6 5 7 6 2 7 1 8 3 9 10 10
REMARK H PARENT 10 11
REMARK Flexibility Score: inf
ROOT
ATOM      1  C   UNL     1      42.776  18.197  -2.350  1.00  0.00     0.039 A 
ATOM      2  C   UNL     1      42.320  19.099  -1.359  1.00  0.00     0.124 A 
ATOM      3  C   UNL     1      43.323  18.715  -3.538  1.00  0.00     0.014 A 
ATOM      4  C   UNL     1      42.419  20.482  -1.573  1.00  0.00     0.047 A 
ATOM      5  C   UNL     1      43.417  20.095  -3.739  1.00  0.00     0.001 A 
ATOM      6  C   UNL     1      42.965  20.977  -2.759  1.00  0.00     0.004 A 
ENDROOT
BRANCH   1   7
ATOM      7  C   UNL     1      42.693  16.725  -2.171  1.00  0.00     0.075 C 
ATOM      8  O   UNL     1      43.683  15.984  -2.411  1.00  0.00    -0.545 OA
ATOM      9  O   UNL     1      41.512  16.137  -1.732  1.00  0.00    -0.545 OA
ENDBRANCH   1   7
BRANCH   2  10
ATOM     10  O   UNL     1      41.769  18.631  -0.166  1.00  0.00    -0.507 OA
ATOM     11  H   UNL     1      41.545  17.652  -0.031  1.00  0.00     0.293 HD
ENDBRANCH   2  10
TORSDOF 2
ENDMDL
MODEL 3
REMARK VINA RESULT:    -3.702      1.827      3.487
REMARK INTER + INTRA:          -4.281
REMARK INTER:                  -4.056
REMARK INTRA:                  -0.225
REMARK UNBOUND:                -0.254
REMARK SMILES O=C([O-])c1ccccc1O
REMARK SMILES IDX 4 1 9 2 5 3 8 4 6 5 7 6 2 7 1 8 3 9 10 10
REMARK H PARENT 10 11
REMARK Flexibility Score: inf
ROOT
ATOM      1  C   UNL     1      42.109  19.677  -2.092  1.00  0.00     0.039 A 
ATOM      2  C   UNL     1      42.468  18.313  -1.977  1.00  0.00     0.124 A 
ATOM      3  C   UNL     1      42.636  20.429  -3.159  1.00  0.00     0.014 A 
ATOM      4  C   UNL     1      43.334  17.735  -2.917  1.00  0.00     0.047 A 
ATOM      5  C   UNL     1      43.499  19.842  -4.089  1.00  0.00     0.001 A 
ATOM      6  C   UNL     1      43.847  18.498  -3.969  1.00  0.00     0.004 A 
ENDROOT
BRANCH   1   7
ATOM      7  C   UNL     1      41.196  20.334  -1.123  1.00  0.00     0.075 C 
ATOM      8  O   UNL     1      41.583  21.307  -0.421  1.00  0.00    -0.545 OA
ATOM      9  O   UNL     1      39.890  19.884  -0.974  1.00  0.00    -0.545 OA
ENDBRANCH   1   7
BRANCH   2  10
ATOM     10  O   UNL     1      41.970  17.529  -0.935  1.00  0.00    -0.507 OA
ATOM     11  H   UNL     1      41.200  17.842  -0.355  1.00  0.00     0.293 HD
ENDBRANCH   2  10
TORSDOF 2
ENDMDL
MODEL 4
REMARK VINA RESULT:    -3.690      2.326      3.109
REMARK INTER + INTRA:          -4.267
REMARK INTER:                  -4.021
REMARK INTRA:                  -0.246
REMARK UNBOUND:                -0.254
REMARK SMILES O=C([O-])c1ccccc1O
REMARK SMILES IDX 4 1 9 2 5 3 8 4 6 5 7 6 2 7 1 8 3 9 10 10
REMARK H PARENT 10 11
REMARK Flexibility Score: inf
ROOT
ATOM      1  C   UNL     1      41.640  20.352  -1.643  1.00  0.00     0.039 A 
ATOM      2  C   UNL     1      40.809  19.539  -2.451  1.00  0.00     0.124 A 
ATOM      3  C   UNL     1      41.099  20.928  -0.478  1.00  0.00     0.014 A 
ATOM      4  C   UNL     1      39.473  19.321  -2.083  1.00  0.00     0.047 A 
ATOM      5  C   UNL     1      39.767  20.702  -0.123  1.00  0.00     0.001 A 
ATOM      6  C   UNL     1      38.954  19.901  -0.924  1.00  0.00     0.004 A 
ENDROOT
BRANCH   1   7
ATOM      7  C   UNL     1      43.060  20.613  -1.989  1.00  0.00     0.075 C 
ATOM      8  O   UNL     1      43.946  20.677  -1.095  1.00  0.00    -0.545 OA
ATOM      9  O   UNL     1      43.438  20.792  -3.315  1.00  0.00    -0.545 OA
ENDBRANCH   1   7
BRANCH   2  10
ATOM     10  O   UNL     1      41.302  18.949  -3.615  1.00  0.00    -0.507 OA
ATOM     11  H   UNL     1      40.783  18.233  -4.110  1.00  0.00     0.293 HD
ENDBRANCH   2  10
TORSDOF 2
ENDMDL
MODEL 5
REMARK VINA RESULT:    -3.574      6.886      8.306
REMARK INTER + INTRA:          -4.142
REMARK INTER:                  -3.892
REMARK INTRA:                  -0.250
REMARK UNBOUND:                -0.254
REMARK SMILES O=C([O-])c1ccccc1O
REMARK SMILES IDX 4 1 9 2 5 3 8 4 6 5 7 6 2 7 1 8 3 9 10 10
REMARK H PARENT 10 11
REMARK Flexibility Score: inf
ROOT
ATOM      1  C   UNL     1      48.384  14.211  -3.266  1.00  0.00     0.039 A 
ATOM      2  C   UNL     1      48.510  15.496  -3.846  1.00  0.00     0.124 A 
ATOM      3  C   UNL     1      49.371  13.245  -3.536  1.00  0.00     0.014 A 
ATOM      4  C   UNL     1      49.606  15.786  -4.673  1.00  0.00     0.047 A 
ATOM      5  C   UNL     1      50.457  13.547  -4.362  1.00  0.00     0.001 A 
ATOM      6  C   UNL     1      50.575  14.814  -4.930  1.00  0.00     0.004 A 
ENDROOT
BRANCH   1   7
ATOM      7  C   UNL     1      47.244  13.856  -2.383  1.00  0.00     0.075 C 
ATOM      8  O   UNL     1      46.062  14.163  -2.692  1.00  0.00    -0.545 OA
ATOM      9  O   UNL     1      47.465  13.173  -1.193  1.00  0.00    -0.545 OA
ENDBRANCH   1   7
BRANCH   2  10
ATOM     10  O   UNL     1      47.555  16.485  -3.606  1.00  0.00    -0.507 OA
ATOM     11  H   UNL     1      47.809  17.388  -3.223  1.00  0.00     0.293 HD
ENDBRANCH   2  10
TORSDOF 2
ENDMDL
MODEL 6
REMARK VINA RESULT:    -3.550      1.741      2.215
REMARK INTER + INTRA:          -4.115
REMARK INTER:                  -3.874
REMARK INTRA:                  -0.242
REMARK UNBOUND:                -0.254
REMARK SMILES O=C([O-])c1ccccc1O
REMARK SMILES IDX 4 1 9 2 5 3 8 4 6 5 7 6 2 7 1 8 3 9 10 10
REMARK H PARENT 10 11
REMARK Flexibility Score: inf
ROOT
ATOM      1  C   UNL     1      41.980  19.242  -2.127  1.00  0.00     0.039 A 
ATOM      2  C   UNL     1      42.465  20.225  -1.232  1.00  0.00     0.124 A 
ATOM      3  C   UNL     1      40.593  19.008  -2.189  1.00  0.00     0.014 A 
ATOM      4  C   UNL     1      41.568  20.945  -0.428  1.00  0.00     0.047 A 
ATOM      5  C   UNL     1      39.710  19.731  -1.384  1.00  0.00     0.001 A 
ATOM      6  C   UNL     1      40.196  20.698  -0.505  1.00  0.00     0.004 A 
ENDROOT
BRANCH   1   7
ATOM      7  C   UNL     1      42.888  18.454  -2.998  1.00  0.00     0.075 C 
ATOM      8  O   UNL     1      42.898  17.195  -2.958  1.00  0.00    -0.545 OA
ATOM      9  O   UNL     1      43.749  19.099  -3.879  1.00  0.00    -0.545 OA
ENDBRANCH   1   7
BRANCH   2  10
ATOM     10  O   UNL     1      43.832  20.491  -1.136  1.00  0.00    -0.507 OA
ATOM     11  H   UNL     1      44.365  20.831  -1.928  1.00  0.00     0.293 HD
ENDBRANCH   2  10
TORSDOF 2
ENDMDL
MODEL 7
REMARK VINA RESULT:    -3.507      2.805      3.143
REMARK INTER + INTRA:          -4.069
REMARK INTER:                  -3.821
REMARK INTRA:                  -0.248
REMARK UNBOUND:                -0.254
REMARK SMILES O=C([O-])c1ccccc1O
REMARK SMILES IDX 4 1 9 2 5 3 8 4 6 5 7 6 2 7 1 8 3 9 10 10
REMARK H PARENT 10 11
REMARK Flexibility Score: inf
ROOT
ATOM      1  C   UNL     1      40.878  19.652  -2.330  1.00  0.00     0.039 A 
ATOM      2  C   UNL     1      41.118  20.013  -0.982  1.00  0.00     0.124 A 
ATOM      3  C   UNL     1      41.911  19.821  -3.271  1.00  0.00     0.014 A 
ATOM      4  C   UNL     1      42.368  20.527  -0.607  1.00  0.00     0.047 A 
ATOM      5  C   UNL     1      43.152  20.334  -2.884  1.00  0.00     0.001 A 
ATOM      6  C   UNL     1      43.380  20.687  -1.555  1.00  0.00     0.004 A 
ENDROOT
BRANCH   1   7
ATOM      7  C   UNL     1      39.573  19.103  -2.776  1.00  0.00     0.075 C 
ATOM      8  O   UNL     1      39.073  19.433  -3.885  1.00  0.00    -0.545 OA
ATOM      9  O   UNL     1      38.875  18.209  -1.972  1.00  0.00    -0.545 OA
ENDBRANCH   1   7
BRANCH   2  10
ATOM     10  O   UNL     1      40.123  19.864  -0.016  1.00  0.00    -0.507 OA
ATOM     11  H   UNL     1      40.318  19.980   0.972  1.00  0.00     0.293 HD
ENDBRANCH   2  10
TORSDOF 2
ENDMDL
MODEL 8
REMARK VINA RESULT:    -3.496      1.981      2.326
REMARK INTER + INTRA:          -4.056
REMARK INTER:                  -3.819
REMARK INTRA:                  -0.237
REMARK UNBOUND:                -0.254
REMARK SMILES O=C([O-])c1ccccc1O
REMARK SMILES IDX 4 1 9 2 5 3 8 4 6 5 7 6 2 7 1 8 3 9 10 10
REMARK H PARENT 10 11
REMARK Flexibility Score: inf
ROOT
ATOM      1  C   UNL     1      42.569  20.053  -2.860  1.00  0.00     0.039 A 
ATOM      2  C   UNL     1      41.172  19.834  -2.783  1.00  0.00     0.124 A 
ATOM      3  C   UNL     1      43.252  20.484  -1.707  1.00  0.00     0.014 A 
ATOM      4  C   UNL     1      40.496  20.048  -1.573  1.00  0.00     0.047 A 
ATOM      5  C   UNL     1      42.566  20.694  -0.508  1.00  0.00     0.001 A 
ATOM      6  C   UNL     1      41.191  20.477  -0.440  1.00  0.00     0.004 A 
ENDROOT
BRANCH   1   7
ATOM      7  C   UNL     1      43.330  19.839  -4.116  1.00  0.00     0.075 C 
ATOM      8  O   UNL     1      43.349  18.714  -4.683  1.00  0.00    -0.545 OA
ATOM      9  O   UNL     1      44.040  20.887  -4.693  1.00  0.00    -0.545 OA
ENDBRANCH   1   7
BRANCH   2  10
ATOM     10  O   UNL     1      40.455  19.406  -3.900  1.00  0.00    -0.507 OA
ATOM     11  H   UNL     1      39.602  18.866  -3.811  1.00  0.00     0.293 HD
ENDBRANCH   2  10
TORSDOF 2
ENDMDL
MODEL 9
REMARK VINA RESULT:    -3.474      7.167      8.646
REMARK INTER + INTRA:          -4.033
REMARK INTER:                  -3.787
REMARK INTRA:                  -0.246
REMARK UNBOUND:                -0.254
REMARK SMILES O=C([O-])c1ccccc1O
REMARK SMILES IDX 4 1 9 2 5 3 8 4 6 5 7 6 2 7 1 8 3 9 10 10
REMARK H PARENT 10 11
REMARK Flexibility Score: inf
ROOT
ATOM      1  C   UNL     1      49.590  14.730  -4.242  1.00  0.00     0.039 A 
ATOM      2  C   UNL     1      48.414  15.093  -3.542  1.00  0.00     0.124 A 
ATOM      3  C   UNL     1      50.033  13.396  -4.175  1.00  0.00     0.014 A 
ATOM      4  C   UNL     1      47.715  14.129  -2.800  1.00  0.00     0.047 A 
ATOM      5  C   UNL     1      49.328  12.446  -3.432  1.00  0.00     0.001 A 
ATOM      6  C   UNL     1      48.172  12.811  -2.746  1.00  0.00     0.004 A 
ENDROOT
BRANCH   1   7
ATOM      7  C   UNL     1      50.364  15.713  -5.041  1.00  0.00     0.075 C 
ATOM      8  O   UNL     1      49.783  16.566  -5.764  1.00  0.00    -0.545 OA
ATOM      9  O   UNL     1      51.754  15.708  -5.005  1.00  0.00    -0.545 OA
ENDBRANCH   1   7
BRANCH   2  10
ATOM     10  O   UNL     1      47.937  16.404  -3.579  1.00  0.00    -0.507 OA
ATOM     11  H   UNL     1      47.316  16.766  -2.865  1.00  0.00     0.293 HD
ENDBRANCH   2  10
TORSDOF 2
ENDMDL
