MODEL 1
REMARK VINA RESULT:    -3.221      0.000      0.000
REMARK INTER + INTRA:          -4.043
REMARK INTER:                  -3.880
REMARK INTRA:                  -0.163
REMARK UNBOUND:                -0.163
REMARK SMILES OCC(O)CO
REMARK SMILES IDX 3 1 5 2 6 3 2 5 1 6 4 8
REMARK H PARENT 6 4 1 7 4 9
REMARK Flexibility Score: inf
ROOT
ATOM      1  C   UNL     1     -22.774  72.750  41.575  1.00  0.00     0.165 C 
ENDROOT
BRANCH   1   2
ATOM      2  C   UNL     1     -21.418  73.452  41.740  1.00  0.00     0.190 C 
BRANCH   2   3
ATOM      3  O   UNL     1     -20.911  73.202  43.022  1.00  0.00    -0.394 OA
ATOM      4  H   UNL     1     -20.692  72.234  43.045  1.00  0.00     0.210 HD
ENDBRANCH   2   3
ENDBRANCH   1   2
BRANCH   1   5
ATOM      5  C   UNL     1     -23.186  72.025  42.867  1.00  0.00     0.190 C 
BRANCH   5   6
ATOM      6  O   UNL     1     -22.856  70.665  42.791  1.00  0.00    -0.394 OA
ATOM      7  H   UNL     1     -23.700  70.159  42.928  1.00  0.00     0.210 HD
ENDBRANCH   5   6
ENDBRANCH   1   5
BRANCH   1   8
ATOM      8  O   UNL     1     -22.741  71.856  40.491  1.00  0.00    -0.388 OA
ATOM      9  H   UNL     1     -23.624  71.898  40.039  1.00  0.00     0.211 HD
ENDBRANCH   1   8
TORSDOF 5
ENDMDL
MODEL 2
REMARK VINA RESULT:    -3.202      1.832      3.007
REMARK INTER + INTRA:          -4.021
REMARK INTER:                  -3.798
REMARK INTRA:                  -0.223
REMARK UNBOUND:                -0.163
REMARK SMILES OCC(O)CO
REMARK SMILES IDX 3 1 5 2 6 3 2 5 1 6 4 8
REMARK H PARENT 6 4 1 7 4 9
REMARK Flexibility Score: inf
ROOT
ATOM      1  C   UNL     1     -23.819  72.708  43.287  1.00  0.00     0.165 C 
ENDROOT
BRANCH   1   2
ATOM      2  C   UNL     1     -23.579  72.064  44.660  1.00  0.00     0.190 C 
BRANCH   2   3
ATOM      3  O   UNL     1     -24.287  70.859  44.747  1.00  0.00    -0.394 OA
ATOM      4  H   UNL     1     -23.704  70.168  44.337  1.00  0.00     0.210 HD
ENDBRANCH   2   3
ENDBRANCH   1   2
BRANCH   1   5
ATOM      5  C   UNL     1     -22.827  72.172  42.240  1.00  0.00     0.190 C 
BRANCH   5   6
ATOM      6  O   UNL     1     -22.825  70.770  42.241  1.00  0.00    -0.394 OA
ATOM      7  H   UNL     1     -22.714  70.486  41.296  1.00  0.00     0.210 HD
ENDBRANCH   5   6
ENDBRANCH   1   5
BRANCH   1   8
ATOM      8  O   UNL     1     -23.742  74.108  43.374  1.00  0.00    -0.388 OA
ATOM      9  H   UNL     1     -22.858  74.337  43.765  1.00  0.00     0.211 HD
ENDBRANCH   1   8
TORSDOF 5
ENDMDL
MODEL 3
REMARK VINA RESULT:    -3.165      1.982      3.101
REMARK INTER + INTRA:          -3.976
REMARK INTER:                  -3.824
REMARK INTRA:                  -0.151
REMARK UNBOUND:                -0.163
REMARK SMILES OCC(O)CO
REMARK SMILES IDX 3 1 5 2 6 3 2 5 1 6 4 8
REMARK H PARENT 6 4 1 7 4 9
REMARK Flexibility Score: inf
ROOT
ATOM      1  C   UNL     1     -22.894  72.094  43.218  1.00  0.00     0.165 C 
ENDROOT
BRANCH   1   2
ATOM      2  C   UNL     1     -23.487  71.943  44.627  1.00  0.00     0.190 C 
BRANCH   2   3
ATOM      3  O   UNL     1     -24.355  70.843  44.658  1.00  0.00    -0.394 OA
ATOM      4  H   UNL     1     -25.257  71.200  44.449  1.00  0.00     0.210 HD
ENDBRANCH   2   3
ENDBRANCH   1   2
BRANCH   1   5
ATOM      5  C   UNL     1     -23.625  73.189  42.422  1.00  0.00     0.190 C 
BRANCH   5   6
ATOM      6  O   UNL     1     -24.722  73.672  43.148  1.00  0.00    -0.394 OA
ATOM      7  H   UNL     1     -25.261  74.219  42.518  1.00  0.00     0.210 HD
ENDBRANCH   5   6
ENDBRANCH   1   5
BRANCH   1   8
ATOM      8  O   UNL     1     -22.932  70.869  42.529  1.00  0.00    -0.388 OA
ATOM      9  H   UNL     1     -22.155  70.846  41.911  1.00  0.00     0.211 HD
ENDBRANCH   1   8
TORSDOF 5
ENDMDL
MODEL 4
REMARK VINA RESULT:    -3.138      0.734      2.372
REMARK INTER + INTRA:          -3.943
REMARK INTER:                  -3.921
REMARK INTRA:                  -0.022
REMARK UNBOUND:                -0.163
REMARK SMILES OCC(O)CO
REMARK SMILES IDX 3 1 5 2 6 3 2 5 1 6 4 8
REMARK H PARENT 6 4 1 7 4 9
REMARK Flexibility Score: inf
ROOT
ATOM      1  C   UNL     1     -23.132  72.105  42.654  1.00  0.00     0.165 C 
ENDROOT
BRANCH   1   2
ATOM      2  C   UNL     1     -22.607  72.604  41.300  1.00  0.00     0.190 C 
BRANCH   2   3
ATOM      3  O   UNL     1     -22.403  71.515  40.443  1.00  0.00    -0.394 OA
ATOM      4  H   UNL     1     -21.842  71.854  39.698  1.00  0.00     0.210 HD
ENDBRANCH   2   3
ENDBRANCH   1   2
BRANCH   1   5
ATOM      5  C   UNL     1     -22.517  72.903  43.817  1.00  0.00     0.190 C 
BRANCH   5   6
ATOM      6  O   UNL     1     -21.130  73.014  43.654  1.00  0.00    -0.394 OA
ATOM      7  H   UNL     1     -20.931  72.746  42.718  1.00  0.00     0.210 HD
ENDBRANCH   5   6
ENDBRANCH   1   5
BRANCH   1   8
ATOM      8  O   UNL     1     -22.883  70.731  42.807  1.00  0.00    -0.388 OA
ATOM      9  H   UNL     1     -21.938  70.565  42.551  1.00  0.00     0.211 HD
ENDBRANCH   1   8
TORSDOF 5
ENDMDL
MODEL 5
REMARK VINA RESULT:    -3.131     24.733     25.939
REMARK INTER + INTRA:          -3.935
REMARK INTER:                  -3.744
REMARK INTRA:                  -0.191
REMARK UNBOUND:                -0.163
REMARK SMILES OCC(O)CO
REMARK SMILES IDX 3 1 5 2 6 3 2 5 1 6 4 8
REMARK H PARENT 6 4 1 7 4 9
REMARK Flexibility Score: inf
ROOT
ATOM      1  C   UNL     1      -6.609  87.438  28.872  1.00  0.00     0.165 C 
ENDROOT
BRANCH   1   2
ATOM      2  C   UNL     1      -7.060  85.977  28.726  1.00  0.00     0.190 C 
BRANCH   2   3
ATOM      3  O   UNL     1      -5.940  85.150  28.578  1.00  0.00    -0.394 OA
ATOM      4  H   UNL     1      -5.443  85.205  29.435  1.00  0.00     0.210 HD
ENDBRANCH   2   3
ENDBRANCH   1   2
BRANCH   1   5
ATOM      5  C   UNL     1      -6.482  88.121  27.500  1.00  0.00     0.190 C 
BRANCH   5   6
ATOM      6  O   UNL     1      -5.321  87.688  26.844  1.00  0.00    -0.394 OA
ATOM      7  H   UNL     1      -4.898  87.009  27.432  1.00  0.00     0.210 HD
ENDBRANCH   5   6
ENDBRANCH   1   5
BRANCH   1   8
ATOM      8  O   UNL     1      -5.397  87.514  29.580  1.00  0.00    -0.388 OA
ATOM      9  H   UNL     1      -4.901  88.306  29.243  1.00  0.00     0.211 HD
ENDBRANCH   1   8
TORSDOF 5
ENDMDL
MODEL 6
REMARK VINA RESULT:    -3.123      1.750      2.841
REMARK INTER + INTRA:          -3.925
REMARK INTER:                  -3.705
REMARK INTRA:                  -0.220
REMARK UNBOUND:                -0.163
REMARK SMILES OCC(O)CO
REMARK SMILES IDX 3 1 5 2 6 3 2 5 1 6 4 8
REMARK H PARENT 6 4 1 7 4 9
REMARK Flexibility Score: inf
ROOT
ATOM      1  C   UNL     1     -23.025  72.646  43.941  1.00  0.00     0.165 C 
ENDROOT
BRANCH   1   2
ATOM      2  C   UNL     1     -23.014  72.207  42.469  1.00  0.00     0.190 C 
BRANCH   2   3
ATOM      3  O   UNL     1     -22.847  70.818  42.392  1.00  0.00    -0.394 OA
ATOM      4  H   UNL     1     -23.149  70.556  41.484  1.00  0.00     0.210 HD
ENDBRANCH   2   3
ENDBRANCH   1   2
BRANCH   1   5
ATOM      5  C   UNL     1     -24.318  72.201  44.644  1.00  0.00     0.190 C 
BRANCH   5   6
ATOM      6  O   UNL     1     -24.305  70.816  44.863  1.00  0.00    -0.394 OA
ATOM      7  H   UNL     1     -25.187  70.582  45.255  1.00  0.00     0.210 HD
ENDBRANCH   5   6
ENDBRANCH   1   5
BRANCH   1   8
ATOM      8  O   UNL     1     -22.855  74.037  44.045  1.00  0.00    -0.388 OA
ATOM      9  H   UNL     1     -23.745  74.459  43.920  1.00  0.00     0.211 HD
ENDBRANCH   1   8
TORSDOF 5
ENDMDL
MODEL 7
REMARK VINA RESULT:    -3.122     18.905     20.090
REMARK INTER + INTRA:          -3.924
REMARK INTER:                  -3.702
REMARK INTRA:                  -0.223
REMARK UNBOUND:                -0.163
REMARK SMILES OCC(O)CO
REMARK SMILES IDX 3 1 5 2 6 3 2 5 1 6 4 8
REMARK H PARENT 6 4 1 7 4 9
REMARK Flexibility Score: inf
ROOT
ATOM      1  C   UNL     1      -7.044  80.570  33.011  1.00  0.00     0.165 C 
ENDROOT
BRANCH   1   2
ATOM      2  C   UNL     1      -7.257  79.302  33.852  1.00  0.00     0.190 C 
BRANCH   2   3
ATOM      3  O   UNL     1      -6.028  78.859  34.356  1.00  0.00    -0.394 OA
ATOM      4  H   UNL     1      -5.408  78.831  33.581  1.00  0.00     0.210 HD
ENDBRANCH   2   3
ENDBRANCH   1   2
BRANCH   1   5
ATOM      5  C   UNL     1      -6.240  80.262  31.736  1.00  0.00     0.190 C 
BRANCH   5   6
ATOM      6  O   UNL     1      -4.875  80.149  32.033  1.00  0.00    -0.394 OA
ATOM      7  H   UNL     1      -4.384  80.568  31.278  1.00  0.00     0.210 HD
ENDBRANCH   5   6
ENDBRANCH   1   5
BRANCH   1   8
ATOM      8  O   UNL     1      -6.410  81.568  33.770  1.00  0.00    -0.388 OA
ATOM      9  H   UNL     1      -5.430  81.415  33.711  1.00  0.00     0.211 HD
ENDBRANCH   1   8
TORSDOF 5
ENDMDL
MODEL 8
REMARK VINA RESULT:    -3.090      1.500      2.650
REMARK INTER + INTRA:          -3.886
REMARK INTER:                  -3.883
REMARK INTRA:                  -0.002
REMARK UNBOUND:                -0.163
REMARK SMILES OCC(O)CO
REMARK SMILES IDX 3 1 5 2 6 3 2 5 1 6 4 8
REMARK H PARENT 6 4 1 7 4 9
REMARK Flexibility Score: inf
ROOT
ATOM      1  C   UNL     1     -22.315  72.402  41.629  1.00  0.00     0.165 C 
ENDROOT
BRANCH   1   2
ATOM      2  C   UNL     1     -23.232  72.418  42.861  1.00  0.00     0.190 C 
BRANCH   2   3
ATOM      3  O   UNL     1     -23.208  71.164  43.484  1.00  0.00    -0.394 OA
ATOM      4  H   UNL     1     -22.275  70.836  43.405  1.00  0.00     0.210 HD
ENDBRANCH   2   3
ENDBRANCH   1   2
BRANCH   1   5
ATOM      5  C   UNL     1     -22.530  73.652  40.759  1.00  0.00     0.190 C 
BRANCH   5   6
ATOM      6  O   UNL     1     -22.619  73.297  39.406  1.00  0.00    -0.394 OA
ATOM      7  H   UNL     1     -22.024  72.511  39.279  1.00  0.00     0.210 HD
ENDBRANCH   5   6
ENDBRANCH   1   5
BRANCH   1   8
ATOM      8  O   UNL     1     -22.516  71.232  40.877  1.00  0.00    -0.388 OA
ATOM      9  H   UNL     1     -23.350  70.803  41.203  1.00  0.00     0.211 HD
ENDBRANCH   1   8
TORSDOF 5
ENDMDL
MODEL 9
REMARK VINA RESULT:    -3.082      0.812      2.483
REMARK INTER + INTRA:          -3.875
REMARK INTER:                  -3.692
REMARK INTRA:                  -0.183
REMARK UNBOUND:                -0.163
REMARK SMILES OCC(O)CO
REMARK SMILES IDX 3 1 5 2 6 3 2 5 1 6 4 8
REMARK H PARENT 6 4 1 7 4 9
REMARK Flexibility Score: inf
ROOT
ATOM      1  C   UNL     1     -22.316  73.172  42.342  1.00  0.00     0.165 C 
ENDROOT
BRANCH   1   2
ATOM      2  C   UNL     1     -23.491  72.490  43.059  1.00  0.00     0.190 C 
BRANCH   2   3
ATOM      3  O   UNL     1     -23.095  71.227  43.516  1.00  0.00    -0.394 OA
ATOM      4  H   UNL     1     -22.372  71.389  44.177  1.00  0.00     0.210 HD
ENDBRANCH   2   3
ENDBRANCH   1   2
BRANCH   1   5
ATOM      5  C   UNL     1     -22.128  72.609  40.923  1.00  0.00     0.190 C 
BRANCH   5   6
ATOM      6  O   UNL     1     -22.541  71.271  40.869  1.00  0.00    -0.394 OA
ATOM      7  H   UNL     1     -22.366  70.882  41.766  1.00  0.00     0.210 HD
ENDBRANCH   5   6
ENDBRANCH   1   5
BRANCH   1   8
ATOM      8  O   UNL     1     -21.133  73.038  43.090  1.00  0.00    -0.388 OA
ATOM      9  H   UNL     1     -20.878  72.079  43.082  1.00  0.00     0.211 HD
ENDBRANCH   1   8
TORSDOF 5
ENDMDL
