MODEL 1
REMARK VINA RESULT:     7.472      0.000      0.000
REMARK INTER + INTRA:          11.268
REMARK INTER:                  11.404
REMARK INTRA:                  -0.136
REMARK UNBOUND:                -0.136
REMARK SMILES CCCCCCCCCCC(=O)[O-]
REMARK SMILES IDX 7 1 8 2 9 3 10 4 11 5 12 6 13 7 6 8 5 9 4 10 3 11 2 12 1 13
REMARK H PARENT
REMARK Flexibility Score: inf
ROOT
ATOM      1  C   UNL     1     -12.088  -1.501 -17.913  1.00  0.00     0.000 C 
ENDROOT
BRANCH   1   2
ATOM      2  C   UNL     1     -12.816  -0.479 -17.025  1.00  0.00     0.000 C 
BRANCH   2   3
ATOM      3  C   UNL     1     -12.891   0.916 -17.669  1.00  0.00     0.006 C 
BRANCH   3   4
ATOM      4  C   UNL     1     -11.765   1.838 -17.182  1.00  0.00     0.053 C 
BRANCH   4   5
ATOM      5  C   UNL     1     -12.115   3.284 -17.358  1.00  0.00     0.041 C 
ATOM      6  O   UNL     1     -12.885   3.642 -18.287  1.00  0.00    -0.550 OA
ATOM      7  O   UNL     1     -11.618   4.233 -16.472  1.00  0.00    -0.550 OA
ENDBRANCH   4   5
ENDBRANCH   3   4
ENDBRANCH   2   3
ENDBRANCH   1   2
BRANCH   1   8
ATOM      8  C   UNL     1     -10.733  -0.985 -18.419  1.00  0.00     0.000 C 
BRANCH   8   9
ATOM      9  C   UNL     1      -9.702  -0.946 -17.284  1.00  0.00    -0.000 C 
BRANCH   9  10
ATOM     10  C   UNL     1      -8.341  -1.473 -17.760  1.00  0.00    -0.000 C 
BRANCH  10  11
ATOM     11  C   UNL     1      -7.153  -0.699 -17.156  1.00  0.00    -0.000 C 
BRANCH  11  12
ATOM     12  C   UNL     1      -7.219  -0.503 -15.631  1.00  0.00    -0.003 C 
ATOM     13  C   UNL     1      -6.880  -1.773 -14.850  1.00  0.00     0.004 C 
ENDBRANCH  11  12
ENDBRANCH  10  11
ENDBRANCH   9  10
ENDBRANCH   8   9
ENDBRANCH   1   8
TORSDOF 9
ENDMDL
MODEL 2
REMARK VINA RESULT:     7.988      2.913      5.712
REMARK INTER + INTRA:          12.055
REMARK INTER:                  12.545
REMARK INTRA:                  -0.490
REMARK UNBOUND:                -0.136
REMARK SMILES CCCCCCCCCCC(=O)[O-]
REMARK SMILES IDX 7 1 8 2 9 3 10 4 11 5 12 6 13 7 6 8 5 9 4 10 3 11 2 12 1 13
REMARK H PARENT
REMARK Flexibility Score: inf
ROOT
ATOM      1  C   UNL     1     -10.911  -1.156 -18.145  1.00  0.00     0.000 C 
ENDROOT
BRANCH   1   2
ATOM      2  C   UNL     1      -9.748  -0.736 -17.233  1.00  0.00     0.000 C 
BRANCH   2   3
ATOM      3  C   UNL     1      -8.418  -1.401 -17.629  1.00  0.00     0.006 C 
BRANCH   3   4
ATOM      4  C   UNL     1      -7.215  -0.744 -16.939  1.00  0.00     0.053 C 
BRANCH   4   5
ATOM      5  C   UNL     1      -7.216  -0.992 -15.462  1.00  0.00     0.041 C 
ATOM      6  O   UNL     1      -6.877  -2.116 -15.007  1.00  0.00    -0.550 OA
ATOM      7  O   UNL     1      -7.560   0.030 -14.585  1.00  0.00    -0.550 OA
ENDBRANCH   4   5
ENDBRANCH   3   4
ENDBRANCH   2   3
ENDBRANCH   1   2
BRANCH   1   8
ATOM      8  C   UNL     1     -12.279  -0.721 -17.598  1.00  0.00     0.000 C 
BRANCH   8   9
ATOM      9  C   UNL     1     -12.244   0.740 -17.132  1.00  0.00    -0.000 C 
BRANCH   9  10
ATOM     10  C   UNL     1     -13.003   1.647 -18.112  1.00  0.00    -0.000 C 
BRANCH  10  11
ATOM     11  C   UNL     1     -12.671   3.140 -17.926  1.00  0.00    -0.000 C 
BRANCH  11  12
ATOM     12  C   UNL     1     -11.682   3.445 -16.788  1.00  0.00    -0.003 C 
ATOM     13  C   UNL     1     -11.637   4.927 -16.415  1.00  0.00     0.004 C 
ENDBRANCH  11  12
ENDBRANCH  10  11
ENDBRANCH   9  10
ENDBRANCH   8   9
ENDBRANCH   1   8
TORSDOF 9
ENDMDL
MODEL 3
REMARK VINA RESULT:     8.665      3.003      6.181
REMARK INTER + INTRA:          13.088
REMARK INTER:                  13.494
REMARK INTRA:                  -0.406
REMARK UNBOUND:                -0.136
REMARK SMILES CCCCCCCCCCC(=O)[O-]
REMARK SMILES IDX 7 1 8 2 9 3 10 4 11 5 12 6 13 7 6 8 5 9 4 10 3 11 2 12 1 13
REMARK H PARENT
REMARK Flexibility Score: inf
ROOT
ATOM      1  C   UNL     1     -12.233  -1.267 -17.939  1.00  0.00     0.000 C 
ENDROOT
BRANCH   1   2
ATOM      2  C   UNL     1     -10.782  -1.659 -18.258  1.00  0.00     0.000 C 
BRANCH   2   3
ATOM      3  C   UNL     1      -9.763  -0.934 -17.362  1.00  0.00     0.006 C 
BRANCH   3   4
ATOM      4  C   UNL     1      -8.425  -1.682 -17.284  1.00  0.00     0.053 C 
BRANCH   4   5
ATOM      5  C   UNL     1      -7.390  -0.896 -16.541  1.00  0.00     0.041 C 
ATOM      6  O   UNL     1      -6.875   0.128 -17.062  1.00  0.00    -0.550 OA
ATOM      7  O   UNL     1      -7.020  -1.274 -15.255  1.00  0.00    -0.550 OA
ENDBRANCH   4   5
ENDBRANCH   3   4
ENDBRANCH   2   3
ENDBRANCH   1   2
BRANCH   1   8
ATOM      8  C   UNL     1     -12.325  -0.071 -16.979  1.00  0.00     0.000 C 
BRANCH   8   9
ATOM      9  C   UNL     1     -13.152   1.065 -17.595  1.00  0.00    -0.000 C 
BRANCH   9  10
ATOM     10  C   UNL     1     -12.356   2.378 -17.609  1.00  0.00    -0.000 C 
BRANCH  10  11
ATOM     11  C   UNL     1     -12.898   3.397 -18.630  1.00  0.00    -0.000 C 
BRANCH  11  12
ATOM     12  C   UNL     1     -14.308   3.933 -18.321  1.00  0.00    -0.003 C 
ATOM     13  C   UNL     1     -14.721   5.088 -19.234  1.00  0.00     0.004 C 
ENDBRANCH  11  12
ENDBRANCH  10  11
ENDBRANCH   9  10
ENDBRANCH   8   9
ENDBRANCH   1   8
TORSDOF 9
ENDMDL
