MODEL 1
REMARK VINA RESULT:    -5.786      0.000      0.000
REMARK INTER + INTRA:          -6.382
REMARK INTER:                  -6.124
REMARK INTRA:                  -0.258
REMARK UNBOUND:                -0.258
REMARK SMILES CC1=C[C@H]2C(=C(C)CC[C@@H]2C(C)C)CC1
REMARK SMILES IDX 1 1 2 2 3 3 4 4 10 5 9 6 8 7 6 8 5 9 14 10 15 11 7 12 11 13
REMARK SMILES IDX 12 14 13 15
REMARK H PARENT
REMARK Flexibility Score: inf
ROOT
ATOM      1  C   UNL     1      18.386   8.202  25.183  1.00  0.00     0.039 C 
ATOM      2  C   UNL     1      16.984   8.704  24.980  1.00  0.00    -0.076 C 
ATOM      3  C   UNL     1      15.936   7.876  25.151  1.00  0.00    -0.020 C 
ATOM      4  C   UNL     1      14.530   8.387  24.903  1.00  0.00     0.041 C 
ATOM      5  C   UNL     1      13.449   7.261  25.043  1.00  0.00     0.003 C 
ATOM      6  C   UNL     1      12.214   7.623  24.192  1.00  0.00     0.009 C 
ATOM      7  C   UNL     1      12.599   7.846  22.737  1.00  0.00     0.031 C 
ATOM      8  C   UNL     1      13.634   8.930  22.594  1.00  0.00    -0.073 C 
ATOM      9  C   UNL     1      14.562   9.135  23.565  1.00  0.00    -0.064 C 
ATOM     10  C   UNL     1      15.710  10.125  23.352  1.00  0.00     0.036 C 
ATOM     11  C   UNL     1      16.718  10.121  24.517  1.00  0.00     0.035 C 
ATOM     12  C   UNL     1      13.674   9.697  21.291  1.00  0.00     0.039 C 
ENDROOT
BRANCH   5  13
ATOM     13  C   UNL     1      13.019   7.024  26.538  1.00  0.00    -0.013 C 
ATOM     14  C   UNL     1      13.284   5.589  27.026  1.00  0.00     0.007 C 
ATOM     15  C   UNL     1      11.530   7.348  26.771  1.00  0.00     0.007 C 
ENDBRANCH   5  13
TORSDOF 1
ENDMDL
MODEL 2
REMARK VINA RESULT:    -5.526      1.850      4.363
REMARK INTER + INTRA:          -6.107
REMARK INTER:                  -5.848
REMARK INTRA:                  -0.259
REMARK UNBOUND:                -0.258
REMARK SMILES CC1=C[C@H]2C(=C(C)CC[C@@H]2C(C)C)CC1
REMARK SMILES IDX 1 1 2 2 3 3 4 4 10 5 9 6 8 7 6 8 5 9 14 10 15 11 7 12 11 13
REMARK SMILES IDX 12 14 13 15
REMARK H PARENT
REMARK Flexibility Score: inf
ROOT
ATOM      1  C   UNL     1       9.275   6.854  21.378  1.00  0.00     0.039 C 
ATOM      2  C   UNL     1      10.708   6.931  21.822  1.00  0.00    -0.076 C 
ATOM      3  C   UNL     1      11.005   7.174  23.113  1.00  0.00    -0.020 C 
ATOM      4  C   UNL     1      12.457   7.289  23.538  1.00  0.00     0.041 C 
ATOM      5  C   UNL     1      12.610   7.683  25.047  1.00  0.00     0.003 C 
ATOM      6  C   UNL     1      13.961   8.398  25.259  1.00  0.00     0.009 C 
ATOM      7  C   UNL     1      14.084   9.614  24.352  1.00  0.00     0.031 C 
ATOM      8  C   UNL     1      13.942   9.243  22.900  1.00  0.00    -0.073 C 
ATOM      9  C   UNL     1      13.141   8.212  22.522  1.00  0.00    -0.064 C 
ATOM     10  C   UNL     1      12.869   7.936  21.042  1.00  0.00     0.036 C 
ATOM     11  C   UNL     1      11.844   6.806  20.830  1.00  0.00     0.035 C 
ATOM     12  C   UNL     1      14.624  10.125  21.879  1.00  0.00     0.039 C 
ENDROOT
BRANCH   5  13
ATOM     13  C   UNL     1      12.506   6.438  26.005  1.00  0.00    -0.013 C 
ATOM     14  C   UNL     1      11.193   6.397  26.807  1.00  0.00     0.007 C 
ATOM     15  C   UNL     1      13.684   6.372  26.999  1.00  0.00     0.007 C 
ENDBRANCH   5  13
TORSDOF 1
ENDMDL
MODEL 3
REMARK VINA RESULT:    -5.420      9.886     12.838
REMARK INTER + INTRA:          -5.995
REMARK INTER:                  -5.670
REMARK INTRA:                  -0.325
REMARK UNBOUND:                -0.258
REMARK SMILES CC1=C[C@H]2C(=C(C)CC[C@@H]2C(C)C)CC1
REMARK SMILES IDX 1 1 2 2 3 3 4 4 10 5 9 6 8 7 6 8 5 9 14 10 15 11 7 12 11 13
REMARK SMILES IDX 12 14 13 15
REMARK H PARENT
REMARK Flexibility Score: inf
ROOT
ATOM      1  C   UNL     1       0.102   8.621  18.371  1.00  0.00     0.039 C 
ATOM      2  C   UNL     1       1.546   8.943  18.629  1.00  0.00    -0.076 C 
ATOM      3  C   UNL     1       2.516   8.175  18.098  1.00  0.00    -0.020 C 
ATOM      4  C   UNL     1       3.970   8.488  18.400  1.00  0.00     0.041 C 
ATOM      5  C   UNL     1       4.951   7.429  17.793  1.00  0.00     0.003 C 
ATOM      6  C   UNL     1       6.254   7.398  18.619  1.00  0.00     0.009 C 
ATOM      7  C   UNL     1       5.965   7.111  20.085  1.00  0.00     0.031 C 
ATOM      8  C   UNL     1       5.025   8.127  20.678  1.00  0.00    -0.073 C 
ATOM      9  C   UNL     1       4.065   8.713  19.914  1.00  0.00    -0.064 C 
ATOM     10  C   UNL     1       3.010   9.622  20.549  1.00  0.00     0.036 C 
ATOM     11  C   UNL     1       1.945  10.086  19.537  1.00  0.00     0.035 C 
ATOM     12  C   UNL     1       5.113   8.382  22.165  1.00  0.00     0.039 C 
ENDROOT
BRANCH   5  13
ATOM     13  C   UNL     1       5.282   7.716  16.281  1.00  0.00    -0.013 C 
ATOM     14  C   UNL     1       6.512   6.945  15.771  1.00  0.00     0.007 C 
ATOM     15  C   UNL     1       5.505   9.219  16.012  1.00  0.00     0.007 C 
ENDBRANCH   5  13
TORSDOF 1
ENDMDL
MODEL 4
REMARK VINA RESULT:    -5.420      1.334      4.081
REMARK INTER + INTRA:          -5.995
REMARK INTER:                  -5.735
REMARK INTRA:                  -0.259
REMARK UNBOUND:                -0.258
REMARK SMILES CC1=C[C@H]2C(=C(C)CC[C@@H]2C(C)C)CC1
REMARK SMILES IDX 1 1 2 2 3 3 4 4 10 5 9 6 8 7 6 8 5 9 14 10 15 11 7 12 11 13
REMARK SMILES IDX 12 14 13 15
REMARK H PARENT
REMARK Flexibility Score: inf
ROOT
ATOM      1  C   UNL     1      16.665  10.125  24.015  1.00  0.00     0.039 C 
ATOM      2  C   UNL     1      15.644   9.023  24.039  1.00  0.00    -0.076 C 
ATOM      3  C   UNL     1      14.500   9.145  23.338  1.00  0.00    -0.020 C 
ATOM      4  C   UNL     1      13.461   8.041  23.404  1.00  0.00     0.041 C 
ATOM      5  C   UNL     1      12.153   8.401  22.620  1.00  0.00     0.003 C 
ATOM      6  C   UNL     1      10.962   7.626  23.219  1.00  0.00     0.009 C 
ATOM      7  C   UNL     1      10.814   7.914  24.706  1.00  0.00     0.031 C 
ATOM      8  C   UNL     1      12.066   7.567  25.468  1.00  0.00    -0.073 C 
ATOM      9  C   UNL     1      13.288   7.687  24.886  1.00  0.00    -0.064 C 
ATOM     10  C   UNL     1      14.565   7.491  25.706  1.00  0.00     0.036 C 
ATOM     11  C   UNL     1      15.840   7.790  24.894  1.00  0.00     0.035 C 
ATOM     12  C   UNL     1      11.920   7.195  26.926  1.00  0.00     0.039 C 
ENDROOT
BRANCH   5  13
ATOM     13  C   UNL     1      12.274   8.093  21.080  1.00  0.00    -0.013 C 
ATOM     14  C   UNL     1      11.641   9.179  20.193  1.00  0.00     0.007 C 
ATOM     15  C   UNL     1      11.642   6.735  20.710  1.00  0.00     0.007 C 
ENDBRANCH   5  13
TORSDOF 1
ENDMDL
MODEL 5
REMARK VINA RESULT:    -5.410     10.643     13.070
REMARK INTER + INTRA:          -5.984
REMARK INTER:                  -5.741
REMARK INTRA:                  -0.243
REMARK UNBOUND:                -0.258
REMARK SMILES CC1=C[C@H]2C(=C(C)CC[C@@H]2C(C)C)CC1
REMARK SMILES IDX 1 1 2 2 3 3 4 4 10 5 9 6 8 7 6 8 5 9 14 10 15 11 7 12 11 13
REMARK SMILES IDX 12 14 13 15
REMARK H PARENT
REMARK Flexibility Score: inf
ROOT
ATOM      1  C   UNL     1       6.024   7.100  20.217  1.00  0.00     0.039 C 
ATOM      2  C   UNL     1       5.735   7.765  18.901  1.00  0.00    -0.076 C 
ATOM      3  C   UNL     1       4.485   7.763  18.402  1.00  0.00    -0.020 C 
ATOM      4  C   UNL     1       4.216   8.404  17.053  1.00  0.00     0.041 C 
ATOM      5  C   UNL     1       2.735   8.211  16.581  1.00  0.00     0.003 C 
ATOM      6  C   UNL     1       2.671   8.271  15.041  1.00  0.00     0.009 C 
ATOM      7  C   UNL     1       3.594   7.235  14.414  1.00  0.00     0.031 C 
ATOM      8  C   UNL     1       5.020   7.418  14.860  1.00  0.00    -0.073 C 
ATOM      9  C   UNL     1       5.305   7.896  16.100  1.00  0.00    -0.064 C 
ATOM     10  C   UNL     1       6.746   7.930  16.612  1.00  0.00     0.036 C 
ATOM     11  C   UNL     1       6.841   8.391  18.079  1.00  0.00     0.035 C 
ATOM     12  C   UNL     1       6.113   6.943  13.929  1.00  0.00     0.039 C 
ENDROOT
BRANCH   5  13
ATOM     13  C   UNL     1       1.763   9.283  17.200  1.00  0.00    -0.013 C 
ATOM     14  C   UNL     1       0.940   8.745  18.384  1.00  0.00     0.007 C 
ATOM     15  C   UNL     1       0.788   9.855  16.152  1.00  0.00     0.007 C 
ENDBRANCH   5  13
TORSDOF 1
ENDMDL
MODEL 6
REMARK VINA RESULT:    -5.360      1.366      4.367
REMARK INTER + INTRA:          -5.932
REMARK INTER:                  -5.621
REMARK INTRA:                  -0.310
REMARK UNBOUND:                -0.258
REMARK SMILES CC1=C[C@H]2C(=C(C)CC[C@@H]2C(C)C)CC1
REMARK SMILES IDX 1 1 2 2 3 3 4 4 10 5 9 6 8 7 6 8 5 9 14 10 15 11 7 12 11 13
REMARK SMILES IDX 12 14 13 15
REMARK H PARENT
REMARK Flexibility Score: inf
ROOT
ATOM      1  C   UNL     1      13.553   5.627  28.273  1.00  0.00     0.039 C 
ATOM      2  C   UNL     1      13.873   6.115  26.889  1.00  0.00    -0.076 C 
ATOM      3  C   UNL     1      14.719   7.149  26.714  1.00  0.00    -0.020 C 
ATOM      4  C   UNL     1      15.001   7.656  25.312  1.00  0.00     0.041 C 
ATOM      5  C   UNL     1      15.916   8.928  25.308  1.00  0.00     0.003 C 
ATOM      6  C   UNL     1      15.651   9.751  24.030  1.00  0.00     0.009 C 
ATOM      7  C   UNL     1      14.180  10.125  23.918  1.00  0.00     0.031 C 
ATOM      8  C   UNL     1      13.294   8.908  23.917  1.00  0.00    -0.073 C 
ATOM      9  C   UNL     1      13.644   7.794  24.612  1.00  0.00    -0.064 C 
ATOM     10  C   UNL     1      12.672   6.619  24.745  1.00  0.00     0.036 C 
ATOM     11  C   UNL     1      13.209   5.510  25.671  1.00  0.00     0.035 C 
ATOM     12  C   UNL     1      11.958   9.011  23.216  1.00  0.00     0.039 C 
ENDROOT
BRANCH   5  13
ATOM     13  C   UNL     1      17.446   8.566  25.404  1.00  0.00    -0.013 C 
ATOM     14  C   UNL     1      18.370   9.780  25.207  1.00  0.00     0.007 C 
ATOM     15  C   UNL     1      17.849   7.480  24.387  1.00  0.00     0.007 C 
ENDBRANCH   5  13
TORSDOF 1
ENDMDL
MODEL 7
REMARK VINA RESULT:    -5.331      8.880     11.515
REMARK INTER + INTRA:          -5.900
REMARK INTER:                  -5.617
REMARK INTRA:                  -0.284
REMARK UNBOUND:                -0.258
REMARK SMILES CC1=C[C@H]2C(=C(C)CC[C@@H]2C(C)C)CC1
REMARK SMILES IDX 1 1 2 2 3 3 4 4 10 5 9 6 8 7 6 8 5 9 14 10 15 11 7 12 11 13
REMARK SMILES IDX 12 14 13 15
REMARK H PARENT
REMARK Flexibility Score: inf
ROOT
ATOM      1  C   UNL     1       8.395   6.939  20.968  1.00  0.00     0.039 C 
ATOM      2  C   UNL     1       6.936   7.059  20.627  1.00  0.00    -0.076 C 
ATOM      3  C   UNL     1       6.558   7.514  19.418  1.00  0.00    -0.020 C 
ATOM      4  C   UNL     1       5.082   7.668  19.103  1.00  0.00     0.041 C 
ATOM      5  C   UNL     1       4.832   8.312  17.698  1.00  0.00     0.003 C 
ATOM      6  C   UNL     1       3.462   9.022  17.691  1.00  0.00     0.009 C 
ATOM      7  C   UNL     1       3.380  10.060  18.801  1.00  0.00     0.031 C 
ATOM      8  C   UNL     1       3.615   9.448  20.156  1.00  0.00    -0.073 C 
ATOM      9  C   UNL     1       4.449   8.385  20.302  1.00  0.00    -0.064 C 
ATOM     10  C   UNL     1       4.814   7.865  21.694  1.00  0.00     0.036 C 
ATOM     11  C   UNL     1       5.865   6.739  21.647  1.00  0.00     0.035 C 
ATOM     12  C   UNL     1       2.985  10.125  21.352  1.00  0.00     0.039 C 
ENDROOT
BRANCH   5  13
ATOM     13  C   UNL     1       4.893   7.254  16.534  1.00  0.00    -0.013 C 
ATOM     14  C   UNL     1       4.846   7.889  15.133  1.00  0.00     0.007 C 
ATOM     15  C   UNL     1       3.757   6.216  16.634  1.00  0.00     0.007 C 
ENDBRANCH   5  13
TORSDOF 1
ENDMDL
MODEL 8
REMARK VINA RESULT:    -5.255      1.148      4.608
REMARK INTER + INTRA:          -5.820
REMARK INTER:                  -5.554
REMARK INTRA:                  -0.266
REMARK UNBOUND:                -0.258
REMARK SMILES CC1=C[C@H]2C(=C(C)CC[C@@H]2C(C)C)CC1
REMARK SMILES IDX 1 1 2 2 3 3 4 4 10 5 9 6 8 7 6 8 5 9 14 10 15 11 7 12 11 13
REMARK SMILES IDX 12 14 13 15
REMARK H PARENT
REMARK Flexibility Score: inf
ROOT
ATOM      1  C   UNL     1      12.603   9.261  21.067  1.00  0.00     0.039 C 
ATOM      2  C   UNL     1      12.845   9.332  22.547  1.00  0.00    -0.076 C 
ATOM      3  C   UNL     1      13.927   8.738  23.086  1.00  0.00    -0.020 C 
ATOM      4  C   UNL     1      14.137   8.784  24.588  1.00  0.00     0.041 C 
ATOM      5  C   UNL     1      15.382   7.950  25.046  1.00  0.00     0.003 C 
ATOM      6  C   UNL     1      15.189   7.494  26.507  1.00  0.00     0.009 C 
ATOM      7  C   UNL     1      13.900   6.701  26.666  1.00  0.00     0.031 C 
ATOM      8  C   UNL     1      12.698   7.498  26.232  1.00  0.00    -0.073 C 
ATOM      9  C   UNL     1      12.796   8.411  25.231  1.00  0.00    -0.064 C 
ATOM     10  C   UNL     1      11.546   9.103  24.681  1.00  0.00     0.036 C 
ATOM     11  C   UNL     1      11.856  10.007  23.472  1.00  0.00     0.035 C 
ATOM     12  C   UNL     1      11.367   7.163  26.867  1.00  0.00     0.039 C 
ENDROOT
BRANCH   5  13
ATOM     13  C   UNL     1      16.727   8.756  24.909  1.00  0.00    -0.013 C 
ATOM     14  C   UNL     1      17.966   7.852  24.782  1.00  0.00     0.007 C 
ATOM     15  C   UNL     1      16.948   9.719  26.093  1.00  0.00     0.007 C 
ENDBRANCH   5  13
TORSDOF 1
ENDMDL
MODEL 9
REMARK VINA RESULT:    -5.108     10.671     13.345
REMARK INTER + INTRA:          -5.664
REMARK INTER:                  -5.410
REMARK INTRA:                  -0.254
REMARK UNBOUND:                -0.258
REMARK SMILES CC1=C[C@H]2C(=C(C)CC[C@@H]2C(C)C)CC1
REMARK SMILES IDX 1 1 2 2 3 3 4 4 10 5 9 6 8 7 6 8 5 9 14 10 15 11 7 12 11 13
REMARK SMILES IDX 12 14 13 15
REMARK H PARENT
REMARK Flexibility Score: inf
ROOT
ATOM      1  C   UNL     1       6.364   9.986  20.160  1.00  0.00     0.039 C 
ATOM      2  C   UNL     1       5.288   9.172  19.499  1.00  0.00    -0.076 C 
ATOM      3  C   UNL     1       5.185   9.149  18.156  1.00  0.00    -0.020 C 
ATOM      4  C   UNL     1       4.068   8.355  17.504  1.00  0.00     0.041 C 
ATOM      5  C   UNL     1       4.035   8.533  15.948  1.00  0.00     0.003 C 
ATOM      6  C   UNL     1       2.603   8.284  15.430  1.00  0.00     0.009 C 
ATOM      7  C   UNL     1       1.606   9.208  16.116  1.00  0.00     0.031 C 
ATOM      8  C   UNL     1       1.629   9.040  17.612  1.00  0.00    -0.073 C 
ATOM      9  C   UNL     1       2.779   8.710  18.256  1.00  0.00    -0.064 C 
ATOM     10  C   UNL     1       2.842   8.697  19.785  1.00  0.00     0.036 C 
ATOM     11  C   UNL     1       4.261   8.418  20.316  1.00  0.00     0.035 C 
ATOM     12  C   UNL     1       0.364   9.364  18.374  1.00  0.00     0.039 C 
ENDROOT
BRANCH   5  13
ATOM     13  C   UNL     1       5.045   7.573  15.214  1.00  0.00    -0.013 C 
ATOM     14  C   UNL     1       6.305   8.294  14.703  1.00  0.00     0.007 C 
ATOM     15  C   UNL     1       4.388   6.843  14.025  1.00  0.00     0.007 C 
ENDBRANCH   5  13
TORSDOF 1
ENDMDL
