MODEL 1
REMARK VINA RESULT:    -4.463      0.000      0.000
REMARK INTER + INTRA:          -5.655
REMARK INTER:                  -5.376
REMARK INTRA:                  -0.279
REMARK UNBOUND:                -0.279
REMARK SMILES O=c1c(O)c(-c2ccc(O)c(O)c2)oc2cc(O)cc(O)c12
REMARK SMILES IDX 5 1 3 2 2 3 1 4 22 5 20 6 19 7 17 8 16 9 15 10 14 11 6 12
REMARK SMILES IDX 7 13 8 14 9 15 13 16 11 17 10 18 12 20 4 22 21 24 18 26
REMARK H PARENT 10 19 12 21 4 23 21 25 18 27
REMARK Flexibility Score: inf
ROOT
ATOM      1  C   UNL     1      61.766  32.952 129.634  1.00  0.00     0.180 A 
ATOM      2  C   UNL     1      60.573  33.236 128.948  1.00  0.00     0.208 A 
ATOM      3  C   UNL     1      59.658  32.197 128.713  1.00  0.00     0.238 A 
ATOM      4  O   UNL     1      58.568  32.469 128.147  1.00  0.00    -0.285 OA
ATOM      5  C   UNL     1      59.955  30.884 129.153  1.00  0.00     0.111 A 
ATOM      6  C   UNL     1      59.119  29.748 128.934  1.00  0.00     0.134 A 
ATOM      7  C   UNL     1      59.449  28.523 129.526  1.00  0.00     0.093 A 
ATOM      8  C   UNL     1      60.620  28.378 130.275  1.00  0.00     0.123 A 
ATOM      9  C   UNL     1      61.472  29.466 130.444  1.00  0.00     0.094 A 
ATOM     10  C   UNL     1      61.151  30.710 129.896  1.00  0.00     0.146 A 
ATOM     11  O   UNL     1      61.986  31.724 130.091  1.00  0.00    -0.452 OA
ENDROOT
BRANCH   1  12
ATOM     12  C   UNL     1      62.791  33.988 129.897  1.00  0.00     0.025 A 
ATOM     13  C   UNL     1      63.977  34.053 129.145  1.00  0.00     0.016 A 
ATOM     14  C   UNL     1      64.940  35.025 129.426  1.00  0.00     0.051 A 
ATOM     15  C   UNL     1      64.740  35.936 130.472  1.00  0.00     0.157 A 
ATOM     16  C   UNL     1      62.604  34.892 130.957  1.00  0.00     0.062 A 
ATOM     17  C   UNL     1      63.572  35.867 131.240  1.00  0.00     0.158 A 
BRANCH  15  18
ATOM     18  O   UNL     1      65.698  36.908 130.754  1.00  0.00    -0.504 OA
ATOM     19  H   UNL     1      66.666  36.792 130.481  1.00  0.00     0.293 HD
ENDBRANCH  15  18
BRANCH  17  20
ATOM     20  O   UNL     1      63.377  36.771 132.283  1.00  0.00    -0.504 OA
ATOM     21  H   UNL     1      63.597  37.755 132.181  1.00  0.00     0.293 HD
ENDBRANCH  17  20
ENDBRANCH   1  12
BRANCH   2  22
ATOM     22  O   UNL     1      60.291  34.543 128.542  1.00  0.00    -0.502 OA
ATOM     23  H   UNL     1      61.016  35.203 128.292  1.00  0.00     0.293 HD
ENDBRANCH   2  22
BRANCH   6  24
ATOM     24  O   UNL     1      57.977  29.763 128.126  1.00  0.00    -0.507 OA
ATOM     25  H   UNL     1      57.128  29.257 128.324  1.00  0.00     0.293 HD
ENDBRANCH   6  24
BRANCH   8  26
ATOM     26  O   UNL     1      60.949  27.151 130.849  1.00  0.00    -0.508 OA
ATOM     27  H   UNL     1      61.692  26.573 130.474  1.00  0.00     0.293 HD
ENDBRANCH   8  26
TORSDOF 6
ENDMDL
MODEL 2
REMARK VINA RESULT:    -4.379      2.113      6.632
REMARK INTER + INTRA:          -5.553
REMARK INTER:                  -5.224
REMARK INTRA:                  -0.329
REMARK UNBOUND:                -0.279
REMARK SMILES O=c1c(O)c(-c2ccc(O)c(O)c2)oc2cc(O)cc(O)c12
REMARK SMILES IDX 5 1 3 2 2 3 1 4 22 5 20 6 19 7 17 8 16 9 15 10 14 11 6 12
REMARK SMILES IDX 7 13 8 14 9 15 13 16 11 17 10 18 12 20 4 22 21 24 18 26
REMARK H PARENT 10 19 12 21 4 23 21 25 18 27
REMARK Flexibility Score: inf
ROOT
ATOM      1  C   UNL     1      60.951  33.384 130.078  1.00  0.00     0.180 A 
ATOM      2  C   UNL     1      61.338  34.540 129.379  1.00  0.00     0.208 A 
ATOM      3  C   UNL     1      62.559  35.154 129.702  1.00  0.00     0.238 A 
ATOM      4  O   UNL     1      62.925  36.157 129.035  1.00  0.00    -0.285 OA
ATOM      5  C   UNL     1      63.370  34.615 130.729  1.00  0.00     0.111 A 
ATOM      6  C   UNL     1      64.606  35.179 131.166  1.00  0.00     0.134 A 
ATOM      7  C   UNL     1      65.388  34.488 132.100  1.00  0.00     0.093 A 
ATOM      8  C   UNL     1      64.946  33.288 132.662  1.00  0.00     0.123 A 
ATOM      9  C   UNL     1      63.714  32.760 132.286  1.00  0.00     0.094 A 
ATOM     10  C   UNL     1      62.928  33.407 131.329  1.00  0.00     0.146 A 
ATOM     11  O   UNL     1      61.764  32.865 130.992  1.00  0.00    -0.452 OA
ENDROOT
BRANCH   1  12
ATOM     12  C   UNL     1      59.668  32.694 129.813  1.00  0.00     0.025 A 
ATOM     13  C   UNL     1      58.475  33.105 130.433  1.00  0.00     0.016 A 
ATOM     14  C   UNL     1      57.280  32.424 130.186  1.00  0.00     0.051 A 
ATOM     15  C   UNL     1      57.262  31.316 129.329  1.00  0.00     0.157 A 
ATOM     16  C   UNL     1      59.648  31.570 128.970  1.00  0.00     0.062 A 
ATOM     17  C   UNL     1      58.449  30.886 128.722  1.00  0.00     0.158 A 
BRANCH  15  18
ATOM     18  O   UNL     1      56.072  30.636 129.078  1.00  0.00    -0.504 OA
ATOM     19  H   UNL     1      55.390  30.987 128.417  1.00  0.00     0.293 HD
ENDBRANCH  15  18
BRANCH  17  20
ATOM     20  O   UNL     1      58.430  29.780 127.875  1.00  0.00    -0.504 OA
ATOM     21  H   UNL     1      58.783  29.832 126.926  1.00  0.00     0.293 HD
ENDBRANCH  17  20
ENDBRANCH   1  12
BRANCH   2  22
ATOM     22  O   UNL     1      60.533  35.043 128.354  1.00  0.00    -0.502 OA
ATOM     23  H   UNL     1      60.614  35.994 128.016  1.00  0.00     0.293 HD
ENDBRANCH   2  22
BRANCH   6  24
ATOM     24  O   UNL     1      65.094  36.417 130.737  1.00  0.00    -0.507 OA
ATOM     25  H   UNL     1      65.239  37.215 131.336  1.00  0.00     0.293 HD
ENDBRANCH   6  24
BRANCH   8  26
ATOM     26  O   UNL     1      65.724  32.615 133.603  1.00  0.00    -0.508 OA
ATOM     27  H   UNL     1      66.511  32.039 133.326  1.00  0.00     0.293 HD
ENDBRANCH   8  26
TORSDOF 6
ENDMDL
MODEL 3
REMARK VINA RESULT:    -4.352     12.196     16.173
REMARK INTER + INTRA:          -5.521
REMARK INTER:                  -5.190
REMARK INTRA:                  -0.331
REMARK UNBOUND:                -0.279
REMARK SMILES O=c1c(O)c(-c2ccc(O)c(O)c2)oc2cc(O)cc(O)c12
REMARK SMILES IDX 5 1 3 2 2 3 1 4 22 5 20 6 19 7 17 8 16 9 15 10 14 11 6 12
REMARK SMILES IDX 7 13 8 14 9 15 13 16 11 17 10 18 12 20 4 22 21 24 18 26
REMARK H PARENT 10 19 12 21 4 23 21 25 18 27
REMARK Flexibility Score: inf
ROOT
ATOM      1  C   UNL     1      52.109  20.637 130.730  1.00  0.00     0.180 A 
ATOM      2  C   UNL     1      52.093  20.239 132.078  1.00  0.00     0.208 A 
ATOM      3  C   UNL     1      50.879  19.831 132.653  1.00  0.00     0.238 A 
ATOM      4  O   UNL     1      50.881  19.424 133.844  1.00  0.00    -0.285 OA
ATOM      5  C   UNL     1      49.693  19.841 131.878  1.00  0.00     0.111 A 
ATOM      6  C   UNL     1      48.401  19.486 132.370  1.00  0.00     0.134 A 
ATOM      7  C   UNL     1      47.322  19.407 131.482  1.00  0.00     0.093 A 
ATOM      8  C   UNL     1      47.475  19.734 130.132  1.00  0.00     0.123 A 
ATOM      9  C   UNL     1      48.718  20.139 129.655  1.00  0.00     0.094 A 
ATOM     10  C   UNL     1      49.823  20.193 130.510  1.00  0.00     0.146 A 
ATOM     11  O   UNL     1      50.993  20.574 130.012  1.00  0.00    -0.452 OA
ENDROOT
BRANCH   1  12
ATOM     12  C   UNL     1      53.344  21.104 130.060  1.00  0.00     0.025 A 
ATOM     13  C   UNL     1      53.752  22.448 130.130  1.00  0.00     0.016 A 
ATOM     14  C   UNL     1      54.908  22.871 129.471  1.00  0.00     0.051 A 
ATOM     15  C   UNL     1      55.666  21.962 128.720  1.00  0.00     0.157 A 
ATOM     16  C   UNL     1      54.097  20.202 129.290  1.00  0.00     0.062 A 
ATOM     17  C   UNL     1      55.258  20.626 128.627  1.00  0.00     0.158 A 
BRANCH  15  18
ATOM     18  O   UNL     1      56.822  22.380 128.062  1.00  0.00    -0.504 OA
ATOM     19  H   UNL     1      57.028  22.085 127.116  1.00  0.00     0.293 HD
ENDBRANCH  15  18
BRANCH  17  20
ATOM     20  O   UNL     1      56.010  19.725 127.875  1.00  0.00    -0.504 OA
ATOM     21  H   UNL     1      55.661  18.800 127.652  1.00  0.00     0.293 HD
ENDBRANCH  17  20
ENDBRANCH   1  12
BRANCH   2  22
ATOM     22  O   UNL     1      53.278  20.216 132.817  1.00  0.00    -0.502 OA
ATOM     23  H   UNL     1      53.715  19.352 133.116  1.00  0.00     0.293 HD
ENDBRANCH   2  22
BRANCH   6  24
ATOM     24  O   UNL     1      48.121  19.231 133.717  1.00  0.00    -0.507 OA
ATOM     25  H   UNL     1      47.232  19.399 134.160  1.00  0.00     0.293 HD
ENDBRANCH   6  24
BRANCH   8  26
ATOM     26  O   UNL     1      46.392  19.668 129.257  1.00  0.00    -0.508 OA
ATOM     27  H   UNL     1      46.006  18.780 128.958  1.00  0.00     0.293 HD
ENDBRANCH   8  26
TORSDOF 6
ENDMDL
MODEL 4
REMARK VINA RESULT:    -4.294      7.774     11.715
REMARK INTER + INTRA:          -5.451
REMARK INTER:                  -5.124
REMARK INTRA:                  -0.326
REMARK UNBOUND:                -0.279
REMARK SMILES O=c1c(O)c(-c2ccc(O)c(O)c2)oc2cc(O)cc(O)c12
REMARK SMILES IDX 5 1 3 2 2 3 1 4 22 5 20 6 19 7 17 8 16 9 15 10 14 11 6 12
REMARK SMILES IDX 7 13 8 14 9 15 13 16 11 17 10 18 12 20 4 22 21 24 18 26
REMARK H PARENT 10 19 12 21 4 23 21 25 18 27
REMARK Flexibility Score: inf
ROOT
ATOM      1  C   UNL     1      55.169  23.668 129.428  1.00  0.00     0.180 A 
ATOM      2  C   UNL     1      55.730  22.416 129.120  1.00  0.00     0.208 A 
ATOM      3  C   UNL     1      54.876  21.329 128.878  1.00  0.00     0.238 A 
ATOM      4  O   UNL     1      55.383  20.225 128.550  1.00  0.00    -0.285 OA
ATOM      5  C   UNL     1      53.473  21.501 128.962  1.00  0.00     0.111 A 
ATOM      6  C   UNL     1      52.516  20.459 128.776  1.00  0.00     0.134 A 
ATOM      7  C   UNL     1      51.151  20.771 128.754  1.00  0.00     0.093 A 
ATOM      8  C   UNL     1      50.708  22.077 128.976  1.00  0.00     0.123 A 
ATOM      9  C   UNL     1      51.631  23.090 129.218  1.00  0.00     0.094 A 
ATOM     10  C   UNL     1      53.001  22.816 129.211  1.00  0.00     0.146 A 
ATOM     11  O   UNL     1      53.849  23.813 129.435  1.00  0.00    -0.452 OA
ENDROOT
BRANCH   1  12
ATOM     12  C   UNL     1      56.004  24.856 129.720  1.00  0.00     0.025 A 
ATOM     13  C   UNL     1      56.365  25.191 131.036  1.00  0.00     0.016 A 
ATOM     14  C   UNL     1      57.134  26.330 131.290  1.00  0.00     0.051 A 
ATOM     15  C   UNL     1      57.540  27.158 130.235  1.00  0.00     0.157 A 
ATOM     16  C   UNL     1      56.397  25.701 128.668  1.00  0.00     0.062 A 
ATOM     17  C   UNL     1      57.168  26.845 128.922  1.00  0.00     0.158 A 
BRANCH  15  18
ATOM     18  O   UNL     1      58.308  28.294 130.485  1.00  0.00    -0.504 OA
ATOM     19  H   UNL     1      58.892  28.706 129.767  1.00  0.00     0.293 HD
ENDBRANCH  15  18
BRANCH  17  20
ATOM     20  O   UNL     1      57.568  27.673 127.875  1.00  0.00    -0.504 OA
ATOM     21  H   UNL     1      56.947  28.373 127.486  1.00  0.00     0.293 HD
ENDBRANCH  17  20
ENDBRANCH   1  12
BRANCH   2  22
ATOM     22  O   UNL     1      57.116  22.274 129.021  1.00  0.00    -0.502 OA
ATOM     23  H   UNL     1      57.749  22.590 129.746  1.00  0.00     0.293 HD
ENDBRANCH   2  22
BRANCH   6  24
ATOM     24  O   UNL     1      52.850  19.108 128.638  1.00  0.00    -0.507 OA
ATOM     25  H   UNL     1      53.132  18.506 129.396  1.00  0.00     0.293 HD
ENDBRANCH   6  24
BRANCH   8  26
ATOM     26  O   UNL     1      49.346  22.376 128.968  1.00  0.00    -0.508 OA
ATOM     27  H   UNL     1      48.695  21.903 129.584  1.00  0.00     0.293 HD
ENDBRANCH   8  26
TORSDOF 6
ENDMDL
MODEL 5
REMARK VINA RESULT:    -4.277      2.187      3.258
REMARK INTER + INTRA:          -5.431
REMARK INTER:                  -5.145
REMARK INTRA:                  -0.286
REMARK UNBOUND:                -0.279
REMARK SMILES O=c1c(O)c(-c2ccc(O)c(O)c2)oc2cc(O)cc(O)c12
REMARK SMILES IDX 5 1 3 2 2 3 1 4 22 5 20 6 19 7 17 8 16 9 15 10 14 11 6 12
REMARK SMILES IDX 7 13 8 14 9 15 13 16 11 17 10 18 12 20 4 22 21 24 18 26
REMARK H PARENT 10 19 12 21 4 23 21 25 18 27
REMARK Flexibility Score: inf
ROOT
ATOM      1  C   UNL     1      61.037  33.745 129.721  1.00  0.00     0.180 A 
ATOM      2  C   UNL     1      61.035  32.648 128.842  1.00  0.00     0.208 A 
ATOM      3  C   UNL     1      59.864  31.887 128.704  1.00  0.00     0.238 A 
ATOM      4  O   UNL     1      59.853  30.940 127.875  1.00  0.00    -0.285 OA
ATOM      5  C   UNL     1      58.713  32.221 129.459  1.00  0.00     0.111 A 
ATOM      6  C   UNL     1      57.485  31.495 129.428  1.00  0.00     0.134 A 
ATOM      7  C   UNL     1      56.372  31.992 130.117  1.00  0.00     0.093 A 
ATOM      8  C   UNL     1      56.462  33.154 130.887  1.00  0.00     0.123 A 
ATOM      9  C   UNL     1      57.672  33.837 130.971  1.00  0.00     0.094 A 
ATOM     10  C   UNL     1      58.791  33.385 130.267  1.00  0.00     0.146 A 
ATOM     11  O   UNL     1      59.923  34.072 130.366  1.00  0.00    -0.452 OA
ENDROOT
BRANCH   1  12
ATOM     12  C   UNL     1      62.241  34.580 129.939  1.00  0.00     0.025 A 
ATOM     13  C   UNL     1      62.620  35.571 129.017  1.00  0.00     0.016 A 
ATOM     14  C   UNL     1      63.773  36.330 129.231  1.00  0.00     0.051 A 
ATOM     15  C   UNL     1      64.571  36.101 130.360  1.00  0.00     0.157 A 
ATOM     16  C   UNL     1      63.055  34.341 131.059  1.00  0.00     0.062 A 
ATOM     17  C   UNL     1      64.213  35.103 131.274  1.00  0.00     0.158 A 
BRANCH  15  18
ATOM     18  O   UNL     1      65.721  36.858 130.578  1.00  0.00    -0.504 OA
ATOM     19  H   UNL     1      66.467  36.527 131.177  1.00  0.00     0.293 HD
ENDBRANCH  15  18
BRANCH  17  20
ATOM     20  O   UNL     1      65.011  34.872 132.393  1.00  0.00    -0.504 OA
ATOM     21  H   UNL     1      65.293  35.627 133.008  1.00  0.00     0.293 HD
ENDBRANCH  17  20
ENDBRANCH   1  12
BRANCH   2  22
ATOM     22  O   UNL     1      62.175  32.349 128.091  1.00  0.00    -0.502 OA
ATOM     23  H   UNL     1      63.087  32.731 128.311  1.00  0.00     0.293 HD
ENDBRANCH   2  22
BRANCH   6  24
ATOM     24  O   UNL     1      57.315  30.276 128.765  1.00  0.00    -0.507 OA
ATOM     25  H   UNL     1      56.651  30.113 128.025  1.00  0.00     0.293 HD
ENDBRANCH   6  24
BRANCH   8  26
ATOM     26  O   UNL     1      55.352  33.634 131.582  1.00  0.00    -0.508 OA
ATOM     27  H   UNL     1      54.407  33.407 131.294  1.00  0.00     0.293 HD
ENDBRANCH   8  26
TORSDOF 6
ENDMDL
MODEL 6
REMARK VINA RESULT:    -4.274      2.601      3.869
REMARK INTER + INTRA:          -5.427
REMARK INTER:                  -5.104
REMARK INTRA:                  -0.323
REMARK UNBOUND:                -0.279
REMARK SMILES O=c1c(O)c(-c2ccc(O)c(O)c2)oc2cc(O)cc(O)c12
REMARK SMILES IDX 5 1 3 2 2 3 1 4 22 5 20 6 19 7 17 8 16 9 15 10 14 11 6 12
REMARK SMILES IDX 7 13 8 14 9 15 13 16 11 17 10 18 12 20 4 22 21 24 18 26
REMARK H PARENT 10 19 12 21 4 23 21 25 18 27
REMARK Flexibility Score: inf
ROOT
ATOM      1  C   UNL     1      61.140  34.448 129.743  1.00  0.00     0.180 A 
ATOM      2  C   UNL     1      60.912  33.215 129.109  1.00  0.00     0.208 A 
ATOM      3  C   UNL     1      59.680  32.570 129.297  1.00  0.00     0.238 A 
ATOM      4  O   UNL     1      59.462  31.493 128.683  1.00  0.00    -0.285 OA
ATOM      5  C   UNL     1      58.696  33.157 130.129  1.00  0.00     0.111 A 
ATOM      6  C   UNL     1      57.428  32.572 130.423  1.00  0.00     0.134 A 
ATOM      7  C   UNL     1      56.482  33.303 131.153  1.00  0.00     0.093 A 
ATOM      8  C   UNL     1      56.785  34.570 131.656  1.00  0.00     0.123 A 
ATOM      9  C   UNL     1      58.041  35.125 131.426  1.00  0.00     0.094 A 
ATOM     10  C   UNL     1      58.992  34.435 130.670  1.00  0.00     0.146 A 
ATOM     11  O   UNL     1      60.174  35.005 130.465  1.00  0.00    -0.452 OA
ENDROOT
BRANCH   1  12
ATOM     12  C   UNL     1      62.423  35.177 129.613  1.00  0.00     0.025 A 
ATOM     13  C   UNL     1      62.649  36.079 128.559  1.00  0.00     0.016 A 
ATOM     14  C   UNL     1      63.876  36.737 128.443  1.00  0.00     0.051 A 
ATOM     15  C   UNL     1      64.899  36.493 129.369  1.00  0.00     0.157 A 
ATOM     16  C   UNL     1      63.459  34.921 130.528  1.00  0.00     0.062 A 
ATOM     17  C   UNL     1      64.691  35.581 130.411  1.00  0.00     0.158 A 
BRANCH  15  18
ATOM     18  O   UNL     1      66.123  37.149 129.257  1.00  0.00    -0.504 OA
ATOM     19  H   UNL     1      66.511  37.396 128.355  1.00  0.00     0.293 HD
ENDBRANCH  15  18
BRANCH  17  20
ATOM     20  O   UNL     1      65.712  35.336 131.327  1.00  0.00    -0.504 OA
ATOM     21  H   UNL     1      66.007  36.040 131.994  1.00  0.00     0.293 HD
ENDBRANCH  17  20
ENDBRANCH   1  12
BRANCH   2  22
ATOM     22  O   UNL     1      61.888  32.664 128.274  1.00  0.00    -0.502 OA
ATOM     23  H   UNL     1      62.224  33.137 127.445  1.00  0.00     0.293 HD
ENDBRANCH   2  22
BRANCH   6  24
ATOM     24  O   UNL     1      57.060  31.276 130.047  1.00  0.00    -0.507 OA
ATOM     25  H   UNL     1      57.491  30.434 130.395  1.00  0.00     0.293 HD
ENDBRANCH   6  24
BRANCH   8  26
ATOM     26  O   UNL     1      55.843  35.284 132.395  1.00  0.00    -0.508 OA
ATOM     27  H   UNL     1      55.044  35.724 131.953  1.00  0.00     0.293 HD
ENDBRANCH   8  26
TORSDOF 6
ENDMDL
MODEL 7
REMARK VINA RESULT:    -4.225     13.001     16.522
REMARK INTER + INTRA:          -5.369
REMARK INTER:                  -5.050
REMARK INTRA:                  -0.319
REMARK UNBOUND:                -0.279
REMARK SMILES O=c1c(O)c(-c2ccc(O)c(O)c2)oc2cc(O)cc(O)c12
REMARK SMILES IDX 5 1 3 2 2 3 1 4 22 5 20 6 19 7 17 8 16 9 15 10 14 11 6 12
REMARK SMILES IDX 7 13 8 14 9 15 13 16 11 17 10 18 12 20 4 22 21 24 18 26
REMARK H PARENT 10 19 12 21 4 23 21 25 18 27
REMARK Flexibility Score: inf
ROOT
ATOM      1  C   UNL     1      50.737  20.898 131.167  1.00  0.00     0.180 A 
ATOM      2  C   UNL     1      49.707  20.311 130.412  1.00  0.00     0.208 A 
ATOM      3  C   UNL     1      48.436  20.166 130.990  1.00  0.00     0.238 A 
ATOM      4  O   UNL     1      47.504  19.690 130.290  1.00  0.00    -0.285 OA
ATOM      5  C   UNL     1      48.214  20.595 132.321  1.00  0.00     0.111 A 
ATOM      6  C   UNL     1      46.976  20.460 133.020  1.00  0.00     0.134 A 
ATOM      7  C   UNL     1      46.833  21.038 134.288  1.00  0.00     0.093 A 
ATOM      8  C   UNL     1      47.903  21.688 134.908  1.00  0.00     0.123 A 
ATOM      9  C   UNL     1      49.132  21.772 134.258  1.00  0.00     0.094 A 
ATOM     10  C   UNL     1      49.295  21.238 132.978  1.00  0.00     0.146 A 
ATOM     11  O   UNL     1      50.480  21.350 132.390  1.00  0.00    -0.452 OA
ENDROOT
BRANCH   1  12
ATOM     12  C   UNL     1      52.109  21.063 130.636  1.00  0.00     0.025 A 
ATOM     13  C   UNL     1      53.114  20.116 130.901  1.00  0.00     0.016 A 
ATOM     14  C   UNL     1      54.409  20.304 130.409  1.00  0.00     0.051 A 
ATOM     15  C   UNL     1      54.721  21.445 129.659  1.00  0.00     0.157 A 
ATOM     16  C   UNL     1      52.433  22.215 129.900  1.00  0.00     0.062 A 
ATOM     17  C   UNL     1      53.732  22.404 129.406  1.00  0.00     0.158 A 
BRANCH  15  18
ATOM     18  O   UNL     1      56.010  21.635 129.165  1.00  0.00    -0.504 OA
ATOM     19  H   UNL     1      56.760  20.988 129.380  1.00  0.00     0.293 HD
ENDBRANCH  15  18
BRANCH  17  20
ATOM     20  O   UNL     1      54.046  23.541 128.665  1.00  0.00    -0.504 OA
ATOM     21  H   UNL     1      54.613  23.488 127.827  1.00  0.00     0.293 HD
ENDBRANCH  17  20
ENDBRANCH   1  12
BRANCH   2  22
ATOM     22  O   UNL     1      49.942  19.915 129.092  1.00  0.00    -0.502 OA
ATOM     23  H   UNL     1      50.088  18.947 128.833  1.00  0.00     0.293 HD
ENDBRANCH   2  22
BRANCH   6  24
ATOM     24  O   UNL     1      45.876  19.751 132.529  1.00  0.00    -0.507 OA
ATOM     25  H   UNL     1      45.039  20.174 132.159  1.00  0.00     0.293 HD
ENDBRANCH   6  24
BRANCH   8  26
ATOM     26  O   UNL     1      47.757  22.246 136.176  1.00  0.00    -0.508 OA
ATOM     27  H   UNL     1      48.511  22.230 136.854  1.00  0.00     0.293 HD
ENDBRANCH   8  26
TORSDOF 6
ENDMDL
MODEL 8
REMARK VINA RESULT:    -4.167      3.190      7.138
REMARK INTER + INTRA:          -5.298
REMARK INTER:                  -5.015
REMARK INTRA:                  -0.283
REMARK UNBOUND:                -0.279
REMARK SMILES O=c1c(O)c(-c2ccc(O)c(O)c2)oc2cc(O)cc(O)c12
REMARK SMILES IDX 5 1 3 2 2 3 1 4 22 5 20 6 19 7 17 8 16 9 15 10 14 11 6 12
REMARK SMILES IDX 7 13 8 14 9 15 13 16 11 17 10 18 12 20 4 22 21 24 18 26
REMARK H PARENT 10 19 12 21 4 23 21 25 18 27
REMARK Flexibility Score: inf
ROOT
ATOM      1  C   UNL     1      60.995  34.258 131.115  1.00  0.00     0.180 A 
ATOM      2  C   UNL     1      61.832  33.791 132.143  1.00  0.00     0.208 A 
ATOM      3  C   UNL     1      63.201  34.101 132.101  1.00  0.00     0.238 A 
ATOM      4  O   UNL     1      63.934  33.726 133.052  1.00  0.00    -0.285 OA
ATOM      5  C   UNL     1      63.719  34.860 131.023  1.00  0.00     0.111 A 
ATOM      6  C   UNL     1      65.096  35.198 130.858  1.00  0.00     0.134 A 
ATOM      7  C   UNL     1      65.475  36.063 129.824  1.00  0.00     0.093 A 
ATOM      8  C   UNL     1      64.536  36.548 128.911  1.00  0.00     0.123 A 
ATOM      9  C   UNL     1      63.200  36.176 129.028  1.00  0.00     0.094 A 
ATOM     10  C   UNL     1      62.785  35.343 130.071  1.00  0.00     0.146 A 
ATOM     11  O   UNL     1      61.499  35.022 130.152  1.00  0.00    -0.452 OA
ENDROOT
BRANCH   1  12
ATOM     12  C   UNL     1      59.547  33.951 131.076  1.00  0.00     0.025 A 
ATOM     13  C   UNL     1      59.078  32.681 130.697  1.00  0.00     0.016 A 
ATOM     14  C   UNL     1      57.705  32.421 130.645  1.00  0.00     0.051 A 
ATOM     15  C   UNL     1      56.783  33.429 130.957  1.00  0.00     0.157 A 
ATOM     16  C   UNL     1      58.617  34.964 131.368  1.00  0.00     0.062 A 
ATOM     17  C   UNL     1      57.240  34.703 131.316  1.00  0.00     0.158 A 
BRANCH  15  18
ATOM     18  O   UNL     1      55.414  33.174 130.908  1.00  0.00    -0.504 OA
ATOM     19  H   UNL     1      55.011  32.360 131.356  1.00  0.00     0.293 HD
ENDBRANCH  15  18
BRANCH  17  20
ATOM     20  O   UNL     1      56.321  35.706 131.619  1.00  0.00    -0.504 OA
ATOM     21  H   UNL     1      56.457  36.329 132.407  1.00  0.00     0.293 HD
ENDBRANCH  17  20
ENDBRANCH   1  12
BRANCH   2  22
ATOM     22  O   UNL     1      61.296  33.062 133.208  1.00  0.00    -0.502 OA
ATOM     23  H   UNL     1      60.314  33.099 133.452  1.00  0.00     0.293 HD
ENDBRANCH   2  22
BRANCH   6  24
ATOM     24  O   UNL     1      66.125  34.693 131.660  1.00  0.00    -0.507 OA
ATOM     25  H   UNL     1      66.186  33.740 131.982  1.00  0.00     0.293 HD
ENDBRANCH   6  24
BRANCH   8  26
ATOM     26  O   UNL     1      64.925  37.396 127.875  1.00  0.00    -0.508 OA
ATOM     27  H   UNL     1      65.064  38.389 128.026  1.00  0.00     0.293 HD
ENDBRANCH   8  26
TORSDOF 6
ENDMDL
MODEL 9
REMARK VINA RESULT:    -4.149      2.111      2.794
REMARK INTER + INTRA:          -5.276
REMARK INTER:                  -4.961
REMARK INTRA:                  -0.316
REMARK UNBOUND:                -0.279
REMARK SMILES O=c1c(O)c(-c2ccc(O)c(O)c2)oc2cc(O)cc(O)c12
REMARK SMILES IDX 5 1 3 2 2 3 1 4 22 5 20 6 19 7 17 8 16 9 15 10 14 11 6 12
REMARK SMILES IDX 7 13 8 14 9 15 13 16 11 17 10 18 12 20 4 22 21 24 18 26
REMARK H PARENT 10 19 12 21 4 23 21 25 18 27
REMARK Flexibility Score: inf
ROOT
ATOM      1  C   UNL     1      61.015  34.166 130.153  1.00  0.00     0.180 A 
ATOM      2  C   UNL     1      60.022  34.635 131.030  1.00  0.00     0.208 A 
ATOM      3  C   UNL     1      58.788  33.968 131.082  1.00  0.00     0.238 A 
ATOM      4  O   UNL     1      57.923  34.359 131.908  1.00  0.00    -0.285 OA
ATOM      5  C   UNL     1      58.555  32.850 130.244  1.00  0.00     0.111 A 
ATOM      6  C   UNL     1      57.328  32.123 130.184  1.00  0.00     0.134 A 
ATOM      7  C   UNL     1      57.254  30.955 129.415  1.00  0.00     0.093 A 
ATOM      8  C   UNL     1      58.343  30.526 128.652  1.00  0.00     0.123 A 
ATOM      9  C   UNL     1      59.525  31.261 128.657  1.00  0.00     0.094 A 
ATOM     10  C   UNL     1      59.641  32.410 129.443  1.00  0.00     0.146 A 
ATOM     11  O   UNL     1      60.790  33.076 129.427  1.00  0.00    -0.452 OA
ENDROOT
BRANCH   1  12
ATOM     12  C   UNL     1      62.332  34.831 130.024  1.00  0.00     0.025 A 
ATOM     13  C   UNL     1      62.581  35.769 129.007  1.00  0.00     0.016 A 
ATOM     14  C   UNL     1      63.839  36.367 128.890  1.00  0.00     0.051 A 
ATOM     15  C   UNL     1      64.868  36.026 129.777  1.00  0.00     0.157 A 
ATOM     16  C   UNL     1      63.374  34.478 130.898  1.00  0.00     0.062 A 
ATOM     17  C   UNL     1      64.636  35.077 130.781  1.00  0.00     0.158 A 
BRANCH  15  18
ATOM     18  O   UNL     1      66.124  36.621 129.665  1.00  0.00    -0.504 OA
ATOM     19  H   UNL     1      66.816  36.276 129.011  1.00  0.00     0.293 HD
ENDBRANCH  15  18
BRANCH  17  20
ATOM     20  O   UNL     1      65.663  34.735 131.658  1.00  0.00    -0.504 OA
ATOM     21  H   UNL     1      66.398  34.091 131.389  1.00  0.00     0.293 HD
ENDBRANCH  17  20
ENDBRANCH   1  12
BRANCH   2  22
ATOM     22  O   UNL     1      60.280  35.726 131.864  1.00  0.00    -0.502 OA
ATOM     23  H   UNL     1      59.727  36.573 131.838  1.00  0.00     0.293 HD
ENDBRANCH   2  22
BRANCH   6  24
ATOM     24  O   UNL     1      56.155  32.518 130.834  1.00  0.00    -0.507 OA
ATOM     25  H   UNL     1      55.231  32.187 130.602  1.00  0.00     0.293 HD
ENDBRANCH   6  24
BRANCH   8  26
ATOM     26  O   UNL     1      58.256  29.370 127.877  1.00  0.00    -0.508 OA
ATOM     27  H   UNL     1      59.037  28.731 127.789  1.00  0.00     0.293 HD
ENDBRANCH   8  26
TORSDOF 6
ENDMDL
