MODEL 1
REMARK VINA RESULT:    -5.726      0.000      0.000
REMARK INTER + INTRA:         -10.707
REMARK INTER:                 -10.078
REMARK INTRA:                  -0.629
REMARK UNBOUND:                -0.629
REMARK SMILES CCCCCCCCCCCCCCC(=O)[O-]
REMARK SMILES IDX 9 1 10 2 11 3 12 4 13 5 14 6 15 7 16 8 17 9 8 10 7 11 6 12
REMARK SMILES IDX 5 13 4 14 3 15 2 16 1 17
REMARK H PARENT
REMARK Flexibility Score: inf
ROOT
ATOM      1  C   UNL     1      -0.167 -26.928   5.232  1.00  0.00     0.000 C 
ENDROOT
BRANCH   1   2
ATOM      2  C   UNL     1      -0.495 -28.015   4.196  1.00  0.00     0.000 C 
BRANCH   2   3
ATOM      3  C   UNL     1       0.460 -27.986   2.991  1.00  0.00     0.000 C 
BRANCH   3   4
ATOM      4  C   UNL     1      -0.245 -27.597   1.678  1.00  0.00     0.000 C 
BRANCH   4   5
ATOM      5  C   UNL     1      -1.778 -27.498   1.766  1.00  0.00     0.006 C 
BRANCH   5   6
ATOM      6  C   UNL     1      -2.294 -26.062   1.606  1.00  0.00     0.053 C 
BRANCH   6   7
ATOM      7  C   UNL     1      -2.077 -25.581   0.207  1.00  0.00     0.041 C 
ATOM      8  O   UNL     1      -2.808 -26.000  -0.728  1.00  0.00    -0.550 OA
ATOM      9  O   UNL     1      -1.036 -24.706  -0.073  1.00  0.00    -0.550 OA
ENDBRANCH   6   7
ENDBRANCH   5   6
ENDBRANCH   4   5
ENDBRANCH   3   4
ENDBRANCH   2   3
ENDBRANCH   1   2
BRANCH   1  10
ATOM     10  C   UNL     1      -0.533 -27.352   6.666  1.00  0.00     0.000 C 
BRANCH  10  11
ATOM     11  C   UNL     1       0.529 -26.942   7.702  1.00  0.00    -0.000 C 
BRANCH  11  12
ATOM     12  C   UNL     1      -0.026 -26.565   9.087  1.00  0.00    -0.000 C 
BRANCH  12  13
ATOM     13  C   UNL     1      -1.494 -26.983   9.277  1.00  0.00    -0.000 C 
BRANCH  13  14
ATOM     14  C   UNL     1      -2.180 -26.223  10.423  1.00  0.00    -0.000 C 
BRANCH  14  15
ATOM     15  C   UNL     1      -3.714 -26.282  10.333  1.00  0.00    -0.000 C 
BRANCH  15  16
ATOM     16  C   UNL     1      -4.350 -24.890  10.189  1.00  0.00    -0.003 C 
ATOM     17  C   UNL     1      -4.057 -23.982  11.383  1.00  0.00     0.004 C 
ENDBRANCH  15  16
ENDBRANCH  14  15
ENDBRANCH  13  14
ENDBRANCH  12  13
ENDBRANCH  11  12
ENDBRANCH  10  11
ENDBRANCH   1  10
TORSDOF 13
ENDMDL
MODEL 2
REMARK VINA RESULT:    -5.684      4.117      7.533
REMARK INTER + INTRA:         -10.632
REMARK INTER:                  -8.831
REMARK INTRA:                  -1.801
REMARK UNBOUND:                -0.629
REMARK SMILES CCCCCCCCCCCCCCC(=O)[O-]
REMARK SMILES IDX 9 1 10 2 11 3 12 4 13 5 14 6 15 7 16 8 17 9 8 10 7 11 6 12
REMARK SMILES IDX 5 13 4 14 3 15 2 16 1 17
REMARK H PARENT
REMARK Flexibility Score: inf
ROOT
ATOM      1  C   UNL     1       1.509 -28.706   4.764  1.00  0.00     0.000 C 
ENDROOT
BRANCH   1   2
ATOM      2  C   UNL     1       0.162 -29.273   5.238  1.00  0.00     0.000 C 
BRANCH   2   3
ATOM      3  C   UNL     1      -0.500 -28.396   6.314  1.00  0.00     0.000 C 
BRANCH   3   4
ATOM      4  C   UNL     1       0.405 -27.246   6.791  1.00  0.00     0.000 C 
BRANCH   4   5
ATOM      5  C   UNL     1       0.204 -26.823   8.257  1.00  0.00     0.006 C 
BRANCH   5   6
ATOM      6  C   UNL     1      -1.153 -27.260   8.825  1.00  0.00     0.053 C 
BRANCH   6   7
ATOM      7  C   UNL     1      -1.473 -26.489  10.066  1.00  0.00     0.041 C 
ATOM      8  O   UNL     1      -0.549 -26.125  10.842  1.00  0.00    -0.550 OA
ATOM      9  O   UNL     1      -2.794 -26.213  10.392  1.00  0.00    -0.550 OA
ENDBRANCH   6   7
ENDBRANCH   5   6
ENDBRANCH   4   5
ENDBRANCH   3   4
ENDBRANCH   2   3
ENDBRANCH   1   2
BRANCH   1  10
ATOM     10  C   UNL     1       1.718 -28.873   3.249  1.00  0.00     0.000 C 
BRANCH  10  11
ATOM     11  C   UNL     1       0.685 -29.813   2.601  1.00  0.00    -0.000 C 
BRANCH  11  12
ATOM     12  C   UNL     1      -0.042 -29.231   1.376  1.00  0.00    -0.000 C 
BRANCH  12  13
ATOM     13  C   UNL     1      -1.302 -28.431   1.751  1.00  0.00    -0.000 C 
BRANCH  13  14
ATOM     14  C   UNL     1      -1.160 -26.932   1.447  1.00  0.00    -0.000 C 
BRANCH  14  15
ATOM     15  C   UNL     1      -1.919 -26.052   2.454  1.00  0.00    -0.000 C 
BRANCH  15  16
ATOM     16  C   UNL     1      -1.116 -25.800   3.739  1.00  0.00    -0.003 C 
ATOM     17  C   UNL     1       0.329 -25.387   3.461  1.00  0.00     0.004 C 
ENDBRANCH  15  16
ENDBRANCH  14  15
ENDBRANCH  13  14
ENDBRANCH  12  13
ENDBRANCH  11  12
ENDBRANCH  10  11
ENDBRANCH   1  10
TORSDOF 13
ENDMDL
MODEL 3
REMARK VINA RESULT:    -5.680      1.387      1.731
REMARK INTER + INTRA:         -10.626
REMARK INTER:                 -10.063
REMARK INTRA:                  -0.563
REMARK UNBOUND:                -0.629
REMARK SMILES CCCCCCCCCCCCCCC(=O)[O-]
REMARK SMILES IDX 9 1 10 2 11 3 12 4 13 5 14 6 15 7 16 8 17 9 8 10 7 11 6 12
REMARK SMILES IDX 5 13 4 14 3 15 2 16 1 17
REMARK H PARENT
REMARK Flexibility Score: inf
ROOT
ATOM      1  C   UNL     1      -0.001 -26.891   5.237  1.00  0.00     0.000 C 
ENDROOT
BRANCH   1   2
ATOM      2  C   UNL     1      -1.016 -26.228   4.292  1.00  0.00     0.000 C 
BRANCH   2   3
ATOM      3  C   UNL     1      -0.383 -25.796   2.958  1.00  0.00     0.000 C 
BRANCH   3   4
ATOM      4  C   UNL     1      -1.235 -24.764   2.197  1.00  0.00     0.000 C 
BRANCH   4   5
ATOM      5  C   UNL     1      -1.104 -24.814   0.665  1.00  0.00     0.006 C 
BRANCH   5   6
ATOM      6  C   UNL     1      -2.175 -25.690   0.001  1.00  0.00     0.053 C 
BRANCH   6   7
ATOM      7  C   UNL     1      -2.794 -24.972  -1.155  1.00  0.00     0.041 C 
ATOM      8  O   UNL     1      -3.716 -25.516  -1.819  1.00  0.00    -0.550 OA
ATOM      9  O   UNL     1      -2.321 -23.722  -1.531  1.00  0.00    -0.550 OA
ENDBRANCH   6   7
ENDBRANCH   5   6
ENDBRANCH   4   5
ENDBRANCH   3   4
ENDBRANCH   2   3
ENDBRANCH   1   2
BRANCH   1  10
ATOM     10  C   UNL     1      -0.525 -28.211   5.830  1.00  0.00     0.000 C 
BRANCH  10  11
ATOM     11  C   UNL     1      -0.589 -28.194   7.368  1.00  0.00    -0.000 C 
BRANCH  11  12
ATOM     12  C   UNL     1       0.280 -27.118   8.042  1.00  0.00    -0.000 C 
BRANCH  12  13
ATOM     13  C   UNL     1      -0.353 -26.554   9.326  1.00  0.00    -0.000 C 
BRANCH  13  14
ATOM     14  C   UNL     1      -1.821 -26.975   9.492  1.00  0.00    -0.000 C 
BRANCH  14  15
ATOM     15  C   UNL     1      -2.542 -26.177  10.592  1.00  0.00    -0.000 C 
BRANCH  15  16
ATOM     16  C   UNL     1      -3.795 -25.456  10.071  1.00  0.00    -0.003 C 
ATOM     17  C   UNL     1      -4.262 -24.338  11.003  1.00  0.00     0.004 C 
ENDBRANCH  15  16
ENDBRANCH  14  15
ENDBRANCH  13  14
ENDBRANCH  12  13
ENDBRANCH  11  12
ENDBRANCH  10  11
ENDBRANCH   1  10
TORSDOF 13
ENDMDL
MODEL 4
REMARK VINA RESULT:    -5.659      1.715      2.160
REMARK INTER + INTRA:         -10.589
REMARK INTER:                  -9.817
REMARK INTRA:                  -0.772
REMARK UNBOUND:                -0.629
REMARK SMILES CCCCCCCCCCCCCCC(=O)[O-]
REMARK SMILES IDX 9 1 10 2 11 3 12 4 13 5 14 6 15 7 16 8 17 9 8 10 7 11 6 12
REMARK SMILES IDX 5 13 4 14 3 15 2 16 1 17
REMARK H PARENT
REMARK Flexibility Score: inf
ROOT
ATOM      1  C   UNL     1       0.119 -29.129   5.288  1.00  0.00     0.000 C 
ENDROOT
BRANCH   1   2
ATOM      2  C   UNL     1       1.537 -29.512   4.834  1.00  0.00     0.000 C 
BRANCH   2   3
ATOM      3  C   UNL     1       1.686 -29.510   3.304  1.00  0.00     0.000 C 
BRANCH   3   4
ATOM      4  C   UNL     1       0.571 -30.296   2.592  1.00  0.00     0.000 C 
BRANCH   4   5
ATOM      5  C   UNL     1      -0.263 -29.480   1.588  1.00  0.00     0.006 C 
BRANCH   5   6
ATOM      6  C   UNL     1       0.045 -27.978   1.635  1.00  0.00     0.053 C 
BRANCH   6   7
ATOM      7  C   UNL     1      -1.187 -27.203   1.980  1.00  0.00     0.041 C 
ATOM      8  O   UNL     1      -1.985 -26.845   1.073  1.00  0.00    -0.550 OA
ATOM      9  O   UNL     1      -1.430 -26.833   3.296  1.00  0.00    -0.550 OA
ENDBRANCH   6   7
ENDBRANCH   5   6
ENDBRANCH   4   5
ENDBRANCH   3   4
ENDBRANCH   2   3
ENDBRANCH   1   2
BRANCH   1  10
ATOM     10  C   UNL     1      -0.028 -29.127   6.819  1.00  0.00     0.000 C 
BRANCH  10  11
ATOM     11  C   UNL     1      -0.583 -27.799   7.366  1.00  0.00    -0.000 C 
BRANCH  11  12
ATOM     12  C   UNL     1       0.388 -27.010   8.263  1.00  0.00    -0.000 C 
BRANCH  12  13
ATOM     13  C   UNL     1      -0.259 -26.541   9.578  1.00  0.00    -0.000 C 
BRANCH  13  14
ATOM     14  C   UNL     1      -1.758 -26.870   9.647  1.00  0.00    -0.000 C 
BRANCH  14  15
ATOM     15  C   UNL     1      -2.489 -26.060  10.731  1.00  0.00    -0.000 C 
BRANCH  15  16
ATOM     16  C   UNL     1      -3.852 -25.534  10.255  1.00  0.00    -0.003 C 
ATOM     17  C   UNL     1      -4.266 -24.244  10.963  1.00  0.00     0.004 C 
ENDBRANCH  15  16
ENDBRANCH  14  15
ENDBRANCH  13  14
ENDBRANCH  12  13
ENDBRANCH  11  12
ENDBRANCH  10  11
ENDBRANCH   1  10
TORSDOF 13
ENDMDL
MODEL 5
REMARK VINA RESULT:    -5.637      1.982      3.580
REMARK INTER + INTRA:         -10.550
REMARK INTER:                  -8.969
REMARK INTRA:                  -1.581
REMARK UNBOUND:                -0.629
REMARK SMILES CCCCCCCCCCCCCCC(=O)[O-]
REMARK SMILES IDX 9 1 10 2 11 3 12 4 13 5 14 6 15 7 16 8 17 9 8 10 7 11 6 12
REMARK SMILES IDX 5 13 4 14 3 15 2 16 1 17
REMARK H PARENT
REMARK Flexibility Score: inf
ROOT
ATOM      1  C   UNL     1       1.293 -30.123   2.903  1.00  0.00     0.000 C 
ENDROOT
BRANCH   1   2
ATOM      2  C   UNL     1       0.145 -29.929   1.900  1.00  0.00     0.000 C 
BRANCH   2   3
ATOM      3  C   UNL     1      -0.140 -28.446   1.611  1.00  0.00     0.000 C 
BRANCH   3   4
ATOM      4  C   UNL     1      -1.547 -28.007   2.059  1.00  0.00     0.000 C 
BRANCH   4   5
ATOM      5  C   UNL     1      -1.699 -26.503   2.347  1.00  0.00     0.006 C 
BRANCH   5   6
ATOM      6  C   UNL     1      -0.934 -26.053   3.599  1.00  0.00     0.053 C 
BRANCH   6   7
ATOM      7  C   UNL     1       0.318 -25.331   3.214  1.00  0.00     0.041 C 
ATOM      8  O   UNL     1       1.324 -25.357   3.971  1.00  0.00    -0.550 OA
ATOM      9  O   UNL     1       0.358 -24.587   2.041  1.00  0.00    -0.550 OA
ENDBRANCH   6   7
ENDBRANCH   5   6
ENDBRANCH   4   5
ENDBRANCH   3   4
ENDBRANCH   2   3
ENDBRANCH   1   2
BRANCH   1  10
ATOM     10  C   UNL     1       1.648 -28.825   3.650  1.00  0.00     0.000 C 
BRANCH  10  11
ATOM     11  C   UNL     1       1.350 -28.901   5.159  1.00  0.00    -0.000 C 
BRANCH  11  12
ATOM     12  C   UNL     1      -0.128 -29.134   5.518  1.00  0.00    -0.000 C 
BRANCH  12  13
ATOM     13  C   UNL     1      -0.506 -28.567   6.897  1.00  0.00    -0.000 C 
BRANCH  13  14
ATOM     14  C   UNL     1       0.012 -27.136   7.107  1.00  0.00    -0.000 C 
BRANCH  14  15
ATOM     15  C   UNL     1      -0.012 -26.711   8.585  1.00  0.00    -0.000 C 
BRANCH  15  16
ATOM     16  C   UNL     1      -1.123 -27.414   9.382  1.00  0.00    -0.003 C 
ATOM     17  C   UNL     1      -2.207 -26.448   9.860  1.00  0.00     0.004 C 
ENDBRANCH  15  16
ENDBRANCH  14  15
ENDBRANCH  13  14
ENDBRANCH  12  13
ENDBRANCH  11  12
ENDBRANCH  10  11
ENDBRANCH   1  10
TORSDOF 13
ENDMDL
MODEL 6
REMARK VINA RESULT:    -5.608      4.044      7.286
REMARK INTER + INTRA:         -10.500
REMARK INTER:                  -8.602
REMARK INTRA:                  -1.898
REMARK UNBOUND:                -0.629
REMARK SMILES CCCCCCCCCCCCCCC(=O)[O-]
REMARK SMILES IDX 9 1 10 2 11 3 12 4 13 5 14 6 15 7 16 8 17 9 8 10 7 11 6 12
REMARK SMILES IDX 5 13 4 14 3 15 2 16 1 17
REMARK H PARENT
REMARK Flexibility Score: inf
ROOT
ATOM      1  C   UNL     1       1.673 -29.300   3.428  1.00  0.00     0.000 C 
ENDROOT
BRANCH   1   2
ATOM      2  C   UNL     1       1.419 -29.103   4.931  1.00  0.00     0.000 C 
BRANCH   2   3
ATOM      3  C   UNL     1      -0.038 -29.399   5.326  1.00  0.00     0.000 C 
BRANCH   3   4
ATOM      4  C   UNL     1      -0.433 -28.771   6.675  1.00  0.00     0.000 C 
BRANCH   4   5
ATOM      5  C   UNL     1      -0.212 -27.252   6.775  1.00  0.00     0.006 C 
BRANCH   5   6
ATOM      6  C   UNL     1       0.288 -26.810   8.157  1.00  0.00     0.053 C 
BRANCH   6   7
ATOM      7  C   UNL     1      -0.693 -27.199   9.216  1.00  0.00     0.041 C 
ATOM      8  O   UNL     1      -1.793 -26.594   9.315  1.00  0.00    -0.550 OA
ATOM      9  O   UNL     1      -0.373 -28.198  10.127  1.00  0.00    -0.550 OA
ENDBRANCH   6   7
ENDBRANCH   5   6
ENDBRANCH   4   5
ENDBRANCH   3   4
ENDBRANCH   2   3
ENDBRANCH   1   2
BRANCH   1  10
ATOM     10  C   UNL     1       0.690 -30.298   2.791  1.00  0.00     0.000 C 
BRANCH  10  11
ATOM     11  C   UNL     1      -0.142 -29.678   1.654  1.00  0.00    -0.000 C 
BRANCH  11  12
ATOM     12  C   UNL     1      -0.210 -28.141   1.663  1.00  0.00    -0.000 C 
BRANCH  12  13
ATOM     13  C   UNL     1      -1.476 -27.602   2.350  1.00  0.00    -0.000 C 
BRANCH  13  14
ATOM     14  C   UNL     1      -1.177 -26.439   3.308  1.00  0.00    -0.000 C 
BRANCH  14  15
ATOM     15  C   UNL     1      -0.834 -25.136   2.564  1.00  0.00    -0.000 C 
BRANCH  15  16
ATOM     16  C   UNL     1       0.648 -24.753   2.699  1.00  0.00    -0.003 C 
ATOM     17  C   UNL     1       1.374 -25.572   3.766  1.00  0.00     0.004 C 
ENDBRANCH  15  16
ENDBRANCH  14  15
ENDBRANCH  13  14
ENDBRANCH  12  13
ENDBRANCH  11  12
ENDBRANCH  10  11
ENDBRANCH   1  10
TORSDOF 13
ENDMDL
MODEL 7
REMARK VINA RESULT:    -5.556      3.275      4.470
REMARK INTER + INTRA:         -10.408
REMARK INTER:                  -8.743
REMARK INTRA:                  -1.665
REMARK UNBOUND:                -0.629
REMARK SMILES CCCCCCCCCCCCCCC(=O)[O-]
REMARK SMILES IDX 9 1 10 2 11 3 12 4 13 5 14 6 15 7 16 8 17 9 8 10 7 11 6 12
REMARK SMILES IDX 5 13 4 14 3 15 2 16 1 17
REMARK H PARENT
REMARK Flexibility Score: inf
ROOT
ATOM      1  C   UNL     1       0.814 -29.491   2.262  1.00  0.00     0.000 C 
ENDROOT
BRANCH   1   2
ATOM      2  C   UNL     1      -0.553 -29.161   1.641  1.00  0.00     0.000 C 
BRANCH   2   3
ATOM      3  C   UNL     1      -0.691 -27.673   1.278  1.00  0.00     0.000 C 
BRANCH   3   4
ATOM      4  C   UNL     1      -1.981 -27.039   1.830  1.00  0.00     0.000 C 
BRANCH   4   5
ATOM      5  C   UNL     1      -2.594 -25.937   0.948  1.00  0.00     0.006 C 
BRANCH   5   6
ATOM      6  C   UNL     1      -1.634 -25.437  -0.139  1.00  0.00     0.053 C 
BRANCH   6   7
ATOM      7  C   UNL     1      -2.391 -24.738  -1.223  1.00  0.00     0.041 C 
ATOM      8  O   UNL     1      -3.444 -25.246  -1.690  1.00  0.00    -0.550 OA
ATOM      9  O   UNL     1      -1.907 -23.548  -1.752  1.00  0.00    -0.550 OA
ENDBRANCH   6   7
ENDBRANCH   5   6
ENDBRANCH   4   5
ENDBRANCH   3   4
ENDBRANCH   2   3
ENDBRANCH   1   2
BRANCH   1  10
ATOM     10  C   UNL     1       0.689 -30.107   3.667  1.00  0.00     0.000 C 
BRANCH  10  11
ATOM     11  C   UNL     1       1.799 -29.641   4.627  1.00  0.00    -0.000 C 
BRANCH  11  12
ATOM     12  C   UNL     1       1.327 -29.320   6.057  1.00  0.00    -0.000 C 
BRANCH  12  13
ATOM     13  C   UNL     1      -0.121 -28.805   6.108  1.00  0.00    -0.000 C 
BRANCH  13  14
ATOM     14  C   UNL     1      -0.199 -27.273   6.191  1.00  0.00    -0.000 C 
BRANCH  14  15
ATOM     15  C   UNL     1      -0.380 -26.616   4.811  1.00  0.00    -0.000 C 
BRANCH  15  16
ATOM     16  C   UNL     1       0.948 -26.131   4.210  1.00  0.00    -0.003 C 
ATOM     17  C   UNL     1       0.768 -24.947   3.261  1.00  0.00     0.004 C 
ENDBRANCH  15  16
ENDBRANCH  14  15
ENDBRANCH  13  14
ENDBRANCH  12  13
ENDBRANCH  11  12
ENDBRANCH  10  11
ENDBRANCH   1  10
TORSDOF 13
ENDMDL
MODEL 8
REMARK VINA RESULT:    -5.549      1.437      2.961
REMARK INTER + INTRA:         -10.395
REMARK INTER:                  -9.087
REMARK INTRA:                  -1.308
REMARK UNBOUND:                -0.629
REMARK SMILES CCCCCCCCCCCCCCC(=O)[O-]
REMARK SMILES IDX 9 1 10 2 11 3 12 4 13 5 14 6 15 7 16 8 17 9 8 10 7 11 6 12
REMARK SMILES IDX 5 13 4 14 3 15 2 16 1 17
REMARK H PARENT
REMARK Flexibility Score: inf
ROOT
ATOM      1  C   UNL     1       1.644 -29.189   3.414  1.00  0.00     0.000 C 
ENDROOT
BRANCH   1   2
ATOM      2  C   UNL     1       0.852 -30.293   2.695  1.00  0.00     0.000 C 
BRANCH   2   3
ATOM      3  C   UNL     1      -0.096 -29.733   1.621  1.00  0.00     0.000 C 
BRANCH   3   4
ATOM      4  C   UNL     1      -0.253 -28.203   1.699  1.00  0.00     0.000 C 
BRANCH   4   5
ATOM      5  C   UNL     1      -1.706 -27.696   1.701  1.00  0.00     0.006 C 
BRANCH   5   6
ATOM      6  C   UNL     1      -1.854 -26.307   2.335  1.00  0.00     0.053 C 
BRANCH   6   7
ATOM      7  C   UNL     1      -1.968 -25.258   1.275  1.00  0.00     0.041 C 
ATOM      8  O   UNL     1      -1.374 -24.156   1.407  1.00  0.00    -0.550 OA
ATOM      9  O   UNL     1      -2.768 -25.479   0.162  1.00  0.00    -0.550 OA
ENDBRANCH   6   7
ENDBRANCH   5   6
ENDBRANCH   4   5
ENDBRANCH   3   4
ENDBRANCH   2   3
ENDBRANCH   1   2
BRANCH   1  10
ATOM     10  C   UNL     1       1.699 -29.401   4.937  1.00  0.00     0.000 C 
BRANCH  10  11
ATOM     11  C   UNL     1       0.306 -29.398   5.593  1.00  0.00    -0.000 C 
BRANCH  11  12
ATOM     12  C   UNL     1      -0.509 -28.110   5.381  1.00  0.00    -0.000 C 
BRANCH  12  13
ATOM     13  C   UNL     1       0.119 -26.885   6.067  1.00  0.00    -0.000 C 
BRANCH  13  14
ATOM     14  C   UNL     1       0.390 -27.120   7.560  1.00  0.00    -0.000 C 
BRANCH  14  15
ATOM     15  C   UNL     1      -0.898 -27.100   8.403  1.00  0.00    -0.000 C 
BRANCH  15  16
ATOM     16  C   UNL     1      -0.665 -26.560   9.822  1.00  0.00    -0.003 C 
ATOM     17  C   UNL     1      -1.969 -26.271  10.564  1.00  0.00     0.004 C 
ENDBRANCH  15  16
ENDBRANCH  14  15
ENDBRANCH  13  14
ENDBRANCH  12  13
ENDBRANCH  11  12
ENDBRANCH  10  11
ENDBRANCH   1  10
TORSDOF 13
ENDMDL
MODEL 9
REMARK VINA RESULT:    -5.478      4.133      8.209
REMARK INTER + INTRA:         -10.270
REMARK INTER:                  -9.299
REMARK INTRA:                  -0.971
REMARK UNBOUND:                -0.629
REMARK SMILES CCCCCCCCCCCCCCC(=O)[O-]
REMARK SMILES IDX 9 1 10 2 11 3 12 4 13 5 14 6 15 7 16 8 17 9 8 10 7 11 6 12
REMARK SMILES IDX 5 13 4 14 3 15 2 16 1 17
REMARK H PARENT
REMARK Flexibility Score: inf
ROOT
ATOM      1  C   UNL     1       0.431 -26.827   7.466  1.00  0.00     0.000 C 
ENDROOT
BRANCH   1   2
ATOM      2  C   UNL     1       0.635 -26.778   8.989  1.00  0.00     0.000 C 
BRANCH   2   3
ATOM      3  C   UNL     1      -0.560 -27.361   9.761  1.00  0.00     0.000 C 
BRANCH   3   4
ATOM      4  C   UNL     1      -0.804 -26.657  11.109  1.00  0.00     0.000 C 
BRANCH   4   5
ATOM      5  C   UNL     1      -2.058 -25.768  11.162  1.00  0.00     0.006 C 
BRANCH   5   6
ATOM      6  C   UNL     1      -3.088 -26.120  10.081  1.00  0.00     0.053 C 
BRANCH   6   7
ATOM      7  C   UNL     1      -4.460 -25.711  10.514  1.00  0.00     0.041 C 
ATOM      8  O   UNL     1      -5.391 -26.558  10.553  1.00  0.00    -0.550 OA
ATOM      9  O   UNL     1      -4.723 -24.384  10.828  1.00  0.00    -0.550 OA
ENDBRANCH   6   7
ENDBRANCH   5   6
ENDBRANCH   4   5
ENDBRANCH   3   4
ENDBRANCH   2   3
ENDBRANCH   1   2
BRANCH   1  10
ATOM     10  C   UNL     1      -0.379 -28.057   7.020  1.00  0.00     0.000 C 
BRANCH  10  11
ATOM     11  C   UNL     1      -0.432 -28.218   5.489  1.00  0.00    -0.000 C 
BRANCH  11  12
ATOM     12  C   UNL     1      -0.009 -26.972   4.691  1.00  0.00    -0.000 C 
BRANCH  12  13
ATOM     13  C   UNL     1      -1.207 -26.138   4.205  1.00  0.00    -0.000 C 
BRANCH  13  14
ATOM     14  C   UNL     1      -1.293 -26.068   2.673  1.00  0.00    -0.000 C 
BRANCH  14  15
ATOM     15  C   UNL     1      -1.583 -27.439   2.036  1.00  0.00    -0.000 C 
BRANCH  15  16
ATOM     16  C   UNL     1      -0.384 -27.987   1.248  1.00  0.00    -0.003 C 
ATOM     17  C   UNL     1       0.036 -29.383   1.708  1.00  0.00     0.004 C 
ENDBRANCH  15  16
ENDBRANCH  14  15
ENDBRANCH  13  14
ENDBRANCH  12  13
ENDBRANCH  11  12
ENDBRANCH  10  11
ENDBRANCH   1  10
TORSDOF 13
ENDMDL
