MODEL 1
REMARK VINA RESULT:    -5.441      0.000      0.000
REMARK INTER + INTRA:         -10.160
REMARK INTER:                  -8.304
REMARK INTRA:                  -1.856
REMARK UNBOUND:                -1.856
REMARK SMILES OC[C@H]1O[C@H](O[C@]2(CO)O[C@H](CO)[C@H](O)[C@@H]2O)[C@H](O)[C@H](O)[C@H]1O
REMARK SMILES IDX 6 1 5 2 3 3 22 4 4 5 20 6 18 7 2 8 1 9 23 11 21 13 19 15
REMARK SMILES IDX 7 17 16 18 10 19 14 20 11 21 8 22 9 23 17 25 15 27 12 29
REMARK SMILES IDX 13 30
REMARK H PARENT 1 10 23 12 21 14 19 16 9 24 17 26 15 28 13 31
REMARK Flexibility Score: inf
ROOT
ATOM      1  O   UNL     1       6.244   8.460   2.945  1.00  0.00    -0.313 OA
ENDROOT
BRANCH   1   2
ATOM      2  C   UNL     1       5.270   9.443   2.606  1.00  0.00     0.285 C 
ATOM      3  C   UNL     1       4.247   9.413   4.731  1.00  0.00     0.178 C 
ATOM      4  C   UNL     1       4.749  10.835   5.101  1.00  0.00     0.177 C 
ATOM      5  O   UNL     1       4.057   9.275   3.331  1.00  0.00    -0.341 OA
ATOM      6  C   UNL     1       6.040  11.173   4.323  1.00  0.00     0.179 C 
ATOM      7  C   UNL     1       5.847  10.864   2.827  1.00  0.00     0.202 C 
BRANCH   3   8
ATOM      8  C   UNL     1       2.920   9.094   5.432  1.00  0.00     0.191 C 
BRANCH   8   9
ATOM      9  O   UNL     1       2.102   8.328   4.595  1.00  0.00    -0.394 OA
ATOM     10  H   UNL     1       2.056   8.816   3.731  1.00  0.00     0.210 HD
ENDBRANCH   8   9
ENDBRANCH   3   8
BRANCH   4  11
ATOM     11  O   UNL     1       3.767  11.822   4.883  1.00  0.00    -0.387 OA
ATOM     12  H   UNL     1       3.780  12.068   3.923  1.00  0.00     0.211 HD
ENDBRANCH   4  11
BRANCH   6  13
ATOM     13  O   UNL     1       7.122  10.435   4.837  1.00  0.00    -0.387 OA
ATOM     14  H   UNL     1       7.949  10.859   4.478  1.00  0.00     0.211 HD
ENDBRANCH   6  13
BRANCH   7  15
ATOM     15  O   UNL     1       7.041  11.063   2.105  1.00  0.00    -0.385 OA
ATOM     16  H   UNL     1       7.792  11.091   2.751  1.00  0.00     0.211 HD
ENDBRANCH   7  15
ENDBRANCH   1   2
BRANCH   1  17
ATOM     17  C   UNL     1       6.456   7.449   1.956  1.00  0.00     0.224 C 
ATOM     18  C   UNL     1       6.531   6.090   2.680  1.00  0.00     0.208 C 
ATOM     19  O   UNL     1       5.363   7.396   1.054  1.00  0.00    -0.337 OA
ATOM     20  C   UNL     1       5.932   5.148   1.671  1.00  0.00     0.180 C 
ATOM     21  C   UNL     1       4.950   6.047   0.912  1.00  0.00     0.179 C 
BRANCH  17  22
ATOM     22  C   UNL     1       7.769   7.671   1.155  1.00  0.00     0.225 C 
BRANCH  22  23
ATOM     23  O   UNL     1       7.582   8.663   0.184  1.00  0.00    -0.391 OA
ATOM     24  H   UNL     1       8.239   9.376   0.388  1.00  0.00     0.210 HD
ENDBRANCH  22  23
ENDBRANCH  17  22
BRANCH  18  25
ATOM     25  O   UNL     1       5.752   6.119   3.853  1.00  0.00    -0.385 OA
ATOM     26  H   UNL     1       4.912   6.599   3.634  1.00  0.00     0.211 HD
ENDBRANCH  18  25
BRANCH  20  27
ATOM     27  O   UNL     1       5.327   4.040   2.287  1.00  0.00    -0.387 OA
ATOM     28  H   UNL     1       4.952   3.481   1.554  1.00  0.00     0.211 HD
ENDBRANCH  20  27
BRANCH  21  29
ATOM     29  C   UNL     1       3.499   5.909   1.405  1.00  0.00     0.191 C 
BRANCH  29  30
ATOM     30  O   UNL     1       3.346   6.571   2.631  1.00  0.00    -0.394 OA
ATOM     31  H   UNL     1       4.262   6.754   2.966  1.00  0.00     0.210 HD
ENDBRANCH  29  30
ENDBRANCH  21  29
ENDBRANCH   1  17
TORSDOF 13
ENDMDL
MODEL 2
REMARK VINA RESULT:    -5.293      1.816      4.132
REMARK INTER + INTRA:          -9.933
REMARK INTER:                  -8.465
REMARK INTRA:                  -1.468
REMARK UNBOUND:                -1.856
REMARK SMILES OC[C@H]1O[C@H](O[C@]2(CO)O[C@H](CO)[C@H](O)[C@@H]2O)[C@H](O)[C@H](O)[C@H]1O
REMARK SMILES IDX 6 1 5 2 3 3 22 4 4 5 20 6 18 7 2 8 1 9 23 11 21 13 19 15
REMARK SMILES IDX 7 17 16 18 10 19 14 20 11 21 8 22 9 23 17 25 15 27 12 29
REMARK SMILES IDX 13 30
REMARK H PARENT 1 10 23 12 21 14 19 16 9 24 17 26 15 28 13 31
REMARK Flexibility Score: inf
ROOT
ATOM      1  O   UNL     1       4.428   9.344   3.957  1.00  0.00    -0.313 OA
ENDROOT
BRANCH   1   2
ATOM      2  C   UNL     1       5.095   9.676   5.171  1.00  0.00     0.285 C 
ATOM      3  C   UNL     1       4.764  11.998   4.921  1.00  0.00     0.178 C 
ATOM      4  C   UNL     1       3.754  12.079   6.098  1.00  0.00     0.177 C 
ATOM      5  O   UNL     1       5.711  10.957   5.117  1.00  0.00    -0.341 OA
ATOM      6  C   UNL     1       3.057  10.717   6.309  1.00  0.00     0.179 C 
ATOM      7  C   UNL     1       4.107   9.592   6.362  1.00  0.00     0.202 C 
BRANCH   3   8
ATOM      8  C   UNL     1       5.526  13.318   4.753  1.00  0.00     0.191 C 
BRANCH   8   9
ATOM      9  O   UNL     1       5.894  13.498   3.415  1.00  0.00    -0.394 OA
ATOM     10  H   UNL     1       6.358  14.375   3.372  1.00  0.00     0.210 HD
ENDBRANCH   8   9
ENDBRANCH   3   8
BRANCH   4  11
ATOM     11  O   UNL     1       4.361  12.514   7.293  1.00  0.00    -0.387 OA
ATOM     12  H   UNL     1       5.136  13.086   7.059  1.00  0.00     0.211 HD
ENDBRANCH   4  11
BRANCH   6  13
ATOM     13  O   UNL     1       2.139  10.477   5.270  1.00  0.00    -0.387 OA
ATOM     14  H   UNL     1       2.554  10.836   4.438  1.00  0.00     0.211 HD
ENDBRANCH   6  13
BRANCH   7  15
ATOM     15  O   UNL     1       3.497   8.325   6.449  1.00  0.00    -0.385 OA
ATOM     16  H   UNL     1       3.994   7.701   5.861  1.00  0.00     0.211 HD
ENDBRANCH   7  15
ENDBRANCH   1   2
BRANCH   1  17
ATOM     17  C   UNL     1       4.792   8.083   3.388  1.00  0.00     0.224 C 
ATOM     18  C   UNL     1       5.537   8.359   2.067  1.00  0.00     0.208 C 
ATOM     19  O   UNL     1       5.682   7.387   4.246  1.00  0.00    -0.337 OA
ATOM     20  C   UNL     1       6.525   7.226   2.006  1.00  0.00     0.180 C 
ATOM     21  C   UNL     1       6.786   6.926   3.485  1.00  0.00     0.179 C 
BRANCH  17  22
ATOM     22  C   UNL     1       3.558   7.185   3.098  1.00  0.00     0.225 C 
BRANCH  22  23
ATOM     23  O   UNL     1       2.437   7.666   3.786  1.00  0.00    -0.391 OA
ATOM     24  H   UNL     1       2.783   8.109   4.602  1.00  0.00     0.210 HD
ENDBRANCH  22  23
ENDBRANCH  17  22
BRANCH  18  25
ATOM     25  O   UNL     1       6.206   9.596   2.134  1.00  0.00    -0.385 OA
ATOM     26  H   UNL     1       7.009   9.525   1.556  1.00  0.00     0.211 HD
ENDBRANCH  18  25
BRANCH  20  27
ATOM     27  O   UNL     1       7.679   7.580   1.287  1.00  0.00    -0.387 OA
ATOM     28  H   UNL     1       8.334   7.919   1.956  1.00  0.00     0.211 HD
ENDBRANCH  20  27
BRANCH  21  29
ATOM     29  C   UNL     1       8.074   7.578   4.018  1.00  0.00     0.191 C 
BRANCH  29  30
ATOM     30  O   UNL     1       7.885   8.959   4.162  1.00  0.00    -0.394 OA
ATOM     31  H   UNL     1       8.659   9.394   3.718  1.00  0.00     0.210 HD
ENDBRANCH  29  30
ENDBRANCH  21  29
ENDBRANCH   1  17
TORSDOF 13
ENDMDL
MODEL 3
REMARK VINA RESULT:    -5.156      1.752      2.173
REMARK INTER + INTRA:          -9.725
REMARK INTER:                  -8.184
REMARK INTRA:                  -1.541
REMARK UNBOUND:                -1.856
REMARK SMILES OC[C@H]1O[C@H](O[C@]2(CO)O[C@H](CO)[C@H](O)[C@@H]2O)[C@H](O)[C@H](O)[C@H]1O
REMARK SMILES IDX 6 1 5 2 3 3 22 4 4 5 20 6 18 7 2 8 1 9 23 11 21 13 19 15
REMARK SMILES IDX 7 17 16 18 10 19 14 20 11 21 8 22 9 23 17 25 15 27 12 29
REMARK SMILES IDX 13 30
REMARK H PARENT 1 10 23 12 21 14 19 16 9 24 17 26 15 28 13 31
REMARK Flexibility Score: inf
ROOT
ATOM      1  O   UNL     1       5.814   9.856   3.924  1.00  0.00    -0.313 OA
ENDROOT
BRANCH   1   2
ATOM      2  C   UNL     1       4.425  10.061   4.170  1.00  0.00     0.285 C 
ATOM      3  C   UNL     1       4.572   9.518   6.460  1.00  0.00     0.178 C 
ATOM      4  C   UNL     1       4.305  10.976   6.923  1.00  0.00     0.177 C 
ATOM      5  O   UNL     1       3.935   9.239   5.222  1.00  0.00    -0.341 OA
ATOM      6  C   UNL     1       4.736  11.978   5.830  1.00  0.00     0.179 C 
ATOM      7  C   UNL     1       4.152  11.556   4.469  1.00  0.00     0.202 C 
BRANCH   3   8
ATOM      8  C   UNL     1       4.071   8.507   7.499  1.00  0.00     0.191 C 
BRANCH   8   9
ATOM      9  O   UNL     1       4.405   7.206   7.110  1.00  0.00    -0.394 OA
ATOM     10  H   UNL     1       5.396   7.147   7.161  1.00  0.00     0.210 HD
ENDBRANCH   8   9
ENDBRANCH   3   8
BRANCH   4  11
ATOM     11  O   UNL     1       2.958  11.185   7.281  1.00  0.00    -0.387 OA
ATOM     12  H   UNL     1       2.412  11.193   6.454  1.00  0.00     0.211 HD
ENDBRANCH   4  11
BRANCH   6  13
ATOM     13  O   UNL     1       6.140  12.042   5.758  1.00  0.00    -0.387 OA
ATOM     14  H   UNL     1       6.460  11.104   5.652  1.00  0.00     0.211 HD
ENDBRANCH   6  13
BRANCH   7  15
ATOM     15  O   UNL     1       4.613  12.392   3.432  1.00  0.00    -0.385 OA
ATOM     16  H   UNL     1       3.833  12.876   3.056  1.00  0.00     0.211 HD
ENDBRANCH   7  15
ENDBRANCH   1   2
BRANCH   1  17
ATOM     17  C   UNL     1       6.116   9.015   2.807  1.00  0.00     0.224 C 
ATOM     18  C   UNL     1       6.937   7.818   3.327  1.00  0.00     0.208 C 
ATOM     19  O   UNL     1       4.925   8.502   2.233  1.00  0.00    -0.337 OA
ATOM     20  C   UNL     1       6.501   6.702   2.416  1.00  0.00     0.180 C 
ATOM     21  C   UNL     1       5.066   7.102   2.056  1.00  0.00     0.179 C 
BRANCH  17  22
ATOM     22  C   UNL     1       6.933   9.756   1.713  1.00  0.00     0.225 C 
BRANCH  22  23
ATOM     23  O   UNL     1       7.007  11.123   2.006  1.00  0.00    -0.391 OA
ATOM     24  H   UNL     1       7.478  11.194   2.875  1.00  0.00     0.210 HD
ENDBRANCH  22  23
ENDBRANCH  17  22
BRANCH  18  25
ATOM     25  O   UNL     1       6.590   7.532   4.661  1.00  0.00    -0.385 OA
ATOM     26  H   UNL     1       7.423   7.264   5.128  1.00  0.00     0.211 HD
ENDBRANCH  18  25
BRANCH  20  27
ATOM     27  O   UNL     1       6.600   5.449   3.044  1.00  0.00    -0.387 OA
ATOM     28  H   UNL     1       6.911   4.810   2.346  1.00  0.00     0.211 HD
ENDBRANCH  20  27
BRANCH  21  29
ATOM     29  C   UNL     1       4.006   6.377   2.902  1.00  0.00     0.191 C 
BRANCH  29  30
ATOM     30  O   UNL     1       2.954   7.253   3.202  1.00  0.00    -0.394 OA
ATOM     31  H   UNL     1       3.330   8.170   3.149  1.00  0.00     0.210 HD
ENDBRANCH  29  30
ENDBRANCH  21  29
ENDBRANCH   1  17
TORSDOF 13
ENDMDL
MODEL 4
REMARK VINA RESULT:    -5.144      1.270      5.862
REMARK INTER + INTRA:          -9.706
REMARK INTER:                  -8.065
REMARK INTRA:                  -1.641
REMARK UNBOUND:                -1.856
REMARK SMILES OC[C@H]1O[C@H](O[C@]2(CO)O[C@H](CO)[C@H](O)[C@@H]2O)[C@H](O)[C@H](O)[C@H]1O
REMARK SMILES IDX 6 1 5 2 3 3 22 4 4 5 20 6 18 7 2 8 1 9 23 11 21 13 19 15
REMARK SMILES IDX 7 17 16 18 10 19 14 20 11 21 8 22 9 23 17 25 15 27 12 29
REMARK SMILES IDX 13 30
REMARK H PARENT 1 10 23 12 21 14 19 16 9 24 17 26 15 28 13 31
REMARK Flexibility Score: inf
ROOT
ATOM      1  O   UNL     1       5.163   8.544   4.252  1.00  0.00    -0.313 OA
ENDROOT
BRANCH   1   2
ATOM      2  C   UNL     1       4.733   8.524   2.893  1.00  0.00     0.285 C 
ATOM      3  C   UNL     1       6.695   7.477   2.106  1.00  0.00     0.178 C 
ATOM      4  C   UNL     1       5.969   6.143   1.780  1.00  0.00     0.177 C 
ATOM      5  O   UNL     1       5.822   8.590   1.980  1.00  0.00    -0.341 OA
ATOM      6  C   UNL     1       4.715   5.978   2.667  1.00  0.00     0.179 C 
ATOM      7  C   UNL     1       3.870   7.265   2.626  1.00  0.00     0.202 C 
BRANCH   3   8
ATOM      8  C   UNL     1       7.895   7.696   1.177  1.00  0.00     0.191 C 
BRANCH   8   9
ATOM      9  O   UNL     1       7.500   8.399   0.034  1.00  0.00    -0.394 OA
ATOM     10  H   UNL     1       6.534   8.205  -0.090  1.00  0.00     0.210 HD
ENDBRANCH   8   9
ENDBRANCH   3   8
BRANCH   4  11
ATOM     11  O   UNL     1       5.628   6.041   0.416  1.00  0.00    -0.387 OA
ATOM     12  H   UNL     1       5.034   5.256   0.302  1.00  0.00     0.211 HD
ENDBRANCH   4  11
BRANCH   6  13
ATOM     13  O   UNL     1       5.093   5.686   3.990  1.00  0.00    -0.387 OA
ATOM     14  H   UNL     1       4.249   5.623   4.517  1.00  0.00     0.211 HD
ENDBRANCH   6  13
BRANCH   7  15
ATOM     15  O   UNL     1       2.773   7.185   3.507  1.00  0.00    -0.385 OA
ATOM     16  H   UNL     1       2.620   8.085   3.893  1.00  0.00     0.211 HD
ENDBRANCH   7  15
ENDBRANCH   1   2
BRANCH   1  17
ATOM     17  C   UNL     1       4.641   9.619   5.038  1.00  0.00     0.224 C 
ATOM     18  C   UNL     1       5.804  10.212   5.857  1.00  0.00     0.208 C 
ATOM     19  O   UNL     1       4.136  10.648   4.203  1.00  0.00    -0.337 OA
ATOM     20  C   UNL     1       5.437  11.668   5.942  1.00  0.00     0.180 C 
ATOM     21  C   UNL     1       4.651  11.893   4.645  1.00  0.00     0.179 C 
BRANCH  17  22
ATOM     22  C   UNL     1       3.521   9.153   6.008  1.00  0.00     0.225 C 
BRANCH  22  23
ATOM     23  O   UNL     1       2.286   9.128   5.347  1.00  0.00    -0.391 OA
ATOM     24  H   UNL     1       2.200  10.004   4.892  1.00  0.00     0.210 HD
ENDBRANCH  22  23
ENDBRANCH  17  22
BRANCH  18  25
ATOM     25  O   UNL     1       7.020  10.047   5.167  1.00  0.00    -0.385 OA
ATOM     26  H   UNL     1       7.383   9.161   5.422  1.00  0.00     0.211 HD
ENDBRANCH  18  25
BRANCH  20  27
ATOM     27  O   UNL     1       6.572  12.486   6.065  1.00  0.00    -0.387 OA
ATOM     28  H   UNL     1       7.278  11.925   6.487  1.00  0.00     0.211 HD
ENDBRANCH  20  27
BRANCH  21  29
ATOM     29  C   UNL     1       5.499  12.516   3.523  1.00  0.00     0.191 C 
BRANCH  29  30
ATOM     30  O   UNL     1       6.367  11.553   2.991  1.00  0.00    -0.394 OA
ATOM     31  H   UNL     1       6.909  11.215   3.750  1.00  0.00     0.210 HD
ENDBRANCH  29  30
ENDBRANCH  21  29
ENDBRANCH   1  17
TORSDOF 13
ENDMDL
MODEL 5
REMARK VINA RESULT:    -4.993      2.572      5.932
REMARK INTER + INTRA:          -9.476
REMARK INTER:                  -7.761
REMARK INTRA:                  -1.714
REMARK UNBOUND:                -1.856
REMARK SMILES OC[C@H]1O[C@H](O[C@]2(CO)O[C@H](CO)[C@H](O)[C@@H]2O)[C@H](O)[C@H](O)[C@H]1O
REMARK SMILES IDX 6 1 5 2 3 3 22 4 4 5 20 6 18 7 2 8 1 9 23 11 21 13 19 15
REMARK SMILES IDX 7 17 16 18 10 19 14 20 11 21 8 22 9 23 17 25 15 27 12 29
REMARK SMILES IDX 13 30
REMARK H PARENT 1 10 23 12 21 14 19 16 9 24 17 26 15 28 13 31
REMARK Flexibility Score: inf
ROOT
ATOM      1  O   UNL     1       4.190  10.227   5.055  1.00  0.00    -0.313 OA
ENDROOT
BRANCH   1   2
ATOM      2  C   UNL     1       5.540   9.922   5.394  1.00  0.00     0.285 C 
ATOM      3  C   UNL     1       5.156   7.601   5.564  1.00  0.00     0.178 C 
ATOM      4  C   UNL     1       5.982   7.273   4.290  1.00  0.00     0.177 C 
ATOM      5  O   UNL     1       5.643   8.765   6.216  1.00  0.00    -0.341 OA
ATOM      6  C   UNL     1       6.006   8.485   3.333  1.00  0.00     0.179 C 
ATOM      7  C   UNL     1       6.389   9.760   4.108  1.00  0.00     0.202 C 
BRANCH   3   8
ATOM      8  C   UNL     1       5.192   6.438   6.562  1.00  0.00     0.191 C 
BRANCH   8   9
ATOM      9  O   UNL     1       4.187   6.592   7.523  1.00  0.00    -0.394 OA
ATOM     10  H   UNL     1       4.157   7.562   7.739  1.00  0.00     0.210 HD
ENDBRANCH   8   9
ENDBRANCH   3   8
BRANCH   4  11
ATOM     11  O   UNL     1       7.294   6.859   4.597  1.00  0.00    -0.387 OA
ATOM     12  H   UNL     1       7.830   7.661   4.823  1.00  0.00     0.211 HD
ENDBRANCH   4  11
BRANCH   6  13
ATOM     13  O   UNL     1       4.748   8.646   2.724  1.00  0.00    -0.387 OA
ATOM     14  H   UNL     1       4.594   9.627   2.650  1.00  0.00     0.211 HD
ENDBRANCH   6  13
BRANCH   7  15
ATOM     15  O   UNL     1       6.318  10.901   3.285  1.00  0.00    -0.385 OA
ATOM     16  H   UNL     1       5.670  11.533   3.688  1.00  0.00     0.211 HD
ENDBRANCH   7  15
ENDBRANCH   1   2
BRANCH   1  17
ATOM     17  C   UNL     1       3.622  11.336   5.758  1.00  0.00     0.224 C 
ATOM     18  C   UNL     1       2.089  11.189   5.709  1.00  0.00     0.208 C 
ATOM     19  O   UNL     1       4.012  11.314   7.122  1.00  0.00    -0.337 OA
ATOM     20  C   UNL     1       1.660  11.781   7.025  1.00  0.00     0.180 C 
ATOM     21  C   UNL     1       2.861  11.489   7.931  1.00  0.00     0.179 C 
BRANCH  17  22
ATOM     22  C   UNL     1       4.023  12.701   5.135  1.00  0.00     0.225 C 
BRANCH  22  23
ATOM     23  O   UNL     1       3.968  12.630   3.737  1.00  0.00    -0.391 OA
ATOM     24  H   UNL     1       4.334  13.488   3.402  1.00  0.00     0.210 HD
ENDBRANCH  22  23
ENDBRANCH  17  22
BRANCH  18  25
ATOM     25  O   UNL     1       1.730   9.830   5.637  1.00  0.00    -0.385 OA
ATOM     26  H   UNL     1       2.424   9.319   6.128  1.00  0.00     0.211 HD
ENDBRANCH  18  25
BRANCH  20  27
ATOM     27  O   UNL     1       0.456  11.220   7.481  1.00  0.00    -0.387 OA
ATOM     28  H   UNL     1       0.600  10.985   8.437  1.00  0.00     0.211 HD
ENDBRANCH  20  27
BRANCH  21  29
ATOM     29  C   UNL     1       2.667  10.241   8.810  1.00  0.00     0.191 C 
BRANCH  29  30
ATOM     30  O   UNL     1       3.388   9.164   8.275  1.00  0.00    -0.394 OA
ATOM     31  H   UNL     1       4.348   9.407   8.349  1.00  0.00     0.210 HD
ENDBRANCH  29  30
ENDBRANCH  21  29
ENDBRANCH   1  17
TORSDOF 13
ENDMDL
MODEL 6
REMARK VINA RESULT:    -4.942      2.240      5.789
REMARK INTER + INTRA:          -9.398
REMARK INTER:                  -8.082
REMARK INTRA:                  -1.317
REMARK UNBOUND:                -1.856
REMARK SMILES OC[C@H]1O[C@H](O[C@]2(CO)O[C@H](CO)[C@H](O)[C@@H]2O)[C@H](O)[C@H](O)[C@H]1O
REMARK SMILES IDX 6 1 5 2 3 3 22 4 4 5 20 6 18 7 2 8 1 9 23 11 21 13 19 15
REMARK SMILES IDX 7 17 16 18 10 19 14 20 11 21 8 22 9 23 17 25 15 27 12 29
REMARK SMILES IDX 13 30
REMARK H PARENT 1 10 23 12 21 14 19 16 9 24 17 26 15 28 13 31
REMARK Flexibility Score: inf
ROOT
ATOM      1  O   UNL     1       3.985  10.113   4.426  1.00  0.00    -0.313 OA
ENDROOT
BRANCH   1   2
ATOM      2  C   UNL     1       4.810   9.087   4.970  1.00  0.00     0.285 C 
ATOM      3  C   UNL     1       4.500   7.626   3.144  1.00  0.00     0.178 C 
ATOM      4  C   UNL     1       5.964   7.778   2.649  1.00  0.00     0.177 C 
ATOM      5  O   UNL     1       4.406   7.788   4.552  1.00  0.00    -0.341 OA
ATOM      6  C   UNL     1       6.550   9.134   3.099  1.00  0.00     0.179 C 
ATOM      7  C   UNL     1       6.293   9.344   4.603  1.00  0.00     0.202 C 
BRANCH   3   8
ATOM      8  C   UNL     1       3.930   6.251   2.777  1.00  0.00     0.191 C 
BRANCH   8   9
ATOM      9  O   UNL     1       3.525   6.235   1.438  1.00  0.00    -0.394 OA
ATOM     10  H   UNL     1       3.750   7.130   1.071  1.00  0.00     0.210 HD
ENDBRANCH   8   9
ENDBRANCH   3   8
BRANCH   4  11
ATOM     11  O   UNL     1       6.785   6.716   3.078  1.00  0.00    -0.387 OA
ATOM     12  H   UNL     1       6.749   6.674   4.067  1.00  0.00     0.211 HD
ENDBRANCH   4  11
BRANCH   6  13
ATOM     13  O   UNL     1       5.975  10.181   2.356  1.00  0.00    -0.387 OA
ATOM     14  H   UNL     1       6.708  10.576   1.810  1.00  0.00     0.211 HD
ENDBRANCH   6  13
BRANCH   7  15
ATOM     15  O   UNL     1       6.724  10.618   5.023  1.00  0.00    -0.385 OA
ATOM     16  H   UNL     1       7.061  11.108   4.229  1.00  0.00     0.211 HD
ENDBRANCH   7  15
ENDBRANCH   1   2
BRANCH   1  17
ATOM     17  C   UNL     1       3.632  11.156   5.338  1.00  0.00     0.224 C 
ATOM     18  C   UNL     1       2.101  11.129   5.516  1.00  0.00     0.208 C 
ATOM     19  O   UNL     1       4.217  10.927   6.609  1.00  0.00    -0.337 OA
ATOM     20  C   UNL     1       1.930  11.570   6.944  1.00  0.00     0.180 C 
ATOM     21  C   UNL     1       3.220  11.076   7.607  1.00  0.00     0.179 C 
BRANCH  17  22
ATOM     22  C   UNL     1       4.059  12.559   4.825  1.00  0.00     0.225 C 
BRANCH  22  23
ATOM     23  O   UNL     1       4.555  12.468   3.518  1.00  0.00    -0.391 OA
ATOM     24  H   UNL     1       3.768  12.532   2.920  1.00  0.00     0.210 HD
ENDBRANCH  22  23
ENDBRANCH  17  22
BRANCH  18  25
ATOM     25  O   UNL     1       1.614   9.820   5.341  1.00  0.00    -0.385 OA
ATOM     26  H   UNL     1       0.866   9.871   4.691  1.00  0.00     0.211 HD
ENDBRANCH  18  25
BRANCH  20  27
ATOM     27  O   UNL     1       0.760  11.042   7.516  1.00  0.00    -0.387 OA
ATOM     28  H   UNL     1       0.305  11.800   7.974  1.00  0.00     0.211 HD
ENDBRANCH  20  27
BRANCH  21  29
ATOM     29  C   UNL     1       3.046   9.740   8.350  1.00  0.00     0.191 C 
BRANCH  29  30
ATOM     30  O   UNL     1       2.511   9.969   9.625  1.00  0.00    -0.394 OA
ATOM     31  H   UNL     1       2.623   9.123  10.131  1.00  0.00     0.210 HD
ENDBRANCH  29  30
ENDBRANCH  21  29
ENDBRANCH   1  17
TORSDOF 13
ENDMDL
MODEL 7
REMARK VINA RESULT:    -4.896      2.031      3.078
REMARK INTER + INTRA:          -9.328
REMARK INTER:                  -7.990
REMARK INTRA:                  -1.338
REMARK UNBOUND:                -1.856
REMARK SMILES OC[C@H]1O[C@H](O[C@]2(CO)O[C@H](CO)[C@H](O)[C@@H]2O)[C@H](O)[C@H](O)[C@H]1O
REMARK SMILES IDX 6 1 5 2 3 3 22 4 4 5 20 6 18 7 2 8 1 9 23 11 21 13 19 15
REMARK SMILES IDX 7 17 16 18 10 19 14 20 11 21 8 22 9 23 17 25 15 27 12 29
REMARK SMILES IDX 13 30
REMARK H PARENT 1 10 23 12 21 14 19 16 9 24 17 26 15 28 13 31
REMARK Flexibility Score: inf
ROOT
ATOM      1  O   UNL     1       5.944   8.877   4.224  1.00  0.00    -0.313 OA
ENDROOT
BRANCH   1   2
ATOM      2  C   UNL     1       5.020   9.522   3.352  1.00  0.00     0.285 C 
ATOM      3  C   UNL     1       3.547  10.141   5.087  1.00  0.00     0.178 C 
ATOM      4  C   UNL     1       3.877  11.653   4.959  1.00  0.00     0.177 C 
ATOM      5  O   UNL     1       3.686   9.470   3.843  1.00  0.00    -0.341 OA
ATOM      6  C   UNL     1       5.290  11.851   4.368  1.00  0.00     0.179 C 
ATOM      7  C   UNL     1       5.456  10.988   3.104  1.00  0.00     0.202 C 
BRANCH   3   8
ATOM      8  C   UNL     1       2.116   9.927   5.595  1.00  0.00     0.191 C 
BRANCH   8   9
ATOM      9  O   UNL     1       1.649  11.083   6.230  1.00  0.00    -0.394 OA
ATOM     10  H   UNL     1       2.197  11.833   5.877  1.00  0.00     0.210 HD
ENDBRANCH   8   9
ENDBRANCH   3   8
BRANCH   4  11
ATOM     11  O   UNL     1       2.918  12.346   4.193  1.00  0.00    -0.387 OA
ATOM     12  H   UNL     1       2.159  11.734   4.017  1.00  0.00     0.211 HD
ENDBRANCH   4  11
BRANCH   6  13
ATOM     13  O   UNL     1       6.266  11.510   5.322  1.00  0.00    -0.387 OA
ATOM     14  H   UNL     1       6.498  10.555   5.160  1.00  0.00     0.211 HD
ENDBRANCH   6  13
BRANCH   7  15
ATOM     15  O   UNL     1       6.769  11.066   2.599  1.00  0.00    -0.385 OA
ATOM     16  H   UNL     1       6.978  12.020   2.428  1.00  0.00     0.211 HD
ENDBRANCH   7  15
ENDBRANCH   1   2
BRANCH   1  17
ATOM     17  C   UNL     1       6.616   7.744   3.666  1.00  0.00     0.224 C 
ATOM     18  C   UNL     1       8.131   7.954   3.857  1.00  0.00     0.208 C 
ATOM     19  O   UNL     1       6.255   6.559   4.356  1.00  0.00    -0.337 OA
ATOM     20  C   UNL     1       8.635   6.549   4.047  1.00  0.00     0.180 C 
ATOM     21  C   UNL     1       7.434   5.844   4.688  1.00  0.00     0.179 C 
BRANCH  17  22
ATOM     22  C   UNL     1       6.315   7.564   2.152  1.00  0.00     0.225 C 
BRANCH  22  23
ATOM     23  O   UNL     1       7.254   8.264   1.385  1.00  0.00    -0.391 OA
ATOM     24  H   UNL     1       6.803   9.094   1.085  1.00  0.00     0.210 HD
ENDBRANCH  22  23
ENDBRANCH  17  22
BRANCH  18  25
ATOM     25  O   UNL     1       8.374   8.726   5.009  1.00  0.00    -0.385 OA
ATOM     26  H   UNL     1       8.980   9.465   4.743  1.00  0.00     0.211 HD
ENDBRANCH  18  25
BRANCH  20  27
ATOM     27  O   UNL     1       9.798   6.514   4.833  1.00  0.00    -0.387 OA
ATOM     28  H   UNL     1      10.463   7.096   4.376  1.00  0.00     0.211 HD
ENDBRANCH  20  27
BRANCH  21  29
ATOM     29  C   UNL     1       7.543   5.734   6.219  1.00  0.00     0.191 C 
BRANCH  29  30
ATOM     30  O   UNL     1       8.487   4.755   6.560  1.00  0.00    -0.394 OA
ATOM     31  H   UNL     1       9.346   5.232   6.700  1.00  0.00     0.210 HD
ENDBRANCH  29  30
ENDBRANCH  21  29
ENDBRANCH   1  17
TORSDOF 13
ENDMDL
MODEL 8
REMARK VINA RESULT:    -4.860      1.728      5.344
REMARK INTER + INTRA:          -9.273
REMARK INTER:                  -7.644
REMARK INTRA:                  -1.629
REMARK UNBOUND:                -1.856
REMARK SMILES OC[C@H]1O[C@H](O[C@]2(CO)O[C@H](CO)[C@H](O)[C@@H]2O)[C@H](O)[C@H](O)[C@H]1O
REMARK SMILES IDX 6 1 5 2 3 3 22 4 4 5 20 6 18 7 2 8 1 9 23 11 21 13 19 15
REMARK SMILES IDX 7 17 16 18 10 19 14 20 11 21 8 22 9 23 17 25 15 27 12 29
REMARK SMILES IDX 13 30
REMARK H PARENT 1 10 23 12 21 14 19 16 9 24 17 26 15 28 13 31
REMARK Flexibility Score: inf
ROOT
ATOM      1  O   UNL     1       6.035   8.879   4.418  1.00  0.00    -0.313 OA
ENDROOT
BRANCH   1   2
ATOM      2  C   UNL     1       5.413   7.647   4.772  1.00  0.00     0.285 C 
ATOM      3  C   UNL     1       5.263   6.883   2.545  1.00  0.00     0.178 C 
ATOM      4  C   UNL     1       6.326   5.771   2.753  1.00  0.00     0.177 C 
ATOM      5  O   UNL     1       4.556   7.160   3.745  1.00  0.00    -0.341 OA
ATOM      6  C   UNL     1       7.290   6.150   3.898  1.00  0.00     0.179 C 
ATOM      7  C   UNL     1       6.488   6.593   5.136  1.00  0.00     0.202 C 
BRANCH   3   8
ATOM      8  C   UNL     1       4.247   6.484   1.467  1.00  0.00     0.191 C 
BRANCH   8   9
ATOM      9  O   UNL     1       3.172   5.800   2.044  1.00  0.00    -0.394 OA
ATOM     10  H   UNL     1       3.539   5.327   2.837  1.00  0.00     0.210 HD
ENDBRANCH   8   9
ENDBRANCH   3   8
BRANCH   4  11
ATOM     11  O   UNL     1       5.741   4.511   2.994  1.00  0.00    -0.387 OA
ATOM     12  H   UNL     1       4.758   4.629   3.045  1.00  0.00     0.211 HD
ENDBRANCH   4  11
BRANCH   6  13
ATOM     13  O   UNL     1       8.153   7.181   3.484  1.00  0.00    -0.387 OA
ATOM     14  H   UNL     1       9.032   7.005   3.918  1.00  0.00     0.211 HD
ENDBRANCH   6  13
BRANCH   7  15
ATOM     15  O   UNL     1       7.339   7.044   6.164  1.00  0.00    -0.385 OA
ATOM     16  H   UNL     1       8.275   6.972   5.844  1.00  0.00     0.211 HD
ENDBRANCH   7  15
ENDBRANCH   1   2
BRANCH   1  17
ATOM     17  C   UNL     1       5.648  10.005   5.212  1.00  0.00     0.224 C 
ATOM     18  C   UNL     1       5.262  11.148   4.252  1.00  0.00     0.208 C 
ATOM     19  O   UNL     1       4.506   9.696   5.993  1.00  0.00    -0.337 OA
ATOM     20  C   UNL     1       4.176  11.860   5.012  1.00  0.00     0.180 C 
ATOM     21  C   UNL     1       3.552  10.733   5.843  1.00  0.00     0.179 C 
BRANCH  17  22
ATOM     22  C   UNL     1       6.791  10.490   6.147  1.00  0.00     0.225 C 
BRANCH  22  23
ATOM     23  O   UNL     1       7.984   9.826   5.837  1.00  0.00    -0.391 OA
ATOM     24  H   UNL     1       7.858   8.885   6.121  1.00  0.00     0.210 HD
ENDBRANCH  22  23
ENDBRANCH  17  22
BRANCH  18  25
ATOM     25  O   UNL     1       4.760  10.623   3.046  1.00  0.00    -0.385 OA
ATOM     26  H   UNL     1       4.899  11.313   2.347  1.00  0.00     0.211 HD
ENDBRANCH  18  25
BRANCH  20  27
ATOM     27  O   UNL     1       3.269  12.497   4.149  1.00  0.00    -0.387 OA
ATOM     28  H   UNL     1       2.411  12.571   4.649  1.00  0.00     0.211 HD
ENDBRANCH  20  27
BRANCH  21  29
ATOM     29  C   UNL     1       2.272  10.155   5.214  1.00  0.00     0.191 C 
BRANCH  29  30
ATOM     30  O   UNL     1       2.409   8.771   5.040  1.00  0.00    -0.394 OA
ATOM     31  H   UNL     1       2.317   8.365   5.941  1.00  0.00     0.210 HD
ENDBRANCH  29  30
ENDBRANCH  21  29
ENDBRANCH   1  17
TORSDOF 13
ENDMDL
MODEL 9
REMARK VINA RESULT:    -4.835      1.791      5.633
REMARK INTER + INTRA:          -9.235
REMARK INTER:                  -7.900
REMARK INTRA:                  -1.335
REMARK UNBOUND:                -1.856
REMARK SMILES OC[C@H]1O[C@H](O[C@]2(CO)O[C@H](CO)[C@H](O)[C@@H]2O)[C@H](O)[C@H](O)[C@H]1O
REMARK SMILES IDX 6 1 5 2 3 3 22 4 4 5 20 6 18 7 2 8 1 9 23 11 21 13 19 15
REMARK SMILES IDX 7 17 16 18 10 19 14 20 11 21 8 22 9 23 17 25 15 27 12 29
REMARK SMILES IDX 13 30
REMARK H PARENT 1 10 23 12 21 14 19 16 9 24 17 26 15 28 13 31
REMARK Flexibility Score: inf
ROOT
ATOM      1  O   UNL     1       5.130   9.208   3.925  1.00  0.00    -0.313 OA
ENDROOT
BRANCH   1   2
ATOM      2  C   UNL     1       5.785   7.947   3.826  1.00  0.00     0.285 C 
ATOM      3  C   UNL     1       5.144   7.594   1.583  1.00  0.00     0.178 C 
ATOM      4  C   UNL     1       6.589   7.767   1.041  1.00  0.00     0.177 C 
ATOM      5  O   UNL     1       5.142   7.074   2.905  1.00  0.00    -0.341 OA
ATOM      6  C   UNL     1       7.423   8.650   1.995  1.00  0.00     0.179 C 
ATOM      7  C   UNL     1       7.273   8.148   3.443  1.00  0.00     0.202 C 
BRANCH   3   8
ATOM      8  C   UNL     1       4.327   6.652   0.692  1.00  0.00     0.191 C 
BRANCH   8   9
ATOM      9  O   UNL     1       4.415   7.052  -0.646  1.00  0.00    -0.394 OA
ATOM     10  H   UNL     1       3.507   7.365  -0.901  1.00  0.00     0.210 HD
ENDBRANCH   8   9
ENDBRANCH   3   8
BRANCH   4  11
ATOM     11  O   UNL     1       7.229   6.531   0.824  1.00  0.00    -0.387 OA
ATOM     12  H   UNL     1       7.297   6.058   1.693  1.00  0.00     0.211 HD
ENDBRANCH   4  11
BRANCH   6  13
ATOM     13  O   UNL     1       7.009   9.991   1.900  1.00  0.00    -0.387 OA
ATOM     14  H   UNL     1       6.508  10.192   2.737  1.00  0.00     0.211 HD
ENDBRANCH   6  13
BRANCH   7  15
ATOM     15  O   UNL     1       7.939   8.995   4.351  1.00  0.00    -0.385 OA
ATOM     16  H   UNL     1       8.913   8.832   4.268  1.00  0.00     0.211 HD
ENDBRANCH   7  15
ENDBRANCH   1   2
BRANCH   1  17
ATOM     17  C   UNL     1       4.728   9.581   5.246  1.00  0.00     0.224 C 
ATOM     18  C   UNL     1       5.604  10.771   5.686  1.00  0.00     0.208 C 
ATOM     19  O   UNL     1       3.378  10.016   5.254  1.00  0.00    -0.337 OA
ATOM     20  C   UNL     1       4.667  11.562   6.559  1.00  0.00     0.180 C 
ATOM     21  C   UNL     1       3.295  11.246   5.953  1.00  0.00     0.179 C 
BRANCH  17  22
ATOM     22  C   UNL     1       4.897   8.421   6.266  1.00  0.00     0.225 C 
BRANCH  22  23
ATOM     23  O   UNL     1       3.643   7.957   6.684  1.00  0.00    -0.391 OA
ATOM     24  H   UNL     1       3.705   6.968   6.694  1.00  0.00     0.210 HD
ENDBRANCH  22  23
ENDBRANCH  17  22
BRANCH  18  25
ATOM     25  O   UNL     1       5.995  11.529   4.566  1.00  0.00    -0.385 OA
ATOM     26  H   UNL     1       5.723  11.021   3.760  1.00  0.00     0.211 HD
ENDBRANCH  18  25
BRANCH  20  27
ATOM     27  O   UNL     1       4.986  12.931   6.559  1.00  0.00    -0.387 OA
ATOM     28  H   UNL     1       5.911  13.003   6.919  1.00  0.00     0.211 HD
ENDBRANCH  20  27
BRANCH  21  29
ATOM     29  C   UNL     1       2.791  12.339   4.995  1.00  0.00     0.191 C 
BRANCH  29  30
ATOM     30  O   UNL     1       3.521  12.300   3.800  1.00  0.00    -0.394 OA
ATOM     31  H   UNL     1       3.041  12.888   3.160  1.00  0.00     0.210 HD
ENDBRANCH  29  30
ENDBRANCH  21  29
ENDBRANCH   1  17
TORSDOF 13
ENDMDL
