MODEL 1
REMARK VINA RESULT:    -5.077      0.000      0.000
REMARK INTER + INTRA:          -6.388
REMARK INTER:                  -6.115
REMARK INTRA:                  -0.273
REMARK UNBOUND:                -0.273
REMARK SMILES O=c1c(O)c(-c2ccc(O)c(O)c2)oc2cc(O)cc(O)c12
REMARK SMILES IDX 5 1 3 2 2 3 1 4 22 5 20 6 19 7 17 8 16 9 15 10 14 11 6 12
REMARK SMILES IDX 7 13 8 14 9 15 13 16 11 17 10 18 12 20 4 22 21 24 18 26
REMARK H PARENT 10 19 12 21 4 23 21 25 18 27
REMARK Flexibility Score: inf
ROOT
ATOM      1  C   UNL     1     132.877 125.370  99.474  1.00  0.00     0.180 A 
ATOM      2  C   UNL     1     132.639 124.408 100.471  1.00  0.00     0.208 A 
ATOM      3  C   UNL     1     131.974 124.795 101.646  1.00  0.00     0.238 A 
ATOM      4  O   UNL     1     131.699 123.913 102.500  1.00  0.00    -0.285 OA
ATOM      5  C   UNL     1     131.605 126.149 101.834  1.00  0.00     0.111 A 
ATOM      6  C   UNL     1     130.967 126.661 103.004  1.00  0.00     0.134 A 
ATOM      7  C   UNL     1     130.553 127.998 103.035  1.00  0.00     0.093 A 
ATOM      8  C   UNL     1     130.809 128.857 101.967  1.00  0.00     0.123 A 
ATOM      9  C   UNL     1     131.481 128.380 100.841  1.00  0.00     0.094 A 
ATOM     10  C   UNL     1     131.873 127.043 100.764  1.00  0.00     0.146 A 
ATOM     11  O   UNL     1     132.489 126.625  99.665  1.00  0.00    -0.452 OA
ENDROOT
BRANCH   1  12
ATOM     12  C   UNL     1     133.558 125.036  98.203  1.00  0.00     0.025 A 
ATOM     13  C   UNL     1     134.954 124.889  98.187  1.00  0.00     0.016 A 
ATOM     14  C   UNL     1     135.621 124.595  96.994  1.00  0.00     0.051 A 
ATOM     15  C   UNL     1     134.904 124.459  95.798  1.00  0.00     0.157 A 
ATOM     16  C   UNL     1     132.844 124.919  96.996  1.00  0.00     0.062 A 
ATOM     17  C   UNL     1     133.509 124.627  95.800  1.00  0.00     0.158 A 
BRANCH  15  18
ATOM     18  O   UNL     1     135.571 124.164  94.610  1.00  0.00    -0.504 OA
ATOM     19  H   UNL     1     136.405 123.588  94.599  1.00  0.00     0.293 HD
ENDBRANCH  15  18
BRANCH  17  20
ATOM     20  O   UNL     1     132.769 124.512  94.624  1.00  0.00    -0.504 OA
ATOM     21  H   UNL     1     132.344 123.639  94.338  1.00  0.00     0.293 HD
ENDBRANCH  17  20
ENDBRANCH   1  12
BRANCH   2  22
ATOM     22  O   UNL     1     133.079 123.092 100.298  1.00  0.00    -0.502 OA
ATOM     23  H   UNL     1     132.701 122.317 100.830  1.00  0.00     0.293 HD
ENDBRANCH   2  22
BRANCH   6  24
ATOM     24  O   UNL     1     130.741 125.914 104.165  1.00  0.00    -0.507 OA
ATOM     25  H   UNL     1     131.386 125.837 104.936  1.00  0.00     0.293 HD
ENDBRANCH   6  24
BRANCH   8  26
ATOM     26  O   UNL     1     130.398 130.187 102.040  1.00  0.00    -0.508 OA
ATOM     27  H   UNL     1     130.050 130.586 102.904  1.00  0.00     0.293 HD
ENDBRANCH   8  26
TORSDOF 6
ENDMDL
MODEL 2
REMARK VINA RESULT:    -5.062     12.702     14.415
REMARK INTER + INTRA:          -6.371
REMARK INTER:                  -6.107
REMARK INTRA:                  -0.264
REMARK UNBOUND:                -0.273
REMARK SMILES O=c1c(O)c(-c2ccc(O)c(O)c2)oc2cc(O)cc(O)c12
REMARK SMILES IDX 5 1 3 2 2 3 1 4 22 5 20 6 19 7 17 8 16 9 15 10 14 11 6 12
REMARK SMILES IDX 7 13 8 14 9 15 13 16 11 17 10 18 12 20 4 22 21 24 18 26
REMARK H PARENT 10 19 12 21 4 23 21 25 18 27
REMARK Flexibility Score: inf
ROOT
ATOM      1  C   UNL     1     118.693 126.172  99.795  1.00  0.00     0.180 A 
ATOM      2  C   UNL     1     118.978 127.128 100.785  1.00  0.00     0.208 A 
ATOM      3  C   UNL     1     119.670 126.726 101.939  1.00  0.00     0.238 A 
ATOM      4  O   UNL     1     119.987 127.601 102.786  1.00  0.00    -0.285 OA
ATOM      5  C   UNL     1     120.020 125.366 102.115  1.00  0.00     0.111 A 
ATOM      6  C   UNL     1     120.683 124.839 103.264  1.00  0.00     0.134 A 
ATOM      7  C   UNL     1     121.073 123.494 103.281  1.00  0.00     0.093 A 
ATOM      8  C   UNL     1     120.769 122.642 102.220  1.00  0.00     0.123 A 
ATOM      9  C   UNL     1     120.073 123.134 101.115  1.00  0.00     0.094 A 
ATOM     10  C   UNL     1     119.703 124.479 101.051  1.00  0.00     0.146 A 
ATOM     11  O   UNL     1     119.062 124.910  99.972  1.00  0.00    -0.452 OA
ENDROOT
BRANCH   1  12
ATOM     12  C   UNL     1     117.980 126.521  98.545  1.00  0.00     0.025 A 
ATOM     13  C   UNL     1     116.590 126.721  98.576  1.00  0.00     0.016 A 
ATOM     14  C   UNL     1     115.893 127.031  97.405  1.00  0.00     0.051 A 
ATOM     15  C   UNL     1     116.572 127.129  96.184  1.00  0.00     0.157 A 
ATOM     16  C   UNL     1     118.654 126.600  97.313  1.00  0.00     0.062 A 
ATOM     17  C   UNL     1     117.959 126.908  96.138  1.00  0.00     0.158 A 
BRANCH  15  18
ATOM     18  O   UNL     1     115.875 127.439  95.017  1.00  0.00    -0.504 OA
ATOM     19  H   UNL     1     115.717 128.400  94.733  1.00  0.00     0.293 HD
ENDBRANCH  15  18
BRANCH  17  20
ATOM     20  O   UNL     1     118.661 126.983  94.935  1.00  0.00    -0.504 OA
ATOM     21  H   UNL     1     118.507 127.729  94.268  1.00  0.00     0.293 HD
ENDBRANCH  17  20
ENDBRANCH   1  12
BRANCH   2  22
ATOM     22  O   UNL     1     118.557 128.452 100.628  1.00  0.00    -0.502 OA
ATOM     23  H   UNL     1     119.071 129.236 101.011  1.00  0.00     0.293 HD
ENDBRANCH   2  22
BRANCH   6  24
ATOM     24  O   UNL     1     120.957 125.579 104.419  1.00  0.00    -0.507 OA
ATOM     25  H   UNL     1     120.311 126.211 104.866  1.00  0.00     0.293 HD
ENDBRANCH   6  24
BRANCH   8  26
ATOM     26  O   UNL     1     121.158 121.305 102.278  1.00  0.00    -0.508 OA
ATOM     27  H   UNL     1     122.125 121.030 102.156  1.00  0.00     0.293 HD
ENDBRANCH   8  26
TORSDOF 6
ENDMDL
MODEL 3
REMARK VINA RESULT:    -5.060     12.655     14.289
REMARK INTER + INTRA:          -6.368
REMARK INTER:                  -6.140
REMARK INTRA:                  -0.228
REMARK UNBOUND:                -0.273
REMARK SMILES O=c1c(O)c(-c2ccc(O)c(O)c2)oc2cc(O)cc(O)c12
REMARK SMILES IDX 5 1 3 2 2 3 1 4 22 5 20 6 19 7 17 8 16 9 15 10 14 11 6 12
REMARK SMILES IDX 7 13 8 14 9 15 13 16 11 17 10 18 12 20 4 22 21 24 18 26
REMARK H PARENT 10 19 12 21 4 23 21 25 18 27
REMARK Flexibility Score: inf
ROOT
ATOM      1  C   UNL     1     119.043 124.956  99.138  1.00  0.00     0.180 A 
ATOM      2  C   UNL     1     119.215 125.385 100.466  1.00  0.00     0.208 A 
ATOM      3  C   UNL     1     119.900 124.554 101.367  1.00  0.00     0.238 A 
ATOM      4  O   UNL     1     120.114 124.977 102.532  1.00  0.00    -0.285 OA
ATOM      5  C   UNL     1     120.357 123.281 100.946  1.00  0.00     0.111 A 
ATOM      6  C   UNL     1     121.024 122.340 101.785  1.00  0.00     0.134 A 
ATOM      7  C   UNL     1     121.526 121.155 101.232  1.00  0.00     0.093 A 
ATOM      8  C   UNL     1     121.329 120.848  99.886  1.00  0.00     0.123 A 
ATOM      9  C   UNL     1     120.630 121.738  99.068  1.00  0.00     0.094 A 
ATOM     10  C   UNL     1     120.152 122.944  99.581  1.00  0.00     0.146 A 
ATOM     11  O   UNL     1     119.512 123.771  98.764  1.00  0.00    -0.452 OA
ENDROOT
BRANCH   1  12
ATOM     12  C   UNL     1     118.345 125.781  98.127  1.00  0.00     0.025 A 
ATOM     13  C   UNL     1     116.949 125.917  98.192  1.00  0.00     0.016 A 
ATOM     14  C   UNL     1     116.266 126.673  97.236  1.00  0.00     0.051 A 
ATOM     15  C   UNL     1     116.966 127.291  96.192  1.00  0.00     0.157 A 
ATOM     16  C   UNL     1     119.042 126.386  97.065  1.00  0.00     0.062 A 
ATOM     17  C   UNL     1     118.360 127.142  96.105  1.00  0.00     0.158 A 
BRANCH  15  18
ATOM     18  O   UNL     1     116.283 128.047  95.240  1.00  0.00    -0.504 OA
ATOM     19  H   UNL     1     116.723 128.830  94.769  1.00  0.00     0.293 HD
ENDBRANCH  15  18
BRANCH  17  20
ATOM     20  O   UNL     1     119.084 127.733  95.069  1.00  0.00    -0.504 OA
ATOM     21  H   UNL     1     120.062 127.524  94.909  1.00  0.00     0.293 HD
ENDBRANCH  17  20
ENDBRANCH   1  12
BRANCH   2  22
ATOM     22  O   UNL     1     118.689 126.611 100.882  1.00  0.00    -0.502 OA
ATOM     23  H   UNL     1     118.673 126.895 101.854  1.00  0.00     0.293 HD
ENDBRANCH   2  22
BRANCH   6  24
ATOM     24  O   UNL     1     121.197 122.503 103.163  1.00  0.00    -0.507 OA
ATOM     25  H   UNL     1     121.856 123.134 103.592  1.00  0.00     0.293 HD
ENDBRANCH   6  24
BRANCH   8  26
ATOM     26  O   UNL     1     121.827 119.652  99.373  1.00  0.00    -0.508 OA
ATOM     27  H   UNL     1     122.513 119.104  99.879  1.00  0.00     0.293 HD
ENDBRANCH   8  26
TORSDOF 6
ENDMDL
MODEL 4
REMARK VINA RESULT:    -4.961     13.026     14.154
REMARK INTER + INTRA:          -6.250
REMARK INTER:                  -5.951
REMARK INTRA:                  -0.298
REMARK UNBOUND:                -0.273
REMARK SMILES O=c1c(O)c(-c2ccc(O)c(O)c2)oc2cc(O)cc(O)c12
REMARK SMILES IDX 5 1 3 2 2 3 1 4 22 5 20 6 19 7 17 8 16 9 15 10 14 11 6 12
REMARK SMILES IDX 7 13 8 14 9 15 13 16 11 17 10 18 12 20 4 22 21 24 18 26
REMARK H PARENT 10 19 12 21 4 23 21 25 18 27
REMARK Flexibility Score: inf
ROOT
ATOM      1  C   UNL     1     118.646 125.626  99.643  1.00  0.00     0.180 A 
ATOM      2  C   UNL     1     118.889 124.254  99.829  1.00  0.00     0.208 A 
ATOM      3  C   UNL     1     119.441 123.818 101.044  1.00  0.00     0.238 A 
ATOM      4  O   UNL     1     119.585 122.583 101.231  1.00  0.00    -0.285 OA
ATOM      5  C   UNL     1     119.795 124.763 102.038  1.00  0.00     0.111 A 
ATOM      6  C   UNL     1     120.401 124.438 103.288  1.00  0.00     0.134 A 
ATOM      7  C   UNL     1     120.609 125.447 104.238  1.00  0.00     0.093 A 
ATOM      8  C   UNL     1     120.294 126.776 103.958  1.00  0.00     0.123 A 
ATOM      9  C   UNL     1     119.751 127.113 102.717  1.00  0.00     0.094 A 
ATOM     10  C   UNL     1     119.496 126.125 101.765  1.00  0.00     0.146 A 
ATOM     11  O   UNL     1     118.958 126.486 100.606  1.00  0.00    -0.452 OA
ENDROOT
BRANCH   1  12
ATOM     12  C   UNL     1     118.055 126.161  98.396  1.00  0.00     0.025 A 
ATOM     13  C   UNL     1     116.677 126.425  98.345  1.00  0.00     0.016 A 
ATOM     14  C   UNL     1     116.093 126.910  97.171  1.00  0.00     0.051 A 
ATOM     15  C   UNL     1     116.874 127.122  96.028  1.00  0.00     0.157 A 
ATOM     16  C   UNL     1     118.832 126.355  97.239  1.00  0.00     0.062 A 
ATOM     17  C   UNL     1     118.250 126.839  96.063  1.00  0.00     0.158 A 
BRANCH  15  18
ATOM     18  O   UNL     1     116.290 127.608  94.859  1.00  0.00    -0.504 OA
ATOM     19  H   UNL     1     115.663 128.405  94.871  1.00  0.00     0.293 HD
ENDBRANCH  15  18
BRANCH  17  20
ATOM     20  O   UNL     1     119.052 127.025  94.937  1.00  0.00    -0.504 OA
ATOM     21  H   UNL     1     118.845 126.583  94.050  1.00  0.00     0.293 HD
ENDBRANCH  17  20
ENDBRANCH   1  12
BRANCH   2  22
ATOM     22  O   UNL     1     118.603 123.345  98.806  1.00  0.00    -0.502 OA
ATOM     23  H   UNL     1     119.318 122.778  98.367  1.00  0.00     0.293 HD
ENDBRANCH   2  22
BRANCH   6  24
ATOM     24  O   UNL     1     120.839 123.157 103.638  1.00  0.00    -0.507 OA
ATOM     25  H   UNL     1     120.520 122.637 104.441  1.00  0.00     0.293 HD
ENDBRANCH   6  24
BRANCH   8  26
ATOM     26  O   UNL     1     120.531 127.756 104.920  1.00  0.00    -0.508 OA
ATOM     27  H   UNL     1     121.441 127.864 105.352  1.00  0.00     0.293 HD
ENDBRANCH   8  26
TORSDOF 6
ENDMDL
MODEL 5
REMARK VINA RESULT:    -4.952      1.240      2.875
REMARK INTER + INTRA:          -6.239
REMARK INTER:                  -5.937
REMARK INTRA:                  -0.301
REMARK UNBOUND:                -0.273
REMARK SMILES O=c1c(O)c(-c2ccc(O)c(O)c2)oc2cc(O)cc(O)c12
REMARK SMILES IDX 5 1 3 2 2 3 1 4 22 5 20 6 19 7 17 8 16 9 15 10 14 11 6 12
REMARK SMILES IDX 7 13 8 14 9 15 13 16 11 17 10 18 12 20 4 22 21 24 18 26
REMARK H PARENT 10 19 12 21 4 23 21 25 18 27
REMARK Flexibility Score: inf
ROOT
ATOM      1  C   UNL     1     132.947 125.875  99.332  1.00  0.00     0.180 A 
ATOM      2  C   UNL     1     132.712 127.246  99.533  1.00  0.00     0.208 A 
ATOM      3  C   UNL     1     132.171 127.672 100.756  1.00  0.00     0.238 A 
ATOM      4  O   UNL     1     132.034 128.907 100.956  1.00  0.00    -0.285 OA
ATOM      5  C   UNL     1     131.818 126.719 101.742  1.00  0.00     0.111 A 
ATOM      6  C   UNL     1     131.222 127.034 103.000  1.00  0.00     0.134 A 
ATOM      7  C   UNL     1     131.014 126.018 103.940  1.00  0.00     0.093 A 
ATOM      8  C   UNL     1     131.321 124.690 103.645  1.00  0.00     0.123 A 
ATOM      9  C   UNL     1     131.854 124.363 102.398  1.00  0.00     0.094 A 
ATOM     10  C   UNL     1     132.108 125.359 101.453  1.00  0.00     0.146 A 
ATOM     11  O   UNL     1     132.637 125.007 100.288  1.00  0.00    -0.452 OA
ENDROOT
BRANCH   1  12
ATOM     12  C   UNL     1     133.528 125.350  98.076  1.00  0.00     0.025 A 
ATOM     13  C   UNL     1     134.906 125.093  98.008  1.00  0.00     0.016 A 
ATOM     14  C   UNL     1     135.480 124.617  96.826  1.00  0.00     0.051 A 
ATOM     15  C   UNL     1     134.687 124.407  95.690  1.00  0.00     0.157 A 
ATOM     16  C   UNL     1     132.739 125.157  96.926  1.00  0.00     0.062 A 
ATOM     17  C   UNL     1     133.311 124.683  95.741  1.00  0.00     0.158 A 
BRANCH  15  18
ATOM     18  O   UNL     1     135.262 123.930  94.512  1.00  0.00    -0.504 OA
ATOM     19  H   UNL     1     135.157 122.964  94.224  1.00  0.00     0.293 HD
ENDBRANCH  15  18
BRANCH  17  20
ATOM     20  O   UNL     1     132.498 124.498  94.623  1.00  0.00    -0.504 OA
ATOM     21  H   UNL     1     131.487 124.485  94.688  1.00  0.00     0.293 HD
ENDBRANCH  17  20
ENDBRANCH   1  12
BRANCH   2  22
ATOM     22  O   UNL     1     132.996 128.164  98.518  1.00  0.00    -0.502 OA
ATOM     23  H   UNL     1     133.809 128.080  97.919  1.00  0.00     0.293 HD
ENDBRANCH   2  22
BRANCH   6  24
ATOM     24  O   UNL     1     130.793 128.314 103.365  1.00  0.00    -0.507 OA
ATOM     25  H   UNL     1     129.889 128.705 103.146  1.00  0.00     0.293 HD
ENDBRANCH   6  24
BRANCH   8  26
ATOM     26  O   UNL     1     131.085 123.701 104.599  1.00  0.00    -0.508 OA
ATOM     27  H   UNL     1     130.404 122.967 104.443  1.00  0.00     0.293 HD
ENDBRANCH   8  26
TORSDOF 6
ENDMDL
MODEL 6
REMARK VINA RESULT:    -4.623     10.758     13.139
REMARK INTER + INTRA:          -5.842
REMARK INTER:                  -5.635
REMARK INTRA:                  -0.207
REMARK UNBOUND:                -0.273
REMARK SMILES O=c1c(O)c(-c2ccc(O)c(O)c2)oc2cc(O)cc(O)c12
REMARK SMILES IDX 5 1 3 2 2 3 1 4 22 5 20 6 19 7 17 8 16 9 15 10 14 11 6 12
REMARK SMILES IDX 7 13 8 14 9 15 13 16 11 17 10 18 12 20 4 22 21 24 18 26
REMARK H PARENT 10 19 12 21 4 23 21 25 18 27
REMARK Flexibility Score: inf
ROOT
ATOM      1  C   UNL     1     121.712 123.935 103.179  1.00  0.00     0.180 A 
ATOM      2  C   UNL     1     121.633 122.682 102.547  1.00  0.00     0.208 A 
ATOM      3  C   UNL     1     120.850 122.551 101.389  1.00  0.00     0.238 A 
ATOM      4  O   UNL     1     120.844 121.446 100.788  1.00  0.00    -0.285 OA
ATOM      5  C   UNL     1     120.111 123.659 100.908  1.00  0.00     0.111 A 
ATOM      6  C   UNL     1     119.251 123.629  99.769  1.00  0.00     0.134 A 
ATOM      7  C   UNL     1     118.654 124.814  99.324  1.00  0.00     0.093 A 
ATOM      8  C   UNL     1     118.833 126.015 100.010  1.00  0.00     0.123 A 
ATOM      9  C   UNL     1     119.629 126.044 101.156  1.00  0.00     0.094 A 
ATOM     10  C   UNL     1     120.269 124.887 101.604  1.00  0.00     0.146 A 
ATOM     11  O   UNL     1     121.034 124.964 102.685  1.00  0.00    -0.452 OA
ENDROOT
BRANCH   1  12
ATOM     12  C   UNL     1     122.527 124.155 104.395  1.00  0.00     0.025 A 
ATOM     13  C   UNL     1     123.927 124.104 104.305  1.00  0.00     0.016 A 
ATOM     14  C   UNL     1     124.717 124.288 105.443  1.00  0.00     0.051 A 
ATOM     15  C   UNL     1     124.118 124.510 106.690  1.00  0.00     0.157 A 
ATOM     16  C   UNL     1     121.930 124.357 105.652  1.00  0.00     0.062 A 
ATOM     17  C   UNL     1     122.717 124.539 106.794  1.00  0.00     0.158 A 
BRANCH  15  18
ATOM     18  O   UNL     1     124.907 124.694 107.825  1.00  0.00    -0.504 OA
ATOM     19  H   UNL     1     124.571 124.453 108.750  1.00  0.00     0.293 HD
ENDBRANCH  15  18
BRANCH  17  20
ATOM     20  O   UNL     1     122.091 124.742 108.024  1.00  0.00    -0.504 OA
ATOM     21  H   UNL     1     122.158 125.621 108.524  1.00  0.00     0.293 HD
ENDBRANCH  17  20
ENDBRANCH   1  12
BRANCH   2  22
ATOM     22  O   UNL     1     122.309 121.581 103.082  1.00  0.00    -0.502 OA
ATOM     23  H   UNL     1     123.022 121.674 103.795  1.00  0.00     0.293 HD
ENDBRANCH   2  22
BRANCH   6  24
ATOM     24  O   UNL     1     118.929 122.467  99.061  1.00  0.00    -0.507 OA
ATOM     25  H   UNL     1     118.062 121.959  99.147  1.00  0.00     0.293 HD
ENDBRANCH   6  24
BRANCH   8  26
ATOM     26  O   UNL     1     118.209 127.171  99.547  1.00  0.00    -0.508 OA
ATOM     27  H   UNL     1     117.394 127.555 100.011  1.00  0.00     0.293 HD
ENDBRANCH   8  26
TORSDOF 6
ENDMDL
MODEL 7
REMARK VINA RESULT:    -4.614      1.422      2.915
REMARK INTER + INTRA:          -5.832
REMARK INTER:                  -5.633
REMARK INTRA:                  -0.199
REMARK UNBOUND:                -0.273
REMARK SMILES O=c1c(O)c(-c2ccc(O)c(O)c2)oc2cc(O)cc(O)c12
REMARK SMILES IDX 5 1 3 2 2 3 1 4 22 5 20 6 19 7 17 8 16 9 15 10 14 11 6 12
REMARK SMILES IDX 7 13 8 14 9 15 13 16 11 17 10 18 12 20 4 22 21 24 18 26
REMARK H PARENT 10 19 12 21 4 23 21 25 18 27
REMARK Flexibility Score: inf
ROOT
ATOM      1  C   UNL     1     132.347 126.573  99.327  1.00  0.00     0.180 A 
ATOM      2  C   UNL     1     131.624 127.760  99.116  1.00  0.00     0.208 A 
ATOM      3  C   UNL     1     131.038 128.405 100.217  1.00  0.00     0.238 A 
ATOM      4  O   UNL     1     130.457 129.505 100.031  1.00  0.00    -0.285 OA
ATOM      5  C   UNL     1     131.133 127.827 101.506  1.00  0.00     0.111 A 
ATOM      6  C   UNL     1     130.540 128.370 102.686  1.00  0.00     0.134 A 
ATOM      7  C   UNL     1     130.791 127.767 103.925  1.00  0.00     0.093 A 
ATOM      8  C   UNL     1     131.558 126.607 104.020  1.00  0.00     0.123 A 
ATOM      9  C   UNL     1     132.097 126.037 102.866  1.00  0.00     0.094 A 
ATOM     10  C   UNL     1     131.898 126.635 101.621  1.00  0.00     0.146 A 
ATOM     11  O   UNL     1     132.447 126.072 100.552  1.00  0.00    -0.452 OA
ENDROOT
BRANCH   1  12
ATOM     12  C   UNL     1     133.005 125.844  98.219  1.00  0.00     0.025 A 
ATOM     13  C   UNL     1     134.406 125.837  98.134  1.00  0.00     0.016 A 
ATOM     14  C   UNL     1     135.048 125.173  97.085  1.00  0.00     0.051 A 
ATOM     15  C   UNL     1     134.299 124.520  96.098  1.00  0.00     0.157 A 
ATOM     16  C   UNL     1     132.256 125.204  97.214  1.00  0.00     0.062 A 
ATOM     17  C   UNL     1     132.896 124.540  96.162  1.00  0.00     0.158 A 
BRANCH  15  18
ATOM     18  O   UNL     1     134.942 123.857  95.054  1.00  0.00    -0.504 OA
ATOM     19  H   UNL     1     134.680 122.915  94.782  1.00  0.00     0.293 HD
ENDBRANCH  15  18
BRANCH  17  20
ATOM     20  O   UNL     1     132.121 123.912  95.186  1.00  0.00    -0.504 OA
ATOM     21  H   UNL     1     132.460 123.763  94.244  1.00  0.00     0.293 HD
ENDBRANCH  17  20
ENDBRANCH   1  12
BRANCH   2  22
ATOM     22  O   UNL     1     131.477 128.274  97.825  1.00  0.00    -0.502 OA
ATOM     23  H   UNL     1     130.570 128.418  97.396  1.00  0.00     0.293 HD
ENDBRANCH   2  22
BRANCH   6  24
ATOM     24  O   UNL     1     129.683 129.474 102.695  1.00  0.00    -0.507 OA
ATOM     25  H   UNL     1     128.975 129.662 102.001  1.00  0.00     0.293 HD
ENDBRANCH   6  24
BRANCH   8  26
ATOM     26  O   UNL     1     131.772 126.025 105.268  1.00  0.00    -0.508 OA
ATOM     27  H   UNL     1     132.096 125.069 105.358  1.00  0.00     0.293 HD
ENDBRANCH   8  26
TORSDOF 6
ENDMDL
MODEL 8
REMARK VINA RESULT:    -4.574     12.309     13.540
REMARK INTER + INTRA:          -5.783
REMARK INTER:                  -5.457
REMARK INTRA:                  -0.325
REMARK UNBOUND:                -0.273
REMARK SMILES O=c1c(O)c(-c2ccc(O)c(O)c2)oc2cc(O)cc(O)c12
REMARK SMILES IDX 5 1 3 2 2 3 1 4 22 5 20 6 19 7 17 8 16 9 15 10 14 11 6 12
REMARK SMILES IDX 7 13 8 14 9 15 13 16 11 17 10 18 12 20 4 22 21 24 18 26
REMARK H PARENT 10 19 12 21 4 23 21 25 18 27
REMARK Flexibility Score: inf
ROOT
ATOM      1  C   UNL     1     119.713 125.035  99.909  1.00  0.00     0.180 A 
ATOM      2  C   UNL     1     120.341 123.796  99.697  1.00  0.00     0.208 A 
ATOM      3  C   UNL     1     120.862 123.099 100.799  1.00  0.00     0.238 A 
ATOM      4  O   UNL     1     121.355 121.957 100.611  1.00  0.00    -0.285 OA
ATOM      5  C   UNL     1     120.798 123.673 102.092  1.00  0.00     0.111 A 
ATOM      6  C   UNL     1     121.332 123.077 103.273  1.00  0.00     0.134 A 
ATOM      7  C   UNL     1     121.115 123.688 104.515  1.00  0.00     0.093 A 
ATOM      8  C   UNL     1     120.442 124.905 104.611  1.00  0.00     0.123 A 
ATOM      9  C   UNL     1     119.963 125.525 103.456  1.00  0.00     0.094 A 
ATOM     10  C   UNL     1     120.129 124.921 102.208  1.00  0.00     0.146 A 
ATOM     11  O   UNL     1     119.639 125.534 101.137  1.00  0.00    -0.452 OA
ENDROOT
BRANCH   1  12
ATOM     12  C   UNL     1     119.128 125.823  98.800  1.00  0.00     0.025 A 
ATOM     13  C   UNL     1     119.930 126.745  98.111  1.00  0.00     0.016 A 
ATOM     14  C   UNL     1     119.394 127.514  97.075  1.00  0.00     0.051 A 
ATOM     15  C   UNL     1     118.044 127.384  96.724  1.00  0.00     0.157 A 
ATOM     16  C   UNL     1     117.767 125.710  98.459  1.00  0.00     0.062 A 
ATOM     17  C   UNL     1     117.227 126.480  97.423  1.00  0.00     0.158 A 
BRANCH  15  18
ATOM     18  O   UNL     1     117.511 128.151  95.688  1.00  0.00    -0.504 OA
ATOM     19  H   UNL     1     117.284 129.131  95.817  1.00  0.00     0.293 HD
ENDBRANCH  15  18
BRANCH  17  20
ATOM     20  O   UNL     1     115.876 126.338  97.107  1.00  0.00    -0.504 OA
ATOM     21  H   UNL     1     115.142 126.555  97.771  1.00  0.00     0.293 HD
ENDBRANCH  17  20
ENDBRANCH   1  12
BRANCH   2  22
ATOM     22  O   UNL     1     120.462 123.281  98.403  1.00  0.00    -0.502 OA
ATOM     23  H   UNL     1     121.264 122.738  98.106  1.00  0.00     0.293 HD
ENDBRANCH   2  22
BRANCH   6  24
ATOM     24  O   UNL     1     122.099 121.907 103.283  1.00  0.00    -0.507 OA
ATOM     25  H   UNL     1     122.948 121.778 103.811  1.00  0.00     0.293 HD
ENDBRANCH   6  24
BRANCH   8  26
ATOM     26  O   UNL     1     120.260 125.493 105.861  1.00  0.00    -0.508 OA
ATOM     27  H   UNL     1     120.670 125.095 106.698  1.00  0.00     0.293 HD
ENDBRANCH   8  26
TORSDOF 6
ENDMDL
MODEL 9
REMARK VINA RESULT:    -4.573      2.610      8.213
REMARK INTER + INTRA:          -5.781
REMARK INTER:                  -5.463
REMARK INTRA:                  -0.318
REMARK UNBOUND:                -0.273
REMARK SMILES O=c1c(O)c(-c2ccc(O)c(O)c2)oc2cc(O)cc(O)c12
REMARK SMILES IDX 5 1 3 2 2 3 1 4 22 5 20 6 19 7 17 8 16 9 15 10 14 11 6 12
REMARK SMILES IDX 7 13 8 14 9 15 13 16 11 17 10 18 12 20 4 22 21 24 18 26
REMARK H PARENT 10 19 12 21 4 23 21 25 18 27
REMARK Flexibility Score: inf
ROOT
ATOM      1  C   UNL     1     129.843 127.401 102.796  1.00  0.00     0.180 A 
ATOM      2  C   UNL     1     129.923 128.681 102.221  1.00  0.00     0.208 A 
ATOM      3  C   UNL     1     130.721 128.867 101.081  1.00  0.00     0.238 A 
ATOM      4  O   UNL     1     130.728 129.998 100.529  1.00  0.00    -0.285 OA
ATOM      5  C   UNL     1     131.474 127.786 100.563  1.00  0.00     0.111 A 
ATOM      6  C   UNL     1     132.351 127.871  99.439  1.00  0.00     0.134 A 
ATOM      7  C   UNL     1     132.962 126.710  98.951  1.00  0.00     0.093 A 
ATOM      8  C   UNL     1     132.781 125.480  99.582  1.00  0.00     0.123 A 
ATOM      9  C   UNL     1     131.970 125.395 100.714  1.00  0.00     0.094 A 
ATOM     10  C   UNL     1     131.315 126.527 101.202  1.00  0.00     0.146 A 
ATOM     11  O   UNL     1     130.535 126.398 102.268  1.00  0.00    -0.452 OA
ENDROOT
BRANCH   1  12
ATOM     12  C   UNL     1     129.012 127.123 103.989  1.00  0.00     0.025 A 
ATOM     13  C   UNL     1     127.649 126.829 103.827  1.00  0.00     0.016 A 
ATOM     14  C   UNL     1     126.841 126.584 104.940  1.00  0.00     0.051 A 
ATOM     15  C   UNL     1     127.379 126.644 106.232  1.00  0.00     0.157 A 
ATOM     16  C   UNL     1     129.544 127.203 105.289  1.00  0.00     0.062 A 
ATOM     17  C   UNL     1     128.737 126.960 106.406  1.00  0.00     0.158 A 
BRANCH  15  18
ATOM     18  O   UNL     1     126.571 126.398 107.341  1.00  0.00    -0.504 OA
ATOM     19  H   UNL     1     125.617 126.071 107.240  1.00  0.00     0.293 HD
ENDBRANCH  15  18
BRANCH  17  20
ATOM     20  O   UNL     1     129.300 127.042 107.679  1.00  0.00    -0.504 OA
ATOM     21  H   UNL     1     129.115 126.351 108.395  1.00  0.00     0.293 HD
ENDBRANCH  17  20
ENDBRANCH   1  12
BRANCH   2  22
ATOM     22  O   UNL     1     129.232 129.753 102.793  1.00  0.00    -0.502 OA
ATOM     23  H   UNL     1     129.695 130.472 103.336  1.00  0.00     0.293 HD
ENDBRANCH   2  22
BRANCH   6  24
ATOM     24  O   UNL     1     132.675 129.065  98.787  1.00  0.00    -0.507 OA
ATOM     25  H   UNL     1     132.149 129.922  98.856  1.00  0.00     0.293 HD
ENDBRANCH   6  24
BRANCH   8  26
ATOM     26  O   UNL     1     133.420 124.348  99.078  1.00  0.00    -0.508 OA
ATOM     27  H   UNL     1     133.538 124.206  98.082  1.00  0.00     0.293 HD
ENDBRANCH   8  26
TORSDOF 6
ENDMDL
