MODEL 1
REMARK VINA RESULT:    -2.511      0.000      0.000
REMARK INTER + INTRA:          -2.844
REMARK INTER:                  -2.804
REMARK INTRA:                  -0.040
REMARK UNBOUND:                -0.040
REMARK SMILES CCCC(=O)[O-]
REMARK SMILES IDX 3 1 4 2 5 3 6 4 2 5 1 6
REMARK H PARENT
REMARK Flexibility Score: inf
ROOT
ATOM      1  C   UNL     1      88.937  30.366  28.789  1.00  0.00     0.052 C 
ENDROOT
BRANCH   1   2
ATOM      2  C   UNL     1      87.494  30.693  28.548  1.00  0.00     0.041 C 
ATOM      3  O   UNL     1      86.655  30.584  29.481  1.00  0.00    -0.550 OA
ATOM      4  O   UNL     1      87.072  31.087  27.286  1.00  0.00    -0.550 OA
ENDBRANCH   1   2
BRANCH   1   5
ATOM      5  C   UNL     1      89.256  28.910  28.425  1.00  0.00     0.003 C 
ATOM      6  C   UNL     1      89.759  28.767  26.988  1.00  0.00     0.004 C 
ENDBRANCH   1   5
TORSDOF 2
ENDMDL
MODEL 2
REMARK VINA RESULT:    -2.455      1.617      2.117
REMARK INTER + INTRA:          -2.781
REMARK INTER:                  -2.754
REMARK INTRA:                  -0.027
REMARK UNBOUND:                -0.040
REMARK SMILES CCCC(=O)[O-]
REMARK SMILES IDX 3 1 4 2 5 3 6 4 2 5 1 6
REMARK H PARENT
REMARK Flexibility Score: inf
ROOT
ATOM      1  C   UNL     1      89.255  29.015  28.724  1.00  0.00     0.052 C 
ENDROOT
BRANCH   1   2
ATOM      2  C   UNL     1      87.817  28.734  29.041  1.00  0.00     0.041 C 
ATOM      3  O   UNL     1      86.989  29.679  29.123  1.00  0.00    -0.550 OA
ATOM      4  O   UNL     1      87.400  27.431  29.277  1.00  0.00    -0.550 OA
ENDBRANCH   1   2
BRANCH   1   5
ATOM      5  C   UNL     1      89.416  29.635  27.330  1.00  0.00     0.003 C 
ATOM      6  C   UNL     1      89.865  28.612  26.286  1.00  0.00     0.004 C 
ENDBRANCH   1   5
TORSDOF 2
ENDMDL
MODEL 3
REMARK VINA RESULT:    -2.390      2.143      2.266
REMARK INTER + INTRA:          -2.709
REMARK INTER:                  -2.646
REMARK INTRA:                  -0.064
REMARK UNBOUND:                -0.040
REMARK SMILES CCCC(=O)[O-]
REMARK SMILES IDX 3 1 4 2 5 3 6 4 2 5 1 6
REMARK H PARENT
REMARK Flexibility Score: inf
ROOT
ATOM      1  C   UNL     1      88.197  29.197  29.013  1.00  0.00     0.052 C 
ENDROOT
BRANCH   1   2
ATOM      2  C   UNL     1      87.160  28.130  28.829  1.00  0.00     0.041 C 
ATOM      3  O   UNL     1      87.256  27.039  29.451  1.00  0.00    -0.550 OA
ATOM      4  O   UNL     1      86.106  28.330  27.948  1.00  0.00    -0.550 OA
ENDBRANCH   1   2
BRANCH   1   5
ATOM      5  C   UNL     1      89.535  28.801  28.377  1.00  0.00     0.003 C 
ATOM      6  C   UNL     1      89.487  28.836  26.850  1.00  0.00     0.004 C 
ENDBRANCH   1   5
TORSDOF 2
ENDMDL
MODEL 4
REMARK VINA RESULT:    -2.368      1.531      2.088
REMARK INTER + INTRA:          -2.684
REMARK INTER:                  -2.654
REMARK INTRA:                  -0.030
REMARK UNBOUND:                -0.040
REMARK SMILES CCCC(=O)[O-]
REMARK SMILES IDX 3 1 4 2 5 3 6 4 2 5 1 6
REMARK H PARENT
REMARK Flexibility Score: inf
ROOT
ATOM      1  C   UNL     1      89.597  28.795  28.210  1.00  0.00     0.052 C 
ENDROOT
BRANCH   1   2
ATOM      2  C   UNL     1      88.269  28.888  28.899  1.00  0.00     0.041 C 
ATOM      3  O   UNL     1      87.653  27.842  29.233  1.00  0.00    -0.550 OA
ATOM      4  O   UNL     1      87.698  30.130  29.143  1.00  0.00    -0.550 OA
ENDBRANCH   1   2
BRANCH   1   5
ATOM      5  C   UNL     1      89.440  28.713  26.687  1.00  0.00     0.003 C 
ATOM      6  C   UNL     1      89.941  29.974  25.982  1.00  0.00     0.004 C 
ENDBRANCH   1   5
TORSDOF 2
ENDMDL
MODEL 5
REMARK VINA RESULT:    -2.289      2.763      3.172
REMARK INTER + INTRA:          -2.596
REMARK INTER:                  -2.586
REMARK INTRA:                  -0.010
REMARK UNBOUND:                -0.040
REMARK SMILES CCCC(=O)[O-]
REMARK SMILES IDX 3 1 4 2 5 3 6 4 2 5 1 6
REMARK H PARENT
REMARK Flexibility Score: inf
ROOT
ATOM      1  C   UNL     1      87.896  28.405  29.203  1.00  0.00     0.052 C 
ENDROOT
BRANCH   1   2
ATOM      2  C   UNL     1      89.042  29.156  28.596  1.00  0.00     0.041 C 
ATOM      3  O   UNL     1      89.959  28.537  27.995  1.00  0.00    -0.550 OA
ATOM      4  O   UNL     1      89.112  30.537  28.722  1.00  0.00    -0.550 OA
ENDBRANCH   1   2
BRANCH   1   5
ATOM      5  C   UNL     1      87.143  27.577  28.154  1.00  0.00     0.003 C 
ATOM      6  C   UNL     1      86.332  26.443  28.780  1.00  0.00     0.004 C 
ENDBRANCH   1   5
TORSDOF 2
ENDMDL
MODEL 6
REMARK VINA RESULT:    -2.228      2.276      2.985
REMARK INTER + INTRA:          -2.528
REMARK INTER:                  -2.483
REMARK INTRA:                  -0.045
REMARK UNBOUND:                -0.040
REMARK SMILES CCCC(=O)[O-]
REMARK SMILES IDX 3 1 4 2 5 3 6 4 2 5 1 6
REMARK H PARENT
REMARK Flexibility Score: inf
ROOT
ATOM      1  C   UNL     1      89.640  28.756  26.896  1.00  0.00     0.052 C 
ENDROOT
BRANCH   1   2
ATOM      2  C   UNL     1      88.387  28.449  26.133  1.00  0.00     0.041 C 
ATOM      3  O   UNL     1      87.494  27.723  26.645  1.00  0.00    -0.550 OA
ATOM      4  O   UNL     1      88.221  28.939  24.844  1.00  0.00    -0.550 OA
ENDBRANCH   1   2
BRANCH   1   5
ATOM      5  C   UNL     1      89.368  28.893  28.399  1.00  0.00     0.003 C 
ATOM      6  C   UNL     1      88.911  30.301  28.782  1.00  0.00     0.004 C 
ENDBRANCH   1   5
TORSDOF 2
ENDMDL
MODEL 7
REMARK VINA RESULT:    -2.215      2.112      3.139
REMARK INTER + INTRA:          -2.514
REMARK INTER:                  -2.480
REMARK INTRA:                  -0.034
REMARK UNBOUND:                -0.040
REMARK SMILES CCCC(=O)[O-]
REMARK SMILES IDX 3 1 4 2 5 3 6 4 2 5 1 6
REMARK H PARENT
REMARK Flexibility Score: inf
ROOT
ATOM      1  C   UNL     1      88.560  30.450  28.761  1.00  0.00     0.052 C 
ENDROOT
BRANCH   1   2
ATOM      2  C   UNL     1      88.875  28.985  28.730  1.00  0.00     0.041 C 
ATOM      3  O   UNL     1      89.956  28.579  28.229  1.00  0.00    -0.550 OA
ATOM      4  O   UNL     1      87.959  28.067  29.227  1.00  0.00    -0.550 OA
ENDBRANCH   1   2
BRANCH   1   5
ATOM      5  C   UNL     1      87.048  30.705  28.714  1.00  0.00     0.003 C 
ATOM      6  C   UNL     1      86.570  31.111  27.320  1.00  0.00     0.004 C 
ENDBRANCH   1   5
TORSDOF 2
ENDMDL
MODEL 8
REMARK VINA RESULT:    -2.112      1.441      2.051
REMARK INTER + INTRA:          -2.398
REMARK INTER:                  -2.330
REMARK INTRA:                  -0.069
REMARK UNBOUND:                -0.040
REMARK SMILES CCCC(=O)[O-]
REMARK SMILES IDX 3 1 4 2 5 3 6 4 2 5 1 6
REMARK H PARENT
REMARK Flexibility Score: inf
ROOT
ATOM      1  C   UNL     1      87.490  30.633  28.515  1.00  0.00     0.052 C 
ENDROOT
BRANCH   1   2
ATOM      2  C   UNL     1      87.031  30.369  27.113  1.00  0.00     0.041 C 
ATOM      3  O   UNL     1      87.591  30.945  26.144  1.00  0.00    -0.550 OA
ATOM      4  O   UNL     1      85.964  29.512  26.881  1.00  0.00    -0.550 OA
ENDBRANCH   1   2
BRANCH   1   5
ATOM      5  C   UNL     1      88.983  30.327  28.689  1.00  0.00     0.003 C 
ATOM      6  C   UNL     1      89.300  28.846  28.486  1.00  0.00     0.004 C 
ENDBRANCH   1   5
TORSDOF 2
ENDMDL
MODEL 9
REMARK VINA RESULT:    -2.089      2.208      3.210
REMARK INTER + INTRA:          -2.373
REMARK INTER:                  -2.312
REMARK INTRA:                  -0.061
REMARK UNBOUND:                -0.040
REMARK SMILES CCCC(=O)[O-]
REMARK SMILES IDX 3 1 4 2 5 3 6 4 2 5 1 6
REMARK H PARENT
REMARK Flexibility Score: inf
ROOT
ATOM      1  C   UNL     1      89.034  28.691  26.648  1.00  0.00     0.052 C 
ENDROOT
BRANCH   1   2
ATOM      2  C   UNL     1      89.278  29.869  25.755  1.00  0.00     0.041 C 
ATOM      3  O   UNL     1      88.311  30.549  25.324  1.00  0.00    -0.550 OA
ATOM      4  O   UNL     1      90.573  30.195  25.374  1.00  0.00    -0.550 OA
ENDBRANCH   1   2
BRANCH   1   5
ATOM      5  C   UNL     1      89.619  28.911  28.049  1.00  0.00     0.003 C 
ATOM      6  C   UNL     1      88.820  29.932  28.859  1.00  0.00     0.004 C 
ENDBRANCH   1   5
TORSDOF 2
ENDMDL
