MODEL 1
REMARK VINA RESULT:    -6.653      0.000      0.000
REMARK INTER + INTRA:         -10.176
REMARK INTER:                  -9.764
REMARK INTRA:                  -0.412
REMARK UNBOUND:                -0.412
REMARK SMILES O=C([O-])CCCCCCCC(=O)[O-]
REMARK SMILES IDX 7 1 6 2 5 3 4 4 2 5 1 6 3 7 8 8 9 9 10 10 11 11 12 12 13 13
REMARK H PARENT
REMARK Flexibility Score: inf
ROOT
ATOM      1  C   UNL     1       6.924  -4.887  20.007  1.00  0.00     0.000 C 
ENDROOT
BRANCH   1   2
ATOM      2  C   UNL     1       7.266  -3.443  20.405  1.00  0.00     0.000 C 
BRANCH   2   3
ATOM      3  C   UNL     1       6.630  -3.034  21.745  1.00  0.00     0.006 C 
BRANCH   3   4
ATOM      4  C   UNL     1       5.783  -1.760  21.618  1.00  0.00     0.053 C 
BRANCH   4   5
ATOM      5  C   UNL     1       4.333  -2.077  21.414  1.00  0.00     0.041 C 
ATOM      6  O   UNL     1       3.536  -2.055  22.389  1.00  0.00    -0.550 OA
ATOM      7  O   UNL     1       3.869  -2.432  20.154  1.00  0.00    -0.550 OA
ENDBRANCH   4   5
ENDBRANCH   3   4
ENDBRANCH   2   3
ENDBRANCH   1   2
BRANCH   1   8
ATOM      8  C   UNL     1       6.552  -5.761  21.217  1.00  0.00     0.000 C 
BRANCH   8   9
ATOM      9  C   UNL     1       7.670  -6.743  21.603  1.00  0.00     0.006 C 
BRANCH   9  10
ATOM     10  C   UNL     1       7.327  -8.195  21.244  1.00  0.00     0.053 C 
BRANCH  10  11
ATOM     11  C   UNL     1       6.916  -8.951  22.469  1.00  0.00     0.041 C 
ATOM     12  O   UNL     1       6.282 -10.034  22.363  1.00  0.00    -0.550 OA
ATOM     13  O   UNL     1       7.276  -8.484  23.727  1.00  0.00    -0.550 OA
ENDBRANCH  10  11
ENDBRANCH   9  10
ENDBRANCH   8   9
ENDBRANCH   1   8
TORSDOF 8
ENDMDL
MODEL 2
REMARK VINA RESULT:    -6.574      0.788      6.229
REMARK INTER + INTRA:         -10.061
REMARK INTER:                  -9.684
REMARK INTRA:                  -0.378
REMARK UNBOUND:                -0.412
REMARK SMILES O=C([O-])CCCCCCCC(=O)[O-]
REMARK SMILES IDX 7 1 6 2 5 3 4 4 2 5 1 6 3 7 8 8 9 9 10 10 11 11 12 12 13 13
REMARK H PARENT
REMARK Flexibility Score: inf
ROOT
ATOM      1  C   UNL     1       7.292  -4.051  20.838  1.00  0.00     0.000 C 
ENDROOT
BRANCH   1   2
ATOM      2  C   UNL     1       6.853  -5.506  20.605  1.00  0.00     0.000 C 
BRANCH   2   3
ATOM      3  C   UNL     1       7.576  -6.495  21.536  1.00  0.00     0.006 C 
BRANCH   3   4
ATOM      4  C   UNL     1       7.233  -7.954  21.205  1.00  0.00     0.053 C 
BRANCH   4   5
ATOM      5  C   UNL     1       6.969  -8.755  22.444  1.00  0.00     0.041 C 
ATOM      6  O   UNL     1       7.330  -8.321  23.569  1.00  0.00    -0.550 OA
ATOM      7  O   UNL     1       6.355  -9.998  22.351  1.00  0.00    -0.550 OA
ENDBRANCH   4   5
ENDBRANCH   3   4
ENDBRANCH   2   3
ENDBRANCH   1   2
BRANCH   1   8
ATOM      8  C   UNL     1       6.430  -3.335  21.892  1.00  0.00     0.000 C 
BRANCH   8   9
ATOM      9  C   UNL     1       6.235  -1.842  21.581  1.00  0.00     0.006 C 
BRANCH   9  10
ATOM     10  C   UNL     1       5.580  -1.608  20.214  1.00  0.00     0.053 C 
BRANCH  10  11
ATOM     11  C   UNL     1       4.202  -2.191  20.190  1.00  0.00     0.041 C 
ATOM     12  O   UNL     1       3.908  -3.088  19.357  1.00  0.00    -0.550 OA
ATOM     13  O   UNL     1       3.256  -1.778  21.120  1.00  0.00    -0.550 OA
ENDBRANCH  10  11
ENDBRANCH   9  10
ENDBRANCH   8   9
ENDBRANCH   1   8
TORSDOF 8
ENDMDL
MODEL 3
REMARK VINA RESULT:    -6.538      1.164      1.290
REMARK INTER + INTRA:         -10.008
REMARK INTER:                  -9.697
REMARK INTRA:                  -0.311
REMARK UNBOUND:                -0.412
REMARK SMILES O=C([O-])CCCCCCCC(=O)[O-]
REMARK SMILES IDX 7 1 6 2 5 3 4 4 2 5 1 6 3 7 8 8 9 9 10 10 11 11 12 12 13 13
REMARK H PARENT
REMARK Flexibility Score: inf
ROOT
ATOM      1  C   UNL     1       7.588  -4.505  20.735  1.00  0.00     0.000 C 
ENDROOT
BRANCH   1   2
ATOM      2  C   UNL     1       6.620  -3.324  20.560  1.00  0.00     0.000 C 
BRANCH   2   3
ATOM      3  C   UNL     1       5.155  -3.719  20.812  1.00  0.00     0.006 C 
BRANCH   3   4
ATOM      4  C   UNL     1       4.234  -3.287  19.663  1.00  0.00     0.053 C 
BRANCH   4   5
ATOM      5  C   UNL     1       3.315  -2.178  20.076  1.00  0.00     0.041 C 
ATOM      6  O   UNL     1       3.137  -1.924  21.297  1.00  0.00    -0.550 OA
ATOM      7  O   UNL     1       2.629  -1.448  19.114  1.00  0.00    -0.550 OA
ENDBRANCH   4   5
ENDBRANCH   3   4
ENDBRANCH   2   3
ENDBRANCH   1   2
BRANCH   1   8
ATOM      8  C   UNL     1       6.867  -5.805  21.134  1.00  0.00     0.000 C 
BRANCH   8   9
ATOM      9  C   UNL     1       7.839  -6.899  21.606  1.00  0.00     0.006 C 
BRANCH   9  10
ATOM     10  C   UNL     1       7.363  -8.309  21.233  1.00  0.00     0.053 C 
BRANCH  10  11
ATOM     11  C   UNL     1       6.901  -9.043  22.453  1.00  0.00     0.041 C 
ATOM     12  O   UNL     1       6.266 -10.124  22.339  1.00  0.00    -0.550 OA
ATOM     13  O   UNL     1       7.215  -8.557  23.716  1.00  0.00    -0.550 OA
ENDBRANCH  10  11
ENDBRANCH   9  10
ENDBRANCH   8   9
ENDBRANCH   1   8
TORSDOF 8
ENDMDL
MODEL 4
REMARK VINA RESULT:    -6.215      1.386      6.546
REMARK INTER + INTRA:          -9.534
REMARK INTER:                  -9.093
REMARK INTRA:                  -0.441
REMARK UNBOUND:                -0.412
REMARK SMILES O=C([O-])CCCCCCCC(=O)[O-]
REMARK SMILES IDX 7 1 6 2 5 3 4 4 2 5 1 6 3 7 8 8 9 9 10 10 11 11 12 12 13 13
REMARK H PARENT
REMARK Flexibility Score: inf
ROOT
ATOM      1  C   UNL     1       6.862  -3.223  20.565  1.00  0.00     0.000 C 
ENDROOT
BRANCH   1   2
ATOM      2  C   UNL     1       7.719  -4.495  20.655  1.00  0.00     0.000 C 
BRANCH   2   3
ATOM      3  C   UNL     1       6.909  -5.722  21.109  1.00  0.00     0.006 C 
BRANCH   3   4
ATOM      4  C   UNL     1       7.793  -6.782  21.779  1.00  0.00     0.053 C 
BRANCH   4   5
ATOM      5  C   UNL     1       7.209  -8.156  21.644  1.00  0.00     0.041 C 
ATOM      6  O   UNL     1       7.553  -8.899  20.687  1.00  0.00    -0.550 OA
ATOM      7  O   UNL     1       6.259  -8.601  22.555  1.00  0.00    -0.550 OA
ENDBRANCH   4   5
ENDBRANCH   3   4
ENDBRANCH   2   3
ENDBRANCH   1   2
BRANCH   1   8
ATOM      8  C   UNL     1       6.269  -2.813  21.925  1.00  0.00     0.000 C 
BRANCH   8   9
ATOM      9  C   UNL     1       4.760  -2.527  21.849  1.00  0.00     0.006 C 
BRANCH   9  10
ATOM     10  C   UNL     1       4.234  -2.527  20.407  1.00  0.00     0.053 C 
BRANCH  10  11
ATOM     11  C   UNL     1       3.914  -1.132  19.970  1.00  0.00     0.041 C 
ATOM     12  O   UNL     1       4.841  -0.334  19.669  1.00  0.00    -0.550 OA
ATOM     13  O   UNL     1       2.590  -0.728  19.847  1.00  0.00    -0.550 OA
ENDBRANCH  10  11
ENDBRANCH   9  10
ENDBRANCH   8   9
ENDBRANCH   1   8
TORSDOF 8
ENDMDL
MODEL 5
REMARK VINA RESULT:    -6.064      2.380      3.913
REMARK INTER + INTRA:          -9.312
REMARK INTER:                  -8.904
REMARK INTRA:                  -0.409
REMARK UNBOUND:                -0.412
REMARK SMILES O=C([O-])CCCCCCCC(=O)[O-]
REMARK SMILES IDX 7 1 6 2 5 3 4 4 2 5 1 6 3 7 8 8 9 9 10 10 11 11 12 12 13 13
REMARK H PARENT
REMARK Flexibility Score: inf
ROOT
ATOM      1  C   UNL     1       4.753  -2.656  22.466  1.00  0.00     0.000 C 
ENDROOT
BRANCH   1   2
ATOM      2  C   UNL     1       3.537  -1.905  21.900  1.00  0.00     0.000 C 
BRANCH   2   3
ATOM      3  C   UNL     1       3.340  -2.150  20.395  1.00  0.00     0.006 C 
BRANCH   3   4
ATOM      4  C   UNL     1       2.498  -1.050  19.735  1.00  0.00     0.053 C 
BRANCH   4   5
ATOM      5  C   UNL     1       3.345  -0.109  18.934  1.00  0.00     0.041 C 
ATOM      6  O   UNL     1       2.895   0.404  17.875  1.00  0.00    -0.550 OA
ATOM      7  O   UNL     1       4.643   0.174  19.338  1.00  0.00    -0.550 OA
ENDBRANCH   4   5
ENDBRANCH   3   4
ENDBRANCH   2   3
ENDBRANCH   1   2
BRANCH   1   8
ATOM      8  C   UNL     1       6.073  -2.233  21.797  1.00  0.00     0.000 C 
BRANCH   8   9
ATOM      9  C   UNL     1       6.571  -3.262  20.769  1.00  0.00     0.006 C 
BRANCH   9  10
ATOM     10  C   UNL     1       6.000  -4.664  21.018  1.00  0.00     0.053 C 
BRANCH  10  11
ATOM     11  C   UNL     1       7.108  -5.655  21.190  1.00  0.00     0.041 C 
ATOM     12  O   UNL     1       8.277  -5.260  21.442  1.00  0.00    -0.550 OA
ATOM     13  O   UNL     1       6.841  -7.017  21.120  1.00  0.00    -0.550 OA
ENDBRANCH  10  11
ENDBRANCH   9  10
ENDBRANCH   8   9
ENDBRANCH   1   8
TORSDOF 8
ENDMDL
MODEL 6
REMARK VINA RESULT:    -5.940      1.802      2.357
REMARK INTER + INTRA:          -9.129
REMARK INTER:                  -8.784
REMARK INTRA:                  -0.346
REMARK UNBOUND:                -0.412
REMARK SMILES O=C([O-])CCCCCCCC(=O)[O-]
REMARK SMILES IDX 7 1 6 2 5 3 4 4 2 5 1 6 3 7 8 8 9 9 10 10 11 11 12 12 13 13
REMARK H PARENT
REMARK Flexibility Score: inf
ROOT
ATOM      1  C   UNL     1       6.068  -3.285  20.893  1.00  0.00     0.000 C 
ENDROOT
BRANCH   1   2
ATOM      2  C   UNL     1       5.276  -3.669  19.633  1.00  0.00     0.000 C 
BRANCH   2   3
ATOM      3  C   UNL     1       3.898  -2.987  19.571  1.00  0.00     0.006 C 
BRANCH   3   4
ATOM      4  C   UNL     1       3.844  -1.715  20.428  1.00  0.00     0.053 C 
BRANCH   4   5
ATOM      5  C   UNL     1       4.009  -0.479  19.598  1.00  0.00     0.041 C 
ATOM      6  O   UNL     1       5.147   0.041  19.454  1.00  0.00    -0.550 OA
ATOM      7  O   UNL     1       2.900   0.118  19.011  1.00  0.00    -0.550 OA
ENDBRANCH   4   5
ENDBRANCH   3   4
ENDBRANCH   2   3
ENDBRANCH   1   2
BRANCH   1   8
ATOM      8  C   UNL     1       7.262  -4.220  21.148  1.00  0.00     0.000 C 
BRANCH   8   9
ATOM      9  C   UNL     1       6.889  -5.705  21.011  1.00  0.00     0.006 C 
BRANCH   9  10
ATOM     10  C   UNL     1       7.844  -6.625  21.784  1.00  0.00     0.053 C 
BRANCH  10  11
ATOM     11  C   UNL     1       7.333  -8.031  21.776  1.00  0.00     0.041 C 
ATOM     12  O   UNL     1       7.336  -8.701  20.709  1.00  0.00    -0.550 OA
ATOM     13  O   UNL     1       6.898  -8.619  22.957  1.00  0.00    -0.550 OA
ENDBRANCH  10  11
ENDBRANCH   9  10
ENDBRANCH   8   9
ENDBRANCH   1   8
TORSDOF 8
ENDMDL
MODEL 7
REMARK VINA RESULT:    -5.694      3.645      5.399
REMARK INTER + INTRA:          -8.769
REMARK INTER:                  -8.393
REMARK INTRA:                  -0.375
REMARK UNBOUND:                -0.412
REMARK SMILES O=C([O-])CCCCCCCC(=O)[O-]
REMARK SMILES IDX 7 1 6 2 5 3 4 4 2 5 1 6 3 7 8 8 9 9 10 10 11 11 12 12 13 13
REMARK H PARENT
REMARK Flexibility Score: inf
ROOT
ATOM      1  C   UNL     1       4.946  -0.583  19.890  1.00  0.00     0.000 C 
ENDROOT
BRANCH   1   2
ATOM      2  C   UNL     1       3.676  -1.425  20.094  1.00  0.00     0.000 C 
BRANCH   2   3
ATOM      3  C   UNL     1       2.425  -0.762  19.493  1.00  0.00     0.006 C 
BRANCH   3   4
ATOM      4  C   UNL     1       2.740   0.601  18.862  1.00  0.00     0.053 C 
BRANCH   4   5
ATOM      5  C   UNL     1       1.584   1.122  18.064  1.00  0.00     0.041 C 
ATOM      6  O   UNL     1       0.923   0.346  17.323  1.00  0.00    -0.550 OA
ATOM      7  O   UNL     1       1.258   2.471  18.111  1.00  0.00    -0.550 OA
ENDBRANCH   4   5
ENDBRANCH   3   4
ENDBRANCH   2   3
ENDBRANCH   1   2
BRANCH   1   8
ATOM      8  C   UNL     1       6.139  -1.104  20.710  1.00  0.00     0.000 C 
BRANCH   8   9
ATOM      9  C   UNL     1       5.715  -2.096  21.804  1.00  0.00     0.006 C 
BRANCH   9  10
ATOM     10  C   UNL     1       6.584  -3.361  21.819  1.00  0.00     0.053 C 
BRANCH  10  11
ATOM     11  C   UNL     1       6.883  -3.804  20.422  1.00  0.00     0.041 C 
ATOM     12  O   UNL     1       8.075  -3.944  20.042  1.00  0.00    -0.550 OA
ATOM     13  O   UNL     1       5.843  -4.110  19.552  1.00  0.00    -0.550 OA
ENDBRANCH  10  11
ENDBRANCH   9  10
ENDBRANCH   8   9
ENDBRANCH   1   8
TORSDOF 8
ENDMDL
MODEL 8
REMARK VINA RESULT:    -5.686      3.290      7.719
REMARK INTER + INTRA:          -8.758
REMARK INTER:                  -8.389
REMARK INTRA:                  -0.369
REMARK UNBOUND:                -0.412
REMARK SMILES O=C([O-])CCCCCCCC(=O)[O-]
REMARK SMILES IDX 7 1 6 2 5 3 4 4 2 5 1 6 3 7 8 8 9 9 10 10 11 11 12 12 13 13
REMARK H PARENT
REMARK Flexibility Score: inf
ROOT
ATOM      1  C   UNL     1       3.977  -2.200  21.149  1.00  0.00     0.000 C 
ENDROOT
BRANCH   1   2
ATOM      2  C   UNL     1       5.285  -1.592  20.617  1.00  0.00     0.000 C 
BRANCH   2   3
ATOM      3  C   UNL     1       6.531  -2.338  21.124  1.00  0.00     0.006 C 
BRANCH   3   4
ATOM      4  C   UNL     1       6.202  -3.762  21.590  1.00  0.00     0.053 C 
BRANCH   4   5
ATOM      5  C   UNL     1       6.707  -4.791  20.625  1.00  0.00     0.041 C 
ATOM      6  O   UNL     1       6.775  -4.528  19.395  1.00  0.00    -0.550 OA
ATOM      7  O   UNL     1       7.069  -6.053  21.079  1.00  0.00    -0.550 OA
ENDBRANCH   4   5
ENDBRANCH   3   4
ENDBRANCH   2   3
ENDBRANCH   1   2
BRANCH   1   8
ATOM      8  C   UNL     1       2.763  -1.853  20.269  1.00  0.00     0.000 C 
BRANCH   8   9
ATOM      9  C   UNL     1       2.955  -0.542  19.489  1.00  0.00     0.006 C 
BRANCH   9  10
ATOM     10  C   UNL     1       1.629   0.039  18.981  1.00  0.00     0.053 C 
BRANCH  10  11
ATOM     11  C   UNL     1       1.849   0.817  17.722  1.00  0.00     0.041 C 
ATOM     12  O   UNL     1       1.020   1.694  17.365  1.00  0.00    -0.550 OA
ATOM     13  O   UNL     1       2.997   0.606  16.967  1.00  0.00    -0.550 OA
ENDBRANCH  10  11
ENDBRANCH   9  10
ENDBRANCH   8   9
ENDBRANCH   1   8
TORSDOF 8
ENDMDL
MODEL 9
REMARK VINA RESULT:    -5.572      2.347      7.039
REMARK INTER + INTRA:          -8.591
REMARK INTER:                  -8.290
REMARK INTRA:                  -0.301
REMARK UNBOUND:                -0.412
REMARK SMILES O=C([O-])CCCCCCCC(=O)[O-]
REMARK SMILES IDX 7 1 6 2 5 3 4 4 2 5 1 6 3 7 8 8 9 9 10 10 11 11 12 12 13 13
REMARK H PARENT
REMARK Flexibility Score: inf
ROOT
ATOM      1  C   UNL     1       5.522  -2.287  20.482  1.00  0.00     0.000 C 
ENDROOT
BRANCH   1   2
ATOM      2  C   UNL     1       6.820  -2.747  21.166  1.00  0.00     0.000 C 
BRANCH   2   3
ATOM      3  C   UNL     1       7.410  -4.013  20.521  1.00  0.00     0.006 C 
BRANCH   3   4
ATOM      4  C   UNL     1       6.495  -5.232  20.696  1.00  0.00     0.053 C 
BRANCH   4   5
ATOM      5  C   UNL     1       7.204  -6.364  21.375  1.00  0.00     0.041 C 
ATOM      6  O   UNL     1       6.627  -7.473  21.528  1.00  0.00    -0.550 OA
ATOM      7  O   UNL     1       8.489  -6.183  21.870  1.00  0.00    -0.550 OA
ENDBRANCH   4   5
ENDBRANCH   3   4
ENDBRANCH   2   3
ENDBRANCH   1   2
BRANCH   1   8
ATOM      8  C   UNL     1       4.311  -2.321  21.429  1.00  0.00     0.000 C 
BRANCH   8   9
ATOM      9  C   UNL     1       3.027  -1.795  20.766  1.00  0.00     0.006 C 
BRANCH   9  10
ATOM     10  C   UNL     1       3.315  -0.779  19.653  1.00  0.00     0.053 C 
BRANCH  10  11
ATOM     11  C   UNL     1       2.034  -0.267  19.073  1.00  0.00     0.041 C 
ATOM     12  O   UNL     1       1.085  -1.059  18.832  1.00  0.00    -0.550 OA
ATOM     13  O   UNL     1       1.870   1.094  18.843  1.00  0.00    -0.550 OA
ENDBRANCH  10  11
ENDBRANCH   9  10
ENDBRANCH   8   9
ENDBRANCH   1   8
TORSDOF 8
ENDMDL
