MODEL 1
REMARK VINA RESULT:    -6.245      0.000      0.000
REMARK INTER + INTRA:          -6.427
REMARK INTER:                  -6.427
REMARK INTRA:                   0.000
REMARK UNBOUND:                 0.000
REMARK SMILES O=c1ccc2ccc(O)cc2o1
REMARK SMILES IDX 6 1 7 2 8 3 10 4 11 5 5 6 4 7 3 8 2 9 1 10 12 11 9 12
REMARK H PARENT 9 13
REMARK Flexibility Score: inf
ROOT
ATOM      1  C   UNL     1       9.466   3.974  19.551  1.00  0.00     0.016 A 
ATOM      2  C   UNL     1      10.062   3.149  18.591  1.00  0.00     0.047 A 
ATOM      3  C   UNL     1      11.355   3.426  18.124  1.00  0.00     0.119 A 
ATOM      4  C   UNL     1      12.055   4.533  18.620  1.00  0.00     0.094 A 
ATOM      5  C   UNL     1      11.466   5.364  19.580  1.00  0.00     0.142 A 
ATOM      6  C   UNL     1      10.163   5.083  20.048  1.00  0.00     0.018 A 
ATOM      7  C   UNL     1       9.603   5.932  21.008  1.00  0.00     0.019 A 
ATOM      8  C   UNL     1      10.338   7.021  21.471  1.00  0.00     0.094 A 
ATOM      9  C   UNL     1      11.624   7.239  20.961  1.00  0.00     0.336 A 
ATOM     10  O   UNL     1      12.303   8.217  21.367  1.00  0.00    -0.246 OA
ATOM     11  O   UNL     1      12.134   6.415  20.049  1.00  0.00    -0.423 OA
ENDROOT
BRANCH   3  12
ATOM     12  O   UNL     1      11.954   2.608  17.169  1.00  0.00    -0.508 OA
ATOM     13  H   UNL     1      12.261   2.974  16.275  1.00  0.00     0.293 HD
ENDBRANCH   3  12
TORSDOF 1
ENDMDL
MODEL 2
REMARK VINA RESULT:    -5.990     19.754     19.898
REMARK INTER + INTRA:          -6.165
REMARK INTER:                  -6.165
REMARK INTRA:                   0.000
REMARK UNBOUND:                 0.000
REMARK SMILES O=c1ccc2ccc(O)cc2o1
REMARK SMILES IDX 6 1 7 2 8 3 10 4 11 5 5 6 4 7 3 8 2 9 1 10 12 11 9 12
REMARK H PARENT 9 13
REMARK Flexibility Score: inf
ROOT
ATOM      1  C   UNL     1      17.822  -8.700  31.859  1.00  0.00     0.016 A 
ATOM      2  C   UNL     1      16.604  -9.293  31.508  1.00  0.00     0.047 A 
ATOM      3  C   UNL     1      15.441  -9.005  32.237  1.00  0.00     0.119 A 
ATOM      4  C   UNL     1      15.498  -8.121  33.322  1.00  0.00     0.094 A 
ATOM      5  C   UNL     1      16.711  -7.523  33.679  1.00  0.00     0.142 A 
ATOM      6  C   UNL     1      17.881  -7.815  32.943  1.00  0.00     0.018 A 
ATOM      7  C   UNL     1      19.078  -7.201  33.325  1.00  0.00     0.019 A 
ATOM      8  C   UNL     1      19.084  -6.328  34.411  1.00  0.00     0.094 A 
ATOM      9  C   UNL     1      17.886  -6.087  35.094  1.00  0.00     0.336 A 
ATOM     10  O   UNL     1      17.871  -5.302  36.078  1.00  0.00    -0.246 OA
ATOM     11  O   UNL     1      16.760  -6.683  34.710  1.00  0.00    -0.423 OA
ENDROOT
BRANCH   3  12
ATOM     12  O   UNL     1      14.226  -9.593  31.893  1.00  0.00    -0.508 OA
ATOM     13  H   UNL     1      13.622 -10.010  32.592  1.00  0.00     0.293 HD
ENDBRANCH   3  12
TORSDOF 1
ENDMDL
MODEL 3
REMARK VINA RESULT:    -5.949     18.730     19.076
REMARK INTER + INTRA:          -6.123
REMARK INTER:                  -6.123
REMARK INTRA:                   0.000
REMARK UNBOUND:                 0.000
REMARK SMILES O=c1ccc2ccc(O)cc2o1
REMARK SMILES IDX 6 1 7 2 8 3 10 4 11 5 5 6 4 7 3 8 2 9 1 10 12 11 9 12
REMARK H PARENT 9 13
REMARK Flexibility Score: inf
ROOT
ATOM      1  C   UNL     1      18.321  -3.327  35.243  1.00  0.00     0.016 A 
ATOM      2  C   UNL     1      19.595  -2.878  34.878  1.00  0.00     0.047 A 
ATOM      3  C   UNL     1      20.263  -3.456  33.788  1.00  0.00     0.119 A 
ATOM      4  C   UNL     1      19.654  -4.487  33.062  1.00  0.00     0.094 A 
ATOM      5  C   UNL     1      18.380  -4.942  33.421  1.00  0.00     0.142 A 
ATOM      6  C   UNL     1      17.710  -4.358  34.519  1.00  0.00     0.018 A 
ATOM      7  C   UNL     1      16.438  -4.835  34.852  1.00  0.00     0.019 A 
ATOM      8  C   UNL     1      15.873  -5.863  34.099  1.00  0.00     0.094 A 
ATOM      9  C   UNL     1      16.597  -6.394  33.025  1.00  0.00     0.336 A 
ATOM     10  O   UNL     1      16.104  -7.322  32.333  1.00  0.00    -0.246 OA
ATOM     11  O   UNL     1      17.805  -5.922  32.728  1.00  0.00    -0.423 OA
ENDROOT
BRANCH   3  12
ATOM     12  O   UNL     1      21.532  -3.013  33.420  1.00  0.00    -0.508 OA
ATOM     13  H   UNL     1      22.182  -3.617  32.931  1.00  0.00     0.293 HD
ENDBRANCH   3  12
TORSDOF 1
ENDMDL
MODEL 4
REMARK VINA RESULT:    -5.942      2.276      3.033
REMARK INTER + INTRA:          -6.116
REMARK INTER:                  -6.116
REMARK INTRA:                   0.000
REMARK UNBOUND:                 0.000
REMARK SMILES O=c1ccc2ccc(O)cc2o1
REMARK SMILES IDX 6 1 7 2 8 3 10 4 11 5 5 6 4 7 3 8 2 9 1 10 12 11 9 12
REMARK H PARENT 9 13
REMARK Flexibility Score: inf
ROOT
ATOM      1  C   UNL     1       7.561   2.677  18.839  1.00  0.00     0.016 A 
ATOM      2  C   UNL     1       7.888   1.432  18.293  1.00  0.00     0.047 A 
ATOM      3  C   UNL     1       9.107   1.251  17.623  1.00  0.00     0.119 A 
ATOM      4  C   UNL     1      10.002   2.321  17.500  1.00  0.00     0.094 A 
ATOM      5  C   UNL     1       9.683   3.571  18.043  1.00  0.00     0.142 A 
ATOM      6  C   UNL     1       8.454   3.750  18.718  1.00  0.00     0.018 A 
ATOM      7  C   UNL     1       8.164   5.010  19.250  1.00  0.00     0.019 A 
ATOM      8  C   UNL     1       9.087   6.044  19.102  1.00  0.00     0.094 A 
ATOM      9  C   UNL     1      10.284   5.793  18.421  1.00  0.00     0.336 A 
ATOM     10  O   UNL     1      11.130   6.714  18.277  1.00  0.00    -0.246 OA
ATOM     11  O   UNL     1      10.536   4.585  17.925  1.00  0.00    -0.423 OA
ENDROOT
BRANCH   3  12
ATOM     12  O   UNL     1       9.438   0.013  17.077  1.00  0.00    -0.508 OA
ATOM     13  H   UNL     1       9.963  -0.062  16.213  1.00  0.00     0.293 HD
ENDBRANCH   3  12
TORSDOF 1
ENDMDL
MODEL 5
REMARK VINA RESULT:    -5.915      2.451      5.319
REMARK INTER + INTRA:          -6.088
REMARK INTER:                  -6.088
REMARK INTRA:                   0.000
REMARK UNBOUND:                 0.000
REMARK SMILES O=c1ccc2ccc(O)cc2o1
REMARK SMILES IDX 6 1 7 2 8 3 10 4 11 5 5 6 4 7 3 8 2 9 1 10 12 11 9 12
REMARK H PARENT 9 13
REMARK Flexibility Score: inf
ROOT
ATOM      1  C   UNL     1      13.389   8.400  20.224  1.00  0.00     0.016 A 
ATOM      2  C   UNL     1      13.288   9.177  21.384  1.00  0.00     0.047 A 
ATOM      3  C   UNL     1      12.079   9.237  22.092  1.00  0.00     0.119 A 
ATOM      4  C   UNL     1      10.967   8.517  21.639  1.00  0.00     0.094 A 
ATOM      5  C   UNL     1      11.059   7.737  20.480  1.00  0.00     0.142 A 
ATOM      6  C   UNL     1      12.278   7.678  19.769  1.00  0.00     0.018 A 
ATOM      7  C   UNL     1      12.338   6.890  18.615  1.00  0.00     0.019 A 
ATOM      8  C   UNL     1      11.205   6.191  18.204  1.00  0.00     0.094 A 
ATOM      9  C   UNL     1      10.031   6.296  18.959  1.00  0.00     0.336 A 
ATOM     10  O   UNL     1       8.997   5.673  18.604  1.00  0.00    -0.246 OA
ATOM     11  O   UNL     1      10.000   7.053  20.053  1.00  0.00    -0.423 OA
ENDROOT
BRANCH   3  12
ATOM     12  O   UNL     1      11.972  10.010  23.246  1.00  0.00    -0.508 OA
ATOM     13  H   UNL     1      11.782   9.590  24.149  1.00  0.00     0.293 HD
ENDBRANCH   3  12
TORSDOF 1
ENDMDL
MODEL 6
REMARK VINA RESULT:    -5.881     18.679     18.748
REMARK INTER + INTRA:          -6.053
REMARK INTER:                  -6.053
REMARK INTRA:                   0.000
REMARK UNBOUND:                 0.000
REMARK SMILES O=c1ccc2ccc(O)cc2o1
REMARK SMILES IDX 6 1 7 2 8 3 10 4 11 5 5 6 4 7 3 8 2 9 1 10 12 11 9 12
REMARK H PARENT 9 13
REMARK Flexibility Score: inf
ROOT
ATOM      1  C   UNL     1      16.258  -4.890  34.880  1.00  0.00     0.016 A 
ATOM      2  C   UNL     1      15.621  -5.847  34.083  1.00  0.00     0.047 A 
ATOM      3  C   UNL     1      16.266  -6.370  32.953  1.00  0.00     0.119 A 
ATOM      4  C   UNL     1      17.555  -5.935  32.620  1.00  0.00     0.094 A 
ATOM      5  C   UNL     1      18.201  -4.978  33.412  1.00  0.00     0.142 A 
ATOM      6  C   UNL     1      17.548  -4.453  34.550  1.00  0.00     0.018 A 
ATOM      7  C   UNL     1      18.219  -3.499  35.321  1.00  0.00     0.019 A 
ATOM      8  C   UNL     1      19.501  -3.098  34.949  1.00  0.00     0.094 A 
ATOM      9  C   UNL     1      20.086  -3.662  33.809  1.00  0.00     0.336 A 
ATOM     10  O   UNL     1      21.242  -3.312  33.458  1.00  0.00    -0.246 OA
ATOM     11  O   UNL     1      19.425  -4.568  33.093  1.00  0.00    -0.423 OA
ENDROOT
BRANCH   3  12
ATOM     12  O   UNL     1      15.636  -7.322  32.155  1.00  0.00    -0.508 OA
ATOM     13  H   UNL     1      15.580  -8.295  32.434  1.00  0.00     0.293 HD
ENDBRANCH   3  12
TORSDOF 1
ENDMDL
MODEL 7
REMARK VINA RESULT:    -5.817      1.648      4.781
REMARK INTER + INTRA:          -5.987
REMARK INTER:                  -5.987
REMARK INTRA:                   0.000
REMARK UNBOUND:                 0.000
REMARK SMILES O=c1ccc2ccc(O)cc2o1
REMARK SMILES IDX 6 1 7 2 8 3 10 4 11 5 5 6 4 7 3 8 2 9 1 10 12 11 9 12
REMARK H PARENT 9 13
REMARK Flexibility Score: inf
ROOT
ATOM      1  C   UNL     1      12.063   6.580  20.098  1.00  0.00     0.016 A 
ATOM      2  C   UNL     1      11.462   7.455  21.009  1.00  0.00     0.047 A 
ATOM      3  C   UNL     1      10.176   7.189  21.502  1.00  0.00     0.119 A 
ATOM      4  C   UNL     1       9.490   6.043  21.082  1.00  0.00     0.094 A 
ATOM      5  C   UNL     1      10.084   5.162  20.172  1.00  0.00     0.142 A 
ATOM      6  C   UNL     1      11.379   5.432  19.676  1.00  0.00     0.018 A 
ATOM      7  C   UNL     1      11.945   4.532  18.768  1.00  0.00     0.019 A 
ATOM      8  C   UNL     1      11.223   3.405  18.380  1.00  0.00     0.094 A 
ATOM      9  C   UNL     1       9.944   3.202  18.912  1.00  0.00     0.336 A 
ATOM     10  O   UNL     1       9.276   2.190  18.575  1.00  0.00    -0.246 OA
ATOM     11  O   UNL     1       9.429   4.073  19.776  1.00  0.00    -0.423 OA
ENDROOT
BRANCH   3  12
ATOM     12  O   UNL     1       9.572   8.058  22.409  1.00  0.00    -0.508 OA
ATOM     13  H   UNL     1       9.106   8.904  22.103  1.00  0.00     0.293 HD
ENDBRANCH   3  12
TORSDOF 1
ENDMDL
MODEL 8
REMARK VINA RESULT:    -5.756      1.457      2.210
REMARK INTER + INTRA:          -5.925
REMARK INTER:                  -5.925
REMARK INTRA:                   0.000
REMARK UNBOUND:                 0.000
REMARK SMILES O=c1ccc2ccc(O)cc2o1
REMARK SMILES IDX 6 1 7 2 8 3 10 4 11 5 5 6 4 7 3 8 2 9 1 10 12 11 9 12
REMARK H PARENT 9 13
REMARK Flexibility Score: inf
ROOT
ATOM      1  C   UNL     1      12.091   4.755  18.582  1.00  0.00     0.016 A 
ATOM      2  C   UNL     1      11.563   3.474  18.392  1.00  0.00     0.047 A 
ATOM      3  C   UNL     1      10.467   3.040  19.153  1.00  0.00     0.119 A 
ATOM      4  C   UNL     1       9.898   3.892  20.108  1.00  0.00     0.094 A 
ATOM      5  C   UNL     1      10.420   5.176  20.304  1.00  0.00     0.142 A 
ATOM      6  C   UNL     1      11.524   5.610  19.536  1.00  0.00     0.018 A 
ATOM      7  C   UNL     1      12.022   6.898  19.756  1.00  0.00     0.019 A 
ATOM      8  C   UNL     1      11.422   7.709  20.717  1.00  0.00     0.094 A 
ATOM      9  C   UNL     1      10.331   7.212  21.440  1.00  0.00     0.336 A 
ATOM     10  O   UNL     1       9.776   7.930  22.312  1.00  0.00    -0.246 OA
ATOM     11  O   UNL     1       9.876   5.983  21.211  1.00  0.00    -0.423 OA
ENDROOT
BRANCH   3  12
ATOM     12  O   UNL     1       9.937   1.765  18.969  1.00  0.00    -0.508 OA
ATOM     13  H   UNL     1      10.155   1.004  19.602  1.00  0.00     0.293 HD
ENDBRANCH   3  12
TORSDOF 1
ENDMDL
MODEL 9
REMARK VINA RESULT:    -5.687     18.798     18.883
REMARK INTER + INTRA:          -5.854
REMARK INTER:                  -5.854
REMARK INTRA:                   0.000
REMARK UNBOUND:                 0.000
REMARK SMILES O=c1ccc2ccc(O)cc2o1
REMARK SMILES IDX 6 1 7 2 8 3 10 4 11 5 5 6 4 7 3 8 2 9 1 10 12 11 9 12
REMARK H PARENT 9 13
REMARK Flexibility Score: inf
ROOT
ATOM      1  C   UNL     1      18.378  -7.108  32.998  1.00  0.00     0.016 A 
ATOM      2  C   UNL     1      17.130  -7.739  33.028  1.00  0.00     0.047 A 
ATOM      3  C   UNL     1      15.991  -7.035  33.445  1.00  0.00     0.119 A 
ATOM      4  C   UNL     1      16.101  -5.694  33.832  1.00  0.00     0.094 A 
ATOM      5  C   UNL     1      17.346  -5.054  33.804  1.00  0.00     0.142 A 
ATOM      6  C   UNL     1      18.492  -5.766  33.384  1.00  0.00     0.018 A 
ATOM      7  C   UNL     1      19.721  -5.099  33.368  1.00  0.00     0.019 A 
ATOM      8  C   UNL     1      19.780  -3.763  33.762  1.00  0.00     0.094 A 
ATOM      9  C   UNL     1      18.604  -3.122  34.166  1.00  0.00     0.336 A 
ATOM     10  O   UNL     1      18.637  -1.916  34.526  1.00  0.00    -0.246 OA
ATOM     11  O   UNL     1      17.447  -3.779  34.172  1.00  0.00    -0.423 OA
ENDROOT
BRANCH   3  12
ATOM     12  O   UNL     1      14.745  -7.659  33.478  1.00  0.00    -0.508 OA
ATOM     13  H   UNL     1      14.089  -7.490  34.231  1.00  0.00     0.293 HD
ENDBRANCH   3  12
TORSDOF 1
ENDMDL
