MODEL 1
REMARK VINA RESULT:    -4.320      0.000      0.000
REMARK INTER + INTRA:          -6.034
REMARK INTER:                  -5.582
REMARK INTRA:                  -0.451
REMARK UNBOUND:                -0.451
REMARK SMILES CO[C@]1(CO)O[C@H](CO)[C@H](O)[C@H]1O
REMARK SMILES IDX 3 1 12 2 10 3 7 4 6 5 2 6 1 7 4 8 5 9 13 11 11 13 8 15 9 16
REMARK H PARENT 5 10 13 12 11 14 9 17
REMARK Flexibility Score: inf
ROOT
ATOM      1  C   UNL     1       5.964   8.646  10.101  1.00  0.00     0.221 C 
ATOM      2  C   UNL     1       4.803   7.841   9.460  1.00  0.00     0.207 C 
ATOM      3  C   UNL     1       3.695   7.946  10.475  1.00  0.00     0.180 C 
ATOM      4  C   UNL     1       4.475   8.085  11.780  1.00  0.00     0.179 C 
ATOM      5  O   UNL     1       5.699   8.729  11.492  1.00  0.00    -0.337 OA
ENDROOT
BRANCH   1   6
ATOM      6  O   UNL     1       7.203   7.952   9.961  1.00  0.00    -0.349 OA
ATOM      7  C   UNL     1       8.123   8.221  11.002  1.00  0.00     0.198 C 
ENDBRANCH   1   6
BRANCH   1   8
ATOM      8  C   UNL     1       6.052  10.109   9.592  1.00  0.00     0.224 C 
BRANCH   8   9
ATOM      9  O   UNL     1       6.494  10.125   8.262  1.00  0.00    -0.391 OA
ATOM     10  H   UNL     1       7.485  10.152   8.301  1.00  0.00     0.210 HD
ENDBRANCH   8   9
ENDBRANCH   1   8
BRANCH   2  11
ATOM     11  O   UNL     1       4.422   8.285   8.175  1.00  0.00    -0.385 OA
ATOM     12  H   UNL     1       4.991   9.055   7.918  1.00  0.00     0.211 HD
ENDBRANCH   2  11
BRANCH   3  13
ATOM     13  O   UNL     1       2.867   6.813  10.435  1.00  0.00    -0.387 OA
ATOM     14  H   UNL     1       2.153   6.964  11.109  1.00  0.00     0.211 HD
ENDBRANCH   3  13
BRANCH   4  15
ATOM     15  C   UNL     1       4.774   6.748  12.487  1.00  0.00     0.191 C 
BRANCH  15  16
ATOM     16  O   UNL     1       5.862   6.872  13.363  1.00  0.00    -0.394 OA
ATOM     17  H   UNL     1       5.490   7.128  14.247  1.00  0.00     0.210 HD
ENDBRANCH  15  16
ENDBRANCH   4  15
TORSDOF 7
ENDMDL
MODEL 2
REMARK VINA RESULT:    -4.227      1.565      3.466
REMARK INTER + INTRA:          -5.914
REMARK INTER:                  -5.652
REMARK INTRA:                  -0.263
REMARK UNBOUND:                -0.451
REMARK SMILES CO[C@]1(CO)O[C@H](CO)[C@H](O)[C@H]1O
REMARK SMILES IDX 3 1 12 2 10 3 7 4 6 5 2 6 1 7 4 8 5 9 13 11 11 13 8 15 9 16
REMARK H PARENT 5 10 13 12 11 14 9 17
REMARK Flexibility Score: inf
ROOT
ATOM      1  C   UNL     1       7.259   7.595  10.628  1.00  0.00     0.221 C 
ATOM      2  C   UNL     1       6.452   7.871  11.923  1.00  0.00     0.207 C 
ATOM      3  C   UNL     1       5.184   7.080  11.728  1.00  0.00     0.180 C 
ATOM      4  C   UNL     1       5.043   7.082  10.207  1.00  0.00     0.179 C 
ATOM      5  O   UNL     1       6.338   7.146   9.646  1.00  0.00    -0.337 OA
ENDROOT
BRANCH   1   6
ATOM      6  O   UNL     1       7.839   8.797  10.123  1.00  0.00    -0.349 OA
ATOM      7  C   UNL     1       7.295   9.972  10.693  1.00  0.00     0.198 C 
ENDBRANCH   1   6
BRANCH   1   8
ATOM      8  C   UNL     1       8.306   6.461  10.786  1.00  0.00     0.224 C 
BRANCH   8   9
ATOM      9  O   UNL     1       8.243   5.598   9.684  1.00  0.00    -0.391 OA
ATOM     10  H   UNL     1       9.013   5.832   9.105  1.00  0.00     0.210 HD
ENDBRANCH   8   9
ENDBRANCH   1   8
BRANCH   2  11
ATOM     11  O   UNL     1       7.130   7.545  13.117  1.00  0.00    -0.385 OA
ATOM     12  H   UNL     1       8.053   7.257  12.896  1.00  0.00     0.211 HD
ENDBRANCH   2  11
BRANCH   3  13
ATOM     13  O   UNL     1       4.105   7.684  12.392  1.00  0.00    -0.387 OA
ATOM     14  H   UNL     1       3.886   7.098  13.162  1.00  0.00     0.211 HD
ENDBRANCH   3  13
BRANCH   4  15
ATOM     15  C   UNL     1       4.205   8.250   9.649  1.00  0.00     0.191 C 
BRANCH  15  16
ATOM     16  O   UNL     1       4.469   8.455   8.287  1.00  0.00    -0.394 OA
ATOM     17  H   UNL     1       3.741   8.005   7.784  1.00  0.00     0.210 HD
ENDBRANCH  15  16
ENDBRANCH   4  15
TORSDOF 7
ENDMDL
MODEL 3
REMARK VINA RESULT:    -4.133      1.741      3.435
REMARK INTER + INTRA:          -5.793
REMARK INTER:                  -5.204
REMARK INTRA:                  -0.589
REMARK UNBOUND:                -0.451
REMARK SMILES CO[C@]1(CO)O[C@H](CO)[C@H](O)[C@H]1O
REMARK SMILES IDX 3 1 12 2 10 3 7 4 6 5 2 6 1 7 4 8 5 9 13 11 11 13 8 15 9 16
REMARK H PARENT 5 10 13 12 11 14 9 17
REMARK Flexibility Score: inf
ROOT
ATOM      1  C   UNL     1       5.040   7.863  11.277  1.00  0.00     0.221 C 
ATOM      2  C   UNL     1       6.512   8.184  11.646  1.00  0.00     0.207 C 
ATOM      3  C   UNL     1       6.885   7.086  12.608  1.00  0.00     0.180 C 
ATOM      4  C   UNL     1       5.537   6.754  13.245  1.00  0.00     0.179 C 
ATOM      5  O   UNL     1       4.526   7.019  12.295  1.00  0.00    -0.337 OA
ENDROOT
BRANCH   1   6
ATOM      6  O   UNL     1       4.243   9.045  11.285  1.00  0.00    -0.349 OA
ATOM      7  C   UNL     1       2.934   8.843  11.786  1.00  0.00     0.198 C 
ENDBRANCH   1   6
BRANCH   1   8
ATOM      8  C   UNL     1       4.898   7.071   9.950  1.00  0.00     0.224 C 
BRANCH   8   9
ATOM      9  O   UNL     1       4.922   7.955   8.863  1.00  0.00    -0.391 OA
ATOM     10  H   UNL     1       4.469   8.783   9.170  1.00  0.00     0.210 HD
ENDBRANCH   8   9
ENDBRANCH   1   8
BRANCH   2  11
ATOM     11  O   UNL     1       7.387   8.274  10.542  1.00  0.00    -0.385 OA
ATOM     12  H   UNL     1       7.876   7.417  10.448  1.00  0.00     0.211 HD
ENDBRANCH   2  11
BRANCH   3  13
ATOM     13  O   UNL     1       7.847   7.529  13.530  1.00  0.00    -0.387 OA
ATOM     14  H   UNL     1       8.718   7.516  13.054  1.00  0.00     0.211 HD
ENDBRANCH   3  13
BRANCH   4  15
ATOM     15  C   UNL     1       5.229   7.551  14.529  1.00  0.00     0.191 C 
BRANCH  15  16
ATOM     16  O   UNL     1       5.968   7.063  15.616  1.00  0.00    -0.394 OA
ATOM     17  H   UNL     1       5.322   6.616  16.224  1.00  0.00     0.210 HD
ENDBRANCH  15  16
ENDBRANCH   4  15
TORSDOF 7
ENDMDL
MODEL 4
REMARK VINA RESULT:    -4.121      1.963      2.662
REMARK INTER + INTRA:          -5.777
REMARK INTER:                  -5.238
REMARK INTRA:                  -0.539
REMARK UNBOUND:                -0.451
REMARK SMILES CO[C@]1(CO)O[C@H](CO)[C@H](O)[C@H]1O
REMARK SMILES IDX 3 1 12 2 10 3 7 4 6 5 2 6 1 7 4 8 5 9 13 11 11 13 8 15 9 16
REMARK H PARENT 5 10 13 12 11 14 9 17
REMARK Flexibility Score: inf
ROOT
ATOM      1  C   UNL     1       6.871   7.469  11.083  1.00  0.00     0.221 C 
ATOM      2  C   UNL     1       5.515   7.059  11.714  1.00  0.00     0.207 C 
ATOM      3  C   UNL     1       5.602   7.593  13.121  1.00  0.00     0.180 C 
ATOM      4  C   UNL     1       7.106   7.547  13.382  1.00  0.00     0.179 C 
ATOM      5  O   UNL     1       7.771   7.724  12.149  1.00  0.00    -0.337 OA
ENDROOT
BRANCH   1   6
ATOM      6  O   UNL     1       7.426   6.394  10.327  1.00  0.00    -0.349 OA
ATOM      7  C   UNL     1       8.834   6.294  10.434  1.00  0.00     0.198 C 
ENDBRANCH   1   6
BRANCH   1   8
ATOM      8  C   UNL     1       6.794   8.783  10.261  1.00  0.00     0.224 C 
BRANCH   8   9
ATOM      9  O   UNL     1       5.992   8.590   9.128  1.00  0.00    -0.391 OA
ATOM     10  H   UNL     1       5.059   8.769   9.417  1.00  0.00     0.210 HD
ENDBRANCH   8   9
ENDBRANCH   1   8
BRANCH   2  11
ATOM     11  O   UNL     1       4.379   7.522  11.016  1.00  0.00    -0.385 OA
ATOM     12  H   UNL     1       4.363   8.514  11.047  1.00  0.00     0.211 HD
ENDBRANCH   2  11
BRANCH   3  13
ATOM     13  O   UNL     1       4.855   6.802  14.007  1.00  0.00    -0.387 OA
ATOM     14  H   UNL     1       4.483   6.054  13.471  1.00  0.00     0.211 HD
ENDBRANCH   3  13
BRANCH   4  15
ATOM     15  C   UNL     1       7.599   6.234  14.025  1.00  0.00     0.191 C 
BRANCH  15  16
ATOM     16  O   UNL     1       7.487   6.282  15.422  1.00  0.00    -0.394 OA
ATOM     17  H   UNL     1       8.312   5.870  15.789  1.00  0.00     0.210 HD
ENDBRANCH  15  16
ENDBRANCH   4  15
TORSDOF 7
ENDMDL
MODEL 5
REMARK VINA RESULT:    -4.112      1.380      3.432
REMARK INTER + INTRA:          -5.765
REMARK INTER:                  -5.337
REMARK INTRA:                  -0.428
REMARK UNBOUND:                -0.451
REMARK SMILES CO[C@]1(CO)O[C@H](CO)[C@H](O)[C@H]1O
REMARK SMILES IDX 3 1 12 2 10 3 7 4 6 5 2 6 1 7 4 8 5 9 13 11 11 13 8 15 9 16
REMARK H PARENT 5 10 13 12 11 14 9 17
REMARK Flexibility Score: inf
ROOT
ATOM      1  C   UNL     1       6.277   8.007  11.362  1.00  0.00     0.221 C 
ATOM      2  C   UNL     1       4.999   8.008  12.239  1.00  0.00     0.207 C 
ATOM      3  C   UNL     1       4.078   7.051  11.527  1.00  0.00     0.180 C 
ATOM      4  C   UNL     1       4.534   7.197  10.076  1.00  0.00     0.179 C 
ATOM      5  O   UNL     1       5.907   7.527  10.079  1.00  0.00    -0.337 OA
ENDROOT
BRANCH   1   6
ATOM      6  O   UNL     1       6.768   9.333  11.175  1.00  0.00    -0.349 OA
ATOM      7  C   UNL     1       7.486   9.508   9.969  1.00  0.00     0.198 C 
ENDBRANCH   1   6
BRANCH   1   8
ATOM      8  C   UNL     1       7.379   7.044  11.880  1.00  0.00     0.224 C 
BRANCH   8   9
ATOM      9  O   UNL     1       7.872   7.503  13.109  1.00  0.00    -0.391 OA
ATOM     10  H   UNL     1       7.143   8.037  13.518  1.00  0.00     0.210 HD
ENDBRANCH   8   9
ENDBRANCH   1   8
BRANCH   2  11
ATOM     11  O   UNL     1       5.215   7.665  13.592  1.00  0.00    -0.385 OA
ATOM     12  H   UNL     1       4.671   8.264  14.166  1.00  0.00     0.211 HD
ENDBRANCH   2  11
BRANCH   3  13
ATOM     13  O   UNL     1       2.734   7.399  11.730  1.00  0.00    -0.387 OA
ATOM     14  H   UNL     1       2.737   8.297  12.153  1.00  0.00     0.211 HD
ENDBRANCH   3  13
BRANCH   4  15
ATOM     15  C   UNL     1       3.770   8.271   9.276  1.00  0.00     0.191 C 
BRANCH  15  16
ATOM     16  O   UNL     1       4.468   8.626   8.113  1.00  0.00    -0.394 OA
ATOM     17  H   UNL     1       3.937   8.285   7.346  1.00  0.00     0.210 HD
ENDBRANCH  15  16
ENDBRANCH   4  15
TORSDOF 7
ENDMDL
MODEL 6
REMARK VINA RESULT:    -4.105      1.523      3.243
REMARK INTER + INTRA:          -5.757
REMARK INTER:                  -5.167
REMARK INTRA:                  -0.589
REMARK UNBOUND:                -0.451
REMARK SMILES CO[C@]1(CO)O[C@H](CO)[C@H](O)[C@H]1O
REMARK SMILES IDX 3 1 12 2 10 3 7 4 6 5 2 6 1 7 4 8 5 9 13 11 11 13 8 15 9 16
REMARK H PARENT 5 10 13 12 11 14 9 17
REMARK Flexibility Score: inf
ROOT
ATOM      1  C   UNL     1       5.102   8.338  10.737  1.00  0.00     0.221 C 
ATOM      2  C   UNL     1       6.500   9.011  10.750  1.00  0.00     0.207 C 
ATOM      3  C   UNL     1       7.423   7.904  11.189  1.00  0.00     0.180 C 
ATOM      4  C   UNL     1       6.500   7.047  12.053  1.00  0.00     0.179 C 
ATOM      5  O   UNL     1       5.184   7.182  11.556  1.00  0.00    -0.337 OA
ENDROOT
BRANCH   1   6
ATOM      6  O   UNL     1       4.122   9.189  11.328  1.00  0.00    -0.349 OA
ATOM      7  C   UNL     1       3.027   8.488  11.888  1.00  0.00     0.198 C 
ENDBRANCH   1   6
BRANCH   1   8
ATOM      8  C   UNL     1       4.673   7.840   9.332  1.00  0.00     0.224 C 
BRANCH   8   9
ATOM      9  O   UNL     1       4.407   8.935   8.499  1.00  0.00    -0.391 OA
ATOM     10  H   UNL     1       3.804   8.600   7.786  1.00  0.00     0.210 HD
ENDBRANCH   8   9
ENDBRANCH   1   8
BRANCH   2  11
ATOM     11  O   UNL     1       6.880   9.597   9.524  1.00  0.00    -0.385 OA
ATOM     12  H   UNL     1       6.132  10.154   9.186  1.00  0.00     0.211 HD
ENDBRANCH   2  11
BRANCH   3  13
ATOM     13  O   UNL     1       8.528   8.416  11.887  1.00  0.00    -0.387 OA
ATOM     14  H   UNL     1       9.008   9.012  11.254  1.00  0.00     0.211 HD
ENDBRANCH   3  13
BRANCH   4  15
ATOM     15  C   UNL     1       6.503   7.421  13.549  1.00  0.00     0.191 C 
BRANCH  15  16
ATOM     16  O   UNL     1       7.580   6.820  14.217  1.00  0.00    -0.394 OA
ATOM     17  H   UNL     1       8.397   7.314  13.944  1.00  0.00     0.210 HD
ENDBRANCH  15  16
ENDBRANCH   4  15
TORSDOF 7
ENDMDL
MODEL 7
REMARK VINA RESULT:    -3.985      1.563      3.469
REMARK INTER + INTRA:          -5.601
REMARK INTER:                  -5.449
REMARK INTRA:                  -0.152
REMARK UNBOUND:                -0.451
REMARK SMILES CO[C@]1(CO)O[C@H](CO)[C@H](O)[C@H]1O
REMARK SMILES IDX 3 1 12 2 10 3 7 4 6 5 2 6 1 7 4 8 5 9 13 11 11 13 8 15 9 16
REMARK H PARENT 5 10 13 12 11 14 9 17
REMARK Flexibility Score: inf
ROOT
ATOM      1  C   UNL     1       4.955   7.609  10.645  1.00  0.00     0.221 C 
ATOM      2  C   UNL     1       5.681   8.887  11.136  1.00  0.00     0.207 C 
ATOM      3  C   UNL     1       6.951   8.910  10.325  1.00  0.00     0.180 C 
ATOM      4  C   UNL     1       7.188   7.422  10.071  1.00  0.00     0.179 C 
ATOM      5  O   UNL     1       5.932   6.778  10.037  1.00  0.00    -0.337 OA
ENDROOT
BRANCH   1   6
ATOM      6  O   UNL     1       4.419   6.873  11.743  1.00  0.00    -0.349 OA
ATOM      7  C   UNL     1       4.907   7.296  13.002  1.00  0.00     0.198 C 
ENDBRANCH   1   6
BRANCH   1   8
ATOM      8  C   UNL     1       3.889   7.888   9.552  1.00  0.00     0.224 C 
BRANCH   8   9
ATOM      9  O   UNL     1       4.498   8.467   8.430  1.00  0.00    -0.391 OA
ATOM     10  H   UNL     1       3.990   8.143   7.642  1.00  0.00     0.210 HD
ENDBRANCH   8   9
ENDBRANCH   1   8
BRANCH   2  11
ATOM     11  O   UNL     1       4.926  10.074  11.016  1.00  0.00    -0.385 OA
ATOM     12  H   UNL     1       5.518  10.852  11.186  1.00  0.00     0.211 HD
ENDBRANCH   2  11
BRANCH   3  13
ATOM     13  O   UNL     1       7.992   9.530  11.035  1.00  0.00    -0.387 OA
ATOM     14  H   UNL     1       7.968   9.154  11.953  1.00  0.00     0.211 HD
ENDBRANCH   3  13
BRANCH   4  15
ATOM     15  C   UNL     1       8.070   6.730  11.130  1.00  0.00     0.191 C 
BRANCH  15  16
ATOM     16  O   UNL     1       9.080   5.968  10.525  1.00  0.00    -0.394 OA
ATOM     17  H   UNL     1       8.777   5.772   9.600  1.00  0.00     0.210 HD
ENDBRANCH  15  16
ENDBRANCH   4  15
TORSDOF 7
ENDMDL
MODEL 8
REMARK VINA RESULT:    -3.972      1.448      4.281
REMARK INTER + INTRA:          -5.585
REMARK INTER:                  -5.125
REMARK INTRA:                  -0.460
REMARK UNBOUND:                -0.451
REMARK SMILES CO[C@]1(CO)O[C@H](CO)[C@H](O)[C@H]1O
REMARK SMILES IDX 3 1 12 2 10 3 7 4 6 5 2 6 1 7 4 8 5 9 13 11 11 13 8 15 9 16
REMARK H PARENT 5 10 13 12 11 14 9 17
REMARK Flexibility Score: inf
ROOT
ATOM      1  C   UNL     1       5.581   7.850  11.363  1.00  0.00     0.221 C 
ATOM      2  C   UNL     1       7.060   7.977  10.917  1.00  0.00     0.207 C 
ATOM      3  C   UNL     1       7.276   9.466  10.821  1.00  0.00     0.180 C 
ATOM      4  C   UNL     1       5.875   9.965  10.475  1.00  0.00     0.179 C 
ATOM      5  O   UNL     1       4.938   9.074  11.045  1.00  0.00    -0.337 OA
ENDROOT
BRANCH   1   6
ATOM      6  O   UNL     1       4.911   6.833  10.621  1.00  0.00    -0.349 OA
ATOM      7  C   UNL     1       3.511   6.804  10.832  1.00  0.00     0.198 C 
ENDBRANCH   1   6
BRANCH   1   8
ATOM      8  C   UNL     1       5.414   7.662  12.894  1.00  0.00     0.224 C 
BRANCH   8   9
ATOM      9  O   UNL     1       5.862   6.388  13.269  1.00  0.00    -0.391 OA
ATOM     10  H   UNL     1       5.117   5.971  13.775  1.00  0.00     0.210 HD
ENDBRANCH   8   9
ENDBRANCH   1   8
BRANCH   2  11
ATOM     11  O   UNL     1       7.987   7.337  11.768  1.00  0.00    -0.385 OA
ATOM     12  H   UNL     1       7.688   7.444  12.708  1.00  0.00     0.211 HD
ENDBRANCH   2  11
BRANCH   3  13
ATOM     13  O   UNL     1       8.238   9.774   9.847  1.00  0.00    -0.387 OA
ATOM     14  H   UNL     1       7.755   9.817   8.980  1.00  0.00     0.211 HD
ENDBRANCH   3  13
BRANCH   4  15
ATOM     15  C   UNL     1       5.596  10.074   8.962  1.00  0.00     0.191 C 
BRANCH  15  16
ATOM     16  O   UNL     1       4.651   9.122   8.553  1.00  0.00    -0.394 OA
ATOM     17  H   UNL     1       4.021   9.000   9.311  1.00  0.00     0.210 HD
ENDBRANCH  15  16
ENDBRANCH   4  15
TORSDOF 7
ENDMDL
