MODEL 1
REMARK VINA RESULT:    -5.196      0.000      0.000
REMARK INTER + INTRA:          -7.984
REMARK INTER:                  -7.019
REMARK INTRA:                  -0.965
REMARK UNBOUND:                -0.965
REMARK SMILES CC(=O)CCC=C(C)CCC=C(C)C
REMARK SMILES IDX 7 1 6 2 8 3 9 4 10 5 11 6 13 7 12 8 14 9 5 10 4 11 2 12 3 13
REMARK SMILES IDX 1 14
REMARK H PARENT
REMARK Flexibility Score: inf
ROOT
ATOM      1  C   UNL     1      12.636  19.247  58.252  1.00  0.00    -0.077 C 
ATOM      2  C   UNL     1      13.981  19.224  58.394  1.00  0.00    -0.028 C 
ATOM      3  C   UNL     1      11.860  18.028  57.807  1.00  0.00     0.039 C 
ENDROOT
BRANCH   1   4
ATOM      4  C   UNL     1      11.885  20.522  58.565  1.00  0.00     0.034 C 
BRANCH   4   5
ATOM      5  C   UNL     1      10.475  20.210  59.077  1.00  0.00     0.032 C 
BRANCH   5   6
ATOM      6  C   UNL     1      10.428  20.264  60.584  1.00  0.00    -0.028 C 
ATOM      7  C   UNL     1      10.198  19.401  62.872  1.00  0.00     0.039 C 
ATOM      8  C   UNL     1      10.171  19.203  61.379  1.00  0.00    -0.080 C 
ATOM      9  C   UNL     1       9.846  17.840  60.814  1.00  0.00     0.039 C 
ENDBRANCH   5   6
ENDBRANCH   4   5
ENDBRANCH   1   4
BRANCH   2  10
ATOM     10  C   UNL     1      14.853  18.036  58.071  1.00  0.00     0.035 C 
BRANCH  10  11
ATOM     11  C   UNL     1      15.657  18.287  56.792  1.00  0.00     0.079 C 
BRANCH  11  12
ATOM     12  C   UNL     1      14.878  17.853  55.578  1.00  0.00     0.130 C 
ATOM     13  O   UNL     1      14.758  18.621  54.635  1.00  0.00    -0.300 OA
ATOM     14  C   UNL     1      14.255  16.491  55.495  1.00  0.00     0.087 C 
ENDBRANCH  11  12
ENDBRANCH  10  11
ENDBRANCH   2  10
TORSDOF 6
ENDMDL
MODEL 2
REMARK VINA RESULT:    -5.089      2.407      5.951
REMARK INTER + INTRA:          -7.838
REMARK INTER:                  -6.792
REMARK INTRA:                  -1.047
REMARK UNBOUND:                -0.965
REMARK SMILES CC(=O)CCC=C(C)CCC=C(C)C
REMARK SMILES IDX 7 1 6 2 8 3 9 4 10 5 11 6 13 7 12 8 14 9 5 10 4 11 2 12 3 13
REMARK SMILES IDX 1 14
REMARK H PARENT
REMARK Flexibility Score: inf
ROOT
ATOM      1  C   UNL     1      13.859  18.899  58.864  1.00  0.00    -0.077 C 
ATOM      2  C   UNL     1      12.787  19.615  58.456  1.00  0.00    -0.028 C 
ATOM      3  C   UNL     1      13.760  17.879  59.975  1.00  0.00     0.039 C 
ENDROOT
BRANCH   1   4
ATOM      4  C   UNL     1      15.190  19.112  58.177  1.00  0.00     0.034 C 
BRANCH   4   5
ATOM      5  C   UNL     1      15.561  17.894  57.324  1.00  0.00     0.032 C 
BRANCH   5   6
ATOM      6  C   UNL     1      15.225  18.134  55.874  1.00  0.00    -0.028 C 
ATOM      7  C   UNL     1      13.962  17.914  53.778  1.00  0.00     0.039 C 
ATOM      8  C   UNL     1      14.201  17.545  55.219  1.00  0.00    -0.080 C 
ATOM      9  C   UNL     1      13.308  16.524  55.884  1.00  0.00     0.039 C 
ENDBRANCH   5   6
ENDBRANCH   4   5
ENDBRANCH   1   4
BRANCH   2  10
ATOM     10  C   UNL     1      11.418  19.536  59.084  1.00  0.00     0.035 C 
BRANCH  10  11
ATOM     11  C   UNL     1      10.568  18.463  58.397  1.00  0.00     0.079 C 
BRANCH  11  12
ATOM     12  C   UNL     1       9.622  17.822  59.379  1.00  0.00     0.130 C 
ATOM     13  O   UNL     1       8.544  17.401  58.988  1.00  0.00    -0.300 OA
ATOM     14  C   UNL     1       9.980  17.679  60.829  1.00  0.00     0.087 C 
ENDBRANCH  11  12
ENDBRANCH  10  11
ENDBRANCH   2  10
TORSDOF 6
ENDMDL
MODEL 3
REMARK VINA RESULT:    -4.922     11.319     13.420
REMARK INTER + INTRA:          -7.614
REMARK INTER:                  -6.472
REMARK INTRA:                  -1.142
REMARK UNBOUND:                -0.965
REMARK SMILES CC(=O)CCC=C(C)CCC=C(C)C
REMARK SMILES IDX 7 1 6 2 8 3 9 4 10 5 11 6 13 7 12 8 14 9 5 10 4 11 2 12 3 13
REMARK SMILES IDX 1 14
REMARK H PARENT
REMARK Flexibility Score: inf
ROOT
ATOM      1  C   UNL     1      19.856  12.332  52.619  1.00  0.00    -0.077 C 
ATOM      2  C   UNL     1      19.249  11.693  53.646  1.00  0.00    -0.028 C 
ATOM      3  C   UNL     1      19.234  12.400  51.243  1.00  0.00     0.039 C 
ENDROOT
BRANCH   1   4
ATOM      4  C   UNL     1      21.185  13.012  52.860  1.00  0.00     0.034 C 
BRANCH   4   5
ATOM      5  C   UNL     1      22.206  12.022  53.432  1.00  0.00     0.032 C 
BRANCH   5   6
ATOM      6  C   UNL     1      22.494  10.920  52.443  1.00  0.00    -0.028 C 
ATOM      7  C   UNL     1      22.621   8.617  51.596  1.00  0.00     0.039 C 
ATOM      8  C   UNL     1      22.330   9.603  52.697  1.00  0.00    -0.080 C 
ATOM      9  C   UNL     1      21.883   9.099  54.050  1.00  0.00     0.039 C 
ENDBRANCH   5   6
ENDBRANCH   4   5
ENDBRANCH   1   4
BRANCH   2  10
ATOM     10  C   UNL     1      17.949  10.936  53.530  1.00  0.00     0.035 C 
BRANCH  10  11
ATOM     11  C   UNL     1      18.208   9.433  53.395  1.00  0.00     0.079 C 
BRANCH  11  12
ATOM     12  C   UNL     1      17.870   8.716  54.676  1.00  0.00     0.130 C 
ATOM     13  O   UNL     1      18.758   8.163  55.308  1.00  0.00    -0.300 OA
ATOM     14  C   UNL     1      16.466   8.676  55.202  1.00  0.00     0.087 C 
ENDBRANCH  11  12
ENDBRANCH  10  11
ENDBRANCH   2  10
TORSDOF 6
ENDMDL
MODEL 4
REMARK VINA RESULT:    -4.860      2.239      4.175
REMARK INTER + INTRA:          -7.529
REMARK INTER:                  -6.083
REMARK INTRA:                  -1.446
REMARK UNBOUND:                -0.965
REMARK SMILES CC(=O)CCC=C(C)CCC=C(C)C
REMARK SMILES IDX 7 1 6 2 8 3 9 4 10 5 11 6 13 7 12 8 14 9 5 10 4 11 2 12 3 13
REMARK SMILES IDX 1 14
REMARK H PARENT
REMARK Flexibility Score: inf
ROOT
ATOM      1  C   UNL     1      14.865  17.801  55.733  1.00  0.00    -0.077 C 
ATOM      2  C   UNL     1      14.208  16.624  55.849  1.00  0.00    -0.028 C 
ATOM      3  C   UNL     1      14.758  18.655  54.491  1.00  0.00     0.039 C 
ENDROOT
BRANCH   1   4
ATOM      4  C   UNL     1      15.715  18.285  56.887  1.00  0.00     0.034 C 
BRANCH   4   5
ATOM      5  C   UNL     1      14.931  18.221  58.203  1.00  0.00     0.032 C 
BRANCH   5   6
ATOM      6  C   UNL     1      14.003  19.403  58.331  1.00  0.00    -0.028 C 
ATOM      7  C   UNL     1      11.880  20.582  58.701  1.00  0.00     0.039 C 
ATOM      8  C   UNL     1      12.675  19.310  58.557  1.00  0.00    -0.080 C 
ATOM      9  C   UNL     1      11.970  17.977  58.652  1.00  0.00     0.039 C 
ENDBRANCH   5   6
ENDBRANCH   4   5
ENDBRANCH   1   4
BRANCH   2  10
ATOM     10  C   UNL     1      13.368  16.006  54.760  1.00  0.00     0.035 C 
BRANCH  10  11
ATOM     11  C   UNL     1      11.877  16.136  55.086  1.00  0.00     0.079 C 
BRANCH  11  12
ATOM     12  C   UNL     1      11.285  17.338  54.398  1.00  0.00     0.130 C 
ATOM     13  O   UNL     1      10.965  17.260  53.221  1.00  0.00    -0.300 OA
ATOM     14  C   UNL     1      11.067  18.629  55.131  1.00  0.00     0.087 C 
ENDBRANCH  11  12
ENDBRANCH  10  11
ENDBRANCH   2  10
TORSDOF 6
ENDMDL
MODEL 5
REMARK VINA RESULT:    -4.856      2.721      6.041
REMARK INTER + INTRA:          -7.524
REMARK INTER:                  -6.818
REMARK INTRA:                  -0.706
REMARK UNBOUND:                -0.965
REMARK SMILES CC(=O)CCC=C(C)CCC=C(C)C
REMARK SMILES IDX 7 1 6 2 8 3 9 4 10 5 11 6 13 7 12 8 14 9 5 10 4 11 2 12 3 13
REMARK SMILES IDX 1 14
REMARK H PARENT
REMARK Flexibility Score: inf
ROOT
ATOM      1  C   UNL     1      11.531  19.759  59.210  1.00  0.00    -0.077 C 
ATOM      2  C   UNL     1      11.392  18.824  60.179  1.00  0.00    -0.028 C 
ATOM      3  C   UNL     1      10.527  20.874  59.029  1.00  0.00     0.039 C 
ENDROOT
BRANCH   1   4
ATOM      4  C   UNL     1      12.735  19.696  58.297  1.00  0.00     0.034 C 
BRANCH   4   5
ATOM      5  C   UNL     1      13.655  18.535  58.690  1.00  0.00     0.032 C 
BRANCH   5   6
ATOM      6  C   UNL     1      15.095  18.870  58.390  1.00  0.00    -0.028 C 
ATOM      7  C   UNL     1      17.210  18.844  57.140  1.00  0.00     0.039 C 
ATOM      8  C   UNL     1      15.787  18.390  57.334  1.00  0.00    -0.080 C 
ATOM      9  C   UNL     1      15.180  17.407  56.360  1.00  0.00     0.039 C 
ENDBRANCH   5   6
ENDBRANCH   4   5
ENDBRANCH   1   4
BRANCH   2  10
ATOM     10  C   UNL     1      10.219  18.743  61.123  1.00  0.00     0.035 C 
BRANCH  10  11
ATOM     11  C   UNL     1       9.336  17.537  60.788  1.00  0.00     0.079 C 
BRANCH  11  12
ATOM     12  C   UNL     1       8.440  17.842  59.617  1.00  0.00     0.130 C 
ATOM     13  O   UNL     1       7.377  18.415  59.806  1.00  0.00    -0.300 OA
ATOM     14  C   UNL     1       8.828  17.467  58.217  1.00  0.00     0.087 C 
ENDBRANCH  11  12
ENDBRANCH  10  11
ENDBRANCH   2  10
TORSDOF 6
ENDMDL
MODEL 6
REMARK VINA RESULT:    -4.813      1.947      3.210
REMARK INTER + INTRA:          -7.467
REMARK INTER:                  -6.105
REMARK INTRA:                  -1.361
REMARK UNBOUND:                -0.965
REMARK SMILES CC(=O)CCC=C(C)CCC=C(C)C
REMARK SMILES IDX 7 1 6 2 8 3 9 4 10 5 11 6 13 7 12 8 14 9 5 10 4 11 2 12 3 13
REMARK SMILES IDX 1 14
REMARK H PARENT
REMARK Flexibility Score: inf
ROOT
ATOM      1  C   UNL     1      11.115  17.455  56.232  1.00  0.00    -0.077 C 
ATOM      2  C   UNL     1      11.980  16.433  56.042  1.00  0.00    -0.028 C 
ATOM      3  C   UNL     1      11.174  18.715  55.399  1.00  0.00     0.039 C 
ENDROOT
BRANCH   1   4
ATOM      4  C   UNL     1      10.045  17.324  57.294  1.00  0.00     0.034 C 
BRANCH   4   5
ATOM      5  C   UNL     1      10.346  18.244  58.483  1.00  0.00     0.032 C 
BRANCH   5   6
ATOM      6  C   UNL     1      11.542  17.746  59.255  1.00  0.00    -0.028 C 
ATOM      7  C   UNL     1      13.827  17.781  60.157  1.00  0.00     0.039 C 
ATOM      8  C   UNL     1      12.734  18.379  59.310  1.00  0.00    -0.080 C 
ATOM      9  C   UNL     1      13.001  19.651  58.540  1.00  0.00     0.039 C 
ENDBRANCH   5   6
ENDBRANCH   4   5
ENDBRANCH   1   4
BRANCH   2  10
ATOM     10  C   UNL     1      13.119  16.452  55.054  1.00  0.00     0.035 C 
BRANCH  10  11
ATOM     11  C   UNL     1      14.467  16.487  55.780  1.00  0.00     0.079 C 
BRANCH  11  12
ATOM     12  C   UNL     1      15.028  17.885  55.795  1.00  0.00     0.130 C 
ATOM     13  O   UNL     1      14.719  18.666  54.908  1.00  0.00    -0.300 OA
ATOM     14  C   UNL     1      15.952  18.345  56.884  1.00  0.00     0.087 C 
ENDBRANCH  11  12
ENDBRANCH  10  11
ENDBRANCH   2  10
TORSDOF 6
ENDMDL
MODEL 7
REMARK VINA RESULT:    -4.775      2.575      5.780
REMARK INTER + INTRA:          -7.415
REMARK INTER:                  -6.242
REMARK INTRA:                  -1.173
REMARK UNBOUND:                -0.965
REMARK SMILES CC(=O)CCC=C(C)CCC=C(C)C
REMARK SMILES IDX 7 1 6 2 8 3 9 4 10 5 11 6 13 7 12 8 14 9 5 10 4 11 2 12 3 13
REMARK SMILES IDX 1 14
REMARK H PARENT
REMARK Flexibility Score: inf
ROOT
ATOM      1  C   UNL     1      12.320  18.169  56.152  1.00  0.00    -0.077 C 
ATOM      2  C   UNL     1      11.784  17.410  57.135  1.00  0.00    -0.028 C 
ATOM      3  C   UNL     1      11.838  19.575  55.878  1.00  0.00     0.039 C 
ENDROOT
BRANCH   1   4
ATOM      4  C   UNL     1      13.447  17.602  55.318  1.00  0.00     0.034 C 
BRANCH   4   5
ATOM      5  C   UNL     1      14.573  17.073  56.213  1.00  0.00     0.032 C 
BRANCH   5   6
ATOM      6  C   UNL     1      15.606  18.143  56.462  1.00  0.00    -0.028 C 
ATOM      7  C   UNL     1      16.837  19.848  57.733  1.00  0.00     0.039 C 
ATOM      8  C   UNL     1      15.729  18.833  57.616  1.00  0.00    -0.080 C 
ATOM      9  C   UNL     1      14.784  18.627  58.777  1.00  0.00     0.039 C 
ENDBRANCH   5   6
ENDBRANCH   4   5
ENDBRANCH   1   4
BRANCH   2  10
ATOM     10  C   UNL     1      10.628  17.834  58.006  1.00  0.00     0.035 C 
BRANCH  10  11
ATOM     11  C   UNL     1      11.093  18.069  59.446  1.00  0.00     0.079 C 
BRANCH  11  12
ATOM     12  C   UNL     1      10.504  19.343  59.995  1.00  0.00     0.130 C 
ATOM     13  O   UNL     1       9.888  19.313  61.050  1.00  0.00    -0.300 OA
ATOM     14  C   UNL     1      10.668  20.651  59.281  1.00  0.00     0.087 C 
ENDBRANCH  11  12
ENDBRANCH  10  11
ENDBRANCH   2  10
TORSDOF 6
ENDMDL
MODEL 8
REMARK VINA RESULT:    -4.771      5.045      6.637
REMARK INTER + INTRA:          -7.410
REMARK INTER:                  -6.875
REMARK INTRA:                  -0.535
REMARK UNBOUND:                -0.965
REMARK SMILES CC(=O)CCC=C(C)CCC=C(C)C
REMARK SMILES IDX 7 1 6 2 8 3 9 4 10 5 11 6 13 7 12 8 14 9 5 10 4 11 2 12 3 13
REMARK SMILES IDX 1 14
REMARK H PARENT
REMARK Flexibility Score: inf
ROOT
ATOM      1  C   UNL     1       9.080  22.509  57.030  1.00  0.00    -0.077 C 
ATOM      2  C   UNL     1       9.460  21.683  58.032  1.00  0.00    -0.028 C 
ATOM      3  C   UNL     1       9.503  22.273  55.598  1.00  0.00     0.039 C 
ENDROOT
BRANCH   1   4
ATOM      4  C   UNL     1       8.190  23.690  57.349  1.00  0.00     0.034 C 
BRANCH   4   5
ATOM      5  C   UNL     1       8.197  24.702  56.198  1.00  0.00     0.032 C 
BRANCH   5   6
ATOM      6  C   UNL     1       6.923  25.509  56.188  1.00  0.00    -0.028 C 
ATOM      7  C   UNL     1       4.641  26.125  55.518  1.00  0.00     0.039 C 
ATOM      8  C   UNL     1       5.864  25.255  55.389  1.00  0.00    -0.080 C 
ATOM      9  C   UNL     1       5.881  24.141  54.368  1.00  0.00     0.039 C 
ENDBRANCH   5   6
ENDBRANCH   4   5
ENDBRANCH   1   4
BRANCH   2  10
ATOM     10  C   UNL     1      10.381  20.501  57.860  1.00  0.00     0.035 C 
BRANCH  10  11
ATOM     11  C   UNL     1      11.607  20.633  58.768  1.00  0.00     0.079 C 
BRANCH  11  12
ATOM     12  C   UNL     1      12.582  19.513  58.513  1.00  0.00     0.130 C 
ATOM     13  O   UNL     1      13.782  19.740  58.553  1.00  0.00    -0.300 OA
ATOM     14  C   UNL     1      12.111  18.119  58.223  1.00  0.00     0.087 C 
ENDBRANCH  11  12
ENDBRANCH  10  11
ENDBRANCH   2  10
TORSDOF 6
ENDMDL
MODEL 9
REMARK VINA RESULT:    -4.720      6.869      8.927
REMARK INTER + INTRA:          -7.340
REMARK INTER:                  -5.844
REMARK INTRA:                  -1.496
REMARK UNBOUND:                -0.965
REMARK SMILES CC(=O)CCC=C(C)CCC=C(C)C
REMARK SMILES IDX 7 1 6 2 8 3 9 4 10 5 11 6 13 7 12 8 14 9 5 10 4 11 2 12 3 13
REMARK SMILES IDX 1 14
REMARK H PARENT
REMARK Flexibility Score: inf
ROOT
ATOM      1  C   UNL     1       5.438  24.681  55.809  1.00  0.00    -0.077 C 
ATOM      2  C   UNL     1       5.827  24.497  54.527  1.00  0.00    -0.028 C 
ATOM      3  C   UNL     1       4.299  23.895  56.417  1.00  0.00     0.039 C 
ENDROOT
BRANCH   1   4
ATOM      4  C   UNL     1       6.177  25.686  56.664  1.00  0.00     0.034 C 
BRANCH   4   5
ATOM      5  C   UNL     1       7.689  25.445  56.602  1.00  0.00     0.032 C 
BRANCH   5   6
ATOM      6  C   UNL     1       8.064  24.204  57.373  1.00  0.00    -0.028 C 
ATOM      7  C   UNL     1       9.104  22.013  57.765  1.00  0.00     0.039 C 
ATOM      8  C   UNL     1       8.769  23.171  56.862  1.00  0.00    -0.080 C 
ATOM      9  C   UNL     1       9.212  23.142  55.417  1.00  0.00     0.039 C 
ENDBRANCH   5   6
ENDBRANCH   4   5
ENDBRANCH   1   4
BRANCH   2  10
ATOM     10  C   UNL     1       5.149  23.564  53.555  1.00  0.00     0.035 C 
BRANCH  10  11
ATOM     11  C   UNL     1       5.982  22.295  53.351  1.00  0.00     0.079 C 
BRANCH  11  12
ATOM     12  C   UNL     1       5.498  21.189  54.252  1.00  0.00     0.130 C 
ATOM     13  O   UNL     1       4.464  20.599  53.975  1.00  0.00    -0.300 OA
ATOM     14  C   UNL     1       6.262  20.788  55.478  1.00  0.00     0.087 C 
ENDBRANCH  11  12
ENDBRANCH  10  11
ENDBRANCH   2  10
TORSDOF 6
ENDMDL
