MODEL 1
REMARK VINA RESULT:    -4.096      0.000      0.000
REMARK INTER + INTRA:          -5.461
REMARK INTER:                  -5.293
REMARK INTRA:                  -0.168
REMARK UNBOUND:                -0.168
REMARK SMILES CCCCCCC(=O)[O-]
REMARK SMILES IDX 5 1 6 2 7 3 8 4 9 5 4 6 3 7 2 8 1 9
REMARK H PARENT
REMARK Flexibility Score: inf
ROOT
ATOM      1  C   UNL     1      -9.075  38.935   6.461  1.00  0.00     0.006 C 
ENDROOT
BRANCH   1   2
ATOM      2  C   UNL     1     -10.383  38.870   5.668  1.00  0.00     0.053 C 
BRANCH   2   3
ATOM      3  C   UNL     1     -11.522  39.385   6.491  1.00  0.00     0.041 C 
ATOM      4  O   UNL     1     -12.423  40.086   5.958  1.00  0.00    -0.550 OA
ATOM      5  O   UNL     1     -11.562  39.133   7.856  1.00  0.00    -0.550 OA
ENDBRANCH   2   3
ENDBRANCH   1   2
BRANCH   1   6
ATOM      6  C   UNL     1      -8.115  37.820   6.032  1.00  0.00     0.000 C 
BRANCH   6   7
ATOM      7  C   UNL     1      -8.880  36.652   5.392  1.00  0.00    -0.000 C 
BRANCH   7   8
ATOM      8  C   UNL     1      -8.608  35.313   6.094  1.00  0.00    -0.003 C 
ATOM      9  C   UNL     1      -7.738  34.373   5.260  1.00  0.00     0.004 C 
ENDBRANCH   7   8
ENDBRANCH   6   7
ENDBRANCH   1   6
TORSDOF 5
ENDMDL
MODEL 2
REMARK VINA RESULT:    -4.087      1.878      2.944
REMARK INTER + INTRA:          -5.450
REMARK INTER:                  -5.293
REMARK INTRA:                  -0.157
REMARK UNBOUND:                -0.168
REMARK SMILES CCCCCCC(=O)[O-]
REMARK SMILES IDX 5 1 6 2 7 3 8 4 9 5 4 6 3 7 2 8 1 9
REMARK H PARENT
REMARK Flexibility Score: inf
ROOT
ATOM      1  C   UNL     1      -9.298  36.244   6.479  1.00  0.00     0.006 C 
ENDROOT
BRANCH   1   2
ATOM      2  C   UNL     1      -8.318  37.236   5.847  1.00  0.00     0.053 C 
BRANCH   2   3
ATOM      3  C   UNL     1      -8.730  38.643   6.147  1.00  0.00     0.041 C 
ATOM      4  O   UNL     1      -7.949  39.413   6.768  1.00  0.00    -0.550 OA
ATOM      5  O   UNL     1      -9.994  39.089   5.785  1.00  0.00    -0.550 OA
ENDBRANCH   2   3
ENDBRANCH   1   2
BRANCH   1   6
ATOM      6  C   UNL     1      -9.302  34.913   5.718  1.00  0.00     0.000 C 
BRANCH   6   7
ATOM      7  C   UNL     1      -7.877  34.508   5.312  1.00  0.00    -0.000 C 
BRANCH   7   8
ATOM      8  C   UNL     1      -7.487  33.118   5.837  1.00  0.00    -0.003 C 
ATOM      9  C   UNL     1      -5.982  32.973   6.068  1.00  0.00     0.004 C 
ENDBRANCH   7   8
ENDBRANCH   6   7
ENDBRANCH   1   6
TORSDOF 5
ENDMDL
MODEL 3
REMARK VINA RESULT:    -4.037      2.807      4.847
REMARK INTER + INTRA:          -5.385
REMARK INTER:                  -5.222
REMARK INTRA:                  -0.162
REMARK UNBOUND:                -0.168
REMARK SMILES CCCCCCC(=O)[O-]
REMARK SMILES IDX 5 1 6 2 7 3 8 4 9 5 4 6 3 7 2 8 1 9
REMARK H PARENT
REMARK Flexibility Score: inf
ROOT
ATOM      1  C   UNL     1      -8.259  37.656   5.892  1.00  0.00     0.006 C 
ENDROOT
BRANCH   1   2
ATOM      2  C   UNL     1      -9.184  36.536   5.407  1.00  0.00     0.053 C 
BRANCH   2   3
ATOM      3  C   UNL     1      -8.714  35.210   5.918  1.00  0.00     0.041 C 
ATOM      4  O   UNL     1      -9.210  34.725   6.969  1.00  0.00    -0.550 OA
ATOM      5  O   UNL     1      -7.694  34.534   5.262  1.00  0.00    -0.550 OA
ENDBRANCH   2   3
ENDBRANCH   1   2
BRANCH   1   6
ATOM      6  C   UNL     1      -9.064  38.889   6.317  1.00  0.00     0.000 C 
BRANCH   6   7
ATOM      7  C   UNL     1     -10.470  38.868   5.698  1.00  0.00    -0.000 C 
BRANCH   7   8
ATOM      8  C   UNL     1     -11.564  39.254   6.705  1.00  0.00    -0.003 C 
ATOM      9  C   UNL     1     -12.530  40.304   6.156  1.00  0.00     0.004 C 
ENDBRANCH   7   8
ENDBRANCH   6   7
ENDBRANCH   1   6
TORSDOF 5
ENDMDL
MODEL 4
REMARK VINA RESULT:    -3.985      4.073      5.698
REMARK INTER + INTRA:          -5.318
REMARK INTER:                  -5.178
REMARK INTRA:                  -0.140
REMARK UNBOUND:                -0.168
REMARK SMILES CCCCCCC(=O)[O-]
REMARK SMILES IDX 5 1 6 2 7 3 8 4 9 5 4 6 3 7 2 8 1 9
REMARK H PARENT
REMARK Flexibility Score: inf
ROOT
ATOM      1  C   UNL     1      -8.935  35.137   6.295  1.00  0.00     0.006 C 
ENDROOT
BRANCH   1   2
ATOM      2  C   UNL     1      -8.413  34.018   5.390  1.00  0.00     0.053 C 
BRANCH   2   3
ATOM      3  C   UNL     1      -7.300  33.276   6.061  1.00  0.00     0.041 C 
ATOM      4  O   UNL     1      -7.558  32.361   6.888  1.00  0.00    -0.550 OA
ATOM      5  O   UNL     1      -5.981  33.628   5.812  1.00  0.00    -0.550 OA
ENDBRANCH   2   3
ENDBRANCH   1   2
BRANCH   1   6
ATOM      6  C   UNL     1      -9.142  36.434   5.505  1.00  0.00     0.000 C 
BRANCH   6   7
ATOM      7  C   UNL     1      -8.251  37.560   6.051  1.00  0.00    -0.000 C 
BRANCH   7   8
ATOM      8  C   UNL     1      -9.009  38.885   6.219  1.00  0.00    -0.003 C 
ATOM      9  C   UNL     1     -10.425  38.833   5.647  1.00  0.00     0.004 C 
ENDBRANCH   7   8
ENDBRANCH   6   7
ENDBRANCH   1   6
TORSDOF 5
ENDMDL
MODEL 5
REMARK VINA RESULT:    -3.842      2.792      4.132
REMARK INTER + INTRA:          -5.134
REMARK INTER:                  -4.780
REMARK INTRA:                  -0.353
REMARK UNBOUND:                -0.168
REMARK SMILES CCCCCCC(=O)[O-]
REMARK SMILES IDX 5 1 6 2 7 3 8 4 9 5 4 6 3 7 2 8 1 9
REMARK H PARENT
REMARK Flexibility Score: inf
ROOT
ATOM      1  C   UNL     1     -10.344  39.029   5.723  1.00  0.00     0.006 C 
ENDROOT
BRANCH   1   2
ATOM      2  C   UNL     1     -10.087  37.559   5.378  1.00  0.00     0.053 C 
BRANCH   2   3
ATOM      3  C   UNL     1      -8.681  37.179   5.719  1.00  0.00     0.041 C 
ATOM      4  O   UNL     1      -7.857  38.059   6.085  1.00  0.00    -0.550 OA
ATOM      5  O   UNL     1      -8.266  35.861   5.584  1.00  0.00    -0.550 OA
ENDBRANCH   2   3
ENDBRANCH   1   2
BRANCH   1   6
ATOM      6  C   UNL     1     -11.593  39.178   6.599  1.00  0.00     0.000 C 
BRANCH   6   7
ATOM      7  C   UNL     1     -11.224  39.159   8.090  1.00  0.00    -0.000 C 
BRANCH   7   8
ATOM      8  C   UNL     1     -11.663  37.865   8.791  1.00  0.00    -0.003 C 
ATOM      9  C   UNL     1     -10.510  36.882   8.996  1.00  0.00     0.004 C 
ENDBRANCH   7   8
ENDBRANCH   6   7
ENDBRANCH   1   6
TORSDOF 5
ENDMDL
MODEL 6
REMARK VINA RESULT:    -3.823      1.885      3.807
REMARK INTER + INTRA:          -5.109
REMARK INTER:                  -4.719
REMARK INTRA:                  -0.390
REMARK UNBOUND:                -0.168
REMARK SMILES CCCCCCC(=O)[O-]
REMARK SMILES IDX 5 1 6 2 7 3 8 4 9 5 4 6 3 7 2 8 1 9
REMARK H PARENT
REMARK Flexibility Score: inf
ROOT
ATOM      1  C   UNL     1      -8.666  35.323   6.240  1.00  0.00     0.006 C 
ENDROOT
BRANCH   1   2
ATOM      2  C   UNL     1      -9.906  34.761   6.941  1.00  0.00     0.053 C 
BRANCH   2   3
ATOM      3  C   UNL     1     -10.576  35.824   7.755  1.00  0.00     0.041 C 
ATOM      4  O   UNL     1      -9.958  36.381   8.701  1.00  0.00    -0.550 OA
ATOM      5  O   UNL     1     -11.898  36.164   7.501  1.00  0.00    -0.550 OA
ENDBRANCH   2   3
ENDBRANCH   1   2
BRANCH   1   6
ATOM      6  C   UNL     1      -9.012  36.579   5.432  1.00  0.00     0.000 C 
BRANCH   6   7
ATOM      7  C   UNL     1      -8.196  37.787   5.917  1.00  0.00    -0.000 C 
BRANCH   7   8
ATOM      8  C   UNL     1      -9.082  38.973   6.324  1.00  0.00    -0.003 C 
ATOM      9  C   UNL     1     -10.451  38.951   5.645  1.00  0.00     0.004 C 
ENDBRANCH   7   8
ENDBRANCH   6   7
ENDBRANCH   1   6
TORSDOF 5
ENDMDL
MODEL 7
REMARK VINA RESULT:    -3.613     14.902     16.442
REMARK INTER + INTRA:          -4.837
REMARK INTER:                  -4.598
REMARK INTRA:                  -0.239
REMARK UNBOUND:                -0.168
REMARK SMILES CCCCCCC(=O)[O-]
REMARK SMILES IDX 5 1 6 2 7 3 8 4 9 5 4 6 3 7 2 8 1 9
REMARK H PARENT
REMARK Flexibility Score: inf
ROOT
ATOM      1  C   UNL     1       0.231  28.666  -1.435  1.00  0.00     0.006 C 
ENDROOT
BRANCH   1   2
ATOM      2  C   UNL     1       0.484  28.989   0.041  1.00  0.00     0.053 C 
BRANCH   2   3
ATOM      3  C   UNL     1       1.500  30.079   0.173  1.00  0.00     0.041 C 
ATOM      4  O   UNL     1       2.374  30.242  -0.720  1.00  0.00    -0.550 OA
ATOM      5  O   UNL     1       1.514  30.882   1.306  1.00  0.00    -0.550 OA
ENDBRANCH   2   3
ENDBRANCH   1   2
BRANCH   1   6
ATOM      6  C   UNL     1       0.421  27.170  -1.712  1.00  0.00     0.000 C 
BRANCH   6   7
ATOM      7  C   UNL     1       1.217  26.948  -3.007  1.00  0.00    -0.000 C 
BRANCH   7   8
ATOM      8  C   UNL     1       2.082  28.160  -3.384  1.00  0.00    -0.003 C 
ATOM      9  C   UNL     1       1.797  28.675  -4.795  1.00  0.00     0.004 C 
ENDBRANCH   7   8
ENDBRANCH   6   7
ENDBRANCH   1   6
TORSDOF 5
ENDMDL
MODEL 8
REMARK VINA RESULT:    -3.584      2.031      2.479
REMARK INTER + INTRA:          -4.799
REMARK INTER:                  -4.580
REMARK INTRA:                  -0.219
REMARK UNBOUND:                -0.168
REMARK SMILES CCCCCCC(=O)[O-]
REMARK SMILES IDX 5 1 6 2 7 3 8 4 9 5 4 6 3 7 2 8 1 9
REMARK H PARENT
REMARK Flexibility Score: inf
ROOT
ATOM      1  C   UNL     1      -9.839  38.504   7.253  1.00  0.00     0.006 C 
ENDROOT
BRANCH   1   2
ATOM      2  C   UNL     1     -11.221  38.323   7.888  1.00  0.00     0.053 C 
BRANCH   2   3
ATOM      3  C   UNL     1     -11.113  37.554   9.167  1.00  0.00     0.041 C 
ATOM      4  O   UNL     1     -11.781  37.906  10.176  1.00  0.00    -0.550 OA
ATOM      5  O   UNL     1     -10.239  36.479   9.260  1.00  0.00    -0.550 OA
ENDBRANCH   2   3
ENDBRANCH   1   2
BRANCH   1   6
ATOM      6  C   UNL     1      -9.827  37.994   5.807  1.00  0.00     0.000 C 
BRANCH   6   7
ATOM      7  C   UNL     1      -8.609  37.093   5.552  1.00  0.00    -0.000 C 
BRANCH   7   8
ATOM      8  C   UNL     1      -8.818  35.660   6.065  1.00  0.00    -0.003 C 
ATOM      9  C   UNL     1      -7.923  34.642   5.359  1.00  0.00     0.004 C 
ENDBRANCH   7   8
ENDBRANCH   6   7
ENDBRANCH   1   6
TORSDOF 5
ENDMDL
MODEL 9
REMARK VINA RESULT:    -3.576     14.585     16.343
REMARK INTER + INTRA:          -4.790
REMARK INTER:                  -4.609
REMARK INTRA:                  -0.181
REMARK UNBOUND:                -0.168
REMARK SMILES CCCCCCC(=O)[O-]
REMARK SMILES IDX 5 1 6 2 7 3 8 4 9 5 4 6 3 7 2 8 1 9
REMARK H PARENT
REMARK Flexibility Score: inf
ROOT
ATOM      1  C   UNL     1      -0.046  28.253  -1.560  1.00  0.00     0.006 C 
ENDROOT
BRANCH   1   2
ATOM      2  C   UNL     1      -0.431  29.245  -0.460  1.00  0.00     0.053 C 
BRANCH   2   3
ATOM      3  C   UNL     1       0.585  29.229   0.640  1.00  0.00     0.041 C 
ATOM      4  O   UNL     1       0.734  28.199   1.349  1.00  0.00    -0.550 OA
ATOM      5  O   UNL     1       1.331  30.368   0.913  1.00  0.00    -0.550 OA
ENDBRANCH   2   3
ENDBRANCH   1   2
BRANCH   1   6
ATOM      6  C   UNL     1       1.273  28.655  -2.229  1.00  0.00     0.000 C 
BRANCH   6   7
ATOM      7  C   UNL     1       1.550  27.787  -3.466  1.00  0.00    -0.000 C 
BRANCH   7   8
ATOM      8  C   UNL     1       1.835  28.623  -4.722  1.00  0.00    -0.003 C 
ATOM      9  C   UNL     1       2.808  29.772  -4.461  1.00  0.00     0.004 C 
ENDBRANCH   7   8
ENDBRANCH   6   7
ENDBRANCH   1   6
TORSDOF 5
ENDMDL
