MODEL 1
REMARK VINA RESULT:    -4.813      0.000      0.000
REMARK INTER + INTRA:          -4.813
REMARK INTER:                  -4.813
REMARK INTRA:                   0.000
REMARK UNBOUND:                 0.000
REMARK SMILES C=C1CCC[C@@]2(C)CC(=O)C(=C(C)C)C[C@@H]12
REMARK SMILES IDX 13 1 12 2 11 3 15 4 16 5 2 6 1 7 3 8 4 9 5 10 6 11 8 12 9 13
REMARK SMILES IDX 10 14 7 15 14 16
REMARK H PARENT
REMARK Flexibility Score: inf
ROOT
ATOM      1  C   UNL     1       7.511   8.446   9.911  1.00  0.00     0.039 C 
ATOM      2  C   UNL     1       8.802   7.666  10.005  1.00  0.00    -0.070 C 
ATOM      3  C   UNL     1       9.168   6.791   9.022  1.00  0.00    -0.006 C 
ATOM      4  C   UNL     1       8.344   6.607   7.758  1.00  0.00     0.047 C 
ATOM      5  C   UNL     1       8.418   5.148   7.241  1.00  0.00     0.025 C 
ATOM      6  C   UNL     1       7.551   5.029   5.993  1.00  0.00    -0.073 C 
ATOM      7  C   UNL     1       6.242   4.750   6.103  1.00  0.00     0.008 C 
ATOM      8  C   UNL     1       8.120   5.308   4.620  1.00  0.00     0.031 C 
ATOM      9  C   UNL     1       9.636   5.500   4.652  1.00  0.00     0.005 C 
ATOM     10  C   UNL     1      10.277   4.428   5.534  1.00  0.00     0.008 C 
ATOM     11  C   UNL     1       9.899   4.599   7.039  1.00  0.00    -0.018 C 
ATOM     12  C   UNL     1      10.956   5.530   7.707  1.00  0.00     0.088 C 
ATOM     13  C   UNL     1      10.462   6.061   9.016  1.00  0.00     0.159 C 
ATOM     14  O   UNL     1      11.122   5.840  10.066  1.00  0.00    -0.295 OA
ATOM     15  C   UNL     1      10.008   3.205   7.706  1.00  0.00     0.012 C 
ATOM     16  C   UNL     1       9.677   7.925  11.210  1.00  0.00     0.039 C 
ENDROOT
TORSDOF 0
ENDMDL
MODEL 2
REMARK VINA RESULT:    -4.697     15.565     18.494
REMARK INTER + INTRA:          -4.697
REMARK INTER:                  -4.697
REMARK INTRA:                   0.000
REMARK UNBOUND:                 0.000
REMARK SMILES C=C1CCC[C@@]2(C)CC(=O)C(=C(C)C)C[C@@H]12
REMARK SMILES IDX 13 1 12 2 11 3 15 4 16 5 2 6 1 7 3 8 4 9 5 10 6 11 8 12 9 13
REMARK SMILES IDX 10 14 7 15 14 16
REMARK H PARENT
REMARK Flexibility Score: inf
ROOT
ATOM      1  C   UNL     1      -4.834  -1.673   0.299  1.00  0.00     0.039 C 
ATOM      2  C   UNL     1      -3.787  -2.349   1.155  1.00  0.00    -0.070 C 
ATOM      3  C   UNL     1      -4.084  -3.469   1.877  1.00  0.00    -0.006 C 
ATOM      4  C   UNL     1      -5.450  -4.134   1.808  1.00  0.00     0.047 C 
ATOM      5  C   UNL     1      -5.839  -4.772   3.165  1.00  0.00     0.025 C 
ATOM      6  C   UNL     1      -7.224  -5.395   3.033  1.00  0.00    -0.073 C 
ATOM      7  C   UNL     1      -8.322  -4.653   3.253  1.00  0.00     0.008 C 
ATOM      8  C   UNL     1      -7.394  -6.823   2.566  1.00  0.00     0.031 C 
ATOM      9  C   UNL     1      -6.059  -7.560   2.466  1.00  0.00     0.005 C 
ATOM     10  C   UNL     1      -5.207  -7.264   3.700  1.00  0.00     0.008 C 
ATOM     11  C   UNL     1      -4.748  -5.772   3.755  1.00  0.00    -0.018 C 
ATOM     12  C   UNL     1      -3.388  -5.651   3.005  1.00  0.00     0.088 C 
ATOM     13  C   UNL     1      -3.079  -4.226   2.667  1.00  0.00     0.159 C 
ATOM     14  O   UNL     1      -2.015  -3.702   3.091  1.00  0.00    -0.295 OA
ATOM     15  C   UNL     1      -4.502  -5.417   5.243  1.00  0.00     0.012 C 
ATOM     16  C   UNL     1      -2.398  -1.753   1.143  1.00  0.00     0.039 C 
ENDROOT
TORSDOF 0
ENDMDL
MODEL 3
REMARK VINA RESULT:    -4.532      1.759      5.194
REMARK INTER + INTRA:          -4.532
REMARK INTER:                  -4.532
REMARK INTRA:                   0.000
REMARK UNBOUND:                 0.000
REMARK SMILES C=C1CCC[C@@]2(C)CC(=O)C(=C(C)C)C[C@@H]12
REMARK SMILES IDX 13 1 12 2 11 3 15 4 16 5 2 6 1 7 3 8 4 9 5 10 6 11 8 12 9 13
REMARK SMILES IDX 10 14 7 15 14 16
REMARK H PARENT
REMARK Flexibility Score: inf
ROOT
ATOM      1  C   UNL     1       6.441   4.833   6.204  1.00  0.00     0.039 C 
ATOM      2  C   UNL     1       7.738   5.583   6.409  1.00  0.00    -0.070 C 
ATOM      3  C   UNL     1       7.983   6.260   7.570  1.00  0.00    -0.006 C 
ATOM      4  C   UNL     1       7.008   6.240   8.737  1.00  0.00     0.047 C 
ATOM      5  C   UNL     1       7.023   7.582   9.510  1.00  0.00     0.025 C 
ATOM      6  C   UNL     1       6.008   7.503  10.646  1.00  0.00    -0.073 C 
ATOM      7  C   UNL     1       4.724   7.831  10.428  1.00  0.00     0.008 C 
ATOM      8  C   UNL     1       6.401   6.970  12.006  1.00  0.00     0.031 C 
ATOM      9  C   UNL     1       7.908   6.746  12.125  1.00  0.00     0.005 C 
ATOM     10  C   UNL     1       8.659   7.939  11.533  1.00  0.00     0.008 C 
ATOM     11  C   UNL     1       8.471   8.047   9.987  1.00  0.00    -0.018 C 
ATOM     12  C   UNL     1       9.598   7.221   9.298  1.00  0.00     0.088 C 
ATOM     13  C   UNL     1       9.269   6.942   7.864  1.00  0.00     0.159 C 
ATOM     14  O   UNL     1      10.056   7.328   6.959  1.00  0.00    -0.295 OA
ATOM     15  C   UNL     1       8.668   9.533   9.598  1.00  0.00     0.012 C 
ATOM     16  C   UNL     1       8.755   5.517   5.294  1.00  0.00     0.039 C 
ENDROOT
TORSDOF 0
ENDMDL
MODEL 4
REMARK VINA RESULT:    -4.119     16.611     18.297
REMARK INTER + INTRA:          -4.119
REMARK INTER:                  -4.119
REMARK INTRA:                   0.000
REMARK UNBOUND:                 0.000
REMARK SMILES C=C1CCC[C@@]2(C)CC(=O)C(=C(C)C)C[C@@H]12
REMARK SMILES IDX 13 1 12 2 11 3 15 4 16 5 2 6 1 7 3 8 4 9 5 10 6 11 8 12 9 13
REMARK SMILES IDX 10 14 7 15 14 16
REMARK H PARENT
REMARK Flexibility Score: inf
ROOT
ATOM      1  C   UNL     1      -8.833  -3.753   7.022  1.00  0.00     0.039 C 
ATOM      2  C   UNL     1      -7.353  -3.542   7.249  1.00  0.00    -0.070 C 
ATOM      3  C   UNL     1      -6.445  -3.809   6.264  1.00  0.00    -0.006 C 
ATOM      4  C   UNL     1      -6.871  -4.261   4.876  1.00  0.00     0.047 C 
ATOM      5  C   UNL     1      -5.835  -5.232   4.256  1.00  0.00     0.025 C 
ATOM      6  C   UNL     1      -6.335  -5.665   2.881  1.00  0.00    -0.073 C 
ATOM      7  C   UNL     1      -7.154  -6.723   2.763  1.00  0.00     0.008 C 
ATOM      8  C   UNL     1      -5.997  -4.866   1.642  1.00  0.00     0.031 C 
ATOM      9  C   UNL     1      -4.974  -3.767   1.926  1.00  0.00     0.005 C 
ATOM     10  C   UNL     1      -3.849  -4.317   2.803  1.00  0.00     0.008 C 
ATOM     11  C   UNL     1      -4.342  -4.676   4.240  1.00  0.00    -0.018 C 
ATOM     12  C   UNL     1      -4.188  -3.413   5.140  1.00  0.00     0.088 C 
ATOM     13  C   UNL     1      -4.991  -3.541   6.397  1.00  0.00     0.159 C 
ATOM     14  O   UNL     1      -4.413  -3.464   7.515  1.00  0.00    -0.295 OA
ATOM     15  C   UNL     1      -3.398  -5.771   4.794  1.00  0.00     0.012 C 
ATOM     16  C   UNL     1      -6.935  -2.991   8.592  1.00  0.00     0.039 C 
ENDROOT
TORSDOF 0
ENDMDL
MODEL 5
REMARK VINA RESULT:    -3.999     16.644     18.846
REMARK INTER + INTRA:          -3.999
REMARK INTER:                  -3.999
REMARK INTRA:                   0.000
REMARK UNBOUND:                 0.000
REMARK SMILES C=C1CCC[C@@]2(C)CC(=O)C(=C(C)C)C[C@@H]12
REMARK SMILES IDX 13 1 12 2 11 3 15 4 16 5 2 6 1 7 3 8 4 9 5 10 6 11 8 12 9 13
REMARK SMILES IDX 10 14 7 15 14 16
REMARK H PARENT
REMARK Flexibility Score: inf
ROOT
ATOM      1  C   UNL     1       2.128  -3.846  -5.731  1.00  0.00     0.039 C 
ATOM      2  C   UNL     1       2.978  -4.302  -4.567  1.00  0.00    -0.070 C 
ATOM      3  C   UNL     1       3.640  -5.496  -4.605  1.00  0.00    -0.006 C 
ATOM      4  C   UNL     1       3.618  -6.392  -5.833  1.00  0.00     0.047 C 
ATOM      5  C   UNL     1       3.673  -7.890  -5.442  1.00  0.00     0.025 C 
ATOM      6  C   UNL     1       3.620  -8.729  -6.715  1.00  0.00    -0.073 C 
ATOM      7  C   UNL     1       2.436  -9.079  -7.244  1.00  0.00     0.008 C 
ATOM      8  C   UNL     1       4.885  -9.105  -7.453  1.00  0.00     0.031 C 
ATOM      9  C   UNL     1       6.143  -8.731  -6.669  1.00  0.00     0.005 C 
ATOM     10  C   UNL     1       5.978  -9.125  -5.201  1.00  0.00     0.008 C 
ATOM     11  C   UNL     1       4.885  -8.273  -4.481  1.00  0.00    -0.018 C 
ATOM     12  C   UNL     1       5.567  -7.007  -3.882  1.00  0.00     0.088 C 
ATOM     13  C   UNL     1       4.557  -5.959  -3.532  1.00  0.00     0.159 C 
ATOM     14  O   UNL     1       4.482  -5.539  -2.346  1.00  0.00    -0.295 OA
ATOM     15  C   UNL     1       4.338  -9.119  -3.305  1.00  0.00     0.012 C 
ATOM     16  C   UNL     1       3.089  -3.366  -3.386  1.00  0.00     0.039 C 
ENDROOT
TORSDOF 0
ENDMDL
MODEL 6
REMARK VINA RESULT:    -3.923     17.086     19.278
REMARK INTER + INTRA:          -3.923
REMARK INTER:                  -3.923
REMARK INTRA:                   0.000
REMARK UNBOUND:                 0.000
REMARK SMILES C=C1CCC[C@@]2(C)CC(=O)C(=C(C)C)C[C@@H]12
REMARK SMILES IDX 13 1 12 2 11 3 15 4 16 5 2 6 1 7 3 8 4 9 5 10 6 11 8 12 9 13
REMARK SMILES IDX 10 14 7 15 14 16
REMARK H PARENT
REMARK Flexibility Score: inf
ROOT
ATOM      1  C   UNL     1      -4.726  -5.249   4.552  1.00  0.00     0.039 C 
ATOM      2  C   UNL     1      -6.217  -5.004   4.597  1.00  0.00    -0.070 C 
ATOM      3  C   UNL     1      -6.771  -4.210   5.561  1.00  0.00    -0.006 C 
ATOM      4  C   UNL     1      -5.923  -3.480   6.590  1.00  0.00     0.047 C 
ATOM      5  C   UNL     1      -6.658  -3.361   7.948  1.00  0.00     0.025 C 
ATOM      6  C   UNL     1      -5.744  -2.645   8.937  1.00  0.00    -0.073 C 
ATOM      7  C   UNL     1      -4.856  -3.343   9.663  1.00  0.00     0.008 C 
ATOM      8  C   UNL     1      -5.753  -1.137   9.053  1.00  0.00     0.031 C 
ATOM      9  C   UNL     1      -6.887  -0.503   8.249  1.00  0.00     0.005 C 
ATOM     10  C   UNL     1      -8.181  -1.287   8.467  1.00  0.00     0.008 C 
ATOM     11  C   UNL     1      -8.113  -2.721   7.852  1.00  0.00    -0.018 C 
ATOM     12  C   UNL     1      -8.615  -2.646   6.379  1.00  0.00     0.088 C 
ATOM     13  C   UNL     1      -8.215  -3.864   5.606  1.00  0.00     0.159 C 
ATOM     14  O   UNL     1      -9.101  -4.575   5.063  1.00  0.00    -0.295 OA
ATOM     15  C   UNL     1      -9.102  -3.612   8.644  1.00  0.00     0.012 C 
ATOM     16  C   UNL     1      -7.053  -5.643   3.512  1.00  0.00     0.039 C 
ENDROOT
TORSDOF 0
ENDMDL
MODEL 7
REMARK VINA RESULT:    -3.875     10.140     12.365
REMARK INTER + INTRA:          -3.875
REMARK INTER:                  -3.875
REMARK INTRA:                   0.000
REMARK UNBOUND:                 0.000
REMARK SMILES C=C1CCC[C@@]2(C)CC(=O)C(=C(C)C)C[C@@H]12
REMARK SMILES IDX 13 1 12 2 11 3 15 4 16 5 2 6 1 7 3 8 4 9 5 10 6 11 8 12 9 13
REMARK SMILES IDX 10 14 7 15 14 16
REMARK H PARENT
REMARK Flexibility Score: inf
ROOT
ATOM      1  C   UNL     1       4.519  -8.146   5.964  1.00  0.00     0.039 C 
ATOM      2  C   UNL     1       5.517  -7.740   7.023  1.00  0.00    -0.070 C 
ATOM      3  C   UNL     1       6.504  -6.836   6.751  1.00  0.00    -0.006 C 
ATOM      4  C   UNL     1       6.612  -6.141   5.403  1.00  0.00     0.047 C 
ATOM      5  C   UNL     1       8.088  -5.864   5.024  1.00  0.00     0.025 C 
ATOM      6  C   UNL     1       8.124  -5.193   3.655  1.00  0.00    -0.073 C 
ATOM      7  C   UNL     1       8.148  -5.938   2.538  1.00  0.00     0.008 C 
ATOM      8  C   UNL     1       8.041  -3.689   3.524  1.00  0.00     0.031 C 
ATOM      9  C   UNL     1       8.131  -2.985   4.877  1.00  0.00     0.005 C 
ATOM     10  C   UNL     1       9.246  -3.611   5.716  1.00  0.00     0.008 C 
ATOM     11  C   UNL     1       8.914  -5.078   6.137  1.00  0.00    -0.018 C 
ATOM     12  C   UNL     1       8.155  -5.037   7.497  1.00  0.00     0.088 C 
ATOM     13  C   UNL     1       7.460  -6.334   7.771  1.00  0.00     0.159 C 
ATOM     14  O   UNL     1       7.733  -6.977   8.820  1.00  0.00    -0.295 OA
ATOM     15  C   UNL     1      10.259  -5.810   6.368  1.00  0.00     0.012 C 
ATOM     16  C   UNL     1       5.350  -8.348   8.397  1.00  0.00     0.039 C 
ENDROOT
TORSDOF 0
ENDMDL
MODEL 8
REMARK VINA RESULT:    -3.754     10.391     13.067
REMARK INTER + INTRA:          -3.754
REMARK INTER:                  -3.754
REMARK INTRA:                   0.000
REMARK UNBOUND:                 0.000
REMARK SMILES C=C1CCC[C@@]2(C)CC(=O)C(=C(C)C)C[C@@H]12
REMARK SMILES IDX 13 1 12 2 11 3 15 4 16 5 2 6 1 7 3 8 4 9 5 10 6 11 8 12 9 13
REMARK SMILES IDX 10 14 7 15 14 16
REMARK H PARENT
REMARK Flexibility Score: inf
ROOT
ATOM      1  C   UNL     1       8.363  -8.473   2.077  1.00  0.00     0.039 C 
ATOM      2  C   UNL     1       8.916  -7.084   2.299  1.00  0.00    -0.070 C 
ATOM      3  C   UNL     1       8.732  -6.434   3.486  1.00  0.00    -0.006 C 
ATOM      4  C   UNL     1       8.028  -7.089   4.663  1.00  0.00     0.047 C 
ATOM      5  C   UNL     1       7.235  -6.052   5.498  1.00  0.00     0.025 C 
ATOM      6  C   UNL     1       6.536  -6.779   6.642  1.00  0.00    -0.073 C 
ATOM      7  C   UNL     1       5.319  -7.317   6.457  1.00  0.00     0.008 C 
ATOM      8  C   UNL     1       7.228  -6.987   7.970  1.00  0.00     0.031 C 
ATOM      9  C   UNL     1       8.549  -6.225   8.058  1.00  0.00     0.005 C 
ATOM     10  C   UNL     1       8.370  -4.808   7.512  1.00  0.00     0.008 C 
ATOM     11  C   UNL     1       8.095  -4.799   5.975  1.00  0.00    -0.018 C 
ATOM     12  C   UNL     1       9.464  -4.722   5.233  1.00  0.00     0.088 C 
ATOM     13  C   UNL     1       9.324  -5.106   3.793  1.00  0.00     0.159 C 
ATOM     14  O   UNL     1       9.663  -4.290   2.896  1.00  0.00    -0.295 OA
ATOM     15  C   UNL     1       7.309  -3.505   5.652  1.00  0.00     0.012 C 
ATOM     16  C   UNL     1       9.709  -6.470   1.168  1.00  0.00     0.039 C 
ENDROOT
TORSDOF 0
ENDMDL
