MODEL 1
REMARK VINA RESULT:    -4.725      0.000      0.000
REMARK INTER + INTRA:          -7.350
REMARK INTER:                  -5.829
REMARK INTRA:                  -1.521
REMARK UNBOUND:                -1.521
REMARK SMILES CC(C)=CCC[C@H](C)c1ccc(C)cc1
REMARK SMILES IDX 6 1 7 2 8 3 9 4 13 5 12 6 11 7 14 8 10 9 15 10 5 11 4 12
REMARK SMILES IDX 2 13 1 14 3 15
REMARK H PARENT
REMARK Flexibility Score: inf
ROOT
ATOM      1  C   UNL     1     145.640 127.130 116.104  1.00  0.00     0.012 C 
ENDROOT
BRANCH   1   2
ATOM      2  C   UNL     1     145.270 128.283 115.143  1.00  0.00     0.016 C 
ATOM      3  C   UNL     1     145.991 129.596 115.490  1.00  0.00     0.013 C 
BRANCH   2   4
ATOM      4  C   UNL     1     143.765 128.444 114.987  1.00  0.00    -0.045 A 
ATOM      5  C   UNL     1     139.472 128.818 114.649  1.00  0.00     0.044 C 
ATOM      6  C   UNL     1     140.959 128.694 114.799  1.00  0.00    -0.051 A 
ATOM      7  C   UNL     1     141.546 127.438 115.010  1.00  0.00     0.004 A 
ATOM      8  C   UNL     1     141.779 129.823 114.668  1.00  0.00     0.004 A 
ATOM      9  C   UNL     1     142.934 127.318 115.115  1.00  0.00     0.004 A 
ATOM     10  C   UNL     1     143.169 129.704 114.774  1.00  0.00     0.004 A 
ENDBRANCH   2   4
ENDBRANCH   1   2
BRANCH   1  11
ATOM     11  C   UNL     1     145.664 127.520 117.592  1.00  0.00     0.028 C 
BRANCH  11  12
ATOM     12  C   UNL     1     144.464 126.954 118.309  1.00  0.00    -0.028 C 
ATOM     13  C   UNL     1     143.424 127.694 118.754  1.00  0.00    -0.080 C 
ATOM     14  C   UNL     1     143.343 129.184 118.519  1.00  0.00     0.039 C 
ATOM     15  C   UNL     1     142.310 126.996 119.491  1.00  0.00     0.039 C 
ENDBRANCH  11  12
ENDBRANCH   1  11
TORSDOF 4
ENDMDL
MODEL 2
REMARK VINA RESULT:    -4.528      2.122      3.909
REMARK INTER + INTRA:          -7.107
REMARK INTER:                  -6.345
REMARK INTRA:                  -0.762
REMARK UNBOUND:                -1.521
REMARK SMILES CC(C)=CCC[C@H](C)c1ccc(C)cc1
REMARK SMILES IDX 6 1 7 2 8 3 9 4 13 5 12 6 11 7 14 8 10 9 15 10 5 11 4 12
REMARK SMILES IDX 2 13 1 14 3 15
REMARK H PARENT
REMARK Flexibility Score: inf
ROOT
ATOM      1  C   UNL     1     145.745 129.680 114.924  1.00  0.00     0.012 C 
ENDROOT
BRANCH   1   2
ATOM      2  C   UNL     1     144.995 128.357 115.195  1.00  0.00     0.016 C 
ATOM      3  C   UNL     1     145.587 127.170 114.415  1.00  0.00     0.013 C 
BRANCH   2   4
ATOM      4  C   UNL     1     143.490 128.500 115.025  1.00  0.00    -0.045 A 
ATOM      5  C   UNL     1     139.237 128.980 114.426  1.00  0.00     0.044 C 
ATOM      6  C   UNL     1     140.716 128.805 114.601  1.00  0.00    -0.051 A 
ATOM      7  C   UNL     1     141.583 129.893 114.428  1.00  0.00     0.004 A 
ATOM      8  C   UNL     1     141.238 127.566 115.000  1.00  0.00     0.004 A 
ATOM      9  C   UNL     1     142.957 129.738 114.626  1.00  0.00     0.004 A 
ATOM     10  C   UNL     1     142.613 127.410 115.198  1.00  0.00     0.004 A 
ENDBRANCH   2   4
ENDBRANCH   1   2
BRANCH   1  11
ATOM     11  C   UNL     1     146.176 130.443 116.189  1.00  0.00     0.028 C 
BRANCH  11  12
ATOM     12  C   UNL     1     146.576 131.856 115.846  1.00  0.00    -0.028 C 
ATOM     13  C   UNL     1     145.728 132.909 115.847  1.00  0.00    -0.080 C 
ATOM     14  C   UNL     1     144.280 132.771 116.253  1.00  0.00     0.039 C 
ATOM     15  C   UNL     1     146.261 134.260 115.444  1.00  0.00     0.039 C 
ENDBRANCH  11  12
ENDBRANCH   1  11
TORSDOF 4
ENDMDL
MODEL 3
REMARK VINA RESULT:    -4.473      1.864      3.811
REMARK INTER + INTRA:          -7.040
REMARK INTER:                  -5.479
REMARK INTRA:                  -1.561
REMARK UNBOUND:                -1.521
REMARK SMILES CC(C)=CCC[C@H](C)c1ccc(C)cc1
REMARK SMILES IDX 6 1 7 2 8 3 9 4 13 5 12 6 11 7 14 8 10 9 15 10 5 11 4 12
REMARK SMILES IDX 2 13 1 14 3 15
REMARK H PARENT
REMARK Flexibility Score: inf
ROOT
ATOM      1  C   UNL     1     143.347 127.600 115.676  1.00  0.00     0.012 C 
ENDROOT
BRANCH   1   2
ATOM      2  C   UNL     1     144.423 128.204 114.746  1.00  0.00     0.016 C 
ATOM      3  C   UNL     1     145.586 127.234 114.478  1.00  0.00     0.013 C 
BRANCH   2   4
ATOM      4  C   UNL     1     144.880 129.580 115.209  1.00  0.00    -0.045 A 
ATOM      5  C   UNL     1     146.078 133.486 116.619  1.00  0.00     0.044 C 
ATOM      6  C   UNL     1     145.662 132.120 116.161  1.00  0.00    -0.051 A 
ATOM      7  C   UNL     1     144.305 131.818 115.982  1.00  0.00     0.004 A 
ATOM      8  C   UNL     1     146.629 131.153 115.851  1.00  0.00     0.004 A 
ATOM      9  C   UNL     1     143.918 130.557 115.522  1.00  0.00     0.004 A 
ATOM     10  C   UNL     1     146.243 129.890 115.391  1.00  0.00     0.004 A 
ENDBRANCH   2   4
ENDBRANCH   1   2
BRANCH   1  11
ATOM     11  C   UNL     1     143.851 127.230 117.082  1.00  0.00     0.028 C 
BRANCH  11  12
ATOM     12  C   UNL     1     143.209 128.109 118.125  1.00  0.00    -0.028 C 
ATOM     13  C   UNL     1     143.890 128.940 118.946  1.00  0.00    -0.080 C 
ATOM     14  C   UNL     1     145.389 129.106 118.852  1.00  0.00     0.039 C 
ATOM     15  C   UNL     1     143.117 129.731 119.969  1.00  0.00     0.039 C 
ENDBRANCH  11  12
ENDBRANCH   1  11
TORSDOF 4
ENDMDL
MODEL 4
REMARK VINA RESULT:    -4.470      1.673      3.242
REMARK INTER + INTRA:          -7.036
REMARK INTER:                  -5.562
REMARK INTRA:                  -1.474
REMARK UNBOUND:                -1.521
REMARK SMILES CC(C)=CCC[C@H](C)c1ccc(C)cc1
REMARK SMILES IDX 6 1 7 2 8 3 9 4 13 5 12 6 11 7 14 8 10 9 15 10 5 11 4 12
REMARK SMILES IDX 2 13 1 14 3 15
REMARK H PARENT
REMARK Flexibility Score: inf
ROOT
ATOM      1  C   UNL     1     145.943 128.934 116.169  1.00  0.00     0.012 C 
ENDROOT
BRANCH   1   2
ATOM      2  C   UNL     1     145.390 127.540 115.797  1.00  0.00     0.016 C 
ATOM      3  C   UNL     1     145.835 127.080 114.398  1.00  0.00     0.013 C 
BRANCH   2   4
ATOM      4  C   UNL     1     143.887 127.437 116.015  1.00  0.00    -0.045 A 
ATOM      5  C   UNL     1     139.626 127.255 116.718  1.00  0.00     0.044 C 
ATOM      6  C   UNL     1     141.102 127.351 116.468  1.00  0.00    -0.051 A 
ATOM      7  C   UNL     1     141.985 127.588 117.530  1.00  0.00     0.004 A 
ATOM      8  C   UNL     1     141.615 127.144 115.180  1.00  0.00     0.004 A 
ATOM      9  C   UNL     1     143.363 127.642 117.303  1.00  0.00     0.004 A 
ATOM     10  C   UNL     1     142.994 127.199 114.951  1.00  0.00     0.004 A 
ENDBRANCH   2   4
ENDBRANCH   1   2
BRANCH   1  11
ATOM     11  C   UNL     1     145.409 130.087 115.301  1.00  0.00     0.028 C 
BRANCH  11  12
ATOM     12  C   UNL     1     144.612 131.056 116.137  1.00  0.00    -0.028 C 
ATOM     13  C   UNL     1     143.305 131.337 115.938  1.00  0.00    -0.080 C 
ATOM     14  C   UNL     1     142.491 130.648 114.868  1.00  0.00     0.039 C 
ATOM     15  C   UNL     1     142.646 132.359 116.830  1.00  0.00     0.039 C 
ENDBRANCH  11  12
ENDBRANCH   1  11
TORSDOF 4
ENDMDL
MODEL 5
REMARK VINA RESULT:    -4.447      1.665      4.627
REMARK INTER + INTRA:          -7.009
REMARK INTER:                  -5.491
REMARK INTRA:                  -1.517
REMARK UNBOUND:                -1.521
REMARK SMILES CC(C)=CCC[C@H](C)c1ccc(C)cc1
REMARK SMILES IDX 6 1 7 2 8 3 9 4 13 5 12 6 11 7 14 8 10 9 15 10 5 11 4 12
REMARK SMILES IDX 2 13 1 14 3 15
REMARK H PARENT
REMARK Flexibility Score: inf
ROOT
ATOM      1  C   UNL     1     145.623 127.710 114.939  1.00  0.00     0.012 C 
ENDROOT
BRANCH   1   2
ATOM      2  C   UNL     1     144.376 127.107 115.625  1.00  0.00     0.016 C 
ATOM      3  C   UNL     1     143.073 127.429 114.872  1.00  0.00     0.013 C 
BRANCH   2   4
ATOM      4  C   UNL     1     144.314 127.441 117.108  1.00  0.00    -0.045 A 
ATOM      5  C   UNL     1     144.244 128.473 121.304  1.00  0.00     0.044 C 
ATOM      6  C   UNL     1     144.270 128.147 119.840  1.00  0.00    -0.051 A 
ATOM      7  C   UNL     1     145.487 127.888 119.195  1.00  0.00     0.004 A 
ATOM      8  C   UNL     1     143.073 128.040 119.119  1.00  0.00     0.004 A 
ATOM      9  C   UNL     1     145.509 127.550 117.840  1.00  0.00     0.004 A 
ATOM     10  C   UNL     1     143.093 127.702 117.762  1.00  0.00     0.004 A 
ENDBRANCH   2   4
ENDBRANCH   1   2
BRANCH   1  11
ATOM     11  C   UNL     1     145.412 129.117 114.351  1.00  0.00     0.028 C 
BRANCH  11  12
ATOM     12  C   UNL     1     145.862 130.173 115.328  1.00  0.00    -0.028 C 
ATOM     13  C   UNL     1     145.026 131.006 115.988  1.00  0.00    -0.080 C 
ATOM     14  C   UNL     1     143.526 130.914 115.843  1.00  0.00     0.039 C 
ATOM     15  C   UNL     1     145.622 132.042 116.907  1.00  0.00     0.039 C 
ENDBRANCH  11  12
ENDBRANCH   1  11
TORSDOF 4
ENDMDL
MODEL 6
REMARK VINA RESULT:    -4.407      1.452      2.678
REMARK INTER + INTRA:          -6.959
REMARK INTER:                  -5.753
REMARK INTRA:                  -1.206
REMARK UNBOUND:                -1.521
REMARK SMILES CC(C)=CCC[C@H](C)c1ccc(C)cc1
REMARK SMILES IDX 6 1 7 2 8 3 9 4 13 5 12 6 11 7 14 8 10 9 15 10 5 11 4 12
REMARK SMILES IDX 2 13 1 14 3 15
REMARK H PARENT
REMARK Flexibility Score: inf
ROOT
ATOM      1  C   UNL     1     144.403 127.458 117.086  1.00  0.00     0.012 C 
ENDROOT
BRANCH   1   2
ATOM      2  C   UNL     1     144.069 127.223 115.595  1.00  0.00     0.016 C 
ATOM      3  C   UNL     1     145.305 127.341 114.687  1.00  0.00     0.013 C 
BRANCH   2   4
ATOM      4  C   UNL     1     142.893 128.067 115.126  1.00  0.00    -0.045 A 
ATOM      5  C   UNL     1     139.478 130.414 113.898  1.00  0.00     0.044 C 
ATOM      6  C   UNL     1     140.659 129.610 114.356  1.00  0.00    -0.051 A 
ATOM      7  C   UNL     1     140.495 128.276 114.753  1.00  0.00     0.004 A 
ATOM      8  C   UNL     1     141.945 130.168 114.331  1.00  0.00     0.004 A 
ATOM      9  C   UNL     1     141.599 127.516 115.146  1.00  0.00     0.004 A 
ATOM     10  C   UNL     1     143.051 129.408 114.725  1.00  0.00     0.004 A 
ENDBRANCH   2   4
ENDBRANCH   1   2
BRANCH   1  11
ATOM     11  C   UNL     1     145.668 128.299 117.334  1.00  0.00     0.028 C 
BRANCH  11  12
ATOM     12  C   UNL     1     145.301 129.718 117.688  1.00  0.00    -0.028 C 
ATOM     13  C   UNL     1     145.669 130.802 116.968  1.00  0.00    -0.080 C 
ATOM     14  C   UNL     1     146.455 130.680 115.684  1.00  0.00     0.039 C 
ATOM     15  C   UNL     1     145.263 132.165 117.465  1.00  0.00     0.039 C 
ENDBRANCH  11  12
ENDBRANCH   1  11
TORSDOF 4
ENDMDL
MODEL 7
REMARK VINA RESULT:    -4.341      1.757      2.506
REMARK INTER + INTRA:          -6.877
REMARK INTER:                  -5.820
REMARK INTRA:                  -1.057
REMARK UNBOUND:                -1.521
REMARK SMILES CC(C)=CCC[C@H](C)c1ccc(C)cc1
REMARK SMILES IDX 6 1 7 2 8 3 9 4 13 5 12 6 11 7 14 8 10 9 15 10 5 11 4 12
REMARK SMILES IDX 2 13 1 14 3 15
REMARK H PARENT
REMARK Flexibility Score: inf
ROOT
ATOM      1  C   UNL     1     145.636 129.671 114.740  1.00  0.00     0.012 C 
ENDROOT
BRANCH   1   2
ATOM      2  C   UNL     1     144.982 128.339 115.172  1.00  0.00     0.016 C 
ATOM      3  C   UNL     1     145.647 127.114 114.519  1.00  0.00     0.013 C 
BRANCH   2   4
ATOM      4  C   UNL     1     143.469 128.359 115.012  1.00  0.00    -0.045 A 
ATOM      5  C   UNL     1     139.161 128.336 114.668  1.00  0.00     0.044 C 
ATOM      6  C   UNL     1     140.653 128.350 114.820  1.00  0.00    -0.051 A 
ATOM      7  C   UNL     1     141.349 127.162 115.082  1.00  0.00     0.004 A 
ATOM      8  C   UNL     1     141.370 129.542 114.640  1.00  0.00     0.004 A 
ATOM      9  C   UNL     1     142.742 127.169 115.189  1.00  0.00     0.004 A 
ATOM     10  C   UNL     1     142.764 129.551 114.747  1.00  0.00     0.004 A 
ENDBRANCH   2   4
ENDBRANCH   1   2
BRANCH   1  11
ATOM     11  C   UNL     1     146.379 130.413 115.865  1.00  0.00     0.028 C 
BRANCH  11  12
ATOM     12  C   UNL     1     145.417 131.233 116.686  1.00  0.00    -0.028 C 
ATOM     13  C   UNL     1     144.937 130.861 117.894  1.00  0.00    -0.080 C 
ATOM     14  C   UNL     1     145.376 129.583 118.570  1.00  0.00     0.039 C 
ATOM     15  C   UNL     1     143.949 131.765 118.584  1.00  0.00     0.039 C 
ENDBRANCH  11  12
ENDBRANCH   1  11
TORSDOF 4
ENDMDL
MODEL 8
REMARK VINA RESULT:    -4.324      1.967      4.502
REMARK INTER + INTRA:          -6.857
REMARK INTER:                  -5.342
REMARK INTRA:                  -1.515
REMARK UNBOUND:                -1.521
REMARK SMILES CC(C)=CCC[C@H](C)c1ccc(C)cc1
REMARK SMILES IDX 6 1 7 2 8 3 9 4 13 5 12 6 11 7 14 8 10 9 15 10 5 11 4 12
REMARK SMILES IDX 2 13 1 14 3 15
REMARK H PARENT
REMARK Flexibility Score: inf
ROOT
ATOM      1  C   UNL     1     145.475 127.414 115.217  1.00  0.00     0.012 C 
ENDROOT
BRANCH   1   2
ATOM      2  C   UNL     1     145.996 127.883 116.594  1.00  0.00     0.016 C 
ATOM      3  C   UNL     1     145.404 127.069 117.758  1.00  0.00     0.013 C 
BRANCH   2   4
ATOM      4  C   UNL     1     145.862 129.387 116.781  1.00  0.00    -0.045 A 
ATOM      5  C   UNL     1     145.447 133.671 117.180  1.00  0.00     0.044 C 
ATOM      6  C   UNL     1     145.561 132.183 117.027  1.00  0.00    -0.051 A 
ATOM      7  C   UNL     1     146.192 131.635 115.901  1.00  0.00     0.004 A 
ATOM      8  C   UNL     1     145.092 131.331 118.036  1.00  0.00     0.004 A 
ATOM      9  C   UNL     1     146.330 130.250 115.775  1.00  0.00     0.004 A 
ATOM     10  C   UNL     1     145.230 129.945 117.910  1.00  0.00     0.004 A 
ENDBRANCH   2   4
ENDBRANCH   1   2
BRANCH   1  11
ATOM     11  C   UNL     1     143.946 127.271 115.126  1.00  0.00     0.028 C 
BRANCH  11  12
ATOM     12  C   UNL     1     143.310 128.589 114.762  1.00  0.00    -0.028 C 
ATOM     13  C   UNL     1     142.421 129.246 115.540  1.00  0.00    -0.080 C 
ATOM     14  C   UNL     1     142.017 128.733 116.903  1.00  0.00     0.039 C 
ATOM     15  C   UNL     1     141.836 130.538 115.029  1.00  0.00     0.039 C 
ENDBRANCH  11  12
ENDBRANCH   1  11
TORSDOF 4
ENDMDL
MODEL 9
REMARK VINA RESULT:    -4.300     12.091     13.708
REMARK INTER + INTRA:          -6.826
REMARK INTER:                  -5.372
REMARK INTRA:                  -1.454
REMARK UNBOUND:                -1.521
REMARK SMILES CC(C)=CCC[C@H](C)c1ccc(C)cc1
REMARK SMILES IDX 6 1 7 2 8 3 9 4 13 5 12 6 11 7 14 8 10 9 15 10 5 11 4 12
REMARK SMILES IDX 2 13 1 14 3 15
REMARK H PARENT
REMARK Flexibility Score: inf
ROOT
ATOM      1  C   UNL     1     129.893 126.891 116.675  1.00  0.00     0.012 C 
ENDROOT
BRANCH   1   2
ATOM      2  C   UNL     1     130.280 127.342 115.248  1.00  0.00     0.016 C 
ATOM      3  C   UNL     1     131.689 126.875 114.842  1.00  0.00     0.013 C 
BRANCH   2   4
ATOM      4  C   UNL     1     130.053 128.831 115.032  1.00  0.00    -0.045 A 
ATOM      5  C   UNL     1     129.500 133.057 114.314  1.00  0.00     0.044 C 
ATOM      6  C   UNL     1     129.688 131.585 114.530  1.00  0.00    -0.051 A 
ATOM      7  C   UNL     1     130.975 131.029 114.528  1.00  0.00     0.004 A 
ATOM      8  C   UNL     1     128.584 130.763 114.797  1.00  0.00     0.004 A 
ATOM      9  C   UNL     1     131.154 129.664 114.765  1.00  0.00     0.004 A 
ATOM     10  C   UNL     1     128.762 129.396 115.033  1.00  0.00     0.004 A 
ENDBRANCH   2   4
ENDBRANCH   1   2
BRANCH   1  11
ATOM     11  C   UNL     1     130.541 127.711 117.804  1.00  0.00     0.028 C 
BRANCH  11  12
ATOM     12  C   UNL     1     129.487 128.290 118.713  1.00  0.00    -0.028 C 
ATOM     13  C   UNL     1     129.334 129.611 118.957  1.00  0.00    -0.080 C 
ATOM     14  C   UNL     1     130.194 130.654 118.282  1.00  0.00     0.039 C 
ATOM     15  C   UNL     1     128.259 130.043 119.921  1.00  0.00     0.039 C 
ENDBRANCH  11  12
ENDBRANCH   1  11
TORSDOF 4
ENDMDL
