MODEL 1
REMARK VINA RESULT:    -4.762      0.000      0.000
REMARK INTER + INTRA:         -10.853
REMARK INTER:                  -8.380
REMARK INTRA:                  -2.473
REMARK UNBOUND:                -2.473
REMARK SMILES CCCCCCC=CCCCCCCCC(=O)[O-]
REMARK SMILES IDX 10 1 11 2 12 3 13 4 14 5 15 6 16 7 17 8 18 9 9 10 8 11 7 12
REMARK SMILES IDX 6 13 5 14 4 15 3 16 2 17 1 18
REMARK H PARENT
REMARK Flexibility Score: inf
ROOT
ATOM      1  C   UNL     1      -3.246  12.975  -1.937  1.00  0.00     0.004 C 
ENDROOT
BRANCH   1   2
ATOM      2  C   UNL     1      -3.732  11.710  -1.215  1.00  0.00     0.000 C 
BRANCH   2   3
ATOM      3  C   UNL     1      -3.235  10.445  -1.925  1.00  0.00     0.000 C 
BRANCH   3   4
ATOM      4  C   UNL     1      -4.407   9.656  -2.525  1.00  0.00     0.000 C 
BRANCH   4   5
ATOM      5  C   UNL     1      -5.696   9.774  -1.691  1.00  0.00     0.006 C 
BRANCH   5   6
ATOM      6  C   UNL     1      -6.389   8.432  -1.403  1.00  0.00     0.053 C 
BRANCH   6   7
ATOM      7  C   UNL     1      -5.455   7.439  -0.782  1.00  0.00     0.041 C 
ATOM      8  O   UNL     1      -5.060   7.597   0.403  1.00  0.00    -0.550 OA
ATOM      9  O   UNL     1      -5.050   6.321  -1.500  1.00  0.00    -0.550 OA
ENDBRANCH   6   7
ENDBRANCH   5   6
ENDBRANCH   4   5
ENDBRANCH   3   4
ENDBRANCH   2   3
ENDBRANCH   1   2
BRANCH   1  10
ATOM     10  C   UNL     1      -4.407  13.894  -2.342  1.00  0.00     0.027 C 
BRANCH  10  11
ATOM     11  C   UNL     1      -5.475  13.161  -3.110  1.00  0.00    -0.031 C 
ATOM     12  C   UNL     1      -5.297  12.793  -4.387  1.00  0.00    -0.031 C 
BRANCH  12  13
ATOM     13  C   UNL     1      -6.365  12.058  -5.154  1.00  0.00     0.027 C 
BRANCH  13  14
ATOM     14  C   UNL     1      -7.508  11.576  -4.249  1.00  0.00     0.004 C 
BRANCH  14  15
ATOM     15  C   UNL     1      -8.080  10.224  -4.711  1.00  0.00     0.000 C 
BRANCH  15  16
ATOM     16  C   UNL     1      -7.016   9.318  -5.348  1.00  0.00    -0.000 C 
BRANCH  16  17
ATOM     17  C   UNL     1      -7.314   7.825  -5.150  1.00  0.00    -0.003 C 
ATOM     18  C   UNL     1      -6.035   7.042  -4.864  1.00  0.00     0.004 C 
ENDBRANCH  16  17
ENDBRANCH  15  16
ENDBRANCH  14  15
ENDBRANCH  13  14
ENDBRANCH  12  13
ENDBRANCH  10  11
ENDBRANCH   1  10
TORSDOF 13
ENDMDL
MODEL 2
REMARK VINA RESULT:    -4.449      1.156      4.477
REMARK INTER + INTRA:         -10.302
REMARK INTER:                  -8.328
REMARK INTRA:                  -1.975
REMARK UNBOUND:                -2.473
REMARK SMILES CCCCCCC=CCCCCCCCC(=O)[O-]
REMARK SMILES IDX 10 1 11 2 12 3 13 4 14 5 15 6 16 7 17 8 18 9 9 10 8 11 7 12
REMARK SMILES IDX 6 13 5 14 4 15 3 16 2 17 1 18
REMARK H PARENT
REMARK Flexibility Score: inf
ROOT
ATOM      1  C   UNL     1      -6.312  10.263  -5.424  1.00  0.00     0.004 C 
ENDROOT
BRANCH   1   2
ATOM      2  C   UNL     1      -7.543   9.347  -5.508  1.00  0.00     0.000 C 
BRANCH   2   3
ATOM      3  C   UNL     1      -7.710   8.531  -4.220  1.00  0.00     0.000 C 
BRANCH   3   4
ATOM      4  C   UNL     1      -7.949   9.451  -3.014  1.00  0.00     0.000 C 
BRANCH   4   5
ATOM      5  C   UNL     1      -6.857   9.319  -1.937  1.00  0.00     0.006 C 
BRANCH   5   6
ATOM      6  C   UNL     1      -5.694   8.392  -2.326  1.00  0.00     0.053 C 
BRANCH   6   7
ATOM      7  C   UNL     1      -5.343   7.437  -1.227  1.00  0.00     0.041 C 
ATOM      8  O   UNL     1      -5.035   6.246  -1.497  1.00  0.00    -0.550 OA
ATOM      9  O   UNL     1      -5.322   7.871   0.092  1.00  0.00    -0.550 OA
ENDBRANCH   6   7
ENDBRANCH   5   6
ENDBRANCH   4   5
ENDBRANCH   3   4
ENDBRANCH   2   3
ENDBRANCH   1   2
BRANCH   1  10
ATOM     10  C   UNL     1      -6.621  11.692  -5.892  1.00  0.00     0.027 C 
BRANCH  10  11
ATOM     11  C   UNL     1      -5.882  12.729  -5.089  1.00  0.00    -0.031 C 
ATOM     12  C   UNL     1      -5.186  12.404  -3.990  1.00  0.00    -0.031 C 
BRANCH  12  13
ATOM     13  C   UNL     1      -4.445  13.442  -3.188  1.00  0.00     0.027 C 
BRANCH  13  14
ATOM     14  C   UNL     1      -3.346  12.827  -2.309  1.00  0.00     0.004 C 
BRANCH  14  15
ATOM     15  C   UNL     1      -3.628  11.352  -1.977  1.00  0.00     0.000 C 
BRANCH  15  16
ATOM     16  C   UNL     1      -3.531  11.055  -0.472  1.00  0.00    -0.000 C 
BRANCH  16  17
ATOM     17  C   UNL     1      -4.183  12.145   0.389  1.00  0.00    -0.003 C 
ATOM     18  C   UNL     1      -5.706  12.063   0.318  1.00  0.00     0.004 C 
ENDBRANCH  16  17
ENDBRANCH  15  16
ENDBRANCH  14  15
ENDBRANCH  13  14
ENDBRANCH  12  13
ENDBRANCH  10  11
ENDBRANCH   1  10
TORSDOF 13
ENDMDL
MODEL 3
REMARK VINA RESULT:    -4.394      1.931      4.222
REMARK INTER + INTRA:         -10.206
REMARK INTER:                  -8.156
REMARK INTRA:                  -2.050
REMARK UNBOUND:                -2.473
REMARK SMILES CCCCCCC=CCCCCCCCC(=O)[O-]
REMARK SMILES IDX 10 1 11 2 12 3 13 4 14 5 15 6 16 7 17 8 18 9 9 10 8 11 7 12
REMARK SMILES IDX 6 13 5 14 4 15 3 16 2 17 1 18
REMARK H PARENT
REMARK Flexibility Score: inf
ROOT
ATOM      1  C   UNL     1      -4.375  13.690  -3.957  1.00  0.00     0.004 C 
ENDROOT
BRANCH   1   2
ATOM      2  C   UNL     1      -5.648  12.835  -4.031  1.00  0.00     0.000 C 
BRANCH   2   3
ATOM      3  C   UNL     1      -6.024  12.531  -5.486  1.00  0.00     0.000 C 
BRANCH   3   4
ATOM      4  C   UNL     1      -6.331  11.039  -5.674  1.00  0.00     0.000 C 
BRANCH   4   5
ATOM      5  C   UNL     1      -6.304  10.252  -4.351  1.00  0.00     0.006 C 
BRANCH   5   6
ATOM      6  C   UNL     1      -5.579   8.899  -4.434  1.00  0.00     0.053 C 
BRANCH   6   7
ATOM      7  C   UNL     1      -6.521   7.772  -4.725  1.00  0.00     0.041 C 
ATOM      8  O   UNL     1      -7.751   7.896  -4.485  1.00  0.00    -0.550 OA
ATOM      9  O   UNL     1      -6.046   6.597  -5.293  1.00  0.00    -0.550 OA
ENDBRANCH   6   7
ENDBRANCH   5   6
ENDBRANCH   4   5
ENDBRANCH   3   4
ENDBRANCH   2   3
ENDBRANCH   1   2
BRANCH   1  10
ATOM     10  C   UNL     1      -3.414  13.204  -2.862  1.00  0.00     0.027 C 
BRANCH  10  11
ATOM     11  C   UNL     1      -4.043  12.173  -1.964  1.00  0.00    -0.031 C 
ATOM     12  C   UNL     1      -3.517  10.947  -1.822  1.00  0.00    -0.031 C 
BRANCH  12  13
ATOM     13  C   UNL     1      -4.146   9.917  -0.921  1.00  0.00     0.027 C 
BRANCH  13  14
ATOM     14  C   UNL     1      -5.648  10.160  -0.713  1.00  0.00     0.004 C 
BRANCH  14  15
ATOM     15  C   UNL     1      -6.471   8.869  -0.873  1.00  0.00     0.000 C 
BRANCH  15  16
ATOM     16  C   UNL     1      -5.589   7.613  -0.956  1.00  0.00    -0.000 C 
BRANCH  16  17
ATOM     17  C   UNL     1      -5.910   6.591   0.144  1.00  0.00    -0.003 C 
ATOM     18  C   UNL     1      -5.592   7.155   1.527  1.00  0.00     0.004 C 
ENDBRANCH  16  17
ENDBRANCH  15  16
ENDBRANCH  14  15
ENDBRANCH  13  14
ENDBRANCH  12  13
ENDBRANCH  10  11
ENDBRANCH   1  10
TORSDOF 13
ENDMDL
MODEL 4
REMARK VINA RESULT:    -4.392      3.341      4.834
REMARK INTER + INTRA:         -10.202
REMARK INTER:                  -8.746
REMARK INTRA:                  -1.456
REMARK UNBOUND:                -2.473
REMARK SMILES CCCCCCC=CCCCCCCCC(=O)[O-]
REMARK SMILES IDX 10 1 11 2 12 3 13 4 14 5 15 6 16 7 17 8 18 9 9 10 8 11 7 12
REMARK SMILES IDX 6 13 5 14 4 15 3 16 2 17 1 18
REMARK H PARENT
REMARK Flexibility Score: inf
ROOT
ATOM      1  C   UNL     1      -3.255  13.051  -2.307  1.00  0.00     0.004 C 
ENDROOT
BRANCH   1   2
ATOM      2  C   UNL     1      -4.390  13.923  -2.864  1.00  0.00     0.000 C 
BRANCH   2   3
ATOM      3  C   UNL     1      -4.735  13.523  -4.303  1.00  0.00     0.000 C 
BRANCH   3   4
ATOM      4  C   UNL     1      -5.544  12.218  -4.332  1.00  0.00     0.000 C 
BRANCH   4   5
ATOM      5  C   UNL     1      -6.818  12.325  -5.190  1.00  0.00     0.006 C 
BRANCH   5   6
ATOM      6  C   UNL     1      -6.931  11.255  -6.289  1.00  0.00     0.053 C 
BRANCH   6   7
ATOM      7  C   UNL     1      -7.618  11.777  -7.513  1.00  0.00     0.041 C 
ATOM      8  O   UNL     1      -7.905  12.999  -7.607  1.00  0.00    -0.550 OA
ATOM      9  O   UNL     1      -7.910  10.919  -8.566  1.00  0.00    -0.550 OA
ENDBRANCH   6   7
ENDBRANCH   5   6
ENDBRANCH   4   5
ENDBRANCH   3   4
ENDBRANCH   2   3
ENDBRANCH   1   2
BRANCH   1  10
ATOM     10  C   UNL     1      -3.658  12.336  -1.008  1.00  0.00     0.027 C 
BRANCH  10  11
ATOM     11  C   UNL     1      -4.076  10.910  -1.246  1.00  0.00    -0.031 C 
ATOM     12  C   UNL     1      -5.254  10.439  -0.809  1.00  0.00    -0.031 C 
BRANCH  12  13
ATOM     13  C   UNL     1      -5.673   9.013  -1.050  1.00  0.00     0.027 C 
BRANCH  13  14
ATOM     14  C   UNL     1      -7.033   8.914  -1.756  1.00  0.00     0.004 C 
BRANCH  14  15
ATOM     15  C   UNL     1      -6.910   9.100  -3.278  1.00  0.00     0.000 C 
BRANCH  15  16
ATOM     16  C   UNL     1      -7.886   8.210  -4.063  1.00  0.00    -0.000 C 
BRANCH  16  17
ATOM     17  C   UNL     1      -7.253   7.604  -5.323  1.00  0.00    -0.003 C 
ATOM     18  C   UNL     1      -6.036   6.753  -4.971  1.00  0.00     0.004 C 
ENDBRANCH  16  17
ENDBRANCH  15  16
ENDBRANCH  14  15
ENDBRANCH  13  14
ENDBRANCH  12  13
ENDBRANCH  10  11
ENDBRANCH   1  10
TORSDOF 13
ENDMDL
MODEL 5
REMARK VINA RESULT:    -4.364      1.755      4.737
REMARK INTER + INTRA:         -10.154
REMARK INTER:                  -8.698
REMARK INTRA:                  -1.456
REMARK UNBOUND:                -2.473
REMARK SMILES CCCCCCC=CCCCCCCCC(=O)[O-]
REMARK SMILES IDX 10 1 11 2 12 3 13 4 14 5 15 6 16 7 17 8 18 9 9 10 8 11 7 12
REMARK SMILES IDX 6 13 5 14 4 15 3 16 2 17 1 18
REMARK H PARENT
REMARK Flexibility Score: inf
ROOT
ATOM      1  C   UNL     1      -5.499  12.495  -4.382  1.00  0.00     0.004 C 
ENDROOT
BRANCH   1   2
ATOM      2  C   UNL     1      -6.202  12.768  -5.720  1.00  0.00     0.000 C 
BRANCH   2   3
ATOM      3  C   UNL     1      -6.677  11.463  -6.368  1.00  0.00     0.000 C 
BRANCH   3   4
ATOM      4  C   UNL     1      -6.600  10.295  -5.374  1.00  0.00     0.000 C 
BRANCH   4   5
ATOM      5  C   UNL     1      -7.677   9.224  -5.625  1.00  0.00     0.006 C 
BRANCH   5   6
ATOM      6  C   UNL     1      -7.729   8.118  -4.559  1.00  0.00     0.053 C 
BRANCH   6   7
ATOM      7  C   UNL     1      -6.369   7.572  -4.248  1.00  0.00     0.041 C 
ATOM      8  O   UNL     1      -5.728   6.931  -5.122  1.00  0.00    -0.550 OA
ATOM      9  O   UNL     1      -5.796   7.802  -3.004  1.00  0.00    -0.550 OA
ENDBRANCH   6   7
ENDBRANCH   5   6
ENDBRANCH   4   5
ENDBRANCH   3   4
ENDBRANCH   2   3
ENDBRANCH   1   2
BRANCH   1  10
ATOM     10  C   UNL     1      -4.469  13.580  -4.037  1.00  0.00     0.027 C 
BRANCH  10  11
ATOM     11  C   UNL     1      -4.103  13.577  -2.577  1.00  0.00    -0.031 C 
ATOM     12  C   UNL     1      -4.887  14.152  -1.653  1.00  0.00    -0.031 C 
BRANCH  12  13
ATOM     13  C   UNL     1      -4.522  14.146  -0.192  1.00  0.00     0.027 C 
BRANCH  13  14
ATOM     14  C   UNL     1      -4.813  12.797   0.480  1.00  0.00     0.004 C 
BRANCH  14  15
ATOM     15  C   UNL     1      -3.523  12.040   0.843  1.00  0.00     0.000 C 
BRANCH  15  16
ATOM     16  C   UNL     1      -3.563  10.565   0.415  1.00  0.00    -0.000 C 
BRANCH  16  17
ATOM     17  C   UNL     1      -4.235  10.361  -0.950  1.00  0.00    -0.003 C 
ATOM     18  C   UNL     1      -3.208  10.002  -2.020  1.00  0.00     0.004 C 
ENDBRANCH  16  17
ENDBRANCH  15  16
ENDBRANCH  14  15
ENDBRANCH  13  14
ENDBRANCH  12  13
ENDBRANCH  10  11
ENDBRANCH   1  10
TORSDOF 13
ENDMDL
MODEL 6
REMARK VINA RESULT:    -4.313      2.023      2.424
REMARK INTER + INTRA:         -10.064
REMARK INTER:                  -7.926
REMARK INTRA:                  -2.138
REMARK UNBOUND:                -2.473
REMARK SMILES CCCCCCC=CCCCCCCCC(=O)[O-]
REMARK SMILES IDX 10 1 11 2 12 3 13 4 14 5 15 6 16 7 17 8 18 9 9 10 8 11 7 12
REMARK SMILES IDX 6 13 5 14 4 15 3 16 2 17 1 18
REMARK H PARENT
REMARK Flexibility Score: inf
ROOT
ATOM      1  C   UNL     1      -3.163  12.828  -1.980  1.00  0.00     0.004 C 
ENDROOT
BRANCH   1   2
ATOM      2  C   UNL     1      -3.539  11.590  -1.152  1.00  0.00     0.000 C 
BRANCH   2   3
ATOM      3  C   UNL     1      -3.306  10.302  -1.951  1.00  0.00     0.000 C 
BRANCH   3   4
ATOM      4  C   UNL     1      -4.640   9.671  -2.375  1.00  0.00     0.000 C 
BRANCH   4   5
ATOM      5  C   UNL     1      -5.706   9.726  -1.265  1.00  0.00     0.006 C 
BRANCH   5   6
ATOM      6  C   UNL     1      -6.995  10.463  -1.663  1.00  0.00     0.053 C 
BRANCH   6   7
ATOM      7  C   UNL     1      -7.192  11.721  -0.874  1.00  0.00     0.041 C 
ATOM      8  O   UNL     1      -6.743  11.809   0.300  1.00  0.00    -0.550 OA
ATOM      9  O   UNL     1      -7.841  12.807  -1.446  1.00  0.00    -0.550 OA
ENDBRANCH   6   7
ENDBRANCH   5   6
ENDBRANCH   4   5
ENDBRANCH   3   4
ENDBRANCH   2   3
ENDBRANCH   1   2
BRANCH   1  10
ATOM     10  C   UNL     1      -4.400  13.587  -2.480  1.00  0.00     0.027 C 
BRANCH  10  11
ATOM     11  C   UNL     1      -4.657  13.359  -3.946  1.00  0.00    -0.031 C 
ATOM     12  C   UNL     1      -5.666  12.584  -4.372  1.00  0.00    -0.031 C 
BRANCH  12  13
ATOM     13  C   UNL     1      -5.925  12.359  -5.838  1.00  0.00     0.027 C 
BRANCH  13  14
ATOM     14  C   UNL     1      -7.035  11.326  -6.084  1.00  0.00     0.004 C 
BRANCH  14  15
ATOM     15  C   UNL     1      -6.855  10.066  -5.220  1.00  0.00     0.000 C 
BRANCH  15  16
ATOM     16  C   UNL     1      -7.817   8.935  -5.616  1.00  0.00    -0.000 C 
BRANCH  16  17
ATOM     17  C   UNL     1      -7.409   7.578  -5.027  1.00  0.00    -0.003 C 
ATOM     18  C   UNL     1      -5.890   7.441  -4.963  1.00  0.00     0.004 C 
ENDBRANCH  16  17
ENDBRANCH  15  16
ENDBRANCH  14  15
ENDBRANCH  13  14
ENDBRANCH  12  13
ENDBRANCH  10  11
ENDBRANCH   1  10
TORSDOF 13
ENDMDL
MODEL 7
REMARK VINA RESULT:    -4.192      1.876      3.916
REMARK INTER + INTRA:          -9.851
REMARK INTER:                  -8.030
REMARK INTRA:                  -1.821
REMARK UNBOUND:                -2.473
REMARK SMILES CCCCCCC=CCCCCCCCC(=O)[O-]
REMARK SMILES IDX 10 1 11 2 12 3 13 4 14 5 15 6 16 7 17 8 18 9 9 10 8 11 7 12
REMARK SMILES IDX 6 13 5 14 4 15 3 16 2 17 1 18
REMARK H PARENT
REMARK Flexibility Score: inf
ROOT
ATOM      1  C   UNL     1      -5.572  12.708  -4.307  1.00  0.00     0.004 C 
ENDROOT
BRANCH   1   2
ATOM      2  C   UNL     1      -4.365  13.627  -4.065  1.00  0.00     0.000 C 
BRANCH   2   3
ATOM      3  C   UNL     1      -4.015  13.693  -2.573  1.00  0.00     0.000 C 
BRANCH   3   4
ATOM      4  C   UNL     1      -5.232  13.338  -1.707  1.00  0.00     0.000 C 
BRANCH   4   5
ATOM      5  C   UNL     1      -4.891  13.245  -0.208  1.00  0.00     0.006 C 
BRANCH   5   6
ATOM      6  C   UNL     1      -3.534  12.588   0.092  1.00  0.00     0.053 C 
BRANCH   6   7
ATOM      7  C   UNL     1      -3.650  11.500   1.115  1.00  0.00     0.041 C 
ATOM      8  O   UNL     1      -4.497  11.589   2.042  1.00  0.00    -0.550 OA
ATOM      9  O   UNL     1      -2.845  10.372   1.025  1.00  0.00    -0.550 OA
ENDBRANCH   6   7
ENDBRANCH   5   6
ENDBRANCH   4   5
ENDBRANCH   3   4
ENDBRANCH   2   3
ENDBRANCH   1   2
BRANCH   1  10
ATOM     10  C   UNL     1      -6.040  12.740  -5.769  1.00  0.00     0.027 C 
BRANCH  10  11
ATOM     11  C   UNL     1      -6.840  11.520  -6.140  1.00  0.00    -0.031 C 
ATOM     12  C   UNL     1      -6.853  10.424  -5.367  1.00  0.00    -0.031 C 
BRANCH  12  13
ATOM     13  C   UNL     1      -7.656   9.205  -5.738  1.00  0.00     0.027 C 
BRANCH  13  14
ATOM     14  C   UNL     1      -7.222   7.958  -4.954  1.00  0.00     0.004 C 
BRANCH  14  15
ATOM     15  C   UNL     1      -5.830   8.128  -4.320  1.00  0.00     0.000 C 
BRANCH  15  16
ATOM     16  C   UNL     1      -5.868   8.070  -2.785  1.00  0.00    -0.000 C 
BRANCH  16  17
ATOM     17  C   UNL     1      -5.563   9.426  -2.134  1.00  0.00    -0.003 C 
ATOM     18  C   UNL     1      -4.116   9.843  -2.386  1.00  0.00     0.004 C 
ENDBRANCH  16  17
ENDBRANCH  15  16
ENDBRANCH  14  15
ENDBRANCH  13  14
ENDBRANCH  12  13
ENDBRANCH  10  11
ENDBRANCH   1  10
TORSDOF 13
ENDMDL
MODEL 8
REMARK VINA RESULT:    -4.168      2.417      4.365
REMARK INTER + INTRA:          -9.808
REMARK INTER:                  -8.133
REMARK INTRA:                  -1.675
REMARK UNBOUND:                -2.473
REMARK SMILES CCCCCCC=CCCCCCCCC(=O)[O-]
REMARK SMILES IDX 10 1 11 2 12 3 13 4 14 5 15 6 16 7 17 8 18 9 9 10 8 11 7 12
REMARK SMILES IDX 6 13 5 14 4 15 3 16 2 17 1 18
REMARK H PARENT
REMARK Flexibility Score: inf
ROOT
ATOM      1  C   UNL     1      -5.449  12.711  -3.740  1.00  0.00     0.004 C 
ENDROOT
BRANCH   1   2
ATOM      2  C   UNL     1      -4.177  13.567  -3.658  1.00  0.00     0.000 C 
BRANCH   2   3
ATOM      3  C   UNL     1      -3.235  13.049  -2.565  1.00  0.00     0.000 C 
BRANCH   3   4
ATOM      4  C   UNL     1      -3.671  11.660  -2.077  1.00  0.00     0.000 C 
BRANCH   4   5
ATOM      5  C   UNL     1      -3.769  11.570  -0.543  1.00  0.00     0.006 C 
BRANCH   5   6
ATOM      6  C   UNL     1      -3.701  12.927   0.176  1.00  0.00     0.053 C 
BRANCH   6   7
ATOM      7  C   UNL     1      -5.049  13.382   0.648  1.00  0.00     0.041 C 
ATOM      8  O   UNL     1      -5.149  14.107   1.672  1.00  0.00    -0.550 OA
ATOM      9  O   UNL     1      -6.189  13.033  -0.064  1.00  0.00    -0.550 OA
ENDBRANCH   6   7
ENDBRANCH   5   6
ENDBRANCH   4   5
ENDBRANCH   3   4
ENDBRANCH   2   3
ENDBRANCH   1   2
BRANCH   1  10
ATOM     10  C   UNL     1      -5.929  12.523  -5.186  1.00  0.00     0.027 C 
BRANCH  10  11
ATOM     11  C   UNL     1      -6.334  11.102  -5.474  1.00  0.00    -0.031 C 
ATOM     12  C   UNL     1      -5.980  10.091  -4.667  1.00  0.00    -0.031 C 
BRANCH  12  13
ATOM     13  C   UNL     1      -6.389   8.670  -4.954  1.00  0.00     0.027 C 
BRANCH  13  14
ATOM     14  C   UNL     1      -6.272   7.766  -3.718  1.00  0.00     0.004 C 
BRANCH  14  15
ATOM     15  C   UNL     1      -6.294   8.572  -2.408  1.00  0.00     0.000 C 
BRANCH  15  16
ATOM     16  C   UNL     1      -5.094   8.259  -1.500  1.00  0.00    -0.000 C 
BRANCH  16  17
ATOM     17  C   UNL     1      -5.493   8.090  -0.028  1.00  0.00    -0.003 C 
ATOM     18  C   UNL     1      -6.079   6.704   0.227  1.00  0.00     0.004 C 
ENDBRANCH  16  17
ENDBRANCH  15  16
ENDBRANCH  14  15
ENDBRANCH  13  14
ENDBRANCH  12  13
ENDBRANCH  10  11
ENDBRANCH   1  10
TORSDOF 13
ENDMDL
MODEL 9
REMARK VINA RESULT:    -4.155      2.236      3.970
REMARK INTER + INTRA:          -9.785
REMARK INTER:                  -7.449
REMARK INTRA:                  -2.336
REMARK UNBOUND:                -2.473
REMARK SMILES CCCCCCC=CCCCCCCCC(=O)[O-]
REMARK SMILES IDX 10 1 11 2 12 3 13 4 14 5 15 6 16 7 17 8 18 9 9 10 8 11 7 12
REMARK SMILES IDX 6 13 5 14 4 15 3 16 2 17 1 18
REMARK H PARENT
REMARK Flexibility Score: inf
ROOT
ATOM      1  C   UNL     1      -3.367  10.716   0.146  1.00  0.00     0.004 C 
ENDROOT
BRANCH   1   2
ATOM      2  C   UNL     1      -4.653   9.877   0.109  1.00  0.00     0.000 C 
BRANCH   2   3
ATOM      3  C   UNL     1      -4.785   9.131  -1.225  1.00  0.00     0.000 C 
BRANCH   3   4
ATOM      4  C   UNL     1      -6.085   8.317  -1.272  1.00  0.00     0.000 C 
BRANCH   4   5
ATOM      5  C   UNL     1      -6.834   8.465  -2.609  1.00  0.00     0.006 C 
BRANCH   5   6
ATOM      6  C   UNL     1      -5.959   8.239  -3.853  1.00  0.00     0.053 C 
BRANCH   6   7
ATOM      7  C   UNL     1      -6.775   7.897  -5.061  1.00  0.00     0.041 C 
ATOM      8  O   UNL     1      -7.543   8.755  -5.571  1.00  0.00    -0.550 OA
ATOM      9  O   UNL     1      -6.661   6.642  -5.645  1.00  0.00    -0.550 OA
ENDBRANCH   6   7
ENDBRANCH   5   6
ENDBRANCH   4   5
ENDBRANCH   3   4
ENDBRANCH   2   3
ENDBRANCH   1   2
BRANCH   1  10
ATOM     10  C   UNL     1      -3.641  12.177   0.532  1.00  0.00     0.027 C 
BRANCH  10  11
ATOM     11  C   UNL     1      -3.722  13.081  -0.669  1.00  0.00    -0.031 C 
ATOM     12  C   UNL     1      -3.520  12.620  -1.912  1.00  0.00    -0.031 C 
BRANCH  12  13
ATOM     13  C   UNL     1      -3.605  13.524  -3.114  1.00  0.00     0.027 C 
BRANCH  13  14
ATOM     14  C   UNL     1      -4.825  13.215  -3.994  1.00  0.00     0.004 C 
BRANCH  14  15
ATOM     15  C   UNL     1      -5.517  11.903  -3.583  1.00  0.00     0.000 C 
BRANCH  15  16
ATOM     16  C   UNL     1      -6.980  12.114  -3.163  1.00  0.00    -0.000 C 
BRANCH  16  17
ATOM     17  C   UNL     1      -7.180  12.014  -1.644  1.00  0.00    -0.003 C 
ATOM     18  C   UNL     1      -7.348  13.396  -1.020  1.00  0.00     0.004 C 
ENDBRANCH  16  17
ENDBRANCH  15  16
ENDBRANCH  14  15
ENDBRANCH  13  14
ENDBRANCH  12  13
ENDBRANCH  10  11
ENDBRANCH   1  10
TORSDOF 13
ENDMDL
