MODEL 1
REMARK VINA RESULT:    -5.357      0.000      0.000
REMARK INTER + INTRA:          -5.971
REMARK INTER:                  -5.670
REMARK INTRA:                  -0.301
REMARK UNBOUND:                -0.301
REMARK SMILES CC1=CC[C@@]23[C@@H]([C@@H]12)[C@H](C(C)C)CC[C@H]3C
REMARK SMILES IDX 15 1 14 2 13 3 12 4 8 5 6 6 5 7 7 8 2 9 3 10 4 11 1 12 9 13
REMARK SMILES IDX 10 14 11 15
REMARK H PARENT
REMARK Flexibility Score: inf
ROOT
ATOM      1  C   UNL     1     140.384 136.456 133.310  1.00  0.00     0.008 C 
ATOM      2  C   UNL     1     140.563 135.695 134.632  1.00  0.00    -0.007 C 
ATOM      3  C   UNL     1     139.885 134.318 134.541  1.00  0.00     0.004 C 
ATOM      4  C   UNL     1     139.807 133.639 135.907  1.00  0.00     0.004 C 
ATOM      5  C   UNL     1     138.842 134.404 136.836  1.00  0.00    -0.004 C 
ATOM      6  C   UNL     1     139.299 135.881 136.984  1.00  0.00     0.007 C 
ATOM      7  C   UNL     1     140.098 136.541 135.848  1.00  0.00    -0.013 C 
ATOM      8  C   UNL     1     138.609 136.837 135.999  1.00  0.00     0.025 C 
ATOM      9  C   UNL     1     138.574 138.275 136.398  1.00  0.00    -0.073 C 
ATOM     10  C   UNL     1     139.783 138.813 136.502  1.00  0.00    -0.027 C 
ATOM     11  C   UNL     1     140.860 137.823 136.220  1.00  0.00     0.035 C 
ATOM     12  C   UNL     1     137.309 139.028 136.664  1.00  0.00     0.039 C 
ENDROOT
BRANCH   5  13
ATOM     13  C   UNL     1     138.713 133.744 138.246  1.00  0.00    -0.014 C 
ATOM     14  C   UNL     1     138.792 134.806 139.360  1.00  0.00     0.007 C 
ATOM     15  C   UNL     1     137.407 132.949 138.420  1.00  0.00     0.007 C 
ENDBRANCH   5  13
TORSDOF 1
ENDMDL
MODEL 2
REMARK VINA RESULT:    -5.351      4.809      7.323
REMARK INTER + INTRA:          -5.964
REMARK INTER:                  -5.662
REMARK INTRA:                  -0.303
REMARK UNBOUND:                -0.301
REMARK SMILES CC1=CC[C@@]23[C@@H]([C@@H]12)[C@H](C(C)C)CC[C@H]3C
REMARK SMILES IDX 15 1 14 2 13 3 12 4 8 5 6 6 5 7 7 8 2 9 3 10 4 11 1 12 9 13
REMARK SMILES IDX 10 14 11 15
REMARK H PARENT
REMARK Flexibility Score: inf
ROOT
ATOM      1  C   UNL     1     132.230 136.070 133.346  1.00  0.00     0.008 C 
ATOM      2  C   UNL     1     132.055 136.845 134.661  1.00  0.00    -0.007 C 
ATOM      3  C   UNL     1     132.701 138.235 134.542  1.00  0.00     0.004 C 
ATOM      4  C   UNL     1     132.785 138.933 135.897  1.00  0.00     0.004 C 
ATOM      5  C   UNL     1     133.781 138.202 136.821  1.00  0.00    -0.004 C 
ATOM      6  C   UNL     1     133.360 136.717 136.994  1.00  0.00     0.007 C 
ATOM      7  C   UNL     1     132.559 136.026 135.880  1.00  0.00    -0.013 C 
ATOM      8  C   UNL     1     134.055 135.764 136.011  1.00  0.00     0.025 C 
ATOM      9  C   UNL     1     134.129 134.333 136.428  1.00  0.00    -0.073 C 
ATOM     10  C   UNL     1     132.934 133.769 136.558  1.00  0.00    -0.027 C 
ATOM     11  C   UNL     1     131.831 134.731 136.281  1.00  0.00     0.035 C 
ATOM     12  C   UNL     1     135.415 133.611 136.683  1.00  0.00     0.039 C 
ENDROOT
BRANCH   5  13
ATOM     13  C   UNL     1     133.918 138.883 138.219  1.00  0.00    -0.014 C 
ATOM     14  C   UNL     1     133.814 137.842 139.351  1.00  0.00     0.007 C 
ATOM     15  C   UNL     1     135.239 139.656 138.386  1.00  0.00     0.007 C 
ENDBRANCH   5  13
TORSDOF 1
ENDMDL
MODEL 3
REMARK VINA RESULT:    -5.341      3.293      5.109
REMARK INTER + INTRA:          -5.954
REMARK INTER:                  -5.650
REMARK INTRA:                  -0.304
REMARK UNBOUND:                -0.301
REMARK SMILES CC1=CC[C@@]23[C@@H]([C@@H]12)[C@H](C(C)C)CC[C@H]3C
REMARK SMILES IDX 15 1 14 2 13 3 12 4 8 5 6 6 5 7 7 8 2 9 3 10 4 11 1 12 9 13
REMARK SMILES IDX 10 14 11 15
REMARK H PARENT
REMARK Flexibility Score: inf
ROOT
ATOM      1  C   UNL     1     136.616 132.247 133.327  1.00  0.00     0.008 C 
ATOM      2  C   UNL     1     135.833 132.065 134.636  1.00  0.00    -0.007 C 
ATOM      3  C   UNL     1     134.439 132.701 134.507  1.00  0.00     0.004 C 
ATOM      4  C   UNL     1     133.731 132.778 135.857  1.00  0.00     0.004 C 
ATOM      5  C   UNL     1     134.448 133.778 136.788  1.00  0.00    -0.004 C 
ATOM      6  C   UNL     1     135.934 133.367 136.972  1.00  0.00     0.007 C 
ATOM      7  C   UNL     1     136.640 132.572 135.862  1.00  0.00    -0.013 C 
ATOM      8  C   UNL     1     136.890 134.070 135.996  1.00  0.00     0.025 C 
ATOM      9  C   UNL     1     138.317 134.154 136.424  1.00  0.00    -0.073 C 
ATOM     10  C   UNL     1     138.888 132.962 136.556  1.00  0.00    -0.027 C 
ATOM     11  C   UNL     1     137.936 131.853 136.271  1.00  0.00     0.035 C 
ATOM     12  C   UNL     1     139.028 135.444 136.686  1.00  0.00     0.039 C 
ENDROOT
BRANCH   5  13
ATOM     13  C   UNL     1     133.755 133.907 138.182  1.00  0.00    -0.014 C 
ATOM     14  C   UNL     1     134.780 133.749 139.322  1.00  0.00     0.007 C 
ATOM     15  C   UNL     1     133.022 135.248 138.367  1.00  0.00     0.007 C 
ENDBRANCH   5  13
TORSDOF 1
ENDMDL
MODEL 4
REMARK VINA RESULT:    -5.313      3.405      5.252
REMARK INTER + INTRA:          -5.924
REMARK INTER:                  -5.627
REMARK INTRA:                  -0.298
REMARK UNBOUND:                -0.301
REMARK SMILES CC1=CC[C@@]23[C@@H]([C@@H]12)[C@H](C(C)C)CC[C@H]3C
REMARK SMILES IDX 15 1 14 2 13 3 12 4 8 5 6 6 5 7 7 8 2 9 3 10 4 11 1 12 9 13
REMARK SMILES IDX 10 14 11 15
REMARK H PARENT
REMARK Flexibility Score: inf
ROOT
ATOM      1  C   UNL     1     136.156 140.405 133.222  1.00  0.00     0.008 C 
ATOM      2  C   UNL     1     136.899 140.601 134.551  1.00  0.00    -0.007 C 
ATOM      3  C   UNL     1     138.278 139.923 134.488  1.00  0.00     0.004 C 
ATOM      4  C   UNL     1     138.938 139.863 135.863  1.00  0.00     0.004 C 
ATOM      5  C   UNL     1     138.161 138.908 136.793  1.00  0.00    -0.004 C 
ATOM      6  C   UNL     1     136.682 139.364 136.915  1.00  0.00     0.007 C 
ATOM      7  C   UNL     1     136.037 140.149 135.762  1.00  0.00    -0.013 C 
ATOM      8  C   UNL     1     135.741 138.662 135.926  1.00  0.00     0.025 C 
ATOM      9  C   UNL     1     134.298 138.629 136.306  1.00  0.00    -0.073 C 
ATOM     10  C   UNL     1     133.756 139.839 136.388  1.00  0.00    -0.027 C 
ATOM     11  C   UNL     1     134.749 140.914 136.107  1.00  0.00     0.035 C 
ATOM     12  C   UNL     1     133.542 137.367 136.576  1.00  0.00     0.039 C 
ENDROOT
BRANCH   5  13
ATOM     13  C   UNL     1     138.803 138.797 138.213  1.00  0.00    -0.014 C 
ATOM     14  C   UNL     1     137.717 138.774 139.307  1.00  0.00     0.007 C 
ATOM     15  C   UNL     1     139.688 137.548 138.377  1.00  0.00     0.007 C 
ENDBRANCH   5  13
TORSDOF 1
ENDMDL
MODEL 5
REMARK VINA RESULT:    -5.159      0.865      1.031
REMARK INTER + INTRA:          -5.762
REMARK INTER:                  -5.480
REMARK INTRA:                  -0.282
REMARK UNBOUND:                -0.301
REMARK SMILES CC1=CC[C@@]23[C@@H]([C@@H]12)[C@H](C(C)C)CC[C@H]3C
REMARK SMILES IDX 15 1 14 2 13 3 12 4 8 5 6 6 5 7 7 8 2 9 3 10 4 11 1 12 9 13
REMARK SMILES IDX 10 14 11 15
REMARK H PARENT
REMARK Flexibility Score: inf
ROOT
ATOM      1  C   UNL     1     140.111 137.491 133.028  1.00  0.00     0.008 C 
ATOM      2  C   UNL     1     140.417 136.350 134.010  1.00  0.00    -0.007 C 
ATOM      3  C   UNL     1     139.758 135.048 133.525  1.00  0.00     0.004 C 
ATOM      4  C   UNL     1     139.811 133.960 134.594  1.00  0.00     0.004 C 
ATOM      5  C   UNL     1     138.916 134.337 135.793  1.00  0.00    -0.004 C 
ATOM      6  C   UNL     1     139.356 135.705 136.381  1.00  0.00     0.007 C 
ATOM      7  C   UNL     1     140.043 136.733 135.468  1.00  0.00    -0.013 C 
ATOM      8  C   UNL     1     138.568 136.896 135.819  1.00  0.00     0.025 C 
ATOM      9  C   UNL     1     138.541 138.123 136.668  1.00  0.00    -0.073 C 
ATOM     10  C   UNL     1     139.745 138.653 136.851  1.00  0.00    -0.027 C 
ATOM     11  C   UNL     1     140.811 137.858 136.181  1.00  0.00     0.035 C 
ATOM     12  C   UNL     1     137.290 138.692 137.261  1.00  0.00     0.039 C 
ENDROOT
BRANCH   5  13
ATOM     13  C   UNL     1     138.920 133.249 136.914  1.00  0.00    -0.014 C 
ATOM     14  C   UNL     1     138.641 133.879 138.293  1.00  0.00     0.007 C 
ATOM     15  C   UNL     1     137.891 132.130 136.670  1.00  0.00     0.007 C 
ENDBRANCH   5  13
TORSDOF 1
ENDMDL
MODEL 6
REMARK VINA RESULT:    -4.983      2.959      5.312
REMARK INTER + INTRA:          -5.576
REMARK INTER:                  -5.265
REMARK INTRA:                  -0.311
REMARK UNBOUND:                -0.301
REMARK SMILES CC1=CC[C@@]23[C@@H]([C@@H]12)[C@H](C(C)C)CC[C@H]3C
REMARK SMILES IDX 15 1 14 2 13 3 12 4 8 5 6 6 5 7 7 8 2 9 3 10 4 11 1 12 9 13
REMARK SMILES IDX 10 14 11 15
REMARK H PARENT
REMARK Flexibility Score: inf
ROOT
ATOM      1  C   UNL     1     139.611 137.511 138.776  1.00  0.00     0.008 C 
ATOM      2  C   UNL     1     138.560 138.622 138.636  1.00  0.00    -0.007 C 
ATOM      3  C   UNL     1     137.272 138.224 139.377  1.00  0.00     0.004 C 
ATOM      4  C   UNL     1     136.119 139.168 139.047  1.00  0.00     0.004 C 
ATOM      5  C   UNL     1     135.695 139.008 137.572  1.00  0.00    -0.004 C 
ATOM      6  C   UNL     1     136.906 139.272 136.635  1.00  0.00     0.007 C 
ATOM      7  C   UNL     1     138.329 139.010 137.150  1.00  0.00    -0.013 C 
ATOM      8  C   UNL     1     137.658 137.995 136.231  1.00  0.00     0.025 C 
ATOM      9  C   UNL     1     138.456 138.076 134.973  1.00  0.00    -0.073 C 
ATOM     10  C   UNL     1     139.440 138.966 135.040  1.00  0.00    -0.027 C 
ATOM     11  C   UNL     1     139.465 139.671 136.351  1.00  0.00     0.035 C 
ATOM     12  C   UNL     1     138.171 137.250 133.758  1.00  0.00     0.039 C 
ENDROOT
BRANCH   5  13
ATOM     13  C   UNL     1     134.507 139.943 137.182  1.00  0.00    -0.014 C 
ATOM     14  C   UNL     1     134.929 140.941 136.086  1.00  0.00     0.007 C 
ATOM     15  C   UNL     1     133.270 139.169 136.689  1.00  0.00     0.007 C 
ENDBRANCH   5  13
TORSDOF 1
ENDMDL
MODEL 7
REMARK VINA RESULT:    -4.968      1.393      4.732
REMARK INTER + INTRA:          -5.559
REMARK INTER:                  -5.248
REMARK INTRA:                  -0.312
REMARK UNBOUND:                -0.301
REMARK SMILES CC1=CC[C@@]23[C@@H]([C@@H]12)[C@H](C(C)C)CC[C@H]3C
REMARK SMILES IDX 15 1 14 2 13 3 12 4 8 5 6 6 5 7 7 8 2 9 3 10 4 11 1 12 9 13
REMARK SMILES IDX 10 14 11 15
REMARK H PARENT
REMARK Flexibility Score: inf
ROOT
ATOM      1  C   UNL     1     137.519 133.001 138.770  1.00  0.00     0.008 C 
ATOM      2  C   UNL     1     138.613 134.069 138.621  1.00  0.00    -0.007 C 
ATOM      3  C   UNL     1     138.197 135.354 139.357  1.00  0.00     0.004 C 
ATOM      4  C   UNL     1     139.121 136.520 139.017  1.00  0.00     0.004 C 
ATOM      5  C   UNL     1     138.950 136.934 137.540  1.00  0.00    -0.004 C 
ATOM      6  C   UNL     1     139.229 135.723 136.609  1.00  0.00     0.007 C 
ATOM      7  C   UNL     1     138.992 134.298 137.133  1.00  0.00    -0.013 C 
ATOM      8  C   UNL     1     137.964 134.948 136.214  1.00  0.00     0.025 C 
ATOM      9  C   UNL     1     138.053 134.145 134.959  1.00  0.00    -0.073 C 
ATOM     10  C   UNL     1     138.958 133.175 135.028  1.00  0.00    -0.027 C 
ATOM     11  C   UNL     1     139.668 133.168 136.337  1.00  0.00     0.035 C 
ATOM     12  C   UNL     1     137.219 134.410 133.746  1.00  0.00     0.039 C 
ENDROOT
BRANCH   5  13
ATOM     13  C   UNL     1     139.864 138.135 137.141  1.00  0.00    -0.014 C 
ATOM     14  C   UNL     1     140.957 137.689 136.150  1.00  0.00     0.007 C 
ATOM     15  C   UNL     1     139.082 139.303 136.513  1.00  0.00     0.007 C 
ENDBRANCH   5  13
TORSDOF 1
ENDMDL
MODEL 8
REMARK VINA RESULT:    -4.881      5.330      6.249
REMARK INTER + INTRA:          -5.467
REMARK INTER:                  -5.189
REMARK INTRA:                  -0.278
REMARK UNBOUND:                -0.301
REMARK SMILES CC1=CC[C@@]23[C@@H]([C@@H]12)[C@H](C(C)C)CC[C@H]3C
REMARK SMILES IDX 15 1 14 2 13 3 12 4 8 5 6 6 5 7 7 8 2 9 3 10 4 11 1 12 9 13
REMARK SMILES IDX 10 14 11 15
REMARK H PARENT
REMARK Flexibility Score: inf
ROOT
ATOM      1  C   UNL     1     134.852 140.883 136.368  1.00  0.00     0.008 C 
ATOM      2  C   UNL     1     134.943 139.355 136.253  1.00  0.00    -0.007 C 
ATOM      3  C   UNL     1     133.834 138.831 135.325  1.00  0.00     0.004 C 
ATOM      4  C   UNL     1     133.721 137.309 135.389  1.00  0.00     0.004 C 
ATOM      5  C   UNL     1     133.209 136.864 136.774  1.00  0.00    -0.004 C 
ATOM      6  C   UNL     1     134.152 137.391 137.889  1.00  0.00     0.007 C 
ATOM      7  C   UNL     1     134.963 138.674 137.648  1.00  0.00    -0.013 C 
ATOM      8  C   UNL     1     133.697 138.725 138.498  1.00  0.00     0.025 C 
ATOM      9  C   UNL     1     134.204 139.026 139.869  1.00  0.00    -0.073 C 
ATOM     10  C   UNL     1     135.527 139.139 139.919  1.00  0.00    -0.027 C 
ATOM     11  C   UNL     1     136.157 138.902 138.590  1.00  0.00     0.035 C 
ATOM     12  C   UNL     1     133.317 139.176 141.064  1.00  0.00     0.039 C 
ENDROOT
BRANCH   5  13
ATOM     13  C   UNL     1     133.060 135.313 136.891  1.00  0.00    -0.014 C 
ATOM     14  C   UNL     1     133.166 134.860 138.360  1.00  0.00     0.007 C 
ATOM     15  C   UNL     1     131.732 134.791 136.313  1.00  0.00     0.007 C 
ENDBRANCH   5  13
TORSDOF 1
ENDMDL
MODEL 9
REMARK VINA RESULT:    -4.837      2.671      5.599
REMARK INTER + INTRA:          -5.421
REMARK INTER:                  -5.209
REMARK INTRA:                  -0.212
REMARK UNBOUND:                -0.301
REMARK SMILES CC1=CC[C@@]23[C@@H]([C@@H]12)[C@H](C(C)C)CC[C@H]3C
REMARK SMILES IDX 15 1 14 2 13 3 12 4 8 5 6 6 5 7 7 8 2 9 3 10 4 11 1 12 9 13
REMARK SMILES IDX 10 14 11 15
REMARK H PARENT
REMARK Flexibility Score: inf
ROOT
ATOM      1  C   UNL     1     140.891 137.876 136.368  1.00  0.00     0.008 C 
ATOM      2  C   UNL     1     140.168 138.680 135.278  1.00  0.00    -0.007 C 
ATOM      3  C   UNL     1     139.126 139.614 135.917  1.00  0.00     0.004 C 
ATOM      4  C   UNL     1     138.207 140.233 134.867  1.00  0.00     0.004 C 
ATOM      5  C   UNL     1     137.311 139.151 134.228  1.00  0.00    -0.004 C 
ATOM      6  C   UNL     1     138.186 138.033 133.600  1.00  0.00     0.007 C 
ATOM      7  C   UNL     1     139.584 137.757 134.175  1.00  0.00    -0.013 C 
ATOM      8  C   UNL     1     138.421 136.839 134.537  1.00  0.00     0.025 C 
ATOM      9  C   UNL     1     138.771 135.547 133.877  1.00  0.00    -0.073 C 
ATOM     10  C   UNL     1     139.917 135.601 133.209  1.00  0.00    -0.027 C 
ATOM     11  C   UNL     1     140.536 136.955 133.271  1.00  0.00     0.035 C 
ATOM     12  C   UNL     1     137.915 134.322 133.951  1.00  0.00     0.039 C 
ENDROOT
BRANCH   5  13
ATOM     13  C   UNL     1     136.338 139.733 133.153  1.00  0.00    -0.014 C 
ATOM     14  C   UNL     1     134.957 140.035 133.767  1.00  0.00     0.007 C 
ATOM     15  C   UNL     1     136.871 141.018 132.492  1.00  0.00     0.007 C 
ENDBRANCH   5  13
TORSDOF 1
ENDMDL
