MODEL 1
REMARK VINA RESULT:    -3.986      0.000      0.000
REMARK INTER + INTRA:          -6.796
REMARK INTER:                  -6.083
REMARK INTRA:                  -0.713
REMARK UNBOUND:                -0.713
REMARK SMILES O=C([O-])CCCCCCCCC(=O)[O-]
REMARK SMILES IDX 7 1 6 2 5 3 4 4 2 5 1 6 3 7 8 8 9 9 10 10 11 11 12 12 13 13
REMARK SMILES IDX 14 14
REMARK H PARENT
REMARK Flexibility Score: inf
ROOT
ATOM      1  C   UNL     1       4.588  27.712  56.327  1.00  0.00     0.000 C 
ENDROOT
BRANCH   1   2
ATOM      2  C   UNL     1       5.596  28.857  56.100  1.00  0.00     0.000 C 
BRANCH   2   3
ATOM      3  C   UNL     1       5.433  29.618  54.769  1.00  0.00     0.006 C 
BRANCH   3   4
ATOM      4  C   UNL     1       4.193  29.216  53.956  1.00  0.00     0.053 C 
BRANCH   4   5
ATOM      5  C   UNL     1       3.999  30.095  52.759  1.00  0.00     0.041 C 
ATOM      6  O   UNL     1       4.152  29.629  51.600  1.00  0.00    -0.550 OA
ATOM      7  O   UNL     1       3.617  31.421  52.924  1.00  0.00    -0.550 OA
ENDBRANCH   4   5
ENDBRANCH   3   4
ENDBRANCH   2   3
ENDBRANCH   1   2
BRANCH   1   8
ATOM      8  C   UNL     1       4.244  27.428  57.800  1.00  0.00     0.000 C 
BRANCH   8   9
ATOM      9  C   UNL     1       2.745  27.570  58.101  1.00  0.00     0.000 C 
BRANCH   9  10
ATOM     10  C   UNL     1       2.178  28.848  57.469  1.00  0.00     0.006 C 
BRANCH  10  11
ATOM     11  C   UNL     1       0.740  28.631  56.987  1.00  0.00     0.053 C 
BRANCH  11  12
ATOM     12  C   UNL     1       0.679  28.655  55.493  1.00  0.00     0.041 C 
ATOM     13  O   UNL     1       0.560  27.582  54.846  1.00  0.00    -0.550 OA
ATOM     14  O   UNL     1       0.805  29.859  54.812  1.00  0.00    -0.550 OA
ENDBRANCH  11  12
ENDBRANCH  10  11
ENDBRANCH   9  10
ENDBRANCH   8   9
ENDBRANCH   1   8
TORSDOF 9
ENDMDL
MODEL 2
REMARK VINA RESULT:    -3.927      1.172      4.490
REMARK INTER + INTRA:          -6.706
REMARK INTER:                  -5.912
REMARK INTRA:                  -0.795
REMARK UNBOUND:                -0.713
REMARK SMILES O=C([O-])CCCCCCCCC(=O)[O-]
REMARK SMILES IDX 7 1 6 2 5 3 4 4 2 5 1 6 3 7 8 8 9 9 10 10 11 11 12 12 13 13
REMARK SMILES IDX 14 14
REMARK H PARENT
REMARK Flexibility Score: inf
ROOT
ATOM      1  C   UNL     1       4.120  27.663  57.138  1.00  0.00     0.000 C 
ENDROOT
BRANCH   1   2
ATOM      2  C   UNL     1       2.782  27.828  57.888  1.00  0.00     0.000 C 
BRANCH   2   3
ATOM      3  C   UNL     1       1.859  28.936  57.345  1.00  0.00     0.006 C 
BRANCH   3   4
ATOM      4  C   UNL     1       1.015  28.520  56.130  1.00  0.00     0.053 C 
BRANCH   4   5
ATOM      5  C   UNL     1      -0.129  29.458  55.896  1.00  0.00     0.041 C 
ATOM      6  O   UNL     1      -0.413  29.830  54.727  1.00  0.00    -0.550 OA
ATOM      7  O   UNL     1      -0.901  29.895  56.965  1.00  0.00    -0.550 OA
ENDBRANCH   4   5
ENDBRANCH   3   4
ENDBRANCH   2   3
ENDBRANCH   1   2
BRANCH   1   8
ATOM      8  C   UNL     1       4.929  28.959  56.953  1.00  0.00     0.000 C 
BRANCH   8   9
ATOM      9  C   UNL     1       5.328  29.209  55.492  1.00  0.00     0.000 C 
BRANCH   9  10
ATOM     10  C   UNL     1       4.348  28.524  54.531  1.00  0.00     0.006 C 
BRANCH  10  11
ATOM     11  C   UNL     1       3.715  29.540  53.575  1.00  0.00     0.053 C 
BRANCH  11  12
ATOM     12  C   UNL     1       4.477  29.595  52.289  1.00  0.00     0.041 C 
ATOM     13  O   UNL     1       4.164  28.838  51.334  1.00  0.00    -0.550 OA
ATOM     14  O   UNL     1       5.567  30.448  52.163  1.00  0.00    -0.550 OA
ENDBRANCH  11  12
ENDBRANCH  10  11
ENDBRANCH   9  10
ENDBRANCH   8   9
ENDBRANCH   1   8
TORSDOF 9
ENDMDL
MODEL 3
REMARK VINA RESULT:    -3.783      1.618      4.827
REMARK INTER + INTRA:          -6.486
REMARK INTER:                  -5.868
REMARK INTRA:                  -0.618
REMARK UNBOUND:                -0.713
REMARK SMILES O=C([O-])CCCCCCCCC(=O)[O-]
REMARK SMILES IDX 7 1 6 2 5 3 4 4 2 5 1 6 3 7 8 8 9 9 10 10 11 11 12 12 13 13
REMARK SMILES IDX 14 14
REMARK H PARENT
REMARK Flexibility Score: inf
ROOT
ATOM      1  C   UNL     1       4.408  28.054  55.966  1.00  0.00     0.000 C 
ENDROOT
BRANCH   1   2
ATOM      2  C   UNL     1       3.753  28.492  57.293  1.00  0.00     0.000 C 
BRANCH   2   3
ATOM      3  C   UNL     1       2.273  28.094  57.455  1.00  0.00     0.006 C 
BRANCH   3   4
ATOM      4  C   UNL     1       1.274  29.164  56.990  1.00  0.00     0.053 C 
BRANCH   4   5
ATOM      5  C   UNL     1       0.927  29.014  55.541  1.00  0.00     0.041 C 
ATOM      6  O   UNL     1       0.907  27.873  55.009  1.00  0.00    -0.550 OA
ATOM      7  O   UNL     1       0.592  30.131  54.786  1.00  0.00    -0.550 OA
ENDBRANCH   4   5
ENDBRANCH   3   4
ENDBRANCH   2   3
ENDBRANCH   1   2
BRANCH   1   8
ATOM      8  C   UNL     1       5.023  29.193  55.134  1.00  0.00     0.000 C 
BRANCH   8   9
ATOM      9  C   UNL     1       4.212  29.515  53.871  1.00  0.00     0.000 C 
BRANCH   9  10
ATOM     10  C   UNL     1       4.290  28.363  52.861  1.00  0.00     0.006 C 
BRANCH  10  11
ATOM     11  C   UNL     1       4.909  28.831  51.541  1.00  0.00     0.053 C 
BRANCH  11  12
ATOM     12  C   UNL     1       4.430  27.980  50.407  1.00  0.00     0.041 C 
ATOM     13  O   UNL     1       4.758  26.767  50.343  1.00  0.00    -0.550 OA
ATOM     14  O   UNL     1       3.662  28.541  49.394  1.00  0.00    -0.550 OA
ENDBRANCH  11  12
ENDBRANCH  10  11
ENDBRANCH   9  10
ENDBRANCH   8   9
ENDBRANCH   1   8
TORSDOF 9
ENDMDL
MODEL 4
REMARK VINA RESULT:    -3.714      1.503      2.066
REMARK INTER + INTRA:          -6.381
REMARK INTER:                  -5.872
REMARK INTRA:                  -0.508
REMARK UNBOUND:                -0.713
REMARK SMILES O=C([O-])CCCCCCCCC(=O)[O-]
REMARK SMILES IDX 7 1 6 2 5 3 4 4 2 5 1 6 3 7 8 8 9 9 10 10 11 11 12 12 13 13
REMARK SMILES IDX 14 14
REMARK H PARENT
REMARK Flexibility Score: inf
ROOT
ATOM      1  C   UNL     1       3.818  28.083  55.310  1.00  0.00     0.000 C 
ENDROOT
BRANCH   1   2
ATOM      2  C   UNL     1       4.558  29.040  54.353  1.00  0.00     0.000 C 
BRANCH   2   3
ATOM      3  C   UNL     1       3.971  29.127  52.930  1.00  0.00     0.006 C 
BRANCH   3   4
ATOM      4  C   UNL     1       4.887  28.567  51.830  1.00  0.00     0.053 C 
BRANCH   4   5
ATOM      5  C   UNL     1       4.379  28.893  50.460  1.00  0.00     0.041 C 
ATOM      6  O   UNL     1       4.474  30.066  50.012  1.00  0.00    -0.550 OA
ATOM      7  O   UNL     1       3.832  27.895  49.664  1.00  0.00    -0.550 OA
ENDBRANCH   4   5
ENDBRANCH   3   4
ENDBRANCH   2   3
ENDBRANCH   1   2
BRANCH   1   8
ATOM      8  C   UNL     1       3.878  28.473  56.798  1.00  0.00     0.000 C 
BRANCH   8   9
ATOM      9  C   UNL     1       2.592  28.118  57.559  1.00  0.00     0.000 C 
BRANCH   9  10
ATOM     10  C   UNL     1       1.451  29.070  57.180  1.00  0.00     0.006 C 
BRANCH  10  11
ATOM     11  C   UNL     1       0.442  28.379  56.257  1.00  0.00     0.053 C 
BRANCH  11  12
ATOM     12  C   UNL     1       0.137  29.242  55.075  1.00  0.00     0.041 C 
ATOM     13  O   UNL     1      -0.933  29.084  54.433  1.00  0.00    -0.550 OA
ATOM     14  O   UNL     1       1.061  30.190  54.650  1.00  0.00    -0.550 OA
ENDBRANCH  11  12
ENDBRANCH  10  11
ENDBRANCH   9  10
ENDBRANCH   8   9
ENDBRANCH   1   8
TORSDOF 9
ENDMDL
MODEL 5
REMARK VINA RESULT:    -3.601      2.642      3.808
REMARK INTER + INTRA:          -6.208
REMARK INTER:                  -5.687
REMARK INTRA:                  -0.521
REMARK UNBOUND:                -0.713
REMARK SMILES O=C([O-])CCCCCCCCC(=O)[O-]
REMARK SMILES IDX 7 1 6 2 5 3 4 4 2 5 1 6 3 7 8 8 9 9 10 10 11 11 12 12 13 13
REMARK SMILES IDX 14 14
REMARK H PARENT
REMARK Flexibility Score: inf
ROOT
ATOM      1  C   UNL     1       4.230  28.558  53.113  1.00  0.00     0.000 C 
ENDROOT
BRANCH   1   2
ATOM      2  C   UNL     1       4.559  28.877  51.640  1.00  0.00     0.000 C 
BRANCH   2   3
ATOM      3  C   UNL     1       5.651  27.993  51.007  1.00  0.00     0.006 C 
BRANCH   3   4
ATOM      4  C   UNL     1       5.440  27.694  49.514  1.00  0.00     0.053 C 
BRANCH   4   5
ATOM      5  C   UNL     1       4.130  27.016  49.258  1.00  0.00     0.041 C 
ATOM      6  O   UNL     1       3.981  25.798  49.542  1.00  0.00    -0.550 OA
ATOM      7  O   UNL     1       3.063  27.737  48.737  1.00  0.00    -0.550 OA
ENDBRANCH   4   5
ENDBRANCH   3   4
ENDBRANCH   2   3
ENDBRANCH   1   2
BRANCH   1   8
ATOM      8  C   UNL     1       4.774  29.569  54.137  1.00  0.00     0.000 C 
BRANCH   8   9
ATOM      9  C   UNL     1       5.068  28.934  55.504  1.00  0.00     0.000 C 
BRANCH   9  10
ATOM     10  C   UNL     1       4.014  27.877  55.855  1.00  0.00     0.006 C 
BRANCH  10  11
ATOM     11  C   UNL     1       3.093  28.370  56.975  1.00  0.00     0.053 C 
BRANCH  11  12
ATOM     12  C   UNL     1       1.710  28.601  56.452  1.00  0.00     0.041 C 
ATOM     13  O   UNL     1       0.853  29.186  57.163  1.00  0.00    -0.550 OA
ATOM     14  O   UNL     1       1.354  28.123  55.196  1.00  0.00    -0.550 OA
ENDBRANCH  11  12
ENDBRANCH  10  11
ENDBRANCH   9  10
ENDBRANCH   8   9
ENDBRANCH   1   8
TORSDOF 9
ENDMDL
MODEL 6
REMARK VINA RESULT:    -3.557      1.444      4.653
REMARK INTER + INTRA:          -6.142
REMARK INTER:                  -5.516
REMARK INTRA:                  -0.626
REMARK UNBOUND:                -0.713
REMARK SMILES O=C([O-])CCCCCCCCC(=O)[O-]
REMARK SMILES IDX 7 1 6 2 5 3 4 4 2 5 1 6 3 7 8 8 9 9 10 10 11 11 12 12 13 13
REMARK SMILES IDX 14 14
REMARK H PARENT
REMARK Flexibility Score: inf
ROOT
ATOM      1  C   UNL     1       4.423  28.045  55.835  1.00  0.00     0.000 C 
ENDROOT
BRANCH   1   2
ATOM      2  C   UNL     1       3.818  28.520  57.173  1.00  0.00     0.000 C 
BRANCH   2   3
ATOM      3  C   UNL     1       2.353  28.106  57.413  1.00  0.00     0.006 C 
BRANCH   3   4
ATOM      4  C   UNL     1       1.319  29.170  57.013  1.00  0.00     0.053 C 
BRANCH   4   5
ATOM      5  C   UNL     1       0.871  29.008  55.592  1.00  0.00     0.041 C 
ATOM      6  O   UNL     1       0.944  27.885  55.029  1.00  0.00    -0.550 OA
ATOM      7  O   UNL     1       0.342  30.092  54.903  1.00  0.00    -0.550 OA
ENDBRANCH   4   5
ENDBRANCH   3   4
ENDBRANCH   2   3
ENDBRANCH   1   2
BRANCH   1   8
ATOM      8  C   UNL     1       4.901  29.169  54.899  1.00  0.00     0.000 C 
BRANCH   8   9
ATOM      9  C   UNL     1       3.966  29.383  53.700  1.00  0.00     0.000 C 
BRANCH   9  10
ATOM     10  C   UNL     1       4.246  30.729  53.020  1.00  0.00     0.006 C 
BRANCH  10  11
ATOM     11  C   UNL     1       2.944  31.489  52.750  1.00  0.00     0.053 C 
BRANCH  11  12
ATOM     12  C   UNL     1       3.006  32.178  51.423  1.00  0.00     0.041 C 
ATOM     13  O   UNL     1       2.897  31.514  50.359  1.00  0.00    -0.550 OA
ATOM     14  O   UNL     1       3.234  33.547  51.360  1.00  0.00    -0.550 OA
ENDBRANCH  11  12
ENDBRANCH  10  11
ENDBRANCH   9  10
ENDBRANCH   8   9
ENDBRANCH   1   8
TORSDOF 9
ENDMDL
MODEL 7
REMARK VINA RESULT:    -3.526      3.230      6.159
REMARK INTER + INTRA:          -6.093
REMARK INTER:                  -5.712
REMARK INTRA:                  -0.382
REMARK UNBOUND:                -0.713
REMARK SMILES O=C([O-])CCCCCCCCC(=O)[O-]
REMARK SMILES IDX 7 1 6 2 5 3 4 4 2 5 1 6 3 7 8 8 9 9 10 10 11 11 12 12 13 13
REMARK SMILES IDX 14 14
REMARK H PARENT
REMARK Flexibility Score: inf
ROOT
ATOM      1  C   UNL     1       3.595  28.525  54.117  1.00  0.00     0.000 C 
ENDROOT
BRANCH   1   2
ATOM      2  C   UNL     1       2.235  28.782  54.801  1.00  0.00     0.000 C 
BRANCH   2   3
ATOM      3  C   UNL     1       2.132  28.293  56.259  1.00  0.00     0.006 C 
BRANCH   3   4
ATOM      4  C   UNL     1       3.334  28.669  57.140  1.00  0.00     0.053 C 
BRANCH   4   5
ATOM      5  C   UNL     1       4.000  27.461  57.723  1.00  0.00     0.041 C 
ATOM      6  O   UNL     1       5.109  27.071  57.275  1.00  0.00    -0.550 OA
ATOM      7  O   UNL     1       3.411  26.786  58.785  1.00  0.00    -0.550 OA
ENDBRANCH   4   5
ENDBRANCH   3   4
ENDBRANCH   2   3
ENDBRANCH   1   2
BRANCH   1   8
ATOM      8  C   UNL     1       4.098  29.666  53.216  1.00  0.00     0.000 C 
BRANCH   8   9
ATOM      9  C   UNL     1       5.073  29.184  52.132  1.00  0.00     0.000 C 
BRANCH   9  10
ATOM     10  C   UNL     1       4.332  28.419  51.029  1.00  0.00     0.006 C 
BRANCH  10  11
ATOM     11  C   UNL     1       5.203  27.295  50.459  1.00  0.00     0.053 C 
BRANCH  11  12
ATOM     12  C   UNL     1       4.550  26.684  49.260  1.00  0.00     0.041 C 
ATOM     13  O   UNL     1       3.678  27.324  48.617  1.00  0.00    -0.550 OA
ATOM     14  O   UNL     1       4.870  25.386  48.881  1.00  0.00    -0.550 OA
ENDBRANCH  11  12
ENDBRANCH  10  11
ENDBRANCH   9  10
ENDBRANCH   8   9
ENDBRANCH   1   8
TORSDOF 9
ENDMDL
MODEL 8
REMARK VINA RESULT:    -3.478      3.478      6.510
REMARK INTER + INTRA:          -6.021
REMARK INTER:                  -5.685
REMARK INTRA:                  -0.335
REMARK UNBOUND:                -0.713
REMARK SMILES O=C([O-])CCCCCCCCC(=O)[O-]
REMARK SMILES IDX 7 1 6 2 5 3 4 4 2 5 1 6 3 7 8 8 9 9 10 10 11 11 12 12 13 13
REMARK SMILES IDX 14 14
REMARK H PARENT
REMARK Flexibility Score: inf
ROOT
ATOM      1  C   UNL     1       4.696  29.448  52.818  1.00  0.00     0.000 C 
ENDROOT
BRANCH   1   2
ATOM      2  C   UNL     1       3.472  29.672  53.730  1.00  0.00     0.000 C 
BRANCH   2   3
ATOM      3  C   UNL     1       3.055  28.454  54.578  1.00  0.00     0.006 C 
BRANCH   3   4
ATOM      4  C   UNL     1       1.589  28.472  55.037  1.00  0.00     0.053 C 
BRANCH   4   5
ATOM      5  C   UNL     1       1.470  28.498  56.530  1.00  0.00     0.041 C 
ATOM      6  O   UNL     1       2.503  28.475  57.248  1.00  0.00    -0.550 OA
ATOM      7  O   UNL     1       0.218  28.582  57.126  1.00  0.00    -0.550 OA
ENDBRANCH   4   5
ENDBRANCH   3   4
ENDBRANCH   2   3
ENDBRANCH   1   2
BRANCH   1   8
ATOM      8  C   UNL     1       4.654  28.163  51.973  1.00  0.00     0.000 C 
BRANCH   8   9
ATOM      9  C   UNL     1       4.343  28.432  50.494  1.00  0.00     0.000 C 
BRANCH   9  10
ATOM     10  C   UNL     1       5.519  28.016  49.601  1.00  0.00     0.006 C 
BRANCH  10  11
ATOM     11  C   UNL     1       5.102  26.917  48.619  1.00  0.00     0.053 C 
BRANCH  11  12
ATOM     12  C   UNL     1       5.111  25.582  49.293  1.00  0.00     0.041 C 
ATOM     13  O   UNL     1       6.125  24.841  49.219  1.00  0.00    -0.550 OA
ATOM     14  O   UNL     1       3.978  25.134  49.962  1.00  0.00    -0.550 OA
ENDBRANCH  11  12
ENDBRANCH  10  11
ENDBRANCH   9  10
ENDBRANCH   8   9
ENDBRANCH   1   8
TORSDOF 9
ENDMDL
MODEL 9
REMARK VINA RESULT:    -3.447      9.456     11.175
REMARK INTER + INTRA:          -5.973
REMARK INTER:                  -5.347
REMARK INTRA:                  -0.626
REMARK UNBOUND:                -0.713
REMARK SMILES O=C([O-])CCCCCCCCC(=O)[O-]
REMARK SMILES IDX 7 1 6 2 5 3 4 4 2 5 1 6 3 7 8 8 9 9 10 10 11 11 12 12 13 13
REMARK SMILES IDX 14 14
REMARK H PARENT
REMARK Flexibility Score: inf
ROOT
ATOM      1  C   UNL     1      -8.640  30.613  57.017  1.00  0.00     0.000 C 
ENDROOT
BRANCH   1   2
ATOM      2  C   UNL     1      -8.357  31.514  58.238  1.00  0.00     0.000 C 
BRANCH   2   3
ATOM      3  C   UNL     1      -6.887  31.947  58.405  1.00  0.00     0.006 C 
BRANCH   3   4
ATOM      4  C   UNL     1      -6.240  31.500  59.725  1.00  0.00     0.053 C 
BRANCH   4   5
ATOM      5  C   UNL     1      -4.851  30.980  59.519  1.00  0.00     0.041 C 
ATOM      6  O   UNL     1      -3.881  31.507  60.125  1.00  0.00    -0.550 OA
ATOM      7  O   UNL     1      -4.632  29.892  58.684  1.00  0.00    -0.550 OA
ENDBRANCH   4   5
ENDBRANCH   3   4
ENDBRANCH   2   3
ENDBRANCH   1   2
BRANCH   1   8
ATOM      8  C   UNL     1      -7.449  29.759  56.546  1.00  0.00     0.000 C 
BRANCH   8   9
ATOM      9  C   UNL     1      -7.438  28.357  57.171  1.00  0.00     0.000 C 
BRANCH   9  10
ATOM     10  C   UNL     1      -7.112  27.290  56.119  1.00  0.00     0.006 C 
BRANCH  10  11
ATOM     11  C   UNL     1      -8.322  27.019  55.218  1.00  0.00     0.053 C 
BRANCH  11  12
ATOM     12  C   UNL     1      -7.908  26.989  53.781  1.00  0.00     0.041 C 
ATOM     13  O   UNL     1      -7.005  27.761  53.365  1.00  0.00    -0.550 OA
ATOM     14  O   UNL     1      -8.555  26.143  52.889  1.00  0.00    -0.550 OA
ENDBRANCH  11  12
ENDBRANCH  10  11
ENDBRANCH   9  10
ENDBRANCH   8   9
ENDBRANCH   1   8
TORSDOF 9
ENDMDL
