MODEL 1
REMARK VINA RESULT:    -4.285      0.000      0.000
REMARK INTER + INTRA:          -6.618
REMARK INTER:                  -6.289
REMARK INTRA:                  -0.329
REMARK UNBOUND:                -0.329
REMARK SMILES O=C([O-])CCCCCCCC(=O)[O-]
REMARK SMILES IDX 7 1 6 2 5 3 4 4 2 5 1 6 3 7 8 8 9 9 10 10 11 11 12 12 13 13
REMARK H PARENT
REMARK Flexibility Score: inf
ROOT
ATOM      1  C   UNL     1      16.669  23.119  47.776  1.00  0.00     0.000 C 
ENDROOT
BRANCH   1   2
ATOM      2  C   UNL     1      17.959  23.024  46.951  1.00  0.00     0.000 C 
BRANCH   2   3
ATOM      3  C   UNL     1      18.846  21.873  47.446  1.00  0.00     0.006 C 
BRANCH   3   4
ATOM      4  C   UNL     1      19.492  22.180  48.803  1.00  0.00     0.053 C 
BRANCH   4   5
ATOM      5  C   UNL     1      20.320  23.428  48.757  1.00  0.00     0.041 C 
ATOM      6  O   UNL     1      21.365  23.469  48.055  1.00  0.00    -0.550 OA
ATOM      7  O   UNL     1      19.919  24.556  49.462  1.00  0.00    -0.550 OA
ENDBRANCH   4   5
ENDBRANCH   3   4
ENDBRANCH   2   3
ENDBRANCH   1   2
BRANCH   1   8
ATOM      8  C   UNL     1      15.449  23.320  46.868  1.00  0.00     0.000 C 
BRANCH   8   9
ATOM      9  C   UNL     1      14.150  23.301  47.682  1.00  0.00     0.006 C 
BRANCH   9  10
ATOM     10  C   UNL     1      12.942  23.617  46.795  1.00  0.00     0.053 C 
BRANCH  10  11
ATOM     11  C   UNL     1      12.436  22.372  46.136  1.00  0.00     0.041 C 
ATOM     12  O   UNL     1      12.419  21.283  46.767  1.00  0.00    -0.550 OA
ATOM     13  O   UNL     1      12.030  22.404  44.807  1.00  0.00    -0.550 OA
ENDBRANCH  10  11
ENDBRANCH   9  10
ENDBRANCH   8   9
ENDBRANCH   1   8
TORSDOF 8
ENDMDL
MODEL 2
REMARK VINA RESULT:    -4.275     12.658     13.478
REMARK INTER + INTRA:          -6.604
REMARK INTER:                  -6.170
REMARK INTRA:                  -0.434
REMARK UNBOUND:                -0.329
REMARK SMILES O=C([O-])CCCCCCCC(=O)[O-]
REMARK SMILES IDX 7 1 6 2 5 3 4 4 2 5 1 6 3 7 8 8 9 9 10 10 11 11 12 12 13 13
REMARK H PARENT
REMARK Flexibility Score: inf
ROOT
ATOM      1  C   UNL     1      21.387  21.345  34.311  1.00  0.00     0.000 C 
ENDROOT
BRANCH   1   2
ATOM      2  C   UNL     1      21.216  21.842  35.752  1.00  0.00     0.000 C 
BRANCH   2   3
ATOM      3  C   UNL     1      22.518  21.682  36.549  1.00  0.00     0.006 C 
BRANCH   3   4
ATOM      4  C   UNL     1      23.754  22.072  35.728  1.00  0.00     0.053 C 
BRANCH   4   5
ATOM      5  C   UNL     1      25.002  22.051  36.557  1.00  0.00     0.041 C 
ATOM      6  O   UNL     1      25.762  23.055  36.583  1.00  0.00    -0.550 OA
ATOM      7  O   UNL     1      25.308  20.936  37.326  1.00  0.00    -0.550 OA
ENDBRANCH   4   5
ENDBRANCH   3   4
ENDBRANCH   2   3
ENDBRANCH   1   2
BRANCH   1   8
ATOM      8  C   UNL     1      20.133  20.604  33.832  1.00  0.00     0.000 C 
BRANCH   8   9
ATOM      9  C   UNL     1      19.545  21.272  32.584  1.00  0.00     0.006 C 
BRANCH   9  10
ATOM     10  C   UNL     1      18.847  22.588  32.942  1.00  0.00     0.053 C 
BRANCH  10  11
ATOM     11  C   UNL     1      17.764  22.350  33.948  1.00  0.00     0.041 C 
ATOM     12  O   UNL     1      16.733  21.702  33.627  1.00  0.00    -0.550 OA
ATOM     13  O   UNL     1      17.871  22.886  35.225  1.00  0.00    -0.550 OA
ENDBRANCH  10  11
ENDBRANCH   9  10
ENDBRANCH   8   9
ENDBRANCH   1   8
TORSDOF 8
ENDMDL
MODEL 3
REMARK VINA RESULT:    -4.241      0.173      7.042
REMARK INTER + INTRA:          -6.554
REMARK INTER:                  -6.211
REMARK INTRA:                  -0.343
REMARK UNBOUND:                -0.329
REMARK SMILES O=C([O-])CCCCCCCC(=O)[O-]
REMARK SMILES IDX 7 1 6 2 5 3 4 4 2 5 1 6 3 7 8 8 9 9 10 10 11 11 12 12 13 13
REMARK H PARENT
REMARK Flexibility Score: inf
ROOT
ATOM      1  C   UNL     1      16.714  23.188  47.752  1.00  0.00     0.000 C 
ENDROOT
BRANCH   1   2
ATOM      2  C   UNL     1      15.461  22.879  46.924  1.00  0.00     0.000 C 
BRANCH   2   3
ATOM      3  C   UNL     1      14.189  23.312  47.666  1.00  0.00     0.006 C 
BRANCH   3   4
ATOM      4  C   UNL     1      13.031  23.617  46.707  1.00  0.00     0.053 C 
BRANCH   4   5
ATOM      5  C   UNL     1      12.447  22.366  46.124  1.00  0.00     0.041 C 
ATOM      6  O   UNL     1      12.041  22.353  44.932  1.00  0.00    -0.550 OA
ATOM      7  O   UNL     1      12.383  21.206  46.887  1.00  0.00    -0.550 OA
ENDBRANCH   4   5
ENDBRANCH   3   4
ENDBRANCH   2   3
ENDBRANCH   1   2
BRANCH   1   8
ATOM      8  C   UNL     1      17.974  23.145  46.880  1.00  0.00     0.000 C 
BRANCH   8   9
ATOM      9  C   UNL     1      18.905  22.006  47.315  1.00  0.00     0.006 C 
BRANCH   9  10
ATOM     10  C   UNL     1      19.424  22.236  48.738  1.00  0.00     0.053 C 
BRANCH  10  11
ATOM     11  C   UNL     1      20.316  23.436  48.784  1.00  0.00     0.041 C 
ATOM     12  O   UNL     1      20.032  24.408  49.533  1.00  0.00    -0.550 OA
ATOM     13  O   UNL     1      21.434  23.504  47.962  1.00  0.00    -0.550 OA
ENDBRANCH  10  11
ENDBRANCH   9  10
ENDBRANCH   8   9
ENDBRANCH   1   8
TORSDOF 8
ENDMDL
MODEL 4
REMARK VINA RESULT:    -4.215      9.184     12.029
REMARK INTER + INTRA:          -6.516
REMARK INTER:                  -6.214
REMARK INTRA:                  -0.302
REMARK UNBOUND:                -0.329
REMARK SMILES O=C([O-])CCCCCCCC(=O)[O-]
REMARK SMILES IDX 7 1 6 2 5 3 4 4 2 5 1 6 3 7 8 8 9 9 10 10 11 11 12 12 13 13
REMARK H PARENT
REMARK Flexibility Score: inf
ROOT
ATOM      1  C   UNL     1      11.302  22.234  37.126  1.00  0.00     0.000 C 
ENDROOT
BRANCH   1   2
ATOM      2  C   UNL     1      11.529  22.257  38.642  1.00  0.00     0.000 C 
BRANCH   2   3
ATOM      3  C   UNL     1      10.380  21.558  39.382  1.00  0.00     0.006 C 
BRANCH   3   4
ATOM      4  C   UNL     1      10.603  21.521  40.900  1.00  0.00     0.053 C 
BRANCH   4   5
ATOM      5  C   UNL     1       9.864  22.622  41.598  1.00  0.00     0.041 C 
ATOM      6  O   UNL     1      10.217  22.990  42.749  1.00  0.00    -0.550 OA
ATOM      7  O   UNL     1       8.807  23.262  40.964  1.00  0.00    -0.550 OA
ENDBRANCH   4   5
ENDBRANCH   3   4
ENDBRANCH   2   3
ENDBRANCH   1   2
BRANCH   1   8
ATOM      8  C   UNL     1      12.472  21.554  36.405  1.00  0.00     0.000 C 
BRANCH   8   9
ATOM      9  C   UNL     1      12.278  21.595  34.884  1.00  0.00     0.006 C 
BRANCH   9  10
ATOM     10  C   UNL     1      12.618  22.980  34.325  1.00  0.00     0.053 C 
BRANCH  10  11
ATOM     11  C   UNL     1      13.994  23.391  34.744  1.00  0.00     0.041 C 
ATOM     12  O   UNL     1      14.996  22.729  34.366  1.00  0.00    -0.550 OA
ATOM     13  O   UNL     1      14.168  24.478  35.593  1.00  0.00    -0.550 OA
ENDBRANCH  10  11
ENDBRANCH   9  10
ENDBRANCH   8   9
ENDBRANCH   1   8
TORSDOF 8
ENDMDL
MODEL 5
REMARK VINA RESULT:    -4.191      8.098     11.086
REMARK INTER + INTRA:          -6.480
REMARK INTER:                  -6.019
REMARK INTRA:                  -0.461
REMARK UNBOUND:                -0.329
REMARK SMILES O=C([O-])CCCCCCCC(=O)[O-]
REMARK SMILES IDX 7 1 6 2 5 3 4 4 2 5 1 6 3 7 8 8 9 9 10 10 11 11 12 12 13 13
REMARK H PARENT
REMARK Flexibility Score: inf
ROOT
ATOM      1  C   UNL     1      10.864  21.873  38.657  1.00  0.00     0.000 C 
ENDROOT
BRANCH   1   2
ATOM      2  C   UNL     1      10.322  21.110  39.873  1.00  0.00     0.000 C 
BRANCH   2   3
ATOM      3  C   UNL     1       9.414  22.006  40.726  1.00  0.00     0.006 C 
BRANCH   3   4
ATOM      4  C   UNL     1      10.072  23.352  41.059  1.00  0.00     0.053 C 
BRANCH   4   5
ATOM      5  C   UNL     1      11.205  23.194  42.026  1.00  0.00     0.041 C 
ATOM      6  O   UNL     1      12.362  23.582  41.715  1.00  0.00    -0.550 OA
ATOM      7  O   UNL     1      10.976  22.648  43.284  1.00  0.00    -0.550 OA
ENDBRANCH   4   5
ENDBRANCH   3   4
ENDBRANCH   2   3
ENDBRANCH   1   2
BRANCH   1   8
ATOM      8  C   UNL     1      12.395  21.817  38.609  1.00  0.00     0.000 C 
BRANCH   8   9
ATOM      9  C   UNL     1      12.899  21.793  37.161  1.00  0.00     0.006 C 
BRANCH   9  10
ATOM     10  C   UNL     1      11.795  22.221  36.189  1.00  0.00     0.053 C 
BRANCH  10  11
ATOM     11  C   UNL     1      12.167  21.866  34.784  1.00  0.00     0.041 C 
ATOM     12  O   UNL     1      12.686  20.748  34.529  1.00  0.00    -0.550 OA
ATOM     13  O   UNL     1      11.987  22.790  33.762  1.00  0.00    -0.550 OA
ENDBRANCH  10  11
ENDBRANCH   9  10
ENDBRANCH   8   9
ENDBRANCH   1   8
TORSDOF 8
ENDMDL
MODEL 6
REMARK VINA RESULT:    -4.172      8.736     11.556
REMARK INTER + INTRA:          -6.452
REMARK INTER:                  -6.070
REMARK INTRA:                  -0.382
REMARK UNBOUND:                -0.329
REMARK SMILES O=C([O-])CCCCCCCC(=O)[O-]
REMARK SMILES IDX 7 1 6 2 5 3 4 4 2 5 1 6 3 7 8 8 9 9 10 10 11 11 12 12 13 13
REMARK H PARENT
REMARK Flexibility Score: inf
ROOT
ATOM      1  C   UNL     1      12.274  21.854  38.410  1.00  0.00     0.000 C 
ENDROOT
BRANCH   1   2
ATOM      2  C   UNL     1      12.683  22.473  37.068  1.00  0.00     0.000 C 
BRANCH   2   3
ATOM      3  C   UNL     1      11.642  22.169  35.981  1.00  0.00     0.006 C 
BRANCH   3   4
ATOM      4  C   UNL     1      12.266  22.105  34.581  1.00  0.00     0.053 C 
BRANCH   4   5
ATOM      5  C   UNL     1      13.341  21.066  34.496  1.00  0.00     0.041 C 
ATOM      6  O   UNL     1      13.041  19.843  34.501  1.00  0.00    -0.550 OA
ATOM      7  O   UNL     1      14.671  21.448  34.377  1.00  0.00    -0.550 OA
ENDBRANCH   4   5
ENDBRANCH   3   4
ENDBRANCH   2   3
ENDBRANCH   1   2
BRANCH   1   8
ATOM      8  C   UNL     1      10.758  21.945  38.620  1.00  0.00     0.000 C 
BRANCH   8   9
ATOM      9  C   UNL     1      10.330  21.182  39.879  1.00  0.00     0.006 C 
BRANCH   9  10
ATOM     10  C   UNL     1      11.077  21.698  41.113  1.00  0.00     0.053 C 
BRANCH  10  11
ATOM     11  C   UNL     1      10.184  22.571  41.939  1.00  0.00     0.041 C 
ATOM     12  O   UNL     1      10.565  22.980  43.067  1.00  0.00    -0.550 OA
ATOM     13  O   UNL     1       8.912  22.893  41.483  1.00  0.00    -0.550 OA
ENDBRANCH  10  11
ENDBRANCH   9  10
ENDBRANCH   8   9
ENDBRANCH   1   8
TORSDOF 8
ENDMDL
MODEL 7
REMARK VINA RESULT:    -4.171      4.499      6.824
REMARK INTER + INTRA:          -6.451
REMARK INTER:                  -6.143
REMARK INTRA:                  -0.308
REMARK UNBOUND:                -0.329
REMARK SMILES O=C([O-])CCCCCCCC(=O)[O-]
REMARK SMILES IDX 7 1 6 2 5 3 4 4 2 5 1 6 3 7 8 8 9 9 10 10 11 11 12 12 13 13
REMARK H PARENT
REMARK Flexibility Score: inf
ROOT
ATOM      1  C   UNL     1      11.658  22.963  44.049  1.00  0.00     0.000 C 
ENDROOT
BRANCH   1   2
ATOM      2  C   UNL     1      13.066  23.530  44.268  1.00  0.00     0.000 C 
BRANCH   2   3
ATOM      3  C   UNL     1      13.048  24.664  45.303  1.00  0.00     0.006 C 
BRANCH   3   4
ATOM      4  C   UNL     1      12.497  24.205  46.659  1.00  0.00     0.053 C 
BRANCH   4   5
ATOM      5  C   UNL     1      13.235  23.012  47.187  1.00  0.00     0.041 C 
ATOM      6  O   UNL     1      14.419  23.133  47.599  1.00  0.00    -0.550 OA
ATOM      7  O   UNL     1      12.605  21.776  47.253  1.00  0.00    -0.550 OA
ENDBRANCH   4   5
ENDBRANCH   3   4
ENDBRANCH   2   3
ENDBRANCH   1   2
BRANCH   1   8
ATOM      8  C   UNL     1      11.281  22.985  42.563  1.00  0.00     0.000 C 
BRANCH   8   9
ATOM      9  C   UNL     1       9.758  22.978  42.382  1.00  0.00     0.006 C 
BRANCH   9  10
ATOM     10  C   UNL     1       9.381  23.099  40.903  1.00  0.00     0.053 C 
BRANCH  10  11
ATOM     11  C   UNL     1       9.945  21.953  40.122  1.00  0.00     0.041 C 
ATOM     12  O   UNL     1      10.656  22.168  39.106  1.00  0.00    -0.550 OA
ATOM     13  O   UNL     1       9.645  20.647  40.489  1.00  0.00    -0.550 OA
ENDBRANCH  10  11
ENDBRANCH   9  10
ENDBRANCH   8   9
ENDBRANCH   1   8
TORSDOF 8
ENDMDL
MODEL 8
REMARK VINA RESULT:    -4.170     12.218     13.137
REMARK INTER + INTRA:          -6.450
REMARK INTER:                  -6.134
REMARK INTRA:                  -0.315
REMARK UNBOUND:                -0.329
REMARK SMILES O=C([O-])CCCCCCCC(=O)[O-]
REMARK SMILES IDX 7 1 6 2 5 3 4 4 2 5 1 6 3 7 8 8 9 9 10 10 11 11 12 12 13 13
REMARK H PARENT
REMARK Flexibility Score: inf
ROOT
ATOM      1  C   UNL     1      22.888  21.872  36.097  1.00  0.00     0.000 C 
ENDROOT
BRANCH   1   2
ATOM      2  C   UNL     1      24.396  22.144  36.051  1.00  0.00     0.000 C 
BRANCH   2   3
ATOM      3  C   UNL     1      25.087  21.633  37.323  1.00  0.00     0.006 C 
BRANCH   3   4
ATOM      4  C   UNL     1      24.096  21.403  38.471  1.00  0.00     0.053 C 
BRANCH   4   5
ATOM      5  C   UNL     1      24.192  22.474  39.514  1.00  0.00     0.041 C 
ATOM      6  O   UNL     1      23.728  23.622  39.287  1.00  0.00    -0.550 OA
ATOM      7  O   UNL     1      24.765  22.193  40.749  1.00  0.00    -0.550 OA
ENDBRANCH   4   5
ENDBRANCH   3   4
ENDBRANCH   2   3
ENDBRANCH   1   2
BRANCH   1   8
ATOM      8  C   UNL     1      22.299  21.798  34.683  1.00  0.00     0.000 C 
BRANCH   8   9
ATOM      9  C   UNL     1      20.766  21.784  34.727  1.00  0.00     0.006 C 
BRANCH   9  10
ATOM     10  C   UNL     1      20.187  21.136  33.466  1.00  0.00     0.053 C 
BRANCH  10  11
ATOM     11  C   UNL     1      19.482  22.156  32.628  1.00  0.00     0.041 C 
ATOM     12  O   UNL     1      20.042  23.252  32.360  1.00  0.00    -0.550 OA
ATOM     13  O   UNL     1      18.187  21.918  32.185  1.00  0.00    -0.550 OA
ENDBRANCH  10  11
ENDBRANCH   9  10
ENDBRANCH   8   9
ENDBRANCH   1   8
TORSDOF 8
ENDMDL
MODEL 9
REMARK VINA RESULT:    -4.144     12.178     14.483
REMARK INTER + INTRA:          -6.411
REMARK INTER:                  -6.131
REMARK INTRA:                  -0.279
REMARK UNBOUND:                -0.329
REMARK SMILES O=C([O-])CCCCCCCC(=O)[O-]
REMARK SMILES IDX 7 1 6 2 5 3 4 4 2 5 1 6 3 7 8 8 9 9 10 10 11 11 12 12 13 13
REMARK H PARENT
REMARK Flexibility Score: inf
ROOT
ATOM      1  C   UNL     1      22.654  22.025  36.026  1.00  0.00     0.000 C 
ENDROOT
BRANCH   1   2
ATOM      2  C   UNL     1      21.997  21.838  34.652  1.00  0.00     0.000 C 
BRANCH   2   3
ATOM      3  C   UNL     1      20.610  21.194  34.788  1.00  0.00     0.006 C 
BRANCH   3   4
ATOM      4  C   UNL     1      20.067  20.693  33.443  1.00  0.00     0.053 C 
BRANCH   4   5
ATOM      5  C   UNL     1      19.223  21.727  32.763  1.00  0.00     0.041 C 
ATOM      6  O   UNL     1      19.728  22.481  31.890  1.00  0.00    -0.550 OA
ATOM      7  O   UNL     1      17.873  21.835  33.070  1.00  0.00    -0.550 OA
ENDBRANCH   4   5
ENDBRANCH   3   4
ENDBRANCH   2   3
ENDBRANCH   1   2
BRANCH   1   8
ATOM      8  C   UNL     1      24.180  21.919  35.924  1.00  0.00     0.000 C 
BRANCH   8   9
ATOM      9  C   UNL     1      24.859  22.629  37.102  1.00  0.00     0.006 C 
BRANCH   9  10
ATOM     10  C   UNL     1      24.796  21.772  38.370  1.00  0.00     0.053 C 
BRANCH  10  11
ATOM     11  C   UNL     1      24.329  22.590  39.532  1.00  0.00     0.041 C 
ATOM     12  O   UNL     1      24.790  22.375  40.684  1.00  0.00    -0.550 OA
ATOM     13  O   UNL     1      23.347  23.556  39.353  1.00  0.00    -0.550 OA
ENDBRANCH  10  11
ENDBRANCH   9  10
ENDBRANCH   8   9
ENDBRANCH   1   8
TORSDOF 8
ENDMDL
