MODEL 1
REMARK VINA RESULT:    -4.625      0.000      0.000
REMARK INTER + INTRA:          -4.408
REMARK INTER:                  -5.165
REMARK INTRA:                   0.757
REMARK UNBOUND:                 0.757
REMARK SMILES O=C([O-])c1ccccc1C(=O)[O-]
REMARK SMILES IDX 4 1 9 2 5 3 8 4 6 5 7 6 2 7 1 8 3 9 10 10 11 11 12 12
REMARK H PARENT
REMARK Flexibility Score: inf
ROOT
ATOM      1  C   UNL     1     -21.265  -0.061   9.198  1.00  0.00     0.006 A 
ATOM      2  C   UNL     1     -21.068  -0.287   7.807  1.00  0.00     0.006 A 
ATOM      3  C   UNL     1     -21.017  -1.110  10.103  1.00  0.00     0.010 A 
ATOM      4  C   UNL     1     -20.691  -1.570   7.369  1.00  0.00     0.010 A 
ATOM      5  C   UNL     1     -20.623  -2.368   9.648  1.00  0.00     0.001 A 
ATOM      6  C   UNL     1     -20.472  -2.601   8.283  1.00  0.00     0.001 A 
ENDROOT
BRANCH   1   7
ATOM      7  C   UNL     1     -21.795   1.214   9.733  1.00  0.00     0.072 C 
ATOM      8  O   UNL     1     -21.811   1.423  10.975  1.00  0.00    -0.545 OA
ATOM      9  O   UNL     1     -22.339   2.169   8.881  1.00  0.00    -0.545 OA
ENDBRANCH   1   7
BRANCH   2  10
ATOM     10  C   UNL     1     -21.169   0.796   6.801  1.00  0.00     0.072 C 
ATOM     11  O   UNL     1     -21.987   0.699   5.847  1.00  0.00    -0.545 OA
ATOM     12  O   UNL     1     -20.324   1.897   6.857  1.00  0.00    -0.545 OA
ENDBRANCH   2  10
TORSDOF 2
ENDMDL
MODEL 2
REMARK VINA RESULT:    -4.621      0.070      3.053
REMARK INTER + INTRA:          -4.404
REMARK INTER:                  -5.186
REMARK INTRA:                   0.782
REMARK UNBOUND:                 0.757
REMARK SMILES O=C([O-])c1ccccc1C(=O)[O-]
REMARK SMILES IDX 4 1 9 2 5 3 8 4 6 5 7 6 2 7 1 8 3 9 10 10 11 11 12 12
REMARK H PARENT
REMARK Flexibility Score: inf
ROOT
ATOM      1  C   UNL     1     -21.057  -0.343   7.786  1.00  0.00     0.006 A 
ATOM      2  C   UNL     1     -21.250  -0.090   9.172  1.00  0.00     0.006 A 
ATOM      3  C   UNL     1     -20.682  -1.636   7.373  1.00  0.00     0.010 A 
ATOM      4  C   UNL     1     -21.003  -1.121  10.098  1.00  0.00     0.010 A 
ATOM      5  C   UNL     1     -20.463  -2.648   8.306  1.00  0.00     0.001 A 
ATOM      6  C   UNL     1     -20.611  -2.388   9.666  1.00  0.00     0.001 A 
ENDROOT
BRANCH   1   7
ATOM      7  C   UNL     1     -21.158   0.719   6.759  1.00  0.00     0.072 C 
ATOM      8  O   UNL     1     -21.988   0.612   5.817  1.00  0.00    -0.545 OA
ATOM      9  O   UNL     1     -20.300   1.812   6.782  1.00  0.00    -0.545 OA
ENDBRANCH   1   7
BRANCH   2  10
ATOM     10  C   UNL     1     -21.779   1.197   9.683  1.00  0.00     0.072 C 
ATOM     11  O   UNL     1     -21.832   1.412  10.923  1.00  0.00    -0.545 OA
ATOM     12  O   UNL     1     -22.280   2.154   8.809  1.00  0.00    -0.545 OA
ENDBRANCH   2  10
TORSDOF 2
ENDMDL
MODEL 3
REMARK VINA RESULT:    -4.481      2.050      3.320
REMARK INTER + INTRA:          -4.247
REMARK INTER:                  -5.086
REMARK INTRA:                   0.839
REMARK UNBOUND:                 0.757
REMARK SMILES O=C([O-])c1ccccc1C(=O)[O-]
REMARK SMILES IDX 4 1 9 2 5 3 8 4 6 5 7 6 2 7 1 8 3 9 10 10 11 11 12 12
REMARK H PARENT
REMARK Flexibility Score: inf
ROOT
ATOM      1  C   UNL     1     -21.276  -0.149   9.327  1.00  0.00     0.006 A 
ATOM      2  C   UNL     1     -21.289   0.365   8.001  1.00  0.00     0.006 A 
ATOM      3  C   UNL     1     -21.703   0.676  10.384  1.00  0.00     0.010 A 
ATOM      4  C   UNL     1     -21.670   1.704   7.788  1.00  0.00     0.010 A 
ATOM      5  C   UNL     1     -22.098   1.993  10.148  1.00  0.00     0.001 A 
ATOM      6  C   UNL     1     -22.070   2.509   8.855  1.00  0.00     0.001 A 
ENDROOT
BRANCH   1   7
ATOM      7  C   UNL     1     -20.757  -1.496   9.656  1.00  0.00     0.072 C 
ATOM      8  O   UNL     1     -20.674  -1.867  10.857  1.00  0.00    -0.545 OA
ATOM      9  O   UNL     1     -20.295  -2.342   8.654  1.00  0.00    -0.545 OA
ENDBRANCH   1   7
BRANCH   2  10
ATOM     10  C   UNL     1     -20.990  -0.474   6.816  1.00  0.00     0.072 C 
ATOM     11  O   UNL     1     -19.996  -0.212   6.089  1.00  0.00    -0.545 OA
ATOM     12  O   UNL     1     -21.834  -1.517   6.456  1.00  0.00    -0.545 OA
ENDBRANCH   2  10
TORSDOF 2
ENDMDL
MODEL 4
REMARK VINA RESULT:    -4.459      2.049      4.238
REMARK INTER + INTRA:          -4.223
REMARK INTER:                  -5.054
REMARK INTRA:                   0.831
REMARK UNBOUND:                 0.757
REMARK SMILES O=C([O-])c1ccccc1C(=O)[O-]
REMARK SMILES IDX 4 1 9 2 5 3 8 4 6 5 7 6 2 7 1 8 3 9 10 10 11 11 12 12
REMARK H PARENT
REMARK Flexibility Score: inf
ROOT
ATOM      1  C   UNL     1     -21.300   0.373   8.029  1.00  0.00     0.006 A 
ATOM      2  C   UNL     1     -21.273  -0.157   9.349  1.00  0.00     0.006 A 
ATOM      3  C   UNL     1     -21.687   1.713   7.838  1.00  0.00     0.010 A 
ATOM      4  C   UNL     1     -21.693   0.654  10.421  1.00  0.00     0.010 A 
ATOM      5  C   UNL     1     -22.079   2.505   8.917  1.00  0.00     0.001 A 
ATOM      6  C   UNL     1     -22.093   1.972  10.204  1.00  0.00     0.001 A 
ENDROOT
BRANCH   1   7
ATOM      7  C   UNL     1     -21.011  -0.449   6.832  1.00  0.00     0.072 C 
ATOM      8  O   UNL     1     -20.022  -0.178   6.100  1.00  0.00    -0.545 OA
ATOM      9  O   UNL     1     -21.859  -1.488   6.464  1.00  0.00    -0.545 OA
ENDBRANCH   1   7
BRANCH   2  10
ATOM     10  C   UNL     1     -20.747  -1.507   9.656  1.00  0.00     0.072 C 
ATOM     11  O   UNL     1     -20.655  -1.894  10.851  1.00  0.00    -0.545 OA
ATOM     12  O   UNL     1     -20.290  -2.337   8.641  1.00  0.00    -0.545 OA
ENDBRANCH   2  10
TORSDOF 2
ENDMDL
MODEL 5
REMARK VINA RESULT:    -3.386      2.119      3.248
REMARK INTER + INTRA:          -3.024
REMARK INTER:                  -3.482
REMARK INTRA:                   0.458
REMARK UNBOUND:                 0.757
REMARK SMILES O=C([O-])c1ccccc1C(=O)[O-]
REMARK SMILES IDX 4 1 9 2 5 3 8 4 6 5 7 6 2 7 1 8 3 9 10 10 11 11 12 12
REMARK H PARENT
REMARK Flexibility Score: inf
ROOT
ATOM      1  C   UNL     1     -21.616   0.879   8.910  1.00  0.00     0.006 A 
ATOM      2  C   UNL     1     -21.052  -0.426   8.861  1.00  0.00     0.006 A 
ATOM      3  C   UNL     1     -21.748   1.613   7.716  1.00  0.00     0.010 A 
ATOM      4  C   UNL     1     -20.584  -0.924   7.630  1.00  0.00     0.010 A 
ATOM      5  C   UNL     1     -21.298   1.091   6.505  1.00  0.00     0.001 A 
ATOM      6  C   UNL     1     -20.706  -0.170   6.463  1.00  0.00     0.001 A 
ENDROOT
BRANCH   1   7
ATOM      7  C   UNL     1     -22.004   1.534  10.181  1.00  0.00     0.072 C 
ATOM      8  O   UNL     1     -23.186   1.443  10.606  1.00  0.00    -0.545 OA
ATOM      9  O   UNL     1     -21.089   2.307  10.887  1.00  0.00    -0.545 OA
ENDBRANCH   1   7
BRANCH   2  10
ATOM     10  C   UNL     1     -21.004  -1.320  10.042  1.00  0.00     0.072 C 
ATOM     11  O   UNL     1     -21.030  -2.571   9.890  1.00  0.00    -0.545 OA
ATOM     12  O   UNL     1     -20.994  -0.796  11.328  1.00  0.00    -0.545 OA
ENDBRANCH   2  10
TORSDOF 2
ENDMDL
MODEL 6
REMARK VINA RESULT:    -3.361      2.086      3.470
REMARK INTER + INTRA:          -2.996
REMARK INTER:                  -3.481
REMARK INTRA:                   0.485
REMARK UNBOUND:                 0.757
REMARK SMILES O=C([O-])c1ccccc1C(=O)[O-]
REMARK SMILES IDX 4 1 9 2 5 3 8 4 6 5 7 6 2 7 1 8 3 9 10 10 11 11 12 12
REMARK H PARENT
REMARK Flexibility Score: inf
ROOT
ATOM      1  C   UNL     1     -21.057  -0.481   8.893  1.00  0.00     0.006 A 
ATOM      2  C   UNL     1     -21.623   0.823   8.887  1.00  0.00     0.006 A 
ATOM      3  C   UNL     1     -20.588  -1.030   7.684  1.00  0.00     0.010 A 
ATOM      4  C   UNL     1     -21.756   1.506   7.663  1.00  0.00     0.010 A 
ATOM      5  C   UNL     1     -20.710  -0.327   6.487  1.00  0.00     0.001 A 
ATOM      6  C   UNL     1     -21.304   0.934   6.474  1.00  0.00     0.001 A 
ENDROOT
BRANCH   1   7
ATOM      7  C   UNL     1     -21.007  -1.324  10.110  1.00  0.00     0.072 C 
ATOM      8  O   UNL     1     -21.003  -2.580  10.011  1.00  0.00    -0.545 OA
ATOM      9  O   UNL     1     -21.029  -0.747  11.374  1.00  0.00    -0.545 OA
ENDBRANCH   1   7
BRANCH   2  10
ATOM     10  C   UNL     1     -22.012   1.531  10.129  1.00  0.00     0.072 C 
ATOM     11  O   UNL     1     -23.198   1.472  10.547  1.00  0.00    -0.545 OA
ATOM     12  O   UNL     1     -21.094   2.319  10.813  1.00  0.00    -0.545 OA
ENDBRANCH   2  10
TORSDOF 2
ENDMDL
MODEL 7
REMARK VINA RESULT:    -3.211      1.079      1.360
REMARK INTER + INTRA:          -2.829
REMARK INTER:                  -2.989
REMARK INTRA:                   0.160
REMARK UNBOUND:                 0.757
REMARK SMILES O=C([O-])c1ccccc1C(=O)[O-]
REMARK SMILES IDX 4 1 9 2 5 3 8 4 6 5 7 6 2 7 1 8 3 9 10 10 11 11 12 12
REMARK H PARENT
REMARK Flexibility Score: inf
ROOT
ATOM      1  C   UNL     1     -21.381   0.235   9.233  1.00  0.00     0.006 A 
ATOM      2  C   UNL     1     -21.193  -0.736   8.211  1.00  0.00     0.006 A 
ATOM      3  C   UNL     1     -21.121  -0.120  10.571  1.00  0.00     0.010 A 
ATOM      4  C   UNL     1     -20.811  -2.043   8.571  1.00  0.00     0.010 A 
ATOM      5  C   UNL     1     -20.723  -1.414  10.901  1.00  0.00     0.001 A 
ATOM      6  C   UNL     1     -20.580  -2.377   9.905  1.00  0.00     0.001 A 
ENDROOT
BRANCH   1   7
ATOM      7  C   UNL     1     -21.915   1.589   8.960  1.00  0.00     0.072 C 
ATOM      8  O   UNL     1     -22.840   2.062   9.673  1.00  0.00    -0.545 OA
ATOM      9  O   UNL     1     -21.452   2.329   7.878  1.00  0.00    -0.545 OA
ENDBRANCH   1   7
BRANCH   2  10
ATOM     10  C   UNL     1     -21.307  -0.411   6.770  1.00  0.00     0.072 C 
ATOM     11  O   UNL     1     -22.428  -0.459   6.197  1.00  0.00    -0.545 OA
ATOM     12  O   UNL     1     -20.177  -0.113   6.020  1.00  0.00    -0.545 OA
ENDBRANCH   2  10
TORSDOF 2
ENDMDL
MODEL 8
REMARK VINA RESULT:    -2.195      2.074      3.680
REMARK INTER + INTRA:          -1.694
REMARK INTER:                  -1.625
REMARK INTRA:                  -0.070
REMARK UNBOUND:                 0.757
REMARK SMILES O=C([O-])c1ccccc1C(=O)[O-]
REMARK SMILES IDX 4 1 9 2 5 3 8 4 6 5 7 6 2 7 1 8 3 9 10 10 11 11 12 12
REMARK H PARENT
REMARK Flexibility Score: inf
ROOT
ATOM      1  C   UNL     1     -21.804   2.184   8.209  1.00  0.00     0.006 A 
ATOM      2  C   UNL     1     -21.834   1.225   9.259  1.00  0.00     0.006 A 
ATOM      3  C   UNL     1     -21.353   1.791   6.935  1.00  0.00     0.010 A 
ATOM      4  C   UNL     1     -21.353  -0.075   9.013  1.00  0.00     0.010 A 
ATOM      5  C   UNL     1     -20.901   0.491   6.708  1.00  0.00     0.001 A 
ATOM      6  C   UNL     1     -20.890  -0.436   7.748  1.00  0.00     0.001 A 
ENDROOT
BRANCH   1   7
ATOM      7  C   UNL     1     -22.158   3.607   8.418  1.00  0.00     0.072 C 
ATOM      8  O   UNL     1     -21.251   4.472   8.556  1.00  0.00    -0.545 OA
ATOM      9  O   UNL     1     -23.487   3.999   8.527  1.00  0.00    -0.545 OA
ENDBRANCH   1   7
BRANCH   2  10
ATOM     10  C   UNL     1     -22.423   1.514  10.588  1.00  0.00     0.072 C 
ATOM     11  O   UNL     1     -21.699   1.495  11.619  1.00  0.00    -0.545 OA
ATOM     12  O   UNL     1     -23.786   1.745  10.724  1.00  0.00    -0.545 OA
ENDBRANCH   2  10
TORSDOF 2
ENDMDL
MODEL 9
REMARK VINA RESULT:    -1.664      2.095      3.826
REMARK INTER + INTRA:          -1.101
REMARK INTER:                  -1.574
REMARK INTRA:                   0.473
REMARK UNBOUND:                 0.757
REMARK SMILES O=C([O-])c1ccccc1C(=O)[O-]
REMARK SMILES IDX 4 1 9 2 5 3 8 4 6 5 7 6 2 7 1 8 3 9 10 10 11 11 12 12
REMARK H PARENT
REMARK Flexibility Score: inf
ROOT
ATOM      1  C   UNL     1     -21.584   0.263  10.010  1.00  0.00     0.006 A 
ATOM      2  C   UNL     1     -21.218  -0.575  11.100  1.00  0.00     0.006 A 
ATOM      3  C   UNL     1     -21.353  -0.185   8.696  1.00  0.00     0.010 A 
ATOM      4  C   UNL     1     -20.578  -1.800  10.837  1.00  0.00     0.010 A 
ATOM      5  C   UNL     1     -20.736  -1.412   8.458  1.00  0.00     0.001 A 
ATOM      6  C   UNL     1     -20.339  -2.213   9.526  1.00  0.00     0.001 A 
ENDROOT
BRANCH   1   7
ATOM      7  C   UNL     1     -22.133   1.625  10.199  1.00  0.00     0.072 C 
ATOM      8  O   UNL     1     -21.357   2.612  10.304  1.00  0.00    -0.545 OA
ATOM      9  O   UNL     1     -23.503   1.827  10.328  1.00  0.00    -0.545 OA
ENDBRANCH   1   7
BRANCH   2  10
ATOM     10  C   UNL     1     -21.552  -0.247  12.506  1.00  0.00     0.072 C 
ATOM     11  O   UNL     1     -21.656   0.955  12.868  1.00  0.00    -0.545 OA
ATOM     12  O   UNL     1     -21.691  -1.253  13.454  1.00  0.00    -0.545 OA
ENDBRANCH   2  10
TORSDOF 2
ENDMDL
