MODEL 1
REMARK VINA RESULT:    -8.652      0.000      0.000
REMARK INTER + INTRA:          -9.645
REMARK INTER:                  -9.410
REMARK INTRA:                  -0.235
REMARK UNBOUND:                -0.235
REMARK SMILES C[C@@H]1[C@H](C)CC[C@@]2(C(=O)[O-])CC[C@]3(C)C(=CC[C@H]4[C@]5(C)CC[C@@H](O)C(C)(C)[C@H]5CC[C@]43C)[C@@H]12
REMARK SMILES IDX 7 1 6 2 11 3 33 4 5 5 12 6 15 7 2 8 3 9 13 10 16 11 1 12
REMARK SMILES IDX 4 13 14 14 31 15 17 16 18 17 30 18 32 19 19 20 29 21 28 22
REMARK SMILES IDX 21 23 20 24 25 25 22 26 23 27 26 28 27 29 8 30 9 31 10 32
REMARK SMILES IDX 24 33
REMARK H PARENT 24 34
REMARK Flexibility Score: inf
ROOT
ATOM      1  C   UNL     1     131.528 137.226 142.537  1.00  0.00     0.017 C 
ATOM      2  C   UNL     1     130.667 137.318 143.828  1.00  0.00     0.014 C 
ATOM      3  C   UNL     1     132.217 138.622 142.297  1.00  0.00     0.014 C 
ATOM      4  C   UNL     1     132.616 136.071 142.645  1.00  0.00     0.030 C 
ATOM      5  C   UNL     1     131.496 137.157 145.093  1.00  0.00     0.004 C 
ATOM      6  C   UNL     1     133.285 138.644 141.168  1.00  0.00     0.013 C 
ATOM      7  C   UNL     1     134.024 136.650 142.427  1.00  0.00    -0.063 C 
ATOM      8  C   UNL     1     132.485 135.073 143.858  1.00  0.00    -0.003 C 
ATOM      9  C   UNL     1     132.057 135.728 145.227  1.00  0.00    -0.011 C 
ATOM     10  C   UNL     1     134.247 137.385 141.105  1.00  0.00    -0.006 C 
ATOM     11  C   UNL     1     134.796 136.958 143.479  1.00  0.00    -0.027 C 
ATOM     12  C   UNL     1     131.620 133.860 143.433  1.00  0.00     0.008 C 
ATOM     13  C   UNL     1     131.109 134.859 146.077  1.00  0.00     0.008 C 
ATOM     14  C   UNL     1     133.773 136.483 139.920  1.00  0.00     0.017 C 
ATOM     15  C   UNL     1     135.801 137.758 140.865  1.00  0.00    -0.020 C 
ATOM     16  C   UNL     1     136.147 137.586 143.383  1.00  0.00     0.032 C 
ATOM     17  C   UNL     1     136.440 138.467 142.128  1.00  0.00     0.006 C 
ATOM     18  C   UNL     1     136.615 136.422 140.601  1.00  0.00     0.008 C 
ATOM     19  C   UNL     1     135.874 138.681 139.588  1.00  0.00     0.012 C 
ATOM     20  C   UNL     1     138.033 138.802 141.991  1.00  0.00    -0.025 C 
ATOM     21  C   UNL     1     138.126 136.465 140.924  1.00  0.00     0.005 C 
ATOM     22  C   UNL     1     138.679 137.897 140.864  1.00  0.00     0.003 C 
ATOM     23  C   UNL     1     138.282 140.305 141.615  1.00  0.00     0.010 C 
ATOM     24  C   UNL     1     138.752 138.612 143.367  1.00  0.00     0.012 C 
ATOM     25  C   UNL     1     140.242 138.037 140.662  1.00  0.00    -0.006 C 
ATOM     26  C   UNL     1     139.471 140.553 140.654  1.00  0.00     0.033 C 
ATOM     27  C   UNL     1     140.658 139.560 140.786  1.00  0.00     0.120 C 
ATOM     28  C   UNL     1     140.606 137.565 139.222  1.00  0.00     0.014 C 
ATOM     29  C   UNL     1     141.058 137.119 141.617  1.00  0.00     0.014 C 
ENDROOT
BRANCH   1  30
ATOM     30  C   UNL     1     130.566 136.934 141.392  1.00  0.00     0.048 C 
ATOM     31  O   UNL     1     130.481 135.778 140.908  1.00  0.00    -0.550 OA
ATOM     32  O   UNL     1     129.705 137.927 140.908  1.00  0.00    -0.550 OA
ENDBRANCH   1  30
BRANCH  27  33
ATOM     33  O   UNL     1     141.398 139.808 141.960  1.00  0.00    -0.393 OA
ATOM     34  H   UNL     1     142.104 139.112 142.015  1.00  0.00     0.210 HD
ENDBRANCH  27  33
TORSDOF 2
ENDMDL
MODEL 2
REMARK VINA RESULT:    -8.643      1.869      8.884
REMARK INTER + INTRA:          -9.636
REMARK INTER:                  -9.406
REMARK INTRA:                  -0.230
REMARK UNBOUND:                -0.235
REMARK SMILES C[C@@H]1[C@H](C)CC[C@@]2(C(=O)[O-])CC[C@]3(C)C(=CC[C@H]4[C@]5(C)CC[C@@H](O)C(C)(C)[C@H]5CC[C@]43C)[C@@H]12
REMARK SMILES IDX 7 1 6 2 11 3 33 4 5 5 12 6 15 7 2 8 3 9 13 10 16 11 1 12
REMARK SMILES IDX 4 13 14 14 31 15 17 16 18 17 30 18 32 19 19 20 29 21 28 22
REMARK SMILES IDX 21 23 20 24 25 25 22 26 23 27 26 28 27 29 8 30 9 31 10 32
REMARK SMILES IDX 24 33
REMARK H PARENT 24 34
REMARK Flexibility Score: inf
ROOT
ATOM      1  C   UNL     1     142.306 139.368 140.491  1.00  0.00     0.017 C 
ATOM      2  C   UNL     1     143.175 139.448 139.205  1.00  0.00     0.014 C 
ATOM      3  C   UNL     1     141.020 140.254 140.279  1.00  0.00     0.014 C 
ATOM      4  C   UNL     1     141.907 137.867 140.832  1.00  0.00     0.030 C 
ATOM      5  C   UNL     1     142.681 138.515 138.110  1.00  0.00     0.004 C 
ATOM      6  C   UNL     1     139.936 140.116 141.384  1.00  0.00     0.013 C 
ATOM      7  C   UNL     1     140.377 137.732 140.909  1.00  0.00    -0.063 C 
ATOM      8  C   UNL     1     142.638 136.729 140.022  1.00  0.00    -0.003 C 
ATOM      9  C   UNL     1     142.875 137.035 138.493  1.00  0.00    -0.011 C 
ATOM     10  C   UNL     1     139.675 138.645 141.914  1.00  0.00    -0.006 C 
ATOM     11  C   UNL     1     139.687 137.277 139.853  1.00  0.00    -0.027 C 
ATOM     12  C   UNL     1     143.910 136.290 140.789  1.00  0.00     0.008 C 
ATOM     13  C   UNL     1     144.216 136.511 137.942  1.00  0.00     0.008 C 
ATOM     14  C   UNL     1     140.366 138.513 143.310  1.00  0.00     0.017 C 
ATOM     15  C   UNL     1     138.111 138.278 142.089  1.00  0.00    -0.020 C 
ATOM     16  C   UNL     1     138.199 137.170 139.797  1.00  0.00     0.032 C 
ATOM     17  C   UNL     1     137.376 138.147 140.693  1.00  0.00     0.006 C 
ATOM     18  C   UNL     1     137.991 136.878 142.827  1.00  0.00     0.008 C 
ATOM     19  C   UNL     1     137.458 139.403 142.981  1.00  0.00     0.012 C 
ATOM     20  C   UNL     1     135.808 137.697 140.785  1.00  0.00    -0.025 C 
ATOM     21  C   UNL     1     136.689 136.083 142.582  1.00  0.00     0.005 C 
ATOM     22  C   UNL     1     135.527 137.005 142.181  1.00  0.00     0.003 C 
ATOM     23  C   UNL     1     134.841 138.925 140.643  1.00  0.00     0.010 C 
ATOM     24  C   UNL     1     135.437 136.759 139.591  1.00  0.00     0.012 C 
ATOM     25  C   UNL     1     134.069 136.432 142.399  1.00  0.00    -0.006 C 
ATOM     26  C   UNL     1     133.566 138.861 141.521  1.00  0.00     0.033 C 
ATOM     27  C   UNL     1     133.008 137.437 141.789  1.00  0.00     0.120 C 
ATOM     28  C   UNL     1     133.793 136.329 143.929  1.00  0.00     0.014 C 
ATOM     29  C   UNL     1     133.902 134.986 141.851  1.00  0.00     0.014 C 
ENDROOT
BRANCH   1  30
ATOM     30  C   UNL     1     143.143 139.957 141.620  1.00  0.00     0.048 C 
ATOM     31  O   UNL     1     143.588 139.221 142.535  1.00  0.00    -0.550 OA
ATOM     32  O   UNL     1     143.497 141.312 141.618  1.00  0.00    -0.550 OA
ENDBRANCH   1  30
BRANCH  27  33
ATOM     33  O   UNL     1     132.388 136.909 140.637  1.00  0.00    -0.393 OA
ATOM     34  H   UNL     1     132.933 136.135 140.338  1.00  0.00     0.210 HD
ENDBRANCH  27  33
TORSDOF 2
ENDMDL
MODEL 3
REMARK VINA RESULT:    -8.492      1.406      1.995
REMARK INTER + INTRA:          -9.471
REMARK INTER:                  -9.483
REMARK INTRA:                   0.012
REMARK UNBOUND:                -0.235
REMARK SMILES C[C@@H]1[C@H](C)CC[C@@]2(C(=O)[O-])CC[C@]3(C)C(=CC[C@H]4[C@]5(C)CC[C@@H](O)C(C)(C)[C@H]5CC[C@]43C)[C@@H]12
REMARK SMILES IDX 7 1 6 2 11 3 33 4 5 5 12 6 15 7 2 8 3 9 13 10 16 11 1 12
REMARK SMILES IDX 4 13 14 14 31 15 17 16 18 17 30 18 32 19 19 20 29 21 28 22
REMARK SMILES IDX 21 23 20 24 25 25 22 26 23 27 26 28 27 29 8 30 9 31 10 32
REMARK SMILES IDX 24 33
REMARK H PARENT 24 34
REMARK Flexibility Score: inf
ROOT
ATOM      1  C   UNL     1     131.610 136.438 141.371  1.00  0.00     0.017 C 
ATOM      2  C   UNL     1     130.355 137.270 141.758  1.00  0.00     0.014 C 
ATOM      3  C   UNL     1     132.339 137.163 140.176  1.00  0.00     0.014 C 
ATOM      4  C   UNL     1     132.594 136.259 142.607  1.00  0.00     0.030 C 
ATOM      5  C   UNL     1     130.695 138.454 142.649  1.00  0.00     0.004 C 
ATOM      6  C   UNL     1     133.733 136.583 139.805  1.00  0.00     0.013 C 
ATOM      7  C   UNL     1     133.990 136.799 142.253  1.00  0.00    -0.063 C 
ATOM      8  C   UNL     1     132.051 136.688 144.023  1.00  0.00    -0.003 C 
ATOM      9  C   UNL     1     131.175 137.999 144.041  1.00  0.00    -0.011 C 
ATOM     10  C   UNL     1     134.657 136.175 141.028  1.00  0.00    -0.006 C 
ATOM     11  C   UNL     1     134.349 138.035 142.630  1.00  0.00    -0.027 C 
ATOM     12  C   UNL     1     131.387 135.468 144.709  1.00  0.00     0.008 C 
ATOM     13  C   UNL     1     129.991 137.957 145.028  1.00  0.00     0.008 C 
ATOM     14  C   UNL     1     134.623 134.617 141.150  1.00  0.00     0.017 C 
ATOM     15  C   UNL     1     136.197 136.635 140.866  1.00  0.00    -0.020 C 
ATOM     16  C   UNL     1     135.650 138.681 142.283  1.00  0.00     0.032 C 
ATOM     17  C   UNL     1     136.359 138.206 140.976  1.00  0.00     0.006 C 
ATOM     18  C   UNL     1     137.053 135.982 142.032  1.00  0.00     0.008 C 
ATOM     19  C   UNL     1     136.708 136.100 139.474  1.00  0.00     0.012 C 
ATOM     20  C   UNL     1     137.901 138.742 140.904  1.00  0.00    -0.025 C 
ATOM     21  C   UNL     1     138.358 136.715 142.418  1.00  0.00     0.005 C 
ATOM     22  C   UNL     1     138.898 137.563 141.256  1.00  0.00     0.003 C 
ATOM     23  C   UNL     1     138.264 139.281 139.476  1.00  0.00     0.010 C 
ATOM     24  C   UNL     1     138.098 139.969 141.854  1.00  0.00     0.012 C 
ATOM     25  C   UNL     1     140.434 137.938 141.315  1.00  0.00    -0.006 C 
ATOM     26  C   UNL     1     139.712 138.987 139.012  1.00  0.00     0.033 C 
ATOM     27  C   UNL     1     140.781 138.940 140.138  1.00  0.00     0.120 C 
ATOM     28  C   UNL     1     141.275 136.645 141.094  1.00  0.00     0.014 C 
ATOM     29  C   UNL     1     140.869 138.482 142.706  1.00  0.00     0.014 C 
ENDROOT
BRANCH   1  30
ATOM     30  C   UNL     1     131.105 135.079 140.902  1.00  0.00     0.048 C 
ATOM     31  O   UNL     1     130.362 134.385 141.640  1.00  0.00    -0.550 OA
ATOM     32  O   UNL     1     131.394 134.611 139.614  1.00  0.00    -0.550 OA
ENDBRANCH   1  30
BRANCH  27  33
ATOM     33  O   UNL     1     141.068 140.234 140.619  1.00  0.00    -0.393 OA
ATOM     34  H   UNL     1     141.615 140.690 139.928  1.00  0.00     0.210 HD
ENDBRANCH  27  33
TORSDOF 2
ENDMDL
MODEL 4
REMARK VINA RESULT:    -8.427      1.883      3.718
REMARK INTER + INTRA:          -9.401
REMARK INTER:                  -9.182
REMARK INTRA:                  -0.219
REMARK UNBOUND:                -0.235
REMARK SMILES C[C@@H]1[C@H](C)CC[C@@]2(C(=O)[O-])CC[C@]3(C)C(=CC[C@H]4[C@]5(C)CC[C@@H](O)C(C)(C)[C@H]5CC[C@]43C)[C@@H]12
REMARK SMILES IDX 7 1 6 2 11 3 33 4 5 5 12 6 15 7 2 8 3 9 13 10 16 11 1 12
REMARK SMILES IDX 4 13 14 14 31 15 17 16 18 17 30 18 32 19 19 20 29 21 28 22
REMARK SMILES IDX 21 23 20 24 25 25 22 26 23 27 26 28 27 29 8 30 9 31 10 32
REMARK SMILES IDX 24 33
REMARK H PARENT 24 34
REMARK Flexibility Score: inf
ROOT
ATOM      1  C   UNL     1     131.980 135.291 141.967  1.00  0.00     0.017 C 
ATOM      2  C   UNL     1     130.766 134.834 141.110  1.00  0.00     0.014 C 
ATOM      3  C   UNL     1     133.287 134.661 141.355  1.00  0.00     0.014 C 
ATOM      4  C   UNL     1     132.090 136.876 142.022  1.00  0.00     0.030 C 
ATOM      5  C   UNL     1     130.604 135.661 139.845  1.00  0.00     0.004 C 
ATOM      6  C   UNL     1     134.619 135.188 141.959  1.00  0.00     0.013 C 
ATOM      7  C   UNL     1     133.468 137.328 141.510  1.00  0.00    -0.063 C 
ATOM      8  C   UNL     1     130.867 137.700 141.464  1.00  0.00    -0.003 C 
ATOM      9  C   UNL     1     130.197 137.113 140.162  1.00  0.00    -0.011 C 
ATOM     10  C   UNL     1     134.677 136.747 142.243  1.00  0.00    -0.006 C 
ATOM     11  C   UNL     1     133.613 137.739 140.241  1.00  0.00    -0.027 C 
ATOM     12  C   UNL     1     129.874 137.989 142.617  1.00  0.00     0.008 C 
ATOM     13  C   UNL     1     128.663 137.261 140.117  1.00  0.00     0.008 C 
ATOM     14  C   UNL     1     134.504 136.957 143.782  1.00  0.00     0.017 C 
ATOM     15  C   UNL     1     136.062 137.445 141.791  1.00  0.00    -0.020 C 
ATOM     16  C   UNL     1     134.914 138.133 139.624  1.00  0.00     0.032 C 
ATOM     17  C   UNL     1     136.211 137.497 140.216  1.00  0.00     0.006 C 
ATOM     18  C   UNL     1     136.083 138.939 142.325  1.00  0.00     0.008 C 
ATOM     19  C   UNL     1     137.240 136.632 142.454  1.00  0.00     0.012 C 
ATOM     20  C   UNL     1     137.550 138.263 139.680  1.00  0.00    -0.025 C 
ATOM     21  C   UNL     1     136.980 139.931 141.551  1.00  0.00     0.005 C 
ATOM     22  C   UNL     1     138.120 139.211 140.814  1.00  0.00     0.003 C 
ATOM     23  C   UNL     1     138.679 137.249 139.277  1.00  0.00     0.010 C 
ATOM     24  C   UNL     1     137.240 139.054 138.367  1.00  0.00     0.012 C 
ATOM     25  C   UNL     1     139.373 140.093 140.425  1.00  0.00    -0.006 C 
ATOM     26  C   UNL     1     140.121 137.707 139.605  1.00  0.00     0.033 C 
ATOM     27  C   UNL     1     140.369 139.239 139.538  1.00  0.00     0.120 C 
ATOM     28  C   UNL     1     140.129 140.492 141.729  1.00  0.00     0.014 C 
ATOM     29  C   UNL     1     138.979 141.438 139.749  1.00  0.00     0.014 C 
ENDROOT
BRANCH   1  30
ATOM     30  C   UNL     1     131.759 134.733 143.368  1.00  0.00     0.048 C 
ATOM     31  O   UNL     1     131.874 133.503 143.590  1.00  0.00    -0.550 OA
ATOM     32  O   UNL     1     131.499 135.587 144.448  1.00  0.00    -0.550 OA
ENDBRANCH   1  30
BRANCH  27  33
ATOM     33  O   UNL     1     140.399 139.691 138.202  1.00  0.00    -0.393 OA
ATOM     34  H   UNL     1     141.053 140.437 138.159  1.00  0.00     0.210 HD
ENDBRANCH  27  33
TORSDOF 2
ENDMDL
MODEL 5
REMARK VINA RESULT:    -8.367      1.467      8.035
REMARK INTER + INTRA:          -9.335
REMARK INTER:                  -9.372
REMARK INTRA:                   0.037
REMARK UNBOUND:                -0.235
REMARK SMILES C[C@@H]1[C@H](C)CC[C@@]2(C(=O)[O-])CC[C@]3(C)C(=CC[C@H]4[C@]5(C)CC[C@@H](O)C(C)(C)[C@H]5CC[C@]43C)[C@@H]12
REMARK SMILES IDX 7 1 6 2 11 3 33 4 5 5 12 6 15 7 2 8 3 9 13 10 16 11 1 12
REMARK SMILES IDX 4 13 14 14 31 15 17 16 18 17 30 18 32 19 19 20 29 21 28 22
REMARK SMILES IDX 21 23 20 24 25 25 22 26 23 27 26 28 27 29 8 30 9 31 10 32
REMARK SMILES IDX 24 33
REMARK H PARENT 24 34
REMARK Flexibility Score: inf
ROOT
ATOM      1  C   UNL     1     139.137 139.771 140.028  1.00  0.00     0.017 C 
ATOM      2  C   UNL     1     140.326 139.398 139.099  1.00  0.00     0.014 C 
ATOM      3  C   UNL     1     137.807 139.702 139.187  1.00  0.00     0.014 C 
ATOM      4  C   UNL     1     139.058 138.807 141.289  1.00  0.00     0.030 C 
ATOM      5  C   UNL     1     140.481 137.894 138.930  1.00  0.00     0.004 C 
ATOM      6  C   UNL     1     136.497 139.836 140.013  1.00  0.00     0.013 C 
ATOM      7  C   UNL     1     137.680 138.127 141.350  1.00  0.00    -0.063 C 
ATOM      8  C   UNL     1     140.286 137.850 141.539  1.00  0.00    -0.003 C 
ATOM      9  C   UNL     1     140.921 137.216 140.242  1.00  0.00    -0.011 C 
ATOM     10  C   UNL     1     136.474 139.065 141.399  1.00  0.00    -0.006 C 
ATOM     11  C   UNL     1     137.519 136.887 140.865  1.00  0.00    -0.027 C 
ATOM     12  C   UNL     1     141.305 138.555 142.468  1.00  0.00     0.008 C 
ATOM     13  C   UNL     1     142.456 137.084 140.287  1.00  0.00     0.008 C 
ATOM     14  C   UNL     1     136.679 140.120 142.534  1.00  0.00     0.017 C 
ATOM     15  C   UNL     1     135.094 138.276 141.687  1.00  0.00    -0.020 C 
ATOM     16  C   UNL     1     136.215 136.162 140.812  1.00  0.00     0.032 C 
ATOM     17  C   UNL     1     134.917 137.026 140.731  1.00  0.00     0.006 C 
ATOM     18  C   UNL     1     135.111 137.739 143.180  1.00  0.00     0.008 C 
ATOM     19  C   UNL     1     133.913 139.306 141.511  1.00  0.00     0.012 C 
ATOM     20  C   UNL     1     133.583 136.128 141.017  1.00  0.00    -0.025 C 
ATOM     21  C   UNL     1     134.219 136.513 143.478  1.00  0.00     0.005 C 
ATOM     22  C   UNL     1     133.053 136.403 142.484  1.00  0.00     0.003 C 
ATOM     23  C   UNL     1     132.428 136.464 140.009  1.00  0.00     0.010 C 
ATOM     24  C   UNL     1     133.884 134.612 140.787  1.00  0.00     0.012 C 
ATOM     25  C   UNL     1     131.809 135.546 142.952  1.00  0.00    -0.006 C 
ATOM     26  C   UNL     1     131.001 136.429 140.609  1.00  0.00     0.033 C 
ATOM     27  C   UNL     1     130.781 135.404 141.756  1.00  0.00     0.120 C 
ATOM     28  C   UNL     1     131.085 136.300 144.108  1.00  0.00     0.014 C 
ATOM     29  C   UNL     1     132.217 134.169 143.551  1.00  0.00     0.014 C 
ENDROOT
BRANCH   1  30
ATOM     30  C   UNL     1     139.373 141.208 140.481  1.00  0.00     0.048 C 
ATOM     31  O   UNL     1     140.477 141.549 140.971  1.00  0.00    -0.550 OA
ATOM     32  O   UNL     1     138.393 142.190 140.289  1.00  0.00    -0.550 OA
ENDBRANCH   1  30
BRANCH  27  33
ATOM     33  O   UNL     1     130.735 134.086 141.257  1.00  0.00    -0.393 OA
ATOM     34  H   UNL     1     129.873 133.984 140.776  1.00  0.00     0.210 HD
ENDBRANCH  27  33
TORSDOF 2
ENDMDL
MODEL 6
REMARK VINA RESULT:    -8.312      2.944      5.606
REMARK INTER + INTRA:          -9.276
REMARK INTER:                  -9.097
REMARK INTRA:                  -0.178
REMARK UNBOUND:                -0.235
REMARK SMILES C[C@@H]1[C@H](C)CC[C@@]2(C(=O)[O-])CC[C@]3(C)C(=CC[C@H]4[C@]5(C)CC[C@@H](O)C(C)(C)[C@H]5CC[C@]43C)[C@@H]12
REMARK SMILES IDX 7 1 6 2 11 3 33 4 5 5 12 6 15 7 2 8 3 9 13 10 16 11 1 12
REMARK SMILES IDX 4 13 14 14 31 15 17 16 18 17 30 18 32 19 19 20 29 21 28 22
REMARK SMILES IDX 21 23 20 24 25 25 22 26 23 27 26 28 27 29 8 30 9 31 10 32
REMARK SMILES IDX 24 33
REMARK H PARENT 24 34
REMARK Flexibility Score: inf
ROOT
ATOM      1  C   UNL     1     135.813 136.845 141.675  1.00  0.00     0.017 C 
ATOM      2  C   UNL     1     134.840 135.893 140.924  1.00  0.00     0.014 C 
ATOM      3  C   UNL     1     137.038 135.999 142.190  1.00  0.00     0.014 C 
ATOM      4  C   UNL     1     136.301 138.034 140.739  1.00  0.00     0.030 C 
ATOM      5  C   UNL     1     135.284 135.617 139.495  1.00  0.00     0.004 C 
ATOM      6  C   UNL     1     138.214 136.831 142.775  1.00  0.00     0.013 C 
ATOM      7  C   UNL     1     137.837 138.044 140.656  1.00  0.00    -0.063 C 
ATOM      8  C   UNL     1     135.556 138.216 139.362  1.00  0.00    -0.003 C 
ATOM      9  C   UNL     1     135.184 136.878 138.615  1.00  0.00    -0.011 C 
ATOM     10  C   UNL     1     138.578 138.159 141.987  1.00  0.00    -0.006 C 
ATOM     11  C   UNL     1     138.457 137.472 139.614  1.00  0.00    -0.027 C 
ATOM     12  C   UNL     1     134.369 139.195 139.546  1.00  0.00     0.008 C 
ATOM     13  C   UNL     1     133.826 136.915 137.886  1.00  0.00     0.008 C 
ATOM     14  C   UNL     1     138.008 139.366 142.801  1.00  0.00     0.017 C 
ATOM     15  C   UNL     1     140.165 138.388 141.789  1.00  0.00    -0.020 C 
ATOM     16  C   UNL     1     139.940 137.367 139.466  1.00  0.00     0.032 C 
ATOM     17  C   UNL     1     140.790 137.346 140.775  1.00  0.00     0.006 C 
ATOM     18  C   UNL     1     140.403 139.840 141.193  1.00  0.00     0.008 C 
ATOM     19  C   UNL     1     140.840 138.285 143.211  1.00  0.00     0.012 C 
ATOM     20  C   UNL     1     142.378 137.566 140.459  1.00  0.00    -0.025 C 
ATOM     21  C   UNL     1     141.714 140.049 140.401  1.00  0.00     0.005 C 
ATOM     22  C   UNL     1     142.800 139.048 140.825  1.00  0.00     0.003 C 
ATOM     23  C   UNL     1     143.278 136.582 141.287  1.00  0.00     0.010 C 
ATOM     24  C   UNL     1     142.691 137.228 138.965  1.00  0.00     0.012 C 
ATOM     25  C   UNL     1     144.293 139.452 140.498  1.00  0.00    -0.006 C 
ATOM     26  C   UNL     1     144.621 137.177 141.779  1.00  0.00     0.033 C 
ATOM     27  C   UNL     1     145.259 138.248 140.852  1.00  0.00     0.120 C 
ATOM     28  C   UNL     1     144.696 140.658 141.401  1.00  0.00     0.014 C 
ATOM     29  C   UNL     1     144.477 139.952 139.036  1.00  0.00     0.014 C 
ENDROOT
BRANCH   1  30
ATOM     30  C   UNL     1     135.045 137.399 142.869  1.00  0.00     0.048 C 
ATOM     31  O   UNL     1     134.869 138.636 142.997  1.00  0.00    -0.550 OA
ATOM     32  O   UNL     1     134.455 136.538 143.804  1.00  0.00    -0.550 OA
ENDBRANCH   1  30
BRANCH  27  33
ATOM     33  O   UNL     1     145.805 137.656 139.694  1.00  0.00    -0.393 OA
ATOM     34  H   UNL     1     146.442 136.957 139.993  1.00  0.00     0.210 HD
ENDBRANCH  27  33
TORSDOF 2
ENDMDL
MODEL 7
REMARK VINA RESULT:    -8.188      1.579      8.292
REMARK INTER + INTRA:          -9.140
REMARK INTER:                  -8.910
REMARK INTRA:                  -0.230
REMARK UNBOUND:                -0.235
REMARK SMILES C[C@@H]1[C@H](C)CC[C@@]2(C(=O)[O-])CC[C@]3(C)C(=CC[C@H]4[C@]5(C)CC[C@@H](O)C(C)(C)[C@H]5CC[C@]43C)[C@@H]12
REMARK SMILES IDX 7 1 6 2 11 3 33 4 5 5 12 6 15 7 2 8 3 9 13 10 16 11 1 12
REMARK SMILES IDX 4 13 14 14 31 15 17 16 18 17 30 18 32 19 19 20 29 21 28 22
REMARK SMILES IDX 21 23 20 24 25 25 22 26 23 27 26 28 27 29 8 30 9 31 10 32
REMARK SMILES IDX 24 33
REMARK H PARENT 24 34
REMARK Flexibility Score: inf
ROOT
ATOM      1  C   UNL     1     140.606 138.994 139.399  1.00  0.00     0.017 C 
ATOM      2  C   UNL     1     141.894 138.245 138.957  1.00  0.00     0.014 C 
ATOM      3  C   UNL     1     139.418 138.528 138.476  1.00  0.00     0.014 C 
ATOM      4  C   UNL     1     140.272 138.723 140.930  1.00  0.00     0.030 C 
ATOM      5  C   UNL     1     141.972 136.836 139.524  1.00  0.00     0.004 C 
ATOM      6  C   UNL     1     138.009 139.015 138.919  1.00  0.00     0.013 C 
ATOM      7  C   UNL     1     138.858 138.133 141.065  1.00  0.00    -0.063 C 
ATOM      8  C   UNL     1     141.380 138.004 141.789  1.00  0.00    -0.003 C 
ATOM      9  C   UNL     1     142.161 136.848 141.053  1.00  0.00    -0.011 C 
ATOM     10  C   UNL     1     137.724 138.974 140.478  1.00  0.00    -0.006 C 
ATOM     11  C   UNL     1     138.690 136.808 141.184  1.00  0.00    -0.027 C 
ATOM     12  C   UNL     1     142.292 139.071 142.447  1.00  0.00     0.008 C 
ATOM     13  C   UNL     1     143.659 136.769 141.408  1.00  0.00     0.008 C 
ATOM     14  C   UNL     1     137.825 140.437 141.019  1.00  0.00     0.017 C 
ATOM     15  C   UNL     1     136.267 138.393 140.863  1.00  0.00    -0.020 C 
ATOM     16  C   UNL     1     137.363 136.127 141.254  1.00  0.00     0.032 C 
ATOM     17  C   UNL     1     136.154 136.841 140.572  1.00  0.00     0.006 C 
ATOM     18  C   UNL     1     136.021 138.609 142.416  1.00  0.00     0.008 C 
ATOM     19  C   UNL     1     135.198 139.212 140.041  1.00  0.00     0.012 C 
ATOM     20  C   UNL     1     134.734 136.163 141.013  1.00  0.00    -0.025 C 
ATOM     21  C   UNL     1     135.013 137.651 143.090  1.00  0.00     0.005 C 
ATOM     22  C   UNL     1     134.007 137.081 142.079  1.00  0.00     0.003 C 
ATOM     23  C   UNL     1     133.771 135.980 139.787  1.00  0.00     0.010 C 
ATOM     24  C   UNL     1     134.964 134.716 141.557  1.00  0.00     0.012 C 
ATOM     25  C   UNL     1     132.652 136.524 142.675  1.00  0.00    -0.006 C 
ATOM     26  C   UNL     1     132.270 136.212 140.090  1.00  0.00     0.033 C 
ATOM     27  C   UNL     1     131.810 135.833 141.525  1.00  0.00     0.120 C 
ATOM     28  C   UNL     1     131.813 137.721 143.217  1.00  0.00     0.014 C 
ATOM     29  C   UNL     1     132.870 135.586 143.896  1.00  0.00     0.014 C 
ENDROOT
BRANCH   1  30
ATOM     30  C   UNL     1     140.867 140.479 139.175  1.00  0.00     0.048 C 
ATOM     31  O   UNL     1     141.155 141.229 140.139  1.00  0.00    -0.550 OA
ATOM     32  O   UNL     1     140.865 141.020 137.882  1.00  0.00    -0.550 OA
ENDBRANCH   1  30
BRANCH  27  33
ATOM     33  O   UNL     1     131.752 134.434 141.686  1.00  0.00    -0.393 OA
ATOM     34  H   UNL     1     132.486 134.044 141.143  1.00  0.00     0.210 HD
ENDBRANCH  27  33
TORSDOF 2
ENDMDL
MODEL 8
REMARK VINA RESULT:    -8.146      2.138      9.026
REMARK INTER + INTRA:          -9.095
REMARK INTER:                  -8.872
REMARK INTRA:                  -0.223
REMARK UNBOUND:                -0.235
REMARK SMILES C[C@@H]1[C@H](C)CC[C@@]2(C(=O)[O-])CC[C@]3(C)C(=CC[C@H]4[C@]5(C)CC[C@@H](O)C(C)(C)[C@H]5CC[C@]43C)[C@@H]12
REMARK SMILES IDX 7 1 6 2 11 3 33 4 5 5 12 6 15 7 2 8 3 9 13 10 16 11 1 12
REMARK SMILES IDX 4 13 14 14 31 15 17 16 18 17 30 18 32 19 19 20 29 21 28 22
REMARK SMILES IDX 21 23 20 24 25 25 22 26 23 27 26 28 27 29 8 30 9 31 10 32
REMARK SMILES IDX 24 33
REMARK H PARENT 24 34
REMARK Flexibility Score: inf
ROOT
ATOM      1  C   UNL     1     142.599 139.588 141.333  1.00  0.00     0.017 C 
ATOM      2  C   UNL     1     143.206 141.017 141.251  1.00  0.00     0.014 C 
ATOM      3  C   UNL     1     141.710 139.499 142.630  1.00  0.00     0.014 C 
ATOM      4  C   UNL     1     141.744 139.244 140.038  1.00  0.00     0.030 C 
ATOM      5  C   UNL     1     142.228 142.032 140.681  1.00  0.00     0.004 C 
ATOM      6  C   UNL     1     140.854 138.208 142.755  1.00  0.00     0.013 C 
ATOM      7  C   UNL     1     140.307 138.869 140.438  1.00  0.00    -0.063 C 
ATOM      8  C   UNL     1     141.861 140.234 138.817  1.00  0.00    -0.003 C 
ATOM      9  C   UNL     1     141.930 141.764 139.193  1.00  0.00    -0.011 C 
ATOM     10  C   UNL     1     140.168 137.704 141.417  1.00  0.00    -0.006 C 
ATOM     11  C   UNL     1     139.331 139.786 140.377  1.00  0.00    -0.027 C 
ATOM     12  C   UNL     1     142.995 139.757 137.876  1.00  0.00     0.008 C 
ATOM     13  C   UNL     1     142.874 142.595 138.301  1.00  0.00     0.008 C 
ATOM     14  C   UNL     1     140.989 136.481 140.893  1.00  0.00     0.017 C 
ATOM     15  C   UNL     1     138.632 137.238 141.603  1.00  0.00    -0.020 C 
ATOM     16  C   UNL     1     137.920 139.549 140.805  1.00  0.00     0.032 C 
ATOM     17  C   UNL     1     137.675 138.463 141.898  1.00  0.00     0.006 C 
ATOM     18  C   UNL     1     138.137 136.555 140.259  1.00  0.00     0.008 C 
ATOM     19  C   UNL     1     138.596 136.183 142.775  1.00  0.00     0.012 C 
ATOM     20  C   UNL     1     136.091 138.081 142.017  1.00  0.00    -0.025 C 
ATOM     21  C   UNL     1     136.613 136.572 140.003  1.00  0.00     0.005 C 
ATOM     22  C   UNL     1     135.818 136.690 141.312  1.00  0.00     0.003 C 
ATOM     23  C   UNL     1     135.630 137.971 143.514  1.00  0.00     0.010 C 
ATOM     24  C   UNL     1     135.207 139.219 141.412  1.00  0.00     0.012 C 
ATOM     25  C   UNL     1     134.311 136.213 141.264  1.00  0.00    -0.006 C 
ATOM     26  C   UNL     1     134.588 136.861 143.799  1.00  0.00     0.033 C 
ATOM     27  C   UNL     1     133.602 136.552 142.639  1.00  0.00     0.120 C 
ATOM     28  C   UNL     1     134.280 134.664 141.089  1.00  0.00     0.014 C 
ATOM     29  C   UNL     1     133.537 136.781 140.040  1.00  0.00     0.014 C 
ENDROOT
BRANCH   1  30
ATOM     30  C   UNL     1     143.772 138.623 141.458  1.00  0.00     0.048 C 
ATOM     31  O   UNL     1     144.043 137.823 140.529  1.00  0.00    -0.550 OA
ATOM     32  O   UNL     1     144.616 138.661 142.576  1.00  0.00    -0.550 OA
ENDBRANCH   1  30
BRANCH  27  33
ATOM     33  O   UNL     1     132.648 137.580 142.497  1.00  0.00    -0.393 OA
ATOM     34  H   UNL     1     131.765 137.146 142.369  1.00  0.00     0.210 HD
ENDBRANCH  27  33
TORSDOF 2
ENDMDL
MODEL 9
REMARK VINA RESULT:    -8.081      1.905      4.040
REMARK INTER + INTRA:          -9.024
REMARK INTER:                  -8.789
REMARK INTRA:                  -0.235
REMARK UNBOUND:                -0.235
REMARK SMILES C[C@@H]1[C@H](C)CC[C@@]2(C(=O)[O-])CC[C@]3(C)C(=CC[C@H]4[C@]5(C)CC[C@@H](O)C(C)(C)[C@H]5CC[C@]43C)[C@@H]12
REMARK SMILES IDX 7 1 6 2 11 3 33 4 5 5 12 6 15 7 2 8 3 9 13 10 16 11 1 12
REMARK SMILES IDX 4 13 14 14 31 15 17 16 18 17 30 18 32 19 19 20 29 21 28 22
REMARK SMILES IDX 21 23 20 24 25 25 22 26 23 27 26 28 27 29 8 30 9 31 10 32
REMARK SMILES IDX 24 33
REMARK H PARENT 24 34
REMARK Flexibility Score: inf
ROOT
ATOM      1  C   UNL     1     133.588 136.071 142.070  1.00  0.00     0.017 C 
ATOM      2  C   UNL     1     132.761 134.865 141.542  1.00  0.00     0.014 C 
ATOM      3  C   UNL     1     135.038 135.565 142.420  1.00  0.00     0.014 C 
ATOM      4  C   UNL     1     133.643 137.249 141.004  1.00  0.00     0.030 C 
ATOM      5  C   UNL     1     133.040 134.566 140.077  1.00  0.00     0.004 C 
ATOM      6  C   UNL     1     136.063 136.684 142.758  1.00  0.00     0.013 C 
ATOM      7  C   UNL     1     135.106 137.589 140.668  1.00  0.00    -0.063 C 
ATOM      8  C   UNL     1     132.681 137.139 139.762  1.00  0.00    -0.003 C 
ATOM      9  C   UNL     1     132.521 135.690 139.159  1.00  0.00    -0.011 C 
ATOM     10  C   UNL     1     135.989 137.982 141.851  1.00  0.00    -0.006 C 
ATOM     11  C   UNL     1     135.680 137.077 139.570  1.00  0.00    -0.027 C 
ATOM     12  C   UNL     1     131.341 137.845 140.086  1.00  0.00     0.008 C 
ATOM     13  C   UNL     1     131.099 135.363 138.663  1.00  0.00     0.008 C 
ATOM     14  C   UNL     1     135.283 139.103 142.681  1.00  0.00     0.017 C 
ATOM     15  C   UNL     1     137.433 138.537 141.381  1.00  0.00    -0.020 C 
ATOM     16  C   UNL     1     137.108 137.286 139.186  1.00  0.00     0.032 C 
ATOM     17  C   UNL     1     138.125 137.570 140.336  1.00  0.00     0.006 C 
ATOM     18  C   UNL     1     137.238 139.945 140.677  1.00  0.00     0.008 C 
ATOM     19  C   UNL     1     138.317 138.712 142.676  1.00  0.00     0.012 C 
ATOM     20  C   UNL     1     139.553 138.105 139.751  1.00  0.00    -0.025 C 
ATOM     21  C   UNL     1     138.332 140.365 139.670  1.00  0.00     0.005 C 
ATOM     22  C   UNL     1     139.670 139.670 139.962  1.00  0.00     0.003 C 
ATOM     23  C   UNL     1     140.769 137.421 140.471  1.00  0.00     0.010 C 
ATOM     24  C   UNL     1     139.710 137.711 138.246  1.00  0.00     0.012 C 
ATOM     25  C   UNL     1     140.965 140.362 139.372  1.00  0.00    -0.006 C 
ATOM     26  C   UNL     1     141.996 138.338 140.701  1.00  0.00     0.033 C 
ATOM     27  C   UNL     1     142.224 139.435 139.625  1.00  0.00     0.120 C 
ATOM     28  C   UNL     1     141.207 141.702 140.130  1.00  0.00     0.014 C 
ATOM     29  C   UNL     1     140.809 140.756 137.875  1.00  0.00     0.014 C 
ENDROOT
BRANCH   1  30
ATOM     30  C   UNL     1     132.899 136.547 143.343  1.00  0.00     0.048 C 
ATOM     31  O   UNL     1     132.258 137.627 143.356  1.00  0.00    -0.550 OA
ATOM     32  O   UNL     1     132.902 135.756 144.499  1.00  0.00    -0.550 OA
ENDBRANCH   1  30
BRANCH  27  33
ATOM     33  O   UNL     1     142.714 138.877 138.427  1.00  0.00    -0.393 OA
ATOM     34  H   UNL     1     142.466 137.916 138.428  1.00  0.00     0.210 HD
ENDBRANCH  27  33
TORSDOF 2
ENDMDL
